 
data_Er-1833_a
 
_audit_creation_method            'SHELXL-2019/3'
_shelx_SHELXL_version_number      '2019/3'
_chemical_name_systematic         ?
_chemical_name_common             ?
_chemical_melting_point           ?
_chemical_formula_moiety          ?
_chemical_formula_sum
 'C H N O Se Zn' 
_chemical_formula_weight          187.36

loop_
 _atom_type_symbol
 _atom_type_description
 _atom_type_scat_dispersion_real
 _atom_type_scat_dispersion_imag
 _atom_type_scat_source
 'C'  'C'   0.0033   0.0016
 'International Tables Vol C Tables 4.2.6.8 and 6.1.1.4'
 'H'  'H'   0.0000   0.0000
 'International Tables Vol C Tables 4.2.6.8 and 6.1.1.4'
 'N'  'N'   0.0061   0.0033
 'International Tables Vol C Tables 4.2.6.8 and 6.1.1.4'
 'O'  'O'   0.0106   0.0060
 'International Tables Vol C Tables 4.2.6.8 and 6.1.1.4'
 'Zn'  'Zn'   0.2839   1.4301
 'International Tables Vol C Tables 4.2.6.8 and 6.1.1.4'
 'Se'  'Se'  -0.0929   2.2259
 'International Tables Vol C Tables 4.2.6.8 and 6.1.1.4'
 
_space_group_crystal_system       monoclinic
_space_group_IT_number            11
_space_group_name_H-M_alt         'P 21/m'
_space_group_name_Hall            '-P 2yb'
 
_shelx_space_group_comment
;
The symmetry employed for this shelxl refinement is uniquely defined
by the following loop, which should always be used as a source of
symmetry information in preference to the above space-group names.
They are only intended as comments.
;
 
loop_
 _space_group_symop_operation_xyz
 'x, y, z'
 '-x, y+1/2, -z'
 '-x, -y, -z'
 'x, -y-1/2, z'
 
_cell_length_a                    17.549(3)
_cell_length_b                    9.1795(15)
_cell_length_c                    17.686(3)
_cell_angle_alpha                 90
_cell_angle_beta                  111.946(5)
_cell_angle_gamma                 90
_cell_volume                      2642.6(8)
_cell_formula_units_Z             24
_cell_measurement_temperature     150(2)
_cell_measurement_reflns_used     ?
_cell_measurement_theta_min       ?
_cell_measurement_theta_max       ?
 
_exptl_crystal_description        ?
_exptl_crystal_colour             ?
_exptl_crystal_density_meas       ?
_exptl_crystal_density_method     ?
_exptl_crystal_density_diffrn     2.826          
_exptl_crystal_F_000              2064
_exptl_transmission_factor_min    ?
_exptl_transmission_factor_max    ?
_exptl_crystal_size_max           ?
_exptl_crystal_size_mid           ?
_exptl_crystal_size_min           ?
_exptl_absorpt_coefficient_mu     13.654
_shelx_estimated_absorpt_T_min    ?
_shelx_estimated_absorpt_T_max    ?
_exptl_absorpt_correction_type    ?
_exptl_absorpt_correction_T_min   ?
_exptl_absorpt_correction_T_max   ?
_exptl_absorpt_process_details    ?
_exptl_absorpt_special_details    ?
_diffrn_ambient_temperature       150(2)
_diffrn_radiation_wavelength      0.71073
_diffrn_radiation_type            MoK\a
_diffrn_source                    ?
_diffrn_measurement_device_type   ?
_diffrn_measurement_method        ?
_diffrn_detector_area_resol_mean  ?
_diffrn_reflns_number             15254
_diffrn_reflns_av_unetI/netI      0.1446
_diffrn_reflns_av_R_equivalents   0.1232
_diffrn_reflns_limit_h_min        -21
_diffrn_reflns_limit_h_max        21
_diffrn_reflns_limit_k_min        -11
_diffrn_reflns_limit_k_max        9
_diffrn_reflns_limit_l_min        -21
_diffrn_reflns_limit_l_max        19
_diffrn_reflns_theta_min          2.066
_diffrn_reflns_theta_max          25.731
_diffrn_reflns_theta_full         25.242
_diffrn_measured_fraction_theta_max   0.995
_diffrn_measured_fraction_theta_full  0.998
_diffrn_reflns_Laue_measured_fraction_max    0.995
_diffrn_reflns_Laue_measured_fraction_full   0.998
_diffrn_reflns_point_group_measured_fraction_max   0.995
_diffrn_reflns_point_group_measured_fraction_full  0.998
_reflns_number_total              5350
_reflns_number_gt                 2387
_reflns_threshold_expression      'I > 2\s(I)'
_reflns_Friedel_coverage          0.000
_reflns_Friedel_fraction_max      .
_reflns_Friedel_fraction_full     .
 
_reflns_special_details
;
 Reflections were merged by SHELXL according to the crystal
 class for the calculation of statistics and refinement.
 
 _reflns_Friedel_fraction is defined as the number of unique
 Friedel pairs measured divided by the number that would be
 possible theoretically, ignoring centric projections and
 systematic absences.
;
 
_computing_data_collection        ?
_computing_cell_refinement        ?
_computing_data_reduction         ?
_computing_structure_solution     'SHELXT 2018/2 (Sheldrick, 2018)'
_computing_structure_refinement 'SHELXL-2019/2 (Sheldrick, 2019)'
_computing_molecular_graphics     ?
_computing_publication_material   ?
_refine_special_details           ?
_refine_ls_structure_factor_coef  Fsqd
_refine_ls_matrix_type            full
_refine_ls_weighting_scheme       calc
_refine_ls_weighting_details
'w=1/[\s^2^(Fo^2^)+(0.1000P)^2^] where P=(Fo^2^+2Fc^2^)/3'
_atom_sites_solution_primary      ?
_atom_sites_solution_secondary    ?
_atom_sites_solution_hydrogens    .
_refine_ls_hydrogen_treatment     undef
_refine_ls_extinction_method      none
_refine_ls_extinction_coef        .
_refine_ls_number_reflns          5350
_refine_ls_number_parameters      304
_refine_ls_number_restraints      0
_refine_ls_R_factor_all           0.3029
_refine_ls_R_factor_gt            0.1866
_refine_ls_wR_factor_ref          0.4576
_refine_ls_wR_factor_gt           0.4140
_refine_ls_goodness_of_fit_ref    2.065
_refine_ls_restrained_S_all       2.065
_refine_ls_shift/su_max           1.212
_refine_ls_shift/su_mean          0.012
 
loop_
 _atom_site_label
 _atom_site_type_symbol
 _atom_site_fract_x
 _atom_site_fract_y
 _atom_site_fract_z
 _atom_site_U_iso_or_equiv
 _atom_site_adp_type
 _atom_site_occupancy
 _atom_site_site_symmetry_order  
 _atom_site_calc_flag
 _atom_site_refinement_flags_posn
 _atom_site_refinement_flags_adp
 _atom_site_refinement_flags_occupancy
 _atom_site_disorder_assembly
 _atom_site_disorder_group
Se1 Se 0.5947(5) 0.864(2) -0.0610(6) 0.173(9) Uani 0.25 1 d . . P . .
Zn1 Zn 1.04496(14) 0.750000 0.81703(17) 0.0376(9) Uani 1 2 d S T P . .
Zn2 Zn 1.06192(15) 0.750000 0.31990(17) 0.0393(9) Uani 1 2 d S T P . .
N4 N 1.0691(7) 0.9274(13) 0.8899(8) 0.041(4) Uani 1 1 d . . . . .
N505 N 0.356(9) 0.750000 0.560(9) 0.16(6) Uiso 0.25 2 d S . P . .
N501 N 0.508(4) 0.750000 0.541(4) 0.030(16) Uiso 0.25 2 d S . P . .
C1 C 0.333(3) 0.750000 0.267(3) 0.048(13) Uiso 0.5 2 d S . P . .
O006 O 0.1019(10) 0.750000 0.7417(10) 0.054(5) Uiso 1 2 d S . P . .
O007 O 0.9478(10) 0.750000 0.2434(10) 0.059(5) Uiso 1 2 d S . P . .
O008 O 0.9313(9) 0.750000 0.7423(10) 0.049(4) Uiso 1 2 d S . P . .
O009 O 0.1168(10) 0.750000 0.2412(10) 0.056(5) Uiso 1 2 d S . P . .
O00B O 0.8992(10) 0.750000 0.8515(11) 0.064(5) Uiso 1 2 d S . P . .
O00C O 0.2242(10) 0.750000 0.3611(11) 0.059(5) Uiso 1 2 d S . P . .
O00J O 0.2070(11) 0.750000 0.8570(12) 0.072(6) Uiso 1 2 d S . P . .
N2 N 1.0831(8) 0.9253(15) 0.3921(9) 0.048(4) Uani 1 1 d . . . . .
C00P C 0.1793(15) 0.750000 0.7828(17) 0.054(7) Uiso 1 2 d S . P . .
O00S O 0.9175(13) 0.750000 0.3527(14) 0.091(7) Uiso 1 2 d S . P . .
C00U C 1.1469(12) 0.9475(18) 0.4674(13) 0.066(6) Uani 1 1 d . . . . .
C00V C 0.8736(15) 0.750000 0.7760(17) 0.056(7) Uiso 1 2 d S . P . .
C00W C 0.819(2) 0.750000 0.235(2) 0.110(13) Uiso 1 2 d S . P . .
C00X C 0.1997(19) 0.750000 0.288(2) 0.082(10) Uiso 1 2 d S . P . .
C00Y C 0.756(3) 0.750000 0.275(3) 0.133(15) Uiso 1 2 d S . P A .
C00Z C 0.233(2) 0.750000 0.737(2) 0.100(11) Uiso 1 2 d S . P B .
C2 C 1.0291(10) 1.0309(18) 0.3865(11) 0.044(4) Uani 1 1 d . . . . .
C3 C 0.217(3) 0.820(6) 0.662(3) 0.030(13) Uiso 0.25 1 d . . P . .
C011 C 0.246(3) 0.750000 0.230(3) 0.132(15) Uiso 1 2 d S . P A .
C12 C 0.482(4) 0.750000 0.765(5) 0.10(2) Uiso 0.5 2 d S . P B .
C14 C 0.8975(14) 0.750000 0.2818(16) 0.044(6) Uiso 1 2 d S . P . .
C15 C 0.507(4) 0.750000 0.629(5) 0.021(17) Uiso 0.25 2 d S . P B .
C16 C 0.575(5) 0.750000 0.772(6) 0.05(2) Uiso 0.25 2 d S . P B .
C17 C 0.587(5) 0.750000 0.700(5) 0.03(2) Uiso 0.25 2 d S . P . .
C18 C 0.316(2) 0.690(4) 0.761(2) 0.067(12) Uiso 0.5 1 d . . P . .
N1 N 1.0573(9) 1.1174(15) 0.4506(10) 0.053(4) Uani 1 1 d . . . . .
N3 N 1.0433(7) 1.1190(15) 0.9472(9) 0.045(4) Uani 1 1 d . . . . .
C4 C 1.1299(13) 1.066(2) 0.5048(14) 0.085(8) Uani 1 1 d . . . . .
C5 C 1.0128(15) 1.250000 0.4628(16) 0.052(7) Uani 1 2 d S T P . .
C6 C 1.0008(14) 1.250000 0.9637(18) 0.058(8) Uani 1 2 d S T P . .
C7 C 0.417(5) 0.750000 0.703(5) 0.029(19) Uiso 0.25 2 d S . P . .
C8 C 1.1172(11) 1.065(2) 1.0016(12) 0.060(6) Uani 1 1 d . . . . .
C9 C 1.0152(10) 1.0343(17) 0.8829(11) 0.041(4) Uani 1 1 d . . . . .
C10 C 1.1346(11) 0.949(2) 0.9613(12) 0.057(5) Uani 1 1 d . . . . .
C11 C 0.435(9) 0.750000 0.629(10) 0.11(5) Uiso 0.25 2 d S . P B .
C202 C 0.507(3) 0.816(6) 0.283(4) 0.039(15) Uiso 0.25 1 d . . P A -1
N5 N 0.685(2) 0.830(4) 0.208(2) 0.103(13) Uiso 0.5 1 d . . P A -1
N6 N 0.697(3) 0.858(5) 0.132(3) 0.032(12) Uiso 0.25 1 d . . P A -1
C306 C 0.438(3) 0.806(6) 0.215(4) 0.042(16) Uiso 0.25 1 d . . P A -1
C309 C 0.453(4) 0.832(7) 0.146(4) 0.050(18) Uiso 0.25 1 d . . P A -1
C301 C 0.603(3) 0.818(5) 0.212(3) 0.017(11) Uiso 0.25 1 d . . P A -1
C114 C 0.769(4) 0.854(7) 0.147(4) 0.042(16) Uiso 0.25 1 d . . P A -1
Se2 Se 0.6061(2) 0.8413(16) 0.4330(3) 0.258(13) Uani 0.5 1 d . . P A -1
C304 C 0.592(3) 0.852(5) 0.285(3) 0.020(11) Uiso 0.25 1 d . . P A -1
N106 N 0.504(4) 0.875(7) 0.351(4) 0.070(19) Uiso 0.25 1 d . . P A -1
C125 C 0.231(4) 0.881(8) 0.172(4) 0.052(19) Uiso 0.25 1 d . . P A -1
N201 N 0.657(3) 0.854(6) 0.360(3) 0.049(15) Uiso 0.25 1 d . . P A -1
C305 C 0.532(3) 0.816(5) 0.137(3) 0.024(12) Uiso 0.25 1 d . . P A -1
N7 N 0.359(3) 0.844(5) 0.214(3) 0.034(12) Uiso 0.25 1 d . . P A -1
N8 N 0.298(3) 0.886(5) 0.149(3) 0.032(12) Uiso 0.25 1 d . . P A -1
N502 N 0.329(6) 0.828(10) 0.680(6) 0.14(4) Uiso 0.25 1 d . . P B -2
N6 N 0.278(3) 0.893(6) 0.640(3) 0.038(13) Uiso 0.25 1 d . . P B -2
Se2 Se 0.4004(5) 0.8034(9) 0.4655(6) 0.083(3) Uiso 0.25 1 d . . P C -2
C402 C 0.662(2) 0.822(5) 0.692(3) 0.011(10) Uiso 0.25 1 d . . P C -2
C401 C 0.754(3) 0.827(6) 0.649(3) 0.025(12) Uiso 0.25 1 d . . P C -2
C403 C 0.679(3) 0.911(6) 0.636(3) 0.021(12) Uiso 0.25 1 d . . P C -2
C404 C 0.7920(19) 0.794(4) 0.730(2) -0.001(8) Uiso 0.25 1 d . . P C -2
C405 C 0.7297(19) 0.790(4) 0.754(2) -0.001(8) Uiso 0.25 1 d . . P C -2
 
loop_
 _atom_site_aniso_label
 _atom_site_aniso_U_11
 _atom_site_aniso_U_22
 _atom_site_aniso_U_33
 _atom_site_aniso_U_23
 _atom_site_aniso_U_13
 _atom_site_aniso_U_12
Se1 0.040(4) 0.43(3) 0.052(6) 0.029(9) 0.023(4) -0.017(8)
Zn1 0.0320(14) 0.0410(18) 0.050(2) 0.000 0.0277(14) 0.000
Zn2 0.0373(15) 0.0349(17) 0.055(2) 0.000 0.0280(14) 0.000
N4 0.047(8) 0.023(8) 0.064(10) -0.001(7) 0.034(8) -0.008(6)
N2 0.053(8) 0.042(9) 0.054(10) -0.017(8) 0.025(8) -0.006(7)
C00U 0.069(13) 0.020(10) 0.099(18) 0.001(11) 0.021(13) 0.005(9)
C2 0.066(11) 0.030(11) 0.049(12) 0.006(9) 0.037(10) -0.006(9)
N1 0.062(10) 0.038(10) 0.073(12) -0.009(9) 0.040(9) 0.000(8)
N3 0.038(7) 0.048(10) 0.057(10) 0.001(9) 0.029(7) 0.005(7)
C4 0.083(15) 0.044(14) 0.102(19) -0.039(13) 0.004(14) -0.001(12)
C5 0.066(16) 0.035(16) 0.08(2) 0.000 0.058(16) 0.000
C6 0.040(14) 0.044(17) 0.09(2) 0.000 0.026(14) 0.000
C8 0.056(12) 0.046(12) 0.066(14) 0.019(11) 0.010(10) 0.004(9)
C9 0.055(10) 0.025(10) 0.062(13) -0.002(9) 0.044(10) -0.004(8)
C10 0.049(11) 0.055(13) 0.061(14) -0.021(11) 0.014(10) 0.002(9)
Se2 0.0295(19) 0.69(4) 0.061(3) 0.017(7) 0.024(2) -0.015(6)
 
_geom_special_details
;
 All esds (except the esd in the dihedral angle between two l.s. planes)
 are estimated using the full covariance matrix.  The cell esds are taken
 into account individually in the estimation of esds in distances, angles
 and torsion angles; correlations between esds in cell parameters are only
 used when they are defined by crystal symmetry.  An approximate (isotropic)
 treatment of cell esds is used for estimating esds involving l.s. planes.
;
 
loop_
 _geom_bond_atom_site_label_1
 _geom_bond_atom_site_label_2
 _geom_bond_distance
 _geom_bond_site_symmetry_2
 _geom_bond_publ_flag
Se1 Se1 2.09(4) 4_575 ?
Zn1 O006 1.941(17) 1_655 ?
Zn1 O008 1.938(15) . ?
Zn1 N4 2.022(13) 4_575 ?
Zn1 N4 2.022(13) . ?
Zn2 O007 1.953(16) . ?
Zn2 O009 1.967(17) 1_655 ?
Zn2 N2 2.000(13) 4_575 ?
Zn2 N2 2.001(13) . ?
N4 C9 1.335(19) . ?
N4 C10 1.37(2) . ?
N505 C11 1.46(18) . ?
N505 Se2 2.14(15) . ?
N501 C15 1.56(10) . ?
N501 Se2 1.93(6) . ?
C1 C011 1.42(5) . ?
C1 N7 1.47(6) . ?
O006 C00P 1.28(3) . ?
O007 C14 1.30(3) . ?
O008 C00V 1.35(3) . ?
O009 C00X 1.38(3) . ?
O00B C00V 1.24(3) . ?
O00C C00X 1.20(3) . ?
O00J C00P 1.22(3) . ?
N2 C2 1.33(2) . ?
N2 C00U 1.40(2) . ?
C00P C00Z 1.45(4) . ?
O00S C14 1.17(3) . ?
C00U C4 1.36(3) . ?
C00V C404 1.41(4) . ?
C00W C14 1.32(4) . ?
C00W C00Y 1.51(5) . ?
C00W C114 1.76(6) . ?
C00X C011 1.53(5) . ?
C00Y N5 1.54(4) . ?
C00Z C3 1.41(6) . ?
C00Z C3 1.41(6) 4_575 ?
C00Z C18 1.48(4) 4_575 ?
C00Z C18 1.48(4) . ?
C2 N1 1.32(2) . ?
C3 C3 1.28(11) 4_575 ?
C3 N6 1.43(7) . ?
C3 N502 1.87(10) . ?
C3 C18 1.96(6) 4_575 ?
C011 C125 1.54(7) . ?
C12 C7 1.25(9) . ?
C12 C16 1.59(11) . ?
C15 C11 1.27(15) . ?
C15 C17 1.48(10) . ?
C16 C17 1.37(12) . ?
C17 C402 1.52(8) . ?
C18 C18 1.11(7) 4_575 ?
N1 C4 1.36(2) . ?
N1 C5 1.504(18) . ?
N3 C9 1.31(2) . ?
N3 C8 1.39(2) . ?
N3 C6 1.500(19) . ?
C7 C11 1.44(17) . ?
C7 N502 1.61(11) . ?
C8 C10 1.38(2) . ?
C202 C306 1.34(7) . ?
C202 N106 1.34(8) . ?
C202 C304 1.51(7) . ?
N5 N6 1.46(5) . ?
N5 C301 1.46(5) . ?
N6 C114 1.19(7) . ?
C306 C309 1.36(9) . ?
C306 N7 1.43(7) . ?
C309 C305 1.47(8) . ?
C301 C304 1.42(7) . ?
C301 C305 1.44(6) . ?
Se2 N201 1.83(5) . ?
Se2 N106 1.86(6) . ?
C304 N201 1.38(6) . ?
C125 N8 1.38(8) . ?
N7 N8 1.29(6) . ?
N502 N6 1.10(9) . ?
C402 C405 1.32(5) . ?
C402 C403 1.41(7) . ?
C401 C404 1.37(6) . ?
C401 C403 1.47(7) . ?
C404 C405 1.31(5) . ?
 
loop_
 _geom_angle_atom_site_label_1
 _geom_angle_atom_site_label_2
 _geom_angle_atom_site_label_3
 _geom_angle
 _geom_angle_site_symmetry_1
 _geom_angle_site_symmetry_3
 _geom_angle_publ_flag
O006 Zn1 O008 101.2(7) 1_655 . ?
O006 Zn1 N4 113.5(4) 1_655 4_575 ?
O008 Zn1 N4 110.6(4) . 4_575 ?
O006 Zn1 N4 113.5(4) 1_655 . ?
O008 Zn1 N4 110.6(4) . . ?
N4 Zn1 N4 107.4(8) 4_575 . ?
O007 Zn2 O009 99.0(7) . 1_655 ?
O007 Zn2 N2 109.9(5) . 4_575 ?
O009 Zn2 N2 115.4(4) 1_655 4_575 ?
O007 Zn2 N2 109.9(5) . . ?
O009 Zn2 N2 115.4(4) 1_655 . ?
N2 Zn2 N2 107.1(9) 4_575 . ?
C9 N4 C10 107.6(14) . . ?
C9 N4 Zn1 124.1(12) . . ?
C10 N4 Zn1 127.5(11) . . ?
C11 N505 Se2 99(10) . . ?
C15 N501 Se2 109(4) . . ?
C011 C1 N7 104(4) . . ?
C00P O006 Zn1 108.6(16) . 1_455 ?
C14 O007 Zn2 111.1(16) . . ?
C00V O008 Zn1 116.7(15) . . ?
C00X O009 Zn2 105.1(18) . 1_455 ?
C2 N2 C00U 105.0(14) . . ?
C2 N2 Zn2 125.5(13) . . ?
C00U N2 Zn2 128.1(12) . . ?
O00J C00P O006 122(2) . . ?
O00J C00P C00Z 121(3) . . ?
O006 C00P C00Z 117(3) . . ?
C4 C00U N2 109.7(17) . . ?
O00B C00V O008 116(2) . . ?
O00B C00V C404 120(3) . . ?
O008 C00V C404 121(3) . . ?
C14 C00W C00Y 119(4) . . ?
C14 C00W C114 128(3) . . ?
C00Y C00W C114 102(3) . . ?
O00C C00X O009 121(3) . . ?
O00C C00X C011 131(3) . . ?
O009 C00X C011 108(3) . . ?
C00W C00Y N5 100(3) . . ?
C3 C00Z C3 54(5) . 4_575 ?
C3 C00Z C00P 126(3) . . ?
C3 C00Z C00P 126(3) 4_575 . ?
C3 C00Z C18 86(3) . 4_575 ?
C3 C00Z C18 105(4) 4_575 4_575 ?
C00P C00Z C18 128(3) . 4_575 ?
C3 C00Z C18 105(4) . . ?
C3 C00Z C18 86(3) 4_575 . ?
C00P C00Z C18 128(3) . . ?
C18 C00Z C18 44(3) 4_575 . ?
N1 C2 N2 110.2(16) . . ?
C3 C3 C00Z 63(2) 4_575 . ?
C3 C3 N6 118(3) 4_575 . ?
C00Z C3 N6 125(4) . . ?
C3 C3 N502 92(3) 4_575 . ?
C00Z C3 N502 92(4) . . ?
N6 C3 N502 36(4) . . ?
C3 C3 C18 88(2) 4_575 4_575 ?
C00Z C3 C18 49(2) . 4_575 ?
C1 C011 C125 101(3) . . ?
C1 C011 C00X 116(4) . . ?
C125 C011 C00X 116(3) . . ?
C7 C12 C16 129(8) . . ?
O00S C14 O007 125(2) . . ?
O00S C14 C00W 120(3) . . ?
O007 C14 C00W 115(3) . . ?
C11 C15 C17 129(10) . . ?
C11 C15 N501 112(9) . . ?
C17 C15 N501 119(6) . . ?
C17 C16 C12 117(7) . . ?
C16 C17 C15 111(7) . . ?
C16 C17 C402 122(6) . . ?
C15 C17 C402 120(6) . . ?
C18 C18 C00Z 67.9(15) 4_575 . ?
C18 C18 C3 92(2) 4_575 4_575 ?
C00Z C18 C3 46(2) . 4_575 ?
C2 N1 C4 110.3(15) . . ?
C2 N1 C5 124.2(18) . . ?
C4 N1 C5 125.4(18) . . ?
C9 N3 C8 109.9(15) . . ?
C9 N3 C6 126.2(16) . . ?
C8 N3 C6 123.9(18) . . ?
C00U C4 N1 104.6(18) . . ?
N1 C5 N1 108.1(17) . 4_585 ?
N3 C6 N3 106.6(18) 4_585 . ?
C12 C7 C11 112(9) . . ?
C12 C7 N502 133(7) . . ?
C11 C7 N502 106(8) . . ?
C10 C8 N3 104.4(16) . . ?
N3 C9 N4 109.3(15) . . ?
N4 C10 C8 108.5(16) . . ?
C15 C11 N505 128(10) . . ?
C15 C11 C7 123(10) . . ?
N505 C11 C7 108(10) . . ?
C306 C202 N106 121(6) . . ?
C306 C202 C304 126(6) . . ?
N106 C202 C304 105(5) . . ?
N6 N5 C301 122(4) . . ?
N6 N5 C00Y 115(4) . . ?
C301 N5 C00Y 118(4) . . ?
C114 N6 N5 108(5) . . ?
C202 C306 C309 112(6) . . ?
C202 C306 N7 123(6) . . ?
C309 C306 N7 117(5) . . ?
C306 C309 C305 126(6) . . ?
C304 C301 C305 119(4) . . ?
C304 C301 N5 120(4) . . ?
C305 C301 N5 119(4) . . ?
N6 C114 C00W 110(5) . . ?
N201 Se2 N106 91(3) . . ?
N201 C304 C301 122(4) . . ?
N201 C304 C202 119(5) . . ?
C301 C304 C202 114(4) . . ?
C202 N106 Se2 107(5) . . ?
N8 C125 C011 105(5) . . ?
C304 N201 Se2 103(4) . . ?
C301 C305 C309 115(5) . . ?
N8 N7 C306 125(5) . . ?
N8 N7 C1 113(4) . . ?
C306 N7 C1 112(4) . . ?
N7 N8 C125 104(5) . . ?
N6 N502 C7 152(10) . . ?
N6 N502 C3 50(5) . . ?
C7 N502 C3 151(7) . . ?
N502 N6 C3 94(7) . . ?
N505 Se2 N501 87(4) . . ?
C405 C402 C403 110(4) . . ?
C405 C402 C17 112(5) . . ?
C403 C402 C17 138(5) . . ?
C404 C401 C403 109(4) . . ?
C402 C403 C401 90(4) . . ?
C405 C404 C401 102(3) . . ?
C405 C404 C00V 126(3) . . ?
C401 C404 C00V 131(3) . . ?
C404 C405 C402 109(4) . . ?
 
_refine_diff_density_max    3.056
_refine_diff_density_min   -1.533
_refine_diff_density_rms    0.259

_shelx_res_file
;
TITL Er-1833_a.res in P2(1)/m
    Er-1833_a.res
    created by SHELXL-2019/3 at 16:51:58 on 23-Oct-2023
REM Old TITL Er-1833 in P2(1)/m
REM SHELXT solution in P2(1)/m: R1 0.350, Rweak 0.047, Alpha 0.088
REM <I/s>   0.872 for    6 systematic absences,  Orientation as input
REM Formula found by SHELXT:  C33 N17 O26 Se2
CELL  0.71073  17.5488   9.1795  17.6861   90.000  111.946   90.000
ZERR   24.000   0.0028   0.0015   0.0031    0.000    0.005    0.000
LATT  1
SYMM -X, 1/2+Y, -Z
SFAC C H N O ZN SE
UNIT 24 24 24 24 24 24
ACTA
TEMP -123.150
L.S. 10
BOND
LIST 4
FMAP 2
PLAN 20
WGHT    0.100000
FVAR       0.32617
SE1   6    0.594693    0.863719   -0.060997    10.25000    0.04001    0.43235 =
         0.05172    0.02895    0.02263   -0.01667
ZN1   5    1.044957    0.750000    0.817027    10.50000    0.03203    0.04097 =
         0.05044    0.00000    0.02771    0.00000
ZN2   5    1.061920    0.750000    0.319896    10.50000    0.03735    0.03487 =
         0.05508    0.00000    0.02799    0.00000
N4    3    1.069057    0.927436    0.889936    11.00000    0.04705    0.02269 =
         0.06355   -0.00138    0.03396   -0.00766
N505  3    0.356491    0.750000    0.559591    10.12500    0.16162
N501  3    0.508053    0.750000    0.541332    10.12500    0.03037
C1    1    0.333372    0.750000    0.266856    10.25000    0.04833
O006  4    0.101911    0.750000    0.741715    10.50000    0.05439
O007  4    0.947822    0.750000    0.243403    10.50000    0.05896
O008  4    0.931275    0.750000    0.742309    10.50000    0.04892
O009  4    0.116822    0.750000    0.241169    10.50000    0.05635
O00B  4    0.899165    0.750000    0.851468    10.50000    0.06400
O00C  4    0.224205    0.750000    0.361061    10.50000    0.05879
O00J  4    0.207027    0.750000    0.857017    10.50000    0.07198
N2    3    1.083085    0.925286    0.392074    11.00000    0.05271    0.04178 =
         0.05447   -0.01678    0.02531   -0.00646
C00P  1    0.179290    0.750000    0.782829    10.50000    0.05353
O00S  4    0.917459    0.750000    0.352739    10.50000    0.09070
C00U  1    1.146900    0.947525    0.467368    11.00000    0.06883    0.02043 =
         0.09913    0.00054    0.02106    0.00485
C00V  1    0.873550    0.750000    0.776025    10.50000    0.05605
C00W  1    0.818978    0.750000    0.234816    10.50000    0.10996
C00X  1    0.199730    0.750000    0.287993    10.50000    0.08158
C00Y  1    0.756108    0.750000    0.274525    10.50000    0.13332
C00Z  1    0.232774    0.750000    0.737179    10.50000    0.09962
C2    1    1.029081    1.030924    0.386520    11.00000    0.06634    0.03036 =
         0.04868    0.00579    0.03722   -0.00597
C3    1    0.217042    0.819751    0.661827    10.25000    0.03041
C011  1    0.246313    0.750000    0.229982    10.50000    0.13186
C12   1    0.481670    0.750000    0.765374    10.25000    0.10341
C14   1    0.897471    0.750000    0.281762    10.50000    0.04431
C15   1    0.507257    0.750000    0.629421    10.12500    0.02148
C16   1    0.574534    0.750000    0.771638    10.12500    0.04681
C17   1    0.586918    0.750000    0.699825    10.12500    0.03125
C18   1    0.316430    0.689549    0.761146    10.50000    0.06746
N1    3    1.057278    1.117374    0.450614    11.00000    0.06200    0.03775 =
         0.07281   -0.00869    0.04011   -0.00012
N3    3    1.043277    1.118959    0.947214    11.00000    0.03836    0.04833 =
         0.05703    0.00070    0.02940    0.00539
C4    1    1.129912    1.065705    0.504823    11.00000    0.08276    0.04438 =
         0.10166   -0.03896    0.00426   -0.00110
C5    1    1.012843    1.250000    0.462833    10.50000    0.06646    0.03549 =
         0.07958    0.00000    0.05771    0.00000
C6    1    1.000760    1.250000    0.963653    10.50000    0.03960    0.04355 =
         0.09308    0.00000    0.02584    0.00000
C7    1    0.417421    0.750000    0.703066    10.12500    0.02942
C8    1    1.117180    1.064742    1.001610    11.00000    0.05579    0.04633 =
         0.06636    0.01915    0.00976    0.00445
C9    1    1.015218    1.034312    0.882909    11.00000    0.05470    0.02536 =
         0.06237   -0.00221    0.04395   -0.00354
C10   1    1.134573    0.948912    0.961278    11.00000    0.04949    0.05509 =
         0.06071   -0.02073    0.01419    0.00158
C11   1    0.434662    0.750000    0.629462    10.12500    0.10581
PART -1
C202  1    0.506641    0.816439    0.282925    10.25000    0.03902
N5    3    0.684838    0.829547    0.208475    10.50000    0.10305
N6    3    0.697132    0.858139    0.132472    10.25000    0.03176
C306  1    0.438273    0.805507    0.215266    10.25000    0.04167
C309  1    0.453186    0.832074    0.146113    10.25000    0.04959
C301  1    0.603142    0.818381    0.211741    10.25000    0.01725
C114  1    0.768716    0.853791    0.146648    10.25000    0.04201
SE2   6    0.606054    0.841302    0.433037    10.50000    0.02946    0.69094 =
         0.06069    0.01694    0.02399   -0.01459
C304  1    0.591831    0.851927    0.285429    10.25000    0.01994
N106  3    0.503969    0.874613    0.351350    10.25000    0.07035
C125  1    0.230779    0.881120    0.172126    10.25000    0.05200
N201  3    0.656883    0.854471    0.359969    10.25000    0.04920
C305  1    0.532427    0.815755    0.136936    10.25000    0.02412
N7    3    0.358721    0.844131    0.213521    10.25000    0.03380
N8    3    0.297818    0.885696    0.149073    10.25000    0.03160
PART 0
PART -2 10.25
N502  3    0.329266    0.827660    0.680394    10.25000    0.14042
N6    3    0.277840    0.893157    0.639813    10.25000    0.03848
SE2   6    0.400440    0.803419    0.465509    10.25000    0.08260
C402  1    0.661571    0.822073    0.692316    10.25000    0.01138
C401  1    0.754270    0.826560    0.648835    10.25000    0.02469
C403  1    0.679115    0.911276    0.636039    10.25000    0.02052
C404  1    0.792019    0.794230    0.730202    10.25000   -0.00100
C405  1    0.729676    0.790023    0.754283    10.25000   -0.00100
PART 0
HKLF 4




REM  Er-1833_a.res in P2(1)/m
REM wR2 = 0.4576, GooF = S = 2.065, Restrained GooF = 2.065 for all data
REM R1 = 0.1866 for 2387 Fo > 4sig(Fo) and 0.3029 for all 5350 data
REM 304 parameters refined using 0 restraints

END

WGHT      0.2000      0.0000

REM Highest difference peak  3.056,  deepest hole -1.533,  1-sigma level  0.259
Q1    1   0.6142  0.7500  0.4402  10.50000  0.05    2.79
Q2    1   0.6061  0.7500 -0.0631  10.50000  0.05    2.65
Q3    1   0.3918  0.7500 -0.0273  10.50000  0.05    2.50
Q4    1   0.3948  0.8858  0.4593  11.00000  0.05    2.50
Q5    1   0.6601  0.9926  0.5463  11.00000  0.05    1.95
Q6    1   0.5031  0.7500  0.3660  10.50000  0.05    1.65
Q7    1   0.3583  0.7500  0.2110  10.50000  0.05    1.59
Q8    1   0.3449  0.7500  0.7061  10.50000  0.05    1.55
Q9    1   0.6595  0.7500  0.3610  10.50000  0.05    1.54
Q10   1   0.4982  0.7500  0.8730  10.50000  0.05    1.48
Q11   1   0.6227  1.1250  0.0450  11.00000  0.05    1.45
Q12   1   0.9157  0.6771  0.3502  11.00000  0.05    1.30
Q13   1   0.6611  0.7500  0.6986  10.50000  0.05    1.13
Q14   1   0.6748  0.8188  0.6271  11.00000  0.05    1.06
Q15   1   0.6588  0.7500  0.8674  10.50000  0.05    1.04
Q16   1   1.0449  0.7500  0.2681  10.50000  0.05    1.03
Q17   1   0.5987  0.7500  0.2897  10.50000  0.05    1.03
Q18   1   0.8010  0.6869  0.2289  11.00000  0.05    0.99
Q19   1   0.3424  0.8850  0.7132  11.00000  0.05    0.98
Q20   1   0.9070  0.6734  0.8478  11.00000  0.05    0.97
;
_shelx_res_checksum   40955

_shelx_hkl_file
;
  -2   0   0 5697.03   91.19
  -3   0   0 1888.11   36.10
  -4   0   0 1184.18   27.70
   4   0   0 1149.39   27.60
   5   0   0   79.59   10.30
  -5   0   0   77.19   10.00
  -6   0   0 1320.77   33.40
   6   0   0 1311.07   33.90
   7   0   0 1738.13   42.80
  -7   0   0 1773.32   42.40
  -8   0   0  113.29   13.60
   8   0   0  104.29   14.20
  -9   0   0  761.02   28.10
   9   0   0  737.73   28.60
 -10   0   0   41.40   10.20
  10   0   0   18.40    8.90
 -11   0   0 1907.41   50.49
  11   0   0 1794.82   51.09
  12   0   0    3.00   11.80
 -12   0   0    6.20    9.10
 -13   0   0   66.19   14.10
  13   0   0   33.60   13.70
 -14   0   0   80.99   16.40
 -15   0   0  280.37   29.90
 -15   0   0  250.67   24.20
 -16   0   0  -11.50   11.70
 -16   0   0   29.80   17.20
 -17   0   0    0.00   12.70
 -17   0   0   44.50   18.40
 -18   0   0   96.39   22.80
 -18   0   0   70.89   18.40
 -19   0   0   30.20   19.40
 -19   0   0   36.90   17.20
   0   1   0   -3.20    2.00
  -1  -1   0   49.99    6.10
   1   1   0   44.00    6.20
  -1   1   0   46.90    4.60
  -2  -1   0  737.63   20.90
   2  -1   0  754.92   15.40
   2   1   0  740.23   21.30
  -3  -1   0   53.59    8.60
   3  -1   0   78.39    5.90
  -3   1   0   83.79    7.30
   3   1   0   86.79   11.20
   4  -1   0   87.19    7.20
  -4  -1   0  115.99   12.60
  -4   1   0   97.89    7.40
   4   1   0  121.69   13.30
  -5  -1   0  305.87   17.30
   5  -1   0  305.97   12.30
   5   1   0  258.77   17.40
  -5   1   0  318.97   11.80
  -6  -1   0  350.36   18.50
   6  -1   0  321.77   13.70
   6   1   0  347.27   19.60
  -6   1   0  308.77   13.10
  -7  -1   0  455.65   22.50
   7  -1   0  456.65   17.70
  -7   1   0  425.76   16.30
   7   1   0  414.86   23.10
  -8  -1   0   42.30   11.00
   8  -1   0   78.99   11.10
  -8   1   0   51.89    8.80
   8   1   0   50.99   13.00
   9  -1   0    2.60    6.90
  -9  -1   0   26.10    9.20
  -9   1   0   18.50    7.00
   9   1   0   24.20   10.40
 -10  -1   0  -10.00    8.50
  10  -1   0  -13.60    6.60
 -10   1   0   -4.20    6.50
  10   1   0    7.00   10.80
 -11  -1   0  175.98   19.30
  11  -1   0  158.18   16.10
  11   1   0  138.39   20.10
 -11   1   0  195.08   15.60
 -12  -1   0   15.70   12.60
  12  -1   0    6.30    8.90
 -12   1   0   -1.90    8.40
  12   1   0    1.80   12.20
  13  -1   0  459.75   25.90
 -13  -1   0  466.45   29.80
 -13   1   0  433.86   24.20
  13   1   0  534.25   33.30
 -14  -1   0    3.70   12.10
 -14   1   0   20.40   11.60
 -15  -1   0   20.20   16.00
 -15  -1   0   12.00   13.70
 -15   1   0   15.10   10.20
 -16  -1   0   64.89   18.40
 -16  -1   0   62.09   21.50
 -16   1   0  117.49   17.50
 -16   1   0   93.19   21.80
 -17  -1   0   15.90   14.60
 -17  -1   0   30.40   19.10
 -17   1   0   -0.30   11.40
 -18  -1   0    3.30   17.90
 -18  -1   0  -16.60   12.60
 -18   1   0   31.80   18.20
 -18   1   0    6.30   12.90
 -19  -1   0   23.00   17.40
 -19  -1   0   19.40   19.60
 -19   1   0  -20.10   15.70
   0  -2   0 6261.57  108.19
   1  -2   0  996.50   25.90
  -1  -2   0  960.30   29.60
  -1  -2   0  933.21   28.30
  -1   2   0  969.10   26.20
  -2  -2   0   67.99   10.80
   2  -2   0   84.69    9.60
  -2   2   0   80.29    9.90
   2   2   0   77.69   12.50
   3  -2   0  214.38   11.10
  -3  -2   0  169.48   15.60
   3   2   0  198.28   16.50
  -3   2   0  210.08   11.10
   4  -2   0  153.98    9.30
  -4  -2   0  134.19   14.60
  -4   2   0  148.49    9.00
   4   2   0  128.29   15.60
   5  -2   0   48.80    6.90
  -5  -2   0   48.90   10.90
   5   2   0   45.90   11.20
  -5   2   0   47.80    7.30
  -6  -2   0 1028.10   35.60
   6  -2   0 1057.49   23.90
  -6   2   0 1068.09   24.20
   6   2   0 1059.79   37.80
  -7  -2   0 1201.68   40.30
   7  -2   0 1174.78   27.30
  -7   2   0 1231.68   27.40
   7   2   0 1236.48   43.00
   8  -2   0  364.26   14.90
  -8  -2   0  399.26   24.80
   8   2   0  454.15   28.10
  -8   2   0  396.76   15.30
  -9  -2   0  259.97   22.30
   9  -2   0  295.67   14.20
  -9   2   0  272.57   14.00
   9   2   0  255.27   24.40
 -10  -2   0   -1.70    9.20
  10  -2   0   -4.60    5.90
 -10   2   0   -2.20    6.60
  10   2   0   10.70   11.10
  11  -2   0  279.77   16.00
 -11  -2   0  245.38   23.80
 -11   2   0  233.98   15.20
  11   2   0  201.58   25.60
 -12  -2   0   31.30   14.70
  12  -2   0   30.60    9.50
 -12   2   0   45.70    9.90
 -13  -2   0   39.90   15.00
 -13  -2   0   18.30   16.10
  13  -2   0    1.80    8.70
 -13   2   0   24.10    9.30
 -14  -2   0   28.20   15.00
 -14  -2   0   61.79   22.10
 -14   2   0   53.09   11.80
 -15  -2   0   44.60   17.80
 -15  -2   0   34.80   19.90
 -15   2   0   40.50   11.30
 -15   2   0   46.50   12.60
 -16  -2   0   30.20   16.20
 -16  -2   0  -13.50   18.00
 -16   2   0   15.00   11.50
 -16   2   0   -7.10    8.40
 -17  -2   0   54.69   21.70
 -17  -2   0   39.30   18.70
 -17   2   0   31.00   10.40
 -17   2   0   18.00   11.30
 -18  -2   0  120.19   42.60
 -18  -2   0   93.39   26.70
 -18   2   0   38.70   11.10
 -18   2   0   59.89   12.70
 -19  -2   0  -15.60   15.80
 -19  -2   0   -0.50   21.10
   0  -3   0   21.50    8.70
   0  -3   0   13.90    8.40
  -1  -3   0  200.88   17.50
  -1  -3   0  221.68   17.70
   1  -3   0  194.08   15.30
  -2  -3   0   29.60   10.70
   2  -3   0   37.40    8.60
  -2  -3   0   42.50   11.20
  -2   3   0   35.20    9.30
  -3  -3   0  296.97   22.50
  -3  -3   0  316.37   20.60
   3  -3   0  346.27   16.20
  -3   3   0  313.37   16.30
   4  -3   0  209.58   12.80
  -4  -3   0  206.28   19.00
  -4  -3   0  214.58   21.40
  -4   3   0  217.48   13.60
  -5  -3   0  427.26   25.00
   5  -3   0  449.26   16.80
  -5   3   0  463.85   17.60
   6  -3   0  851.51   23.10
  -6  -3   0  844.52   35.60
   6   3   0  873.21   37.40
  -6   3   0  864.61   23.60
  -7  -3   0  361.26   30.60
   7  -3   0  360.76   14.40
  -7   3   0  397.76   15.00
   7   3   0  371.76   27.70
   8  -3   0  227.98   11.60
  -8  -3   0  225.48   22.20
   8   3   0  222.88   24.30
  -8   3   0  248.28   12.30
   9  -3   0   52.39    8.40
  -9  -3   0   38.80   14.20
  -9   3   0   60.69    8.70
 -10  -3   0  175.58   21.60
 -10  -3   0  147.99   26.60
  10  -3   0  163.48   11.20
 -10   3   0  179.88   11.20
 -11  -3   0   -5.30   13.80
  11  -3   0    4.20    5.40
 -11  -3   0  -12.20   10.20
 -11   3   0    1.20    5.60
 -12  -3   0  105.59   21.30
  12  -3   0   96.19   10.30
 -12  -3   0  137.99   27.30
 -12   3   0  100.69   10.50
 -13  -3   0   12.90   15.10
 -13  -3   0    8.50   17.20
 -14  -3   0  182.88   29.20
 -14  -3   0  182.28   31.10
 -15  -3   0   99.29   22.90
 -15  -3   0   96.09   24.80
 -16  -3   0   49.10   21.80
 -16  -3   0  150.28   29.80
 -17  -3   0   37.70   20.50
 -17  -3   0   59.69   28.60
 -18  -3   0   36.30   21.00
 -18  -3   0   -8.20   19.00
 -19  -3   0  -12.50   19.30
   0  -4   0 2090.39   55.39
   0  -4   0 2061.09   54.39
  -1  -4   0 1708.43   51.89
   1  -4   0 1791.72   48.10
   1  -4   0 1847.52   49.40
  -1  -4   0 1871.11   51.49
  -2  -4   0  541.95   28.10
  -2  -4   0  631.24   36.40
   2  -4   0  657.73   27.10
  -3  -4   0  154.18   21.60
  -3  -4   0  141.29   17.60
   3  -4   0  108.39   13.60
  -3   4   0  112.39   15.80
  -4  -4   0   64.59   16.40
   4  -4   0   68.79   11.70
  -4   4   0   81.39   13.20
  -5  -4   0   15.40   13.50
   5  -4   0   30.70    8.80
  -5  -4   0   13.30   10.40
  -5   4   0   23.20    9.10
  -6  -4   0   25.30   11.10
   6  -4   0   31.60    7.60
  -6  -4   0   35.70   16.20
  -6   4   0   18.70    8.20
  -7  -4   0  193.78   22.40
  -7  -4   0  193.68   25.60
   7  -4   0  168.98   12.80
  -7   4   0  206.98   14.30
  -8  -4   0   36.90   14.60
  -8  -4   0   61.49   19.80
   8  -4   0   69.29   10.20
  -8   4   0   56.19    9.70
  -9  -4   0   39.50   17.00
  -9  -4   0   71.69   16.80
  -9   4   0   95.19   11.20
 -10  -4   0   56.69   16.90
 -10  -4   0   79.39   22.10
  10  -4   0   74.29    9.00
 -11  -4   0   13.50   18.40
 -11  -4   0   26.90   13.80
 -12  -4   0   52.29   22.70
 -12  -4   0  100.29   22.40
 -13  -4   0   66.39   21.30
 -13  -4   0   -2.20   17.70
 -14  -4   0   14.10   18.60
 -14  -4   0   31.60   22.50
 -15  -4   0   40.00   20.10
 -15  -4   0    3.30   21.20
 -16  -4   0   46.90   23.70
 -16  -4   0   17.80   21.50
 -17  -4   0   18.60   22.00
 -18  -4   0  -17.90   20.60
   0  -5   0   11.10    9.30
   0  -5   0    1.00    9.80
   1  -5   0  197.18   21.20
  -1  -5   0  217.38   23.00
  -1  -5   0  198.18   24.70
   1  -5   0  193.28   20.90
  -2  -5   0  381.86   28.00
  -2  -5   0  306.87   24.60
   2  -5   0  306.07   22.00
  -3  -5   0  351.86   25.80
   3  -5   0  351.96   22.90
   3  -5   0  306.87   21.50
  -3  -5   0  380.16   28.80
   4  -5   0  218.38   18.60
  -4  -5   0  314.57   27.10
   4  -5   0  245.08   19.10
  -4  -5   0  290.47   25.60
  -5  -5   0  448.76   32.80
   5  -5   0  396.06   22.10
  -5  -5   0  428.16   30.20
  -6  -5   0  328.17   27.80
  -6  -5   0  341.47   31.50
   6  -5   0  333.37   19.60
  -7  -5   0  132.89   24.20
   7  -5   0  125.99   14.80
  -7  -5   0  150.18   23.40
   8  -5   0   31.20    9.70
  -8  -5   0   16.20   12.00
  -8  -5   0   38.30   18.00
   9  -5   0   20.30    8.30
  -9  -5   0   -3.30   16.60
  -9  -5   0   23.10   16.40
  10  -5   0   19.20    7.80
 -10  -5   0   28.70   18.20
 -10  -5   0   37.60   17.80
 -11  -5   0  139.19   28.30
 -12  -5   0  134.59   26.50
 -13  -5   0  105.49   25.40
 -13  -5   0  105.39   26.40
 -14  -5   0  101.59   29.80
 -15  -5   0   -2.80   20.80
 -16  -5   0   75.19   26.80
 -17  -5   0   25.60   23.30
   0  -6   0 1567.14   55.19
   0  -6   0 1572.64   53.59
  -1  -6   0 1216.08   47.30
   1  -6   0 1242.38   45.70
  -1  -6   0 1206.58   49.10
   1  -6   0 1220.28   46.90
  -2  -6   0  465.25   32.60
  -2  -6   0  467.65   30.60
   2  -6   0  427.96   28.80
   2  -6   0  472.35   28.30
   3  -6   0   52.19   13.60
  -3  -6   0   74.19   17.50
  -3  -6   0   70.79   17.20
  -4  -6   0   15.40   12.70
  -4  -6   0    2.80   10.80
   4  -6   0   19.70   12.00
   4  -6   0    8.30    9.20
  -5  -6   0   24.00   14.00
   5  -6   0   49.70   13.10
  -5  -6   0   20.60   14.50
   5  -6   0   42.60   12.20
   6  -6   0  230.08   37.80
  -6  -6   0  163.48   24.50
   6  -6   0  227.08   20.90
  -6  -6   0  223.58   28.50
  -7  -6   0  133.59   25.70
   7  -6   0  153.58   17.20
  -7  -6   0   93.89   21.00
   7  -6   0  149.19   18.70
   8  -6   0  108.69   16.50
   8  -6   0  137.79   17.10
  -8  -6   0  104.59   22.80
  -8  -6   0  139.79   26.90
  -9  -6   0  191.18   31.50
  -9  -6   0  256.87   32.00
   9  -6   0  205.18   18.00
   9  -6   0  156.28   17.90
  10  -6   0   17.40    9.30
 -10  -6   0   41.70   20.60
  10  -6   0   24.50    9.90
 -10  -6   0   18.60   17.30
 -11  -6   0   99.69   27.00
  11  -6   0   74.09   10.70
  11  -6   0   81.69   12.00
 -11  -6   0   76.59   23.10
 -12  -6   0   58.29   24.40
 -13  -6   0   25.80   22.40
 -14  -6   0   10.90   20.50
 -15  -6   0    6.40   20.90
 -16  -6   0  -22.90   16.10
   0  -7   0   -4.20   10.70
   0  -7   0   27.80   13.60
   1  -7   0   -3.70   11.30
   1  -7   0    5.00   12.10
  -1  -7   0   20.80   13.10
  -1  -7   0   26.90   14.40
  -2  -7   0   83.69   20.90
   2  -7   0   95.09   19.40
   2  -7   0  122.09   21.50
  -2  -7   0  126.59   23.40
  -3  -7   0   34.10   17.70
  -3  -7   0   56.79   17.70
   3  -7   0   56.19   16.50
   3  -7   0    9.90   12.20
  -4  -7   0  164.08   26.20
   4  -7   0  113.49   19.50
  -4  -7   0  162.28   27.10
   4  -7   0  123.49   20.30
  -5  -7   0  155.88   27.80
   5  -7   0  163.38   22.30
   5  -7   0  160.88   21.60
  -5  -7   0  192.08   29.00
   6  -7   0  123.69   19.60
  -6  -7   0  136.19   26.70
   6  -7   0  122.09   19.50
  -6  -7   0   79.39   22.60
   7  -7   0  118.19   20.10
  -7  -7   0   86.69   23.60
  -7  -7   0  138.09   29.70
   7  -7   0  115.69   18.90
  -8  -7   0  -11.30   14.10
   8  -7   0   -5.40    9.70
   8  -7   0  -22.40    9.30
  -8  -7   0  -11.50   16.00
  -9  -7   0   13.50   18.00
   9  -7   0   -6.40   16.30
   9  -7   0   -6.40   10.30
  10  -7   0    9.40   10.10
  10  -7   0    5.80    9.80
 -10  -7   0   10.80   19.50
 -11  -7   0  -12.90   16.20
  11  -7   0   10.30    9.90
  11  -7   0    9.80    9.50
 -12  -7   0   20.80   22.30
  12  -7   0    4.90    6.90
 -13  -7   0   30.10   24.10
 -14  -7   0   11.80   21.30
 -15  -7   0    1.70   23.00
   0  -8   0  665.43   42.40
   0  -8   0  693.93   43.70
   1  -8   0   32.20   17.00
  -1  -8   0   39.50   19.60
   1  -8   0   23.40   15.00
  -1  -8   0   29.00   15.70
  -2  -8   0  374.56   35.20
   2  -8   0  335.17   31.90
   2  -8   0  291.17   30.10
   3  -8   0  147.79   23.30
   3  -8   0  144.19   24.30
  -3  -8   0  149.19   29.20
  -4  -8   0   35.50   18.40
  -4  -8   0  -10.30   14.40
   4  -8   0   -5.00   12.00
   4  -8   0   -8.00   11.50
   5  -8   0   61.69   17.90
  -5  -8   0   80.69   23.00
  -5  -8   0   47.30   19.80
   5  -8   0   36.00   15.60
   6  -8   0   13.40   13.20
   6  -8   0    9.60   14.30
  -6  -8   0   19.80   17.90
   7  -8   0   76.99   19.20
  -7  -8   0   87.79   24.90
   7  -8   0   86.59   17.50
   8  -8   0   39.20   14.40
   8  -8   0   46.80   15.30
  -8  -8   0   42.80   20.30
  -9  -8   0  128.69   29.80
   9  -8   0  148.59   32.30
   9  -8   0  138.69   20.30
 -10  -8   0   20.10   22.10
  10  -8   0   18.20   12.50
  10  -8   0   15.90   12.60
  11  -8   0   66.89   15.20
 -11  -8   0  103.99   29.00
  11  -8   0   63.99   14.90
  12  -8   0   -8.00    8.60
 -12  -8   0   -7.40   19.90
  12  -8   0   17.20   10.10
 -13  -8   0   25.90   40.60
   0  -9   0    3.70   15.00
   0  -9   0    6.00   16.20
  -1  -9   0   -1.80   13.70
   1  -9   0   -0.40   16.60
  -1  -9   0    0.40   16.40
   2  -9   0   37.40   18.50
  -2  -9   0   48.70   19.80
  -2  -9   0    9.20   20.80
   3  -9   0   -0.90   11.10
  -3  -9   0   12.10   15.20
   3  -9   0   -1.00   15.30
   4  -9   0   10.10   16.60
  -4  -9   0   23.70   16.70
   4  -9   0    7.00   13.80
   5  -9   0   49.30   21.20
  -5  -9   0   12.70   17.80
   5  -9   0   15.30   15.80
   6  -9   0   11.20   15.00
   6  -9   0   24.70   15.00
  -6  -9   0   -5.90   15.80
   7  -9   0   48.40   19.80
  -7  -9   0   11.10   17.80
   7  -9   0   15.30   12.90
   8  -9   0    7.00   14.70
   8  -9   0  -15.50   10.30
  -8  -9   0  -40.90   13.50
  -9  -9   0   -1.20   18.70
   9  -9   0    7.20   14.60
   9  -9   0   -3.10   13.40
 -10  -9   0  -22.70   15.30
  10  -9   0    9.20   13.70
  10  -9   0    9.80   12.40
 -11  -9   0   -5.20   18.00
  11  -9   0    7.60   19.50
  11  -9   0    4.60   12.30
   0 -10   0  220.98   33.20
   1 -10   0   89.79   23.40
  -1 -10   0   86.89   26.50
   2 -10   0   80.59   35.50
  -2 -10   0   74.89   21.30
   2 -10   0   77.19   23.40
  -3 -10   0   -5.90   15.20
   3 -10   0   25.40   18.60
   3 -10   0    3.10   13.60
   4 -10   0  -12.20   14.10
  -4 -10   0   -0.50   14.60
   4 -10   0   -9.30   17.00
  -5 -10   0   -1.30   16.90
   5 -10   0   -0.20   12.90
   5 -10   0    8.20   18.30
   6 -10   0   -3.60   30.50
  -6 -10   0   30.00   18.90
   6 -10   0  -12.30   14.70
   7 -10   0    8.90   14.80
   7 -10   0   18.20   19.10
  -8 -10   0    3.60   17.90
   8 -10   0    0.20   13.00
   8 -10   0   12.60   17.60
  -9 -10   0  -14.50   18.20
   0 -11   0   -1.10   17.60
  -1 -11   0   27.20   20.00
   1 -11   0   -9.10   15.20
   2 -11   0   35.40   20.00
  -2 -11   0   31.00   22.20
   3 -11   0   51.79   21.10
 -20   0   1    2.30   16.30
 -20   0   1   -5.30   18.60
 -19   0   1  118.19   23.40
 -19   0   1  203.48   31.40
 -18   0   1   15.90   18.60
 -18   0   1   -3.70   14.30
 -17   0   1  119.49   20.90
 -16   0   1   55.39   17.30
  16   0  -1   90.59   19.10
 -15   0   1   32.70   14.40
  15   0  -1   32.20   15.30
 -14   0   1    0.20   13.10
  14   0  -1   20.90   13.50
 -13   0   1  290.07   23.20
  13   0  -1  321.87   25.40
  12   0  -1  125.79   20.70
 -12   0   1  101.79   15.40
 -11   0   1  165.08   17.10
  11   0  -1  154.68   18.70
  10   0  -1  101.79   14.60
 -10   0   1   96.69   14.60
   9   0  -1  111.69   15.70
  -9   0   1   91.19   14.30
  -8   0   1  445.36   21.20
   8   0  -1  433.56   21.90
   7   0  -1    8.40    7.50
  -7   0   1    1.40    6.60
  -6   0   1   -4.10    5.60
   6   0  -1   -8.30    5.30
  -5   0   1  133.89   11.60
   5   0  -1  133.49   12.30
  -4   0   1  590.74   19.00
   4   0  -1  564.54   19.40
   3   0  -1    4.10    4.60
  -3   0   1    3.00    4.30
   2   0  -1   24.40    6.40
  -1   0  -1  323.57    8.40
  -2   0  -1   20.70    4.10
  -3   0  -1   29.20    5.70
  -3   0  -1   26.80    5.70
  -4   0  -1  334.37   13.40
  -5   0  -1   42.90    7.30
   5   0   1   48.50    7.90
  -6   0  -1  482.85   18.70
   6   0   1  515.65   19.90
   7   0   1  622.64   23.40
  -7   0  -1  605.64   22.20
   8   0   1   29.80    9.70
  -8   0  -1   39.80    9.60
  -9   0  -1  386.06   20.00
 -10   0  -1    6.70    7.60
 -11   0  -1  284.67   23.00
 -11   0  -1  305.17   20.20
 -12   0  -1  185.48   18.60
 -12   0  -1  144.59   20.10
 -13   0  -1   11.50   14.80
 -13   0  -1    6.40   10.90
 -14   0  -1   10.30   14.00
 -14   0  -1   -5.40   11.00
 -15   0  -1  121.99   21.00
 -16   0  -1   -4.00   13.30
 -16   0  -1   20.50   13.50
 -17   0  -1   31.30   15.00
 -17   0  -1  -17.50   13.70
 -18   0  -1  133.49   22.00
 -18   0  -1  106.29   20.20
 -19   0  -1    5.80   14.60
 -19   0  -1   15.20   17.60
 -20  -1   1   60.49   25.80
 -20  -1   1   88.59   25.80
 -20   1   1   48.70   17.90
 -20   1   1   52.19   16.30
 -19  -1   1   17.90   17.50
 -19  -1   1   61.29   23.40
 -19   1   1   62.19   19.50
 -19   1   1   37.10   15.20
 -18  -1   1   15.90   15.30
 -18  -1   1   13.70   19.70
 -18   1   1    1.10   12.30
 -18   1   1   16.70   17.50
 -17  -1   1   54.29   22.30
 -17  -1   1   23.90   14.80
 -17   1   1   18.50   21.40
  16  -1  -1   25.60   13.90
 -16  -1   1   21.20   14.90
  16   1  -1   20.10   16.30
 -16   1   1    9.40   12.90
 -15  -1   1  208.08   24.60
  15  -1  -1  161.88   22.40
 -15   1   1  174.98   21.50
  15   1  -1  196.88   27.20
 -14  -1   1    9.10   11.50
 -14   1   1  -17.00    9.50
  14   1  -1  -36.90   10.80
  13  -1  -1  227.48   21.40
 -13  -1   1  202.58   22.40
 -13   1   1  206.68   20.30
  13   1  -1  225.68   24.90
  12  -1  -1   13.40    9.30
 -12  -1   1   42.10   13.60
  12   1  -1   10.90   12.30
 -12   1   1   20.00   10.10
  11  -1  -1    9.40    7.80
 -11  -1   1    4.60    8.70
  11   1  -1  -10.40    8.70
 -11   1   1   15.70    9.10
 -10  -1   1   36.10   12.70
  10  -1  -1   54.69   11.00
  10   1  -1   63.89   14.10
 -10   1   1   50.99   10.50
  -9  -1   1  229.48   19.10
   9  -1  -1  163.28   15.20
  -9   1   1  208.58   16.20
   9   1  -1  209.88   20.50
   8  -1  -1    5.80    6.90
  -8  -1   1   -2.00    7.80
   8   1  -1    6.30   10.10
  -8   1   1   -5.30    6.90
   7  -1  -1  193.18   13.60
  -7  -1   1  217.48   17.20
  -7   1   1  186.28   12.90
   7   1  -1  172.38   17.20
  -6  -1   1  223.48   16.60
   6  -1  -1  227.28   12.90
  -6   1   1  258.27   13.20
   6   1  -1  260.17   18.10
  -5  -1   1   -2.80    6.80
   5  -1  -1   -2.40    5.10
   5   1  -1    7.30    7.90
  -5   1   1   -1.60    5.20
  -4  -1   1  111.89   12.70
   4  -1  -1  130.99    9.60
   4   1  -1  138.29   13.80
  -4   1   1  123.39   10.00
   3  -1  -1    3.40    4.60
  -3  -1   1    0.60    6.00
  -3   1   1    4.70    4.80
   3   1  -1   -2.40    6.20
   2  -1  -1   -0.90    3.70
  -2  -1   1   -2.30    3.90
  -2   1   1    0.30    3.50
   2   1  -1    0.00    4.70
   1  -1  -1   11.60    3.90
  -1  -1   1   13.70    4.20
   1   1  -1   18.00    4.70
  -1   1   1   16.80    4.20
   0  -1  -1   27.30    5.20
   0  -1   1   32.60    4.80
   0   1   1   36.40    5.50
   0   1  -1   42.40    5.10
  -1  -1  -1   50.89    7.00
   1  -1   1   45.50    4.90
  -1   1  -1   45.00    4.20
   1   1   1   39.40    6.20
  -2  -1  -1   -2.10    4.80
   2   1   1   11.70    6.60
  -3  -1  -1   -1.10    6.60
  -3  -1  -1   -9.40    5.70
  -4  -1  -1    7.70    6.60
  -4  -1  -1   13.90    8.90
  -4   1  -1    2.40    2.20
  -5  -1  -1   18.70    9.30
  -5  -1  -1   -0.80    7.10
   5  -1   1    4.20    4.10
  -5   1  -1    3.70    3.50
   6  -1   1    5.20    4.80
  -6  -1  -1    1.40    7.30
  -6   1  -1   11.30    4.60
   7  -1   1    0.60    5.40
  -7  -1  -1   14.70    8.50
  -7   1  -1    0.60    5.00
  -8  -1  -1   11.10    7.90
   8  -1   1    1.50    5.90
  -8   1  -1    6.50    6.00
  -9  -1  -1   -3.90    8.00
  -9  -1  -1   15.10   12.20
   9  -1   1    7.30    6.40
  -9   1  -1    7.50    6.70
 -10  -1  -1   -0.70   13.10
 -10  -1  -1  -14.70    7.40
 -10   1  -1  -14.70    6.30
 -11  -1  -1   31.50   13.80
 -11  -1  -1   49.60   13.50
 -11   1  -1   37.90    9.60
 -12  -1  -1    0.60   13.00
 -12   1  -1    5.00    8.80
 -12   1  -1   36.90   10.80
 -13  -1  -1  206.58   26.30
 -13  -1  -1  160.38   22.40
 -13   1  -1  158.58   17.10
 -13   1  -1  151.38   17.80
 -14  -1  -1    1.20   15.00
 -14  -1  -1   26.20   14.30
 -14   1  -1   25.50   10.70
 -14   1  -1  -15.80    9.50
 -15  -1  -1    7.10   14.60
 -15  -1  -1   14.60   14.90
 -15   1  -1   14.20   11.10
 -15   1  -1    0.40   11.30
 -16  -1  -1   77.29   18.60
 -16  -1  -1   52.49   19.80
 -16   1  -1   45.60   13.40
 -16   1  -1   64.79   15.50
 -17  -1  -1   -0.80   17.10
 -17  -1  -1   32.20   17.60
 -17   1  -1   19.60   11.60
 -17   1  -1   23.60   13.60
 -18  -1  -1   -5.70   16.40
 -18  -1  -1    7.70   15.00
 -18   1  -1   -4.00   10.40
 -18   1  -1   14.80   13.80
 -19  -1  -1   -3.80   17.00
 -19  -1  -1    6.90   16.10
 -19   1  -1   -8.40   10.70
 -19   1  -1   10.80   14.00
 -19  -2   1   87.89   23.70
 -19  -2   1   94.19   49.80
 -19   2   1   80.69   15.80
 -19   2   1   89.69   18.10
 -18  -2   1   29.90   22.70
 -18  -2   1   78.69   26.20
 -18   2   1   59.69   16.10
 -18   2   1   40.80   13.30
 -17  -2   1   42.50   19.10
 -17  -2   1   38.00   21.80
 -17   2   1   47.60   13.30
 -16  -2   1   16.40   15.20
  16  -2  -1   23.50   11.90
 -16  -2   1  -23.70   17.70
 -16   2   1   34.60   12.60
  15  -2  -1   19.50   11.10
 -15  -2   1    7.00   13.70
  15   2  -1   14.00   16.60
 -15   2   1   13.60   10.50
 -14  -2   1   11.40   13.60
  14  -2  -1    8.60   10.30
  14   2  -1   21.70   16.60
 -14   2   1   11.00   10.50
 -13  -2   1  196.38   24.30
  13   2  -1  207.48   27.40
 -13   2   1  161.38   17.90
 -12  -2   1   51.39   15.60
  12  -2  -1   66.09   11.80
 -12   2   1   75.19   12.60
  12   2  -1   31.20   15.50
  11  -2  -1   61.69   10.40
 -11  -2   1   31.20   13.10
  11   2  -1   77.59   17.60
 -11   2   1   47.10   10.70
 -10  -2   1  212.18   21.90
  10  -2  -1  229.18   15.80
  10   2  -1  225.28   23.90
 -10   2   1  209.98   15.60
  -9  -2   1   18.40   10.10
   9  -2  -1   -1.70    6.70
  -9   2   1    1.40    7.10
   9   2  -1  -12.90    9.70
   8  -2  -1  176.78   13.10
  -8  -2   1  177.98   19.20
  -8   2   1  177.08   13.50
   8   2  -1  164.58   20.20
  -7  -2   1   47.00   12.20
   7  -2  -1   53.19    8.60
  -7   2   1   68.99    9.60
   7   2  -1   54.29   13.80
  -6  -2   1    5.90    8.30
   6  -2  -1    3.80    5.50
   6   2  -1   23.20    9.50
  -6   2   1   13.10    6.30
  -5  -2   1   29.40    9.50
   5  -2  -1   22.70    6.20
   5   2  -1   35.90   11.10
  -5   2   1    9.70    6.10
   4  -2  -1    7.20    5.60
  -4  -2   1    5.70    7.90
   4   2  -1   18.70    9.30
  -4   2   1    4.60    5.60
   3  -2  -1    0.60    5.50
  -3  -2   1    0.40    7.20
  -3   2   1    3.40    5.80
   3   2  -1    7.80    7.80
   2  -2  -1    3.50    5.80
  -2  -2   1   -4.80    6.50
  -2   2   1    7.00    6.10
   2   2  -1    5.60    7.60
   1  -2  -1    5.40    6.40
  -1  -2   1  -11.40    5.90
  -1   2   1  -11.40    5.70
   1   2  -1    3.70    6.80
   0  -2   1   25.50    7.40
   0  -2  -1   21.20    8.30
   0   2  -1   29.20    8.30
   0   2   1   19.90    7.80
   1  -2   1   62.99    8.20
  -1  -2  -1   50.49   10.00
   1  -2   1   49.20    8.70
   1   2   1   59.99   11.60
  -2  -2  -1   95.59   13.00
   2  -2   1   70.09    8.50
  -2  -2  -1   94.19   12.50
   2  -2   1   92.79    8.80
  -3  -2  -1   -3.80    7.30
   3  -2   1    1.10    4.10
  -3  -2  -1    8.30    7.70
  -4  -2  -1   34.70   11.00
  -4  -2  -1   20.50    8.40
   4  -2   1   28.50    4.00
  -5  -2  -1    8.60    8.30
  -5  -2  -1    9.00    9.30
  -6  -2  -1  417.36   26.50
  -6  -2  -1  407.96   23.30
  -7  -2  -1  153.88   17.80
  -7  -2  -1  170.28   21.20
  -8  -2  -1   24.20   12.50
  -8  -2  -1   36.80   12.20
  -9  -2  -1  127.09   20.60
  -9  -2  -1  167.28   21.40
  -9   2  -1  115.29    8.80
 -10  -2  -1   -3.40    8.70
 -10  -2  -1    0.50   13.10
 -10   2  -1    4.20    5.40
 -11  -2  -1  143.89   23.30
 -11  -2  -1  133.99   20.30
 -11   2  -1   83.99   10.50
 -12  -2  -1    2.90   11.40
 -12  -2  -1   11.10   15.50
 -12   2  -1   10.80    6.80
 -12   2  -1    3.90    6.60
 -13  -2  -1   -0.30   12.60
 -13  -2  -1   -3.70   15.30
 -13   2  -1    6.00    7.10
 -13   2  -1    0.70    7.40
 -14  -2  -1    4.30   15.30
 -14  -2  -1    2.20   15.30
 -14   2  -1  -15.10    6.90
 -14   2  -1   -0.90    6.80
 -15  -2  -1   69.19   21.10
 -15  -2  -1   39.80   18.40
 -15   2  -1   87.09   12.60
 -15   2  -1   64.19   10.80
 -16  -2  -1   41.40   18.60
 -16  -2  -1   43.00   19.80
 -17  -2  -1   95.89   25.40
 -17  -2  -1   77.89   21.50
 -18  -2  -1   94.39   41.60
 -18  -2  -1   52.59   23.10
 -19  -2  -1  -14.40   17.00
 -19  -2  -1    6.70   20.10
 -19  -3   1   20.70   23.60
 -18  -3   1   53.89   23.90
 -18  -3   1   28.40   23.40
 -17  -3   1   35.30   19.50
 -17  -3   1    9.90   21.70
 -17   3   1   30.90    9.70
 -16  -3   1  108.09   29.00
 -16  -3   1   70.49   21.90
 -16   3   1   90.79   14.00
 -15  -3   1  127.29   29.20
  15  -3  -1   73.69   12.40
 -15  -3   1   51.39   20.20
 -15   3   1   90.39   14.10
 -14  -3   1   31.10   18.10
  14  -3  -1   21.10    9.50
 -14   3   1   30.50   10.10
 -13  -3   1    1.70   14.00
  13  -3  -1   17.90    8.50
  13   3  -1  -10.70   13.80
 -13   3   1    2.30    7.80
 -12  -3   1   14.90   14.40
  12  -3  -1    2.10    7.40
  12   3  -1   -9.60   13.40
 -12   3   1    5.80    7.40
  11  -3  -1    9.20    7.20
 -11  -3   1    0.00   11.40
  11   3  -1   37.10   16.60
 -11   3   1   20.80    8.10
  10  -3  -1   48.40    9.20
 -10  -3   1   64.59   17.20
  10   3  -1   35.90   15.10
 -10   3   1   45.40    9.90
  -9  -3   1   18.00   11.80
   9  -3  -1   70.39   10.90
  -9   3   1   67.19   10.00
   9   3  -1   60.49   16.70
   8  -3  -1   73.49    9.90
  -8  -3   1   55.29   13.60
  -8   3   1   63.29   10.20
   8   3  -1   67.29   17.00
   7  -3  -1  116.79   12.10
  -7   3   1  147.19   12.80
   7   3  -1  140.99   20.40
   6  -3  -1  106.09   11.70
  -6  -3   1  124.39   17.40
   6   3  -1  119.19   18.90
  -6   3   1  113.49   11.70
   5  -3  -1   11.60    6.60
  -5  -3   1   23.00   10.70
  -5   3   1    9.40    6.80
  -4  -3   1   13.20    8.50
   4  -3  -1    1.60    5.80
  -4   3   1    3.20    6.10
   4   3  -1    0.30    9.60
  -3  -3   1  -15.40    6.20
   3  -3  -1  -11.70    5.50
   3   3  -1    1.90    8.40
  -3   3   1    8.50    6.70
   2  -3  -1   10.40    6.80
  -2  -3   1   -3.40    7.50
  -2   3   1    1.90    7.40
   2   3  -1    6.40    8.60
  -1  -3   1   20.00    8.80
   1  -3  -1    2.60    7.90
  -1   3   1   17.60    7.60
   1   3  -1    4.50    6.80
   0  -3   1   38.30   10.20
   0  -3   1   42.70   11.10
   0  -3  -1   21.90    9.40
   0   3   1   34.90   10.70
   1  -3   1   42.20    9.30
   1  -3   1   43.70    9.90
  -1  -3  -1   52.29   11.60
   1   3   1   23.80   10.50
  -2  -3  -1    5.50    8.70
   2  -3   1   -2.60    5.80
  -2  -3  -1   -1.40    7.50
   2  -3   1   -0.30    5.70
  -3  -3  -1   -6.40    8.10
   3  -3   1    4.80    6.10
  -3  -3  -1    3.60    8.10
   3  -3   1    7.80    5.60
  -4  -3  -1   38.80   11.10
  -4  -3  -1   51.49   12.60
   4  -3   1   29.40    6.80
   4  -3   1   39.50    7.30
   5  -3   1   28.60    6.30
  -5  -3  -1   17.40    9.50
  -5  -3  -1   36.30   13.20
  -6  -3  -1   45.20   13.30
   6  -3   1   42.30    6.50
  -6  -3  -1   32.10   12.10
  -7  -3  -1   54.39   16.10
  -7  -3  -1   28.60   11.30
  -8  -3  -1    0.90    9.80
  -8  -3  -1    8.50   12.90
  -9  -3  -1    8.90   11.10
  -9  -3  -1   -2.80   11.50
 -10  -3  -1   -0.60   11.50
 -10  -3  -1  -18.50   12.40
 -11  -3  -1   77.39   21.40
 -11  -3  -1   24.50   14.40
 -12  -3  -1  164.98   27.80
 -12  -3  -1  158.98   24.40
 -13  -3  -1   50.89   21.00
 -13  -3  -1   70.39   20.10
 -14  -3  -1   72.49   23.30
 -14  -3  -1   36.30   18.90
 -15  -3  -1   34.10   20.60
 -15  -3  -1   55.29   20.30
 -16  -3  -1   17.90   21.10
 -16  -3  -1   16.50   18.60
 -17  -3  -1   11.40   21.60
 -17  -3  -1  -15.70   18.10
 -18  -3  -1   13.10   23.00
 -18  -3  -1   13.40   19.90
 -18  -4   1   50.39   25.30
 -17  -4   1  -10.40   18.80
 -16  -4   1    1.60   20.70
 -16  -4   1   25.10   19.00
 -15  -4   1   -2.20   15.80
 -15  -4   1   54.79   25.90
 -14  -4   1   62.99   25.70
 -14  -4   1   26.10   18.70
 -13  -4   1   42.30   21.70
 -13  -4   1    3.10   15.30
  13  -4  -1   29.80    7.80
 -13   4   1   15.70    8.10
 -12  -4   1  126.49   24.40
  12  -4  -1   91.89   12.60
 -12  -4   1  123.99   28.50
 -12   4   1   96.99   13.40
 -11  -4   1   16.80   13.60
  11  -4  -1    6.10    7.60
 -11   4   1   10.40    7.90
  11   4  -1   16.40   15.90
 -10  -4   1   20.30   13.70
  10  -4  -1   10.80    7.50
 -10   4   1    3.90    7.30
  10   4  -1   -7.10   13.20
  -9  -4   1  105.09   19.30
   9  -4  -1  121.49   13.20
  -9   4   1   86.79   12.80
   9   4  -1   98.49   22.10
   8  -4  -1   10.10    7.60
  -8  -4   1    3.50   10.80
  -8   4   1   13.00    7.00
   8   4  -1   15.20   13.40
   7  -4  -1   16.10    7.30
  -7  -4   1    5.00   11.00
   7   4  -1   20.40   13.30
  -7   4   1   15.00    8.20
   6  -4  -1   -5.50    6.60
  -6  -4   1   22.90   11.90
   6   4  -1   -3.20   10.40
  -6   4   1   12.10    8.40
   5  -4  -1    1.80    6.90
  -5  -4   1    1.20    8.90
   5   4  -1   -2.40   10.30
  -5   4   1    0.00    7.20
   4  -4  -1   25.30    8.90
  -4  -4   1    6.90    9.10
   4   4  -1   -3.30   10.10
  -4   4   1   -0.30    8.40
  -3  -4   1    6.20   11.00
   3  -4  -1    2.30    7.40
  -3  -4   1   -8.30    7.90
  -3   4   1   -4.90    6.40
  -2  -4   1    5.10    9.50
  -2  -4   1    3.70   14.10
   2  -4  -1   17.60    9.00
  -2   4   1   10.80    9.50
   1  -4  -1   15.20   10.10
  -1  -4   1   42.40   12.20
  -1  -4   1   18.80   11.80
  -1   4   1   13.00   11.00
   0  -4   1   27.60   11.60
   0  -4  -1    8.30    9.80
   0  -4   1   27.20   10.30
   0   4   1   17.20   11.20
  -1  -4  -1   -5.90    7.90
   1  -4   1   -0.70    7.00
   1  -4   1   -5.00    7.80
  -2  -4  -1    6.00   10.30
   2  -4   1    4.20    7.70
  -2  -4  -1    7.50    9.60
   2  -4   1    1.50    6.80
   3  -4   1   25.10    8.60
   3  -4   1   17.20    8.00
  -3  -4  -1   34.30   12.60
  -3  -4  -1   22.60   11.60
  -4  -4  -1  -11.50    8.80
   4  -4   1    2.80    6.30
   4  -4   1    2.80    6.90
  -4  -4  -1   13.10   10.20
  -5  -4  -1   26.30   11.60
   5  -4   1   43.30    8.70
  -5  -4  -1   63.39   16.00
   5  -4   1   57.19    9.40
  -6  -4  -1   22.20   12.30
  -6  -4  -1   21.00   13.30
   6  -4   1   38.40    8.20
   6  -4   1   46.60    8.80
   7  -4   1   57.59    9.20
  -7  -4  -1   48.70   16.70
  -7  -4  -1  104.69   19.50
   7  -4   1   58.49    8.40
  -8  -4  -1  174.28   25.90
  -8  -4  -1  124.79   20.70
   8  -4   1  116.69    8.50
   8  -4   1  110.49    8.70
  -9  -4  -1   46.50   16.40
  -9  -4  -1   28.40   14.00
 -10  -4  -1  103.49   20.50
 -10  -4  -1   96.59   22.00
 -11  -4  -1   27.80   16.30
 -11  -4  -1   -8.20   13.00
 -12  -4  -1   32.70   17.70
 -12  -4  -1  -11.30   12.60
 -13  -4  -1   17.50   17.80
 -13  -4  -1    8.80   18.40
 -14  -4  -1  -28.90   16.90
 -14  -4  -1   12.70   17.10
 -15  -4  -1   -3.40   19.10
 -15  -4  -1   18.40   18.20
 -16  -4  -1   27.50   22.20
 -17  -4  -1   14.40   21.40
 -18  -4  -1   19.50   22.20
 -18  -5   1   49.20   26.60
 -17  -5   1   -6.00   19.60
 -16  -5   1   -1.40   20.50
 -15  -5   1   26.70   26.00
 -14  -5   1  106.39   34.60
 -14  -5   1   81.39   28.70
  13  -5  -1   80.99   11.10
 -13  -5   1   78.29   24.00
 -13  -5   1   99.29   26.60
 -12  -5   1   12.40   18.20
 -12  -5   1   25.80   23.20
  12  -5  -1   31.90    9.30
 -12   5   1   22.50    9.90
  11  -5  -1    8.70    8.40
 -11  -5   1   25.90   19.00
 -11  -5   1  -10.30   18.40
 -11   5   1   23.80   10.80
 -10  -5   1    5.10   13.80
 -10  -5   1   13.70   19.40
  10  -5  -1   11.20    8.30
 -10   5   1   12.20    9.20
  -9  -5   1   57.49   21.10
   9  -5  -1   32.60   11.10
  -9  -5   1  -17.30   11.00
  -9   5   1   35.60   11.10
  -8  -5   1   76.19   18.30
   8  -5  -1   44.00   10.90
  -8  -5   1   66.89   19.90
  -8   5   1   31.60   10.50
  -7  -5   1  159.68   27.10
  -7  -5   1  145.19   21.90
   7  -5  -1  118.09   15.90
  -7   5   1  120.89   16.70
   6  -5  -1   40.90   11.40
  -6  -5   1   53.89   19.60
  -6  -5   1   45.90   16.90
  -6   5   1   76.69   14.40
  -5  -5   1   22.50   14.70
   5  -5  -1   29.30   10.90
  -5  -5   1   25.10   12.60
  -5   5   1   53.59   12.60
  -4  -5   1   30.20   12.40
  -4  -5   1    3.80   12.30
   4  -5  -1   11.10    9.20
  -4   5   1   27.10   11.30
  -3  -5   1   -5.50   10.90
  -3  -5   1   18.80   11.60
  -3   5   1    7.00   10.00
   2  -5  -1   18.00   11.40
  -2  -5   1   33.10   13.40
  -2  -5   1   24.30   13.20
  -2   5   1   33.20   13.80
  -1  -5   1   46.20   14.60
   1  -5  -1   24.80   12.30
  -1  -5   1   40.00   13.50
   0  -5  -1   39.60   13.40
   0  -5   1   18.20   11.60
   0  -5   1   23.80   12.30
   1  -5   1    2.80    8.50
  -1  -5  -1    5.60   10.20
   1  -5   1   10.90   11.20
  -1  -5  -1    2.90   10.60
   2  -5   1   22.80   11.70
   2  -5   1   12.60    9.20
  -2  -5  -1    5.40   11.30
  -2  -5  -1   21.00   12.80
  -3  -5  -1   10.60   10.40
  -3  -5  -1   36.00   13.50
   3  -5   1   20.90    9.70
   3  -5   1   10.50    9.20
   4  -5   1   -1.10    8.10
  -4  -5  -1   -4.90   10.40
   4  -5   1   -1.20    7.20
  -4  -5  -1   15.50   11.80
  -5  -5  -1    9.30   12.50
   5  -5   1   29.90    9.80
   5  -5   1   19.60    8.80
  -5  -5  -1   39.20   14.80
   6  -5   1    3.50    7.40
   6  -5   1   13.20    7.70
  -6  -5  -1   14.20   12.50
  -6  -5  -1   -4.20   11.70
   7  -5   1   -1.00    7.00
  -7  -5  -1   -2.20   10.20
  -7  -5  -1   17.90   15.90
   7  -5   1   20.00    8.30
   8  -5   1    7.90    7.30
   8  -5   1   13.30    7.10
  -8  -5  -1   14.30   14.70
  -8  -5  -1    5.40   11.80
  -9  -5  -1   14.30   16.80
   9  -5   1   34.70    6.90
   9  -5   1   44.40    7.00
  -9  -5  -1   47.20   18.80
 -10  -5  -1    4.60   15.00
 -10  -5  -1   21.60   17.40
 -11  -5  -1   77.59   24.50
 -11  -5  -1   92.49   25.80
 -12  -5  -1   -4.10   19.80
 -12  -5  -1   40.60   20.10
 -13  -5  -1   31.90   21.70
 -13  -5  -1   33.00   19.90
 -14  -5  -1    6.70   17.90
 -15  -5  -1    2.40   18.90
 -16  -5  -1    5.80   20.40
 -17  -5  -1   35.90   25.00
 -17  -6   1   17.40   24.20
 -16  -6   1   -3.50   19.10
 -15  -6   1   -6.70   18.70
 -14  -6   1   37.20   23.20
  13  -6  -1   56.59    9.50
 -13  -6   1  103.39   28.20
  12  -6  -1   41.30   11.00
 -12  -6   1   46.00   24.80
 -11  -6   1   32.00   19.30
  11  -6  -1   32.30   10.50
 -11  -6   1   47.10   22.50
 -10  -6   1   51.79   19.90
 -10  -6   1   21.80   20.70
  10  -6  -1   24.60   11.60
  -9  -6   1   36.80   20.40
  -9  -6   1   33.90   18.90
   9  -6  -1   29.70   11.20
  -8  -6   1   72.19   21.40
  -8  -6   1   57.29   21.30
   8  -6  -1   44.70   15.70
  -7  -6   1   12.50   14.30
  -7  -6   1    2.80   15.20
   7  -6  -1   28.00   11.70
   6  -6  -1   13.20    9.80
  -6  -6   1   29.70   18.80
  -6  -6   1    1.40   11.30
  -5  -6   1   19.00   14.60
  -5  -6   1    4.10   11.90
   5  -6  -1    0.40    8.90
   4  -6  -1  -13.40    8.00
  -4  -6   1   13.80   13.60
  -4  -6   1   27.30   12.90
   3  -6  -1   19.40   11.20
  -3  -6   1   -3.40   10.60
  -3  -6   1   15.10   12.30
   3  -6  -1    3.30   10.40
  -2  -6   1   10.50   11.40
   2  -6  -1    2.00    9.70
  -2  -6   1   18.80   12.50
   2  -6  -1   11.00   12.20
  -1  -6   1   -9.40   11.10
  -1  -6   1   -9.90   10.50
   1  -6  -1  -12.00    9.50
   1  -6  -1   17.20   13.20
   0  -6   1   17.40   12.10
   0  -6  -1  -11.70   10.10
   0  -6   1   -6.40   10.90
   0  -6  -1   20.10   13.40
  -1  -6  -1   10.50   11.50
   1  -6   1  -10.10    8.90
  -1  -6  -1  -14.00   10.20
   1  -6   1    4.80   10.10
   2  -6   1    5.50    9.70
  -2  -6  -1   26.00   12.90
  -2  -6  -1   -5.00   10.40
   3  -6   1    6.80    9.30
  -3  -6  -1    2.90    9.80
   3  -6   1    3.90    9.10
  -3  -6  -1    4.10   11.00
   4  -6   1    2.30    9.60
  -4  -6  -1   12.70   12.80
   4  -6   1   22.10    9.50
  -4  -6  -1   19.10   13.80
  -5  -6  -1   16.50   13.30
   5  -6   1    4.70   10.60
  -5  -6  -1   13.10   13.70
   5  -6   1    7.10    9.60
   6  -6   1   96.79   15.40
  -6  -6  -1   75.59   20.00
  -6  -6  -1   78.59   20.40
   6  -6   1   69.59   14.00
   7  -6   1   80.89   13.90
  -7  -6  -1   60.79   19.40
  -7  -6  -1   56.99   19.80
   7  -6   1   34.30   10.90
   8  -6   1   28.00   10.10
   8  -6   1   36.60   10.80
  -8  -6  -1   13.70   18.10
   9  -6   1   75.49   11.80
  -9  -6  -1  131.99   41.30
   9  -6   1   83.69   12.80
  -9  -6  -1   55.39   18.40
 -10  -6  -1   17.80   16.10
  10  -6   1   10.60    6.40
  10  -6   1    3.00    6.40
 -10  -6  -1    2.90   16.50
 -11  -6  -1    2.50   17.10
 -11  -6  -1  -16.10   14.40
 -12  -6  -1   14.80   20.00
 -13  -6  -1    6.30   20.70
 -14  -6  -1   -1.90   17.90
 -15  -6  -1   17.40   21.90
 -16  -6  -1   29.40   23.10
 -15  -7   1   41.20   26.40
 -14  -7   1   23.00   23.10
  13  -7  -1   15.10    9.60
 -13  -7   1   54.29   27.80
  13  -7  -1   32.90    9.60
 -12  -7   1    9.30   20.20
  12  -7  -1    4.90    9.80
  12  -7  -1   -0.80   10.10
 -11  -7   1    6.30   19.80
  11  -7  -1   -3.40    9.90
  11  -7  -1   15.10   11.60
  10  -7  -1   -1.70   10.60
 -10  -7   1   37.60   19.60
  10  -7  -1    7.90   10.40
  -9  -7   1   20.30   19.80
  -9  -7   1   32.20   19.30
   9  -7  -1   41.80   14.30
   9  -7  -1   17.50   12.20
  -8  -7   1   14.30   15.00
  -8  -7   1   19.90   18.70
   8  -7  -1    4.20   11.20
   8  -7  -1   21.30   21.50
  -7  -7   1    6.60   15.70
  -7  -7   1   61.19   27.80
   7  -7  -1   37.40   15.40
   7  -7  -1   32.20   13.80
  -6  -7   1   47.90   26.00
   6  -7  -1   27.20   13.40
   6  -7  -1   42.90   14.10
  -6  -7   1   57.19   21.10
   5  -7  -1   -7.20   10.00
  -5  -7   1   14.00   15.70
   5  -7  -1   -2.60   10.30
  -5  -7   1    7.60   14.50
  -4  -7   1   16.90   15.10
  -4  -7   1   15.30   14.20
   4  -7  -1   -2.90   10.70
   4  -7  -1   11.50   11.30
   3  -7  -1   11.10   12.70
   3  -7  -1   -1.50   10.20
  -3  -7   1   14.00   14.40
  -3  -7   1    4.40   12.00
   2  -7  -1   10.40   13.90
  -2  -7   1   17.50   13.70
   2  -7  -1   19.30   12.50
  -2  -7   1   -7.60   10.80
  -1  -7   1    0.20   10.90
   1  -7  -1   13.90   12.90
   1  -7  -1   -2.50   11.40
  -1  -7   1    8.80   13.80
   0  -7  -1  -13.00   11.60
   0  -7   1    6.90   12.00
   0  -7   1   -0.70   12.00
   0  -7  -1   10.80   12.30
   1  -7   1    0.60   10.20
  -1  -7  -1    8.20   13.00
  -1  -7  -1    1.80   12.90
   1  -7   1   -7.30   11.40
  -2  -7  -1   28.20   14.60
  -2  -7  -1   -7.50   11.70
   2  -7   1    1.10   11.80
   2  -7   1  -16.80   11.20
  -3  -7  -1   -3.30   13.20
   3  -7   1  -14.40   10.40
   3  -7   1   13.00   11.80
  -3  -7  -1   12.80   14.20
  -4  -7  -1   27.70   17.20
  -4  -7  -1    9.10   15.40
   4  -7   1   23.30   14.80
   4  -7   1   21.10   11.80
  -5  -7  -1   -6.80   11.90
   5  -7   1    2.30   11.60
   5  -7   1    4.20   10.30
  -6  -7  -1    5.40   16.20
   6  -7   1   24.00   13.10
   6  -7   1    5.00   10.30
   7  -7   1   -2.20   10.00
  -7  -7  -1   21.30   18.10
  -7  -7  -1   24.40   18.70
   7  -7   1   21.10   13.20
  -8  -7  -1    3.70   17.10
   8  -7   1   -2.70    9.80
  -8  -7  -1   -7.20   14.00
   8  -7   1   10.50   11.00
  -9  -7  -1   10.10   18.60
   9  -7   1    2.00    9.60
   9  -7   1    8.30    9.10
  10  -7   1    8.20    8.90
 -10  -7  -1   17.50   20.90
  10  -7   1    9.50    8.40
 -11  -7  -1   -3.50   18.20
 -12  -7  -1  -11.70   16.60
 -13  -7  -1  -20.20   18.40
 -14  -7  -1    4.50   20.50
 -15  -7  -1   23.80   28.70
 -14  -8   1   16.00   24.70
  13  -8  -1   28.30   11.20
 -13  -8   1   20.70   23.50
  13  -8  -1   50.49   12.00
 -12  -8   1   32.80   24.50
  12  -8  -1    0.10   12.40
  11  -8  -1   19.50   13.20
  11  -8  -1   39.60   17.80
 -11  -8   1  -11.20   17.20
 -10  -8   1   54.79   26.60
  10  -8  -1   41.30   15.50
  10  -8  -1   47.70   15.60
  -9  -8   1   -0.60   17.80
   9  -8  -1   -2.00   10.70
   9  -8  -1   26.70   15.60
   8  -8  -1   94.79   19.50
   8  -8  -1   24.90   14.10
  -8  -8   1   47.00   22.30
  -7  -8   1  -11.80   14.00
   7  -8  -1    2.20   12.00
   7  -8  -1   -3.70   12.50
  -6  -8   1  -19.30   13.40
  -6  -8   1   -4.20   13.90
   6  -8  -1   19.80   13.90
   6  -8  -1   -2.10   10.70
   5  -8  -1   11.00   12.30
  -5  -8   1   10.10   17.20
  -5  -8   1   -2.30   15.30
   5  -8  -1   13.90   12.90
  -4  -8   1   30.00   18.40
   4  -8  -1   54.39   17.50
  -4  -8   1   45.70   20.40
   4  -8  -1   24.00   14.10
  -3  -8   1   -7.10   15.10
  -3  -8   1   23.30   15.90
   3  -8  -1   -3.60   12.10
   3  -8  -1   -2.00   13.00
   2  -8  -1  -10.20   13.10
  -2  -8   1  -12.70   12.40
  -2  -8   1   -9.40   13.50
   2  -8  -1    8.10   15.20
  -1  -8   1   -4.90   15.00
   1  -8  -1    3.40   15.40
   1  -8  -1   39.10   18.20
  -1  -8   1   20.30   16.50
   0  -8  -1   51.79   20.00
   0  -8  -1   57.29   21.00
   0  -8   1   67.19   19.00
   0  -8   1   52.49   20.20
   1  -8   1   31.10   17.60
  -1  -8  -1   29.00   18.30
   1  -8   1   28.70   15.70
  -1  -8  -1   21.50   19.50
   2  -8   1   27.70   16.00
   2  -8   1   19.20   15.10
  -2  -8  -1    2.10   15.50
  -2  -8  -1   30.40   18.00
   3  -8   1  -17.80    9.10
   3  -8   1  -12.10   11.70
  -3  -8  -1   18.90   16.80
  -3  -8  -1   14.70   16.80
   4  -8   1   35.90   16.20
  -4  -8  -1   26.10   17.60
   4  -8   1    9.50   11.50
  -4  -8  -1   81.19   24.90
  -5  -8  -1   13.20   16.60
   5  -8   1  -11.20   12.00
  -5  -8  -1   -5.80   13.60
   5  -8   1    3.80   11.60
  -6  -8  -1   46.10   20.80
   6  -8   1   55.89   17.80
   6  -8   1   52.89   16.80
  -7  -8  -1   67.49   23.20
   7  -8   1   44.90   15.40
   7  -8   1   16.10   14.90
  -8  -8  -1  -10.10   15.00
   8  -8   1  -14.90    9.30
  -9  -8  -1   54.99   24.90
   9  -8   1   73.59   15.20
   9  -8   1   52.89   14.60
  10  -8   1   11.70   10.70
 -10  -8  -1   24.80   22.30
  10  -8   1    7.60   11.40
  11  -8   1   32.00    9.40
  11  -8   1   24.60   10.00
 -11  -8  -1   14.60   20.20
 -12  -8  -1   26.30   21.50
 -13  -8  -1  -15.90   23.40
  12  -9  -1  -14.20   11.90
 -12  -9   1  -20.50   18.10
  11  -9  -1   18.40   14.50
  11  -9  -1   -8.60   11.80
 -11  -9   1   -6.30   20.20
  10  -9  -1   -3.70   13.40
  10  -9  -1    4.50   14.50
 -10  -9   1   10.80   20.60
  -9  -9   1   17.70   17.10
   9  -9  -1   33.70   18.00
   9  -9  -1   19.00   15.00
  -8  -9   1    4.20   19.50
   8  -9  -1  -12.10   13.60
   8  -9  -1    1.10   12.50
   7  -9  -1  -20.40    9.90
   7  -9  -1   16.10   14.60
  -7  -9   1   22.80   18.30
   6  -9  -1    6.60   13.40
   6  -9  -1   43.10   17.90
  -6  -9   1   36.60   21.20
  -5  -9   1   -7.90   15.00
   5  -9  -1   -1.40   15.00
   5  -9  -1    6.90   12.50
   4  -9  -1   17.90   16.90
  -4  -9   1   -3.80   16.20
   4  -9  -1   27.50   16.50
  -3  -9   1   24.80   17.80
   3  -9  -1   14.90   14.60
  -2  -9   1   -1.80   15.30
   2  -9  -1   -2.40   14.40
  -2  -9   1   -7.50   14.60
   1  -9  -1   -0.30   15.60
  -1  -9   1  -13.10   15.00
  -1  -9   1    5.30   15.00
   1  -9  -1   -6.10   12.50
   0  -9  -1   -1.20   16.50
   0  -9   1   14.30   15.70
   0  -9  -1   16.10   15.60
   0  -9   1  -20.10   13.30
  -1  -9  -1   -4.10   17.80
   1  -9   1   13.70   19.70
   1  -9   1  -12.50   10.70
  -1  -9  -1   -7.10   12.50
   2  -9   1   18.80   17.40
  -2  -9  -1  -17.30   13.90
   2  -9   1   11.90   14.10
  -3  -9  -1   -6.50   13.60
   3  -9   1    6.00   13.20
   3  -9   1   -0.30   15.30
   4  -9   1   21.70   17.10
   4  -9   1   -4.30   11.20
  -4  -9  -1   -8.20   13.80
   5  -9   1   42.50   19.50
   5  -9   1    9.90   13.10
  -5  -9  -1   13.60   17.10
   6  -9   1   -6.60   12.20
  -6  -9  -1    5.70   16.20
   6  -9   1   -9.60   13.70
  -7  -9  -1   38.40   21.30
   7  -9   1    7.60   15.50
   7  -9   1  -14.60   10.10
   8  -9   1   19.60   15.10
   8  -9   1  -17.20   10.20
  -8  -9  -1  -10.60   14.10
   9  -9   1   24.40   13.10
  -9  -9  -1  -20.20   14.80
   9  -9   1    0.00   13.30
 -10  -9  -1  118.59   51.59
  10  -9   1    5.30   11.90
  10  -9   1   20.70   14.40
 -11  -9  -1  -10.90   18.80
  11  -9   1   18.70   11.50
  11  -9   1   27.60   11.60
   9 -10  -1    0.30   16.50
  -9 -10   1   -8.10   18.40
   9 -10  -1    1.60   14.50
   8 -10  -1   -1.30   17.40
  -8 -10   1   18.50   20.70
   8 -10  -1   18.90   16.20
   7 -10  -1    1.50   21.60
  -7 -10   1  -27.90   15.00
   7 -10  -1   -4.90   16.80
   6 -10  -1   15.00   15.30
  -6 -10   1  -29.60   12.60
   6 -10  -1    6.30   18.30
  -5 -10   1   -0.80   16.40
   5 -10  -1   -7.50   17.80
   5 -10  -1   12.20   15.60
  -4 -10   1   -3.00   15.60
   4 -10  -1  -11.30   17.60
   4 -10  -1   -6.70   14.10
   3 -10  -1   -4.50   23.50
   3 -10  -1   20.70   17.50
  -3 -10   1   -0.40   15.40
  -2 -10   1   -3.40   14.80
   2 -10  -1   22.00   17.80
  -1 -10   1  -19.00   13.30
   1 -10  -1   -9.90   13.60
   0 -10  -1  -14.90   13.40
   0 -10   1   31.70   19.00
  -1 -10  -1   -6.40   15.40
   1 -10   1    1.70   14.70
   2 -10   1   -3.30   13.90
   2 -10   1   14.00   17.80
  -2 -10  -1    3.20   18.20
   3 -10   1   13.40   14.70
  -3 -10  -1   -0.90   17.40
   3 -10   1   13.40   19.40
   4 -10   1   20.50   18.10
   4 -10   1    4.70   13.70
  -4 -10  -1    4.30   16.40
  -5 -10  -1   -0.10   19.50
   5 -10   1   -7.30   13.10
   5 -10   1    1.30   30.40
  -6 -10  -1   12.10   18.90
   6 -10   1    8.60   15.70
   6 -10   1   22.10   19.00
   7 -10   1   -4.70   12.70
   7 -10   1   26.90   19.80
  -7 -10  -1   21.00   20.70
   8 -10   1   10.60   14.20
  -8 -10  -1    7.60   20.20
   8 -10   1   15.60   18.90
  -4 -11   1   -9.10   21.80
   4 -11  -1    2.50   15.30
   3 -11  -1  -27.50   12.90
  -3 -11   1    1.80   17.70
  -2 -11   1   12.80   20.00
   2 -11  -1   -7.50   15.00
   1 -11  -1    9.00   18.10
  -1 -11   1   -8.80   15.70
   0 -11  -1   -5.40   14.70
   0 -11   1  -10.30   14.40
  -1 -11  -1  -18.90   16.40
   1 -11   1   -8.70   13.90
   2 -11   1    9.60   15.70
  -2 -11  -1  -23.30   16.70
   3 -11   1   -2.80   14.50
  -3 -11  -1  -20.00   16.90
 -20   0   2   -0.40   19.70
 -20   0   2   -2.20   16.80
 -19   0   2   96.39   22.50
  18   0  -2    8.90   14.60
 -18   0   2   15.80   13.60
  17   0  -2   99.09   20.90
 -17   0   2   38.00   15.60
  16   0  -2   46.60   16.80
 -16   0   2  110.69   19.80
  15   0  -2  294.37   27.10
 -15   0   2  254.47   25.20
 -14   0   2   14.10   12.10
  14   0  -2   -4.70   12.70
  13   0  -2  740.33   35.60
  12   0  -2  202.08   20.90
 -12   0   2  234.68   20.70
  11   0  -2  138.69   22.20
 -11   0   2  117.79   16.20
 -10   0   2  214.18   18.60
  10   0  -2  247.98   20.20
  -9   0   2  615.24   27.00
   9   0  -2  648.24   28.20
  -8   0   2 1603.34   43.70
   8   0  -2 1651.03   45.10
  -7   0   2  359.76   18.90
   7   0  -2  384.06   20.10
   6   0  -2  509.35   21.90
  -6   0   2  538.75   21.50
   5   0  -2  154.28   13.30
  -5   0   2  162.98   13.20
   4   0  -2 9979.90  163.08
  -4   0   2 9999.00  163.28
   3   0  -2  122.59    9.90
  -3   0   2  120.59    9.90
   2   0  -2 1581.04   33.00
  -2   0   2 1646.04   33.50
   1   0  -2  802.42   19.10
   0   0  -2 1435.16   28.60
   0   0   2 1452.85   28.70
   1   0   2   43.60    5.90
  -1   0  -2   46.20    5.90
   2   0   2 6463.15  104.19
  -2   0  -2 6442.85  104.09
  -3   0  -2  250.27   11.80
   3   0   2  257.47   12.40
  -4   0  -2   67.79    8.90
  -4   0  -2   70.39    9.20
  -5   0  -2 4220.58   75.39
  -5   0  -2 4233.58   75.89
  -6   0  -2 1802.12   40.60
  -6   0  -2 1915.51   42.30
  -7   0  -2 5000.10   92.19
  -7   0  -2 4948.60   90.69
  -8   0  -2  701.53   25.30
  -8   0  -2  734.43   26.70
  -9   0  -2   35.60    9.80
  -9   0  -2   57.19   10.50
 -10   0  -2  457.25   22.60
 -10   0  -2  450.95   24.10
 -11   0  -2  217.08   17.70
 -11   0  -2  194.88   19.40
 -12   0  -2  200.78   20.80
 -13   0  -2    4.30   11.50
 -13   0  -2   16.50   10.90
 -14   0  -2  151.18   30.00
 -14   0  -2  136.79   20.20
 -15   0  -2    4.20   13.30
 -15   0  -2   11.80   12.20
 -16   0  -2   49.90   17.00
 -16   0  -2   77.39   17.90
 -17   0  -2    4.10   14.80
 -17   0  -2   17.90   13.40
 -18   0  -2   17.60   15.50
 -18   0  -2   -8.90   12.30
 -19   0  -2   21.00   14.40
 -19   0  -2   42.00   18.30
 -20  -1   2   31.20   23.50
 -20  -1   2   49.90   24.80
 -20   1   2   94.39   22.90
 -20   1   2   63.59   19.00
 -19  -1   2  -15.30   15.30
 -19   1   2    4.00   14.60
  18  -1  -2   48.80   16.30
 -18  -1   2   63.09   20.50
 -18   1   2   51.09   16.40
  18   1  -2   52.59   20.40
  17  -1  -2   47.20   16.20
 -17  -1   2   37.60   16.20
  17   1  -2   61.39   19.20
 -17   1   2   25.40   14.30
  16  -1  -2   11.50   12.50
 -16  -1   2   20.70   15.20
  16   1  -2   50.59   18.30
 -16   1   2   32.60   14.10
 -15  -1   2  399.46   30.70
  15  -1  -2  434.46   28.20
 -15   1   2  399.36   31.70
  15   1  -2  416.76   32.60
  14  -1  -2   10.60   11.80
 -14  -1   2   -0.60   11.90
 -14   1   2    0.70   11.00
  14   1  -2    9.20   13.90
 -13  -1   2   41.40   13.90
 -13   1   2   19.30   11.00
  13   1  -2   41.20   15.00
  12  -1  -2   18.60    9.60
 -12  -1   2   32.50   12.60
  12   1  -2    8.60   12.20
 -12   1   2   13.50   10.00
 -11  -1   2  250.07   25.10
  11  -1  -2  249.97   19.30
  11   1  -2  285.97   24.30
 -11   1   2  257.47   19.30
 -10  -1   2   -4.90    9.00
  10  -1  -2    7.10    8.00
 -10   1   2    8.00    8.80
  10   1  -2   -0.30    9.00
   9  -1  -2 1588.34   43.50
  -9  -1   2 1562.74   48.10
  -9   1   2 1602.94   42.60
   9   1  -2 1653.63   50.69
  -8  -1   2  118.19   16.50
   8  -1  -2  119.89   14.20
  -8   1   2  139.29   13.70
   8   1  -2  132.59   17.10
  -7  -1   2 2177.68   55.09
   7  -1  -2 2128.19   48.10
  -7   1   2 2175.98   48.50
   7   1  -2 2122.89   54.59
   6  -1  -2 2282.37   48.30
  -6  -1   2 2190.08   53.69
  -6   1   2 2205.18   47.80
   6   1  -2 2207.18   54.39
  -5  -1   2  183.28   14.90
   5  -1  -2  172.48   12.20
  -5   1   2  172.38   12.80
   5   1  -2  164.58   15.30
   4  -1  -2 2607.74   51.29
  -4  -1   2 2607.24   56.59
   4   1  -2 2656.93   56.89
  -4   1   2 2569.04   51.49
  -3  -1   2  498.75   19.80
   3  -1  -2  495.95   17.70
   3   1  -2  530.95   20.30
  -3   1   2  493.95   17.70
  -2  -1   2  140.29   11.20
   2  -1  -2  135.69   10.00
  -2   1   2  140.29   10.30
   2   1  -2  146.79   11.20
   1  -1  -2  105.79    9.20
  -1  -1   2  100.09    8.60
   1   1  -2  120.19    9.10
  -1   1   2  111.69    9.30
   0  -1  -2 1528.25   34.10
   0  -1   2 1536.05   30.80
   0   1   2 1533.05   33.80
   0   1  -2 1543.65   31.10
   1  -1   2 1344.77   25.90
  -1  -1  -2 1400.56   32.50
  -1   1  -2 1351.66   26.00
   1   1   2 1340.37   32.10
   2  -1   2 1575.54   27.60
  -2  -1  -2 1613.54   37.20
  -2   1  -2 1613.14   27.50
   2   1   2 1606.04   37.70
  -3  -1  -2  396.56   18.20
   3   1   2  380.36   18.90
  -4  -1  -2   69.09   10.50
  -4  -1  -2   83.39   11.40
  -5  -1  -2  482.15   21.00
  -5  -1  -2  435.46   21.20
  -5   1  -2  449.16   12.10
  -5   1  -2  425.66   11.40
  -6  -1  -2   63.09   11.50
  -6  -1  -2   62.59   11.20
  -6   1  -2   64.79    7.50
  -6   1  -2   55.09    7.00
  -7  -1  -2  120.49   15.70
  -7  -1  -2  133.69   15.10
  -7   1  -2  135.99    9.70
  -7   1  -2  150.88    9.90
  -8  -1  -2   18.90    9.20
  -8  -1  -2    3.90    9.40
  -8   1  -2   -1.10    5.40
  -8   1  -2    8.90    6.10
  -9  -1  -2  337.57   21.90
  -9  -1  -2  368.06   24.00
  -9   1  -2  338.87   15.90
  -9   1  -2  371.76   15.80
 -10  -1  -2   72.99   17.40
 -10  -1  -2   65.99   13.30
 -10   1  -2   79.79   12.20
 -10   1  -2   65.79   10.50
 -11  -1  -2  121.29   17.60
 -11  -1  -2  111.69   17.60
 -11   1  -2  106.69   13.20
 -11   1  -2   57.19   10.20
 -12  -1  -2   64.69   16.10
 -12   1  -2   51.39   10.90
 -12   1  -2   46.20   10.40
 -13  -1  -2   20.90   14.80
 -13  -1  -2   33.90   13.50
 -13   1  -2    3.40    9.10
 -13   1  -2   12.00   10.20
 -14  -1  -2   37.50   17.20
 -14  -1  -2   25.90   13.80
 -14   1  -2   52.29   11.70
 -14   1  -2   22.40   10.90
 -15  -1  -2   22.10   14.50
 -15  -1  -2   14.50   16.40
 -15   1  -2    7.60    9.90
 -15   1  -2    3.40   10.30
 -16  -1  -2   20.70   16.60
 -16  -1  -2   14.00   14.00
 -16   1  -2   21.40   11.00
 -16   1  -2   19.60   12.70
 -17  -1  -2  -13.70   14.80
 -17  -1  -2   30.20   15.10
 -17   1  -2    3.50   11.00
 -17   1  -2    5.60   10.20
 -18  -1  -2   22.50   16.00
 -18  -1  -2    8.40   16.90
 -18   1  -2    7.90   10.60
 -18   1  -2    5.60   11.80
 -20  -2   2    8.50   20.60
 -20  -2   2   -6.10   20.90
 -20   2   2    9.90   21.50
 -20   2   2    1.90   16.90
 -19  -2   2   16.40   19.10
 -19  -2   2   64.49   27.00
 -19   2   2   15.40   15.30
  18  -2  -2   -3.00   12.90
 -18  -2   2    3.60   15.20
 -18   2   2   14.50   12.80
  17  -2  -2    1.20   11.90
 -17  -2   2   16.30   15.50
  17   2  -2    1.70   17.10
 -17   2   2   13.80   11.70
  16  -2  -2    5.80   12.50
 -16  -2   2   -1.30   14.10
 -16   2   2   10.70   12.10
  16   2  -2   21.70   17.60
  15  -2  -2   46.20   19.40
 -15  -2   2   31.40   16.80
  15   2  -2   45.00   18.40
 -15   2   2   47.20   13.00
  14  -2  -2  111.69   17.90
 -14  -2   2  159.68   24.70
 -14   2   2  137.59   18.50
  14   2  -2  183.78   28.10
  13  -2  -2  644.74   28.60
 -13  -2   2  665.33   37.60
 -13   2   2  603.34   28.40
  13   2  -2  622.14   39.20
 -12  -2   2  432.86   31.40
  12  -2  -2  392.96   22.50
  12   2  -2  409.76   32.10
 -12   2   2  447.56   23.60
 -11  -2   2  322.87   25.90
  11  -2  -2  284.07   18.90
  11   2  -2  309.37   27.10
 -11   2   2  286.57   19.40
  10  -2  -2  493.35   23.20
 -10  -2   2  441.96   28.60
  10   2  -2  467.55   30.70
 -10   2   2  557.94   23.80
  -9  -2   2    6.10   11.90
   9  -2  -2   -8.00    6.70
   9   2  -2  -15.70    9.40
  -9   2   2   -5.80    7.40
  -8  -2   2   88.19   15.40
   8  -2  -2  100.79   12.70
  -8   2   2  101.99   13.30
   8   2  -2  140.39   19.50
  -7  -2   2   -9.10    7.30
   7  -2  -2   -5.60    6.10
  -7   2   2    2.10    7.10
   7   2  -2    5.40    9.30
  -6  -2   2  130.29   15.70
   6  -2  -2  120.79   12.00
   6   2  -2  125.89   16.70
  -6   2   2  121.49   12.10
   5  -2  -2   92.79   11.50
  -5  -2   2  101.29   15.00
   5   2  -2  131.79   16.10
  -5   2   2   93.39   11.50
  -4  -2   2  275.87   18.80
   4  -2  -2  253.57   15.10
   4   2  -2  234.78   18.10
  -4   2   2  232.08   14.50
  -3  -2   2  574.14   24.00
   3  -2  -2  574.44   21.20
   3   2  -2  509.95   23.20
  -3   2   2  589.44   21.50
   2  -2  -2   23.40    8.10
  -2  -2   2   19.20    8.80
   2   2  -2   15.20    8.60
  -2   2   2   17.30    7.30
  -1  -2   2 3094.09   61.69
   1  -2  -2 3116.89   62.09
  -1   2   2 3082.89   62.29
   1   2  -2 2935.01   60.29
   0  -2  -2 7782.82  134.09
   0   2   2 7695.43  133.79
  -1  -2  -2 2518.65   56.09
   1  -2   2 2592.74   49.10
   1   2   2 2461.65   56.09
  -1   2  -2 2557.84   48.00
   2  -2   2  131.09    9.40
  -2   2  -2  152.18    9.20
   3  -2   2   -0.50    3.50
  -3  -2  -2   12.10    8.30
   3   2   2   10.40    9.10
  -4  -2  -2  214.28   18.20
  -4  -2  -2  246.18   18.00
  -5  -2  -2 1697.53   49.10
  -5  -2  -2 1771.82   48.20
  -6  -2  -2  896.41   35.80
  -6  -2  -2  930.51   34.40
  -7  -2  -2 1088.99   38.70
  -7  -2  -2  993.40   47.00
  -8  -2  -2  252.77   22.70
  -8  -2  -2  255.87   21.00
  -9  -2  -2   17.30   12.10
 -10  -2  -2  261.07   23.70
 -10  -2  -2  232.08   25.00
 -11  -2  -2    4.90   12.50
 -11  -2  -2   23.10   12.70
 -12  -2  -2   -2.60   13.20
 -12  -2  -2    1.40   14.30
 -13  -2  -2   18.60   16.40
 -13  -2  -2   42.40   15.70
 -14  -2  -2   65.29   20.00
 -14  -2  -2   50.19   17.20
 -15  -2  -2   -1.50   14.80
 -15  -2  -2   58.69   20.30
 -16  -2  -2  123.69   25.90
 -16  -2  -2  103.29   22.20
 -17  -2  -2   12.50   17.30
 -17  -2  -2   22.60   21.50
 -18  -2  -2   28.00   36.50
 -18  -2  -2   -6.30   17.80
 -19  -3   2   24.30   24.10
 -19   3   2  -12.10    9.30
 -18  -3   2  107.99   30.20
 -18  -3   2   24.20   21.20
 -18   3   2   44.70   12.70
  17  -3  -2    5.30   10.30
 -17  -3   2    8.50   18.20
 -17   3   2   -2.30    9.30
 -16  -3   2   22.10   16.40
  16  -3  -2   19.20   11.20
  16   3  -2   -8.20   16.80
 -16   3   2    0.00   10.20
 -15  -3   2   -6.40   14.70
  15  -3  -2   12.70    9.80
  15   3  -2    6.70   16.10
 -15   3   2   21.20   11.10
 -14  -3   2   29.90   17.80
  14  -3  -2   31.30   10.90
 -14   3   2   26.00   10.90
  14   3  -2   20.20   15.50
 -13  -3   2   -5.30   12.00
  13  -3  -2    2.00    8.60
 -13   3   2   -1.80    8.80
  13   3  -2   21.60   17.10
 -12  -3   2   74.49   19.10
  12  -3  -2  105.19   14.40
  12   3  -2   88.29   21.70
 -12   3   2   90.09   13.20
 -11  -3   2   48.70   16.00
  11  -3  -2   51.99   10.70
  11   3  -2   41.30   17.00
 -11   3   2   71.19   12.10
  10  -3  -2  107.09   13.70
 -10  -3   2   81.99   17.50
  10   3  -2   91.79   18.60
 -10   3   2   90.19   12.80
  -9  -3   2  124.19   19.30
   9  -3  -2  112.29   13.90
   9   3  -2  145.69   22.30
  -9   3   2  140.39   14.50
   8  -3  -2  212.28   15.70
  -8  -3   2  211.88   21.70
  -8   3   2  245.58   17.10
   8   3  -2  207.68   23.50
   7  -3  -2  646.44   24.90
  -7   3   2  717.43   25.90
   7   3  -2  638.34   33.50
   6  -3  -2  223.28   15.50
  -6  -3   2  209.38   20.80
   6   3  -2  175.08   20.20
  -6   3   2  197.38   15.70
   5  -3  -2    3.60    7.30
  -5  -3   2   18.50    9.70
  -5   3   2   -0.40    6.60
  -4  -3   2  143.59   16.90
   4  -3  -2  170.58   14.20
   4   3  -2  139.39   17.20
  -4   3   2  164.28   13.90
  -3  -3   2  284.67   19.90
   3  -3  -2  272.17   17.30
  -3   3   2  235.58   16.90
   3   3  -2  276.37   19.90
  -2  -3   2   34.00   10.20
   2  -3  -2   31.30    9.20
  -2   3   2   26.90    8.90
   2   3  -2   26.80    9.50
  -1  -3   2  642.14   26.10
   1  -3  -2  647.74   26.50
  -1   3   2  611.44   26.40
   1   3  -2  684.43   26.40
   0  -3  -2 1413.86   41.40
   0  -3   2 1394.06   37.30
   0   3   2 1367.56   41.40
   0   3  -2 1352.96   37.40
   1  -3   2  722.83   24.40
  -1  -3  -2  754.42   30.20
   1   3   2  749.03   30.40
  -2  -3  -2  254.27   19.60
   2  -3   2  272.57   15.30
   2  -3   2  269.07   14.80
   2   3   2  261.47   21.00
  -3  -3  -2  258.27   21.10
   3  -3   2  338.87   14.40
  -3  -3  -2  322.27   21.30
   3  -3   2  276.97   13.50
   4  -3   2  610.94   16.90
   4  -3   2  534.95   16.50
  -4  -3  -2  565.84   28.50
  -5  -3  -2   54.09   13.90
  -5  -3  -2   66.79   14.50
   5  -3   2   83.49    6.50
  -6  -3  -2   55.29   15.80
  -7  -3  -2   16.40   10.80
  -7  -3  -2  -10.00    9.60
  -8  -3  -2  171.28   22.70
  -8  -3  -2  157.98   20.70
  -9  -3  -2    5.70   10.50
  -9  -3  -2   37.60   14.60
 -10  -3  -2  104.29   22.00
 -10  -3  -2  148.39   22.90
 -11  -3  -2  222.08   26.50
 -11  -3  -2  161.78   25.80
 -12  -3  -2   51.49   18.60
 -12  -3  -2  106.39   20.00
 -13  -3  -2   38.50   19.80
 -13  -3  -2   82.59   20.60
 -14  -3  -2   -7.40   17.00
 -14  -3  -2   25.80   18.00
 -15  -3  -2   10.30   17.90
 -15  -3  -2   21.80   17.20
 -16  -3  -2   -8.40   18.10
 -16  -3  -2   -0.60   16.70
 -17  -3  -2  -14.40   16.50
 -17  -3  -2    4.70   22.60
 -18  -3  -2  -11.50   21.30
 -18  -3  -2    0.70   19.20
 -19  -4   2  -10.00   22.60
 -18  -4   2   29.80   25.60
  17  -4  -2    6.40    7.90
 -17  -4   2   35.20   25.10
 -17   4   2    0.90    8.60
 -16  -4   2   -2.30   18.40
 -16  -4   2   43.50   25.90
 -16   4   2    5.30    9.00
  15  -4  -2    8.50    8.80
 -15  -4   2   17.90   18.70
 -15   4   2   15.40   10.50
 -14  -4   2  195.98   31.00
  14  -4  -2  128.09   15.40
  14   4  -2   94.69   26.80
 -14   4   2  131.59   16.40
  13  -4  -2  229.98   17.90
 -13  -4   2  171.68   28.40
  13   4  -2  143.29   27.60
 -13   4   2  201.88   18.20
 -12  -4   2  231.38   29.20
  12  -4  -2  231.98   17.80
 -12   4   2  180.38   18.60
  12   4  -2  207.08   31.80
 -11  -4   2  136.59   22.60
  11  -4  -2  130.39   16.00
 -11   4   2  100.19   14.50
  11   4  -2  121.09   24.50
  10  -4  -2  100.39   14.10
 -10  -4   2    0.70   11.70
 -10   4   2   42.30   10.50
  10   4  -2   33.30   17.60
  -9  -4   2  293.27   27.60
   9  -4  -2  290.57   19.10
   9   4  -2  252.57   28.90
  -9   4   2  294.57   19.30
  -8  -4   2    9.60   10.90
   8  -4  -2   26.80    9.80
  -8   4   2   42.00   11.20
   8   4  -2   30.50   13.50
  -7  -4   2   17.00   12.40
   7  -4  -2   49.40   11.00
   7   4  -2   79.49   18.60
  -7   4   2   42.70   10.80
   6  -4  -2   16.80    8.50
  -6  -4   2   -0.90   10.00
   6   4  -2    9.00   12.30
  -6   4   2    7.40    8.10
  -5  -4   2   81.99   16.80
   5  -4  -2   54.09   12.50
  -5   4   2   85.59   14.20
   5   4  -2   62.09   16.50
   4  -4  -2   30.00   10.20
  -4  -4   2   49.70   13.10
   4   4  -2   28.10   13.50
  -4   4   2   44.30   10.90
  -3  -4   2  115.89   17.70
   3  -4  -2  118.39   16.80
  -3   4   2  124.49   16.10
   3   4  -2  122.69   19.90
   2  -4  -2  478.15   25.30
  -2  -4   2  495.45   26.70
   2   4  -2  472.95   26.70
  -2   4   2  445.06   25.40
  -1  -4   2 1913.51   51.49
   1  -4  -2 1854.61   52.69
   1   4  -2 1822.32   51.09
  -1   4   2 1845.62   53.09
   0  -4   2 1480.35   45.20
   0  -4   2 1452.75   42.70
   0   4   2 1438.76   47.30
  -1  -4  -2  689.23   32.70
   1  -4   2  718.53   27.90
   1  -4   2  737.23   29.20
   1   4   2  698.23   33.80
  -2  -4  -2  126.19   18.40
   2  -4   2  126.29   14.00
   2  -4   2  110.69   13.80
   2   4   2  125.09   20.50
   3  -4   2   39.10    8.80
  -3  -4  -2   13.30   18.10
  -3  -4  -2   33.60   13.50
   3  -4   2   56.19   10.10
  -4  -4  -2   36.50   13.40
   4  -4   2   45.10    8.90
   4  -4   2   29.10    8.60
  -4  -4  -2   44.60   14.30
   5  -4   2  439.06   17.70
   5  -4   2  481.35   17.70
  -5  -4  -2  444.16   28.60
  -5  -4  -2  477.65   31.40
  -6  -4  -2 1174.78   48.20
   6  -4   2 1085.69   26.00
   6  -4   2 1106.29   25.90
  -6  -4  -2 1151.08   45.60
  -7  -4  -2  687.53   36.70
  -7  -4  -2  626.14   38.20
  -8  -4  -2  652.03   38.80
  -8  -4  -2  604.14   35.90
  -9  -4  -2  242.08   25.90
  -9  -4  -2  266.47   28.90
 -10  -4  -2  113.29   23.60
 -10  -4  -2   85.09   19.90
 -11  -4  -2   30.50   18.70
 -11  -4  -2   22.60   16.60
 -12  -4  -2   -4.40   14.10
 -12  -4  -2   14.20   17.00
 -13  -4  -2  -13.60   16.10
 -14  -4  -2   25.30   17.50
 -15  -4  -2  -18.40   18.80
 -15  -4  -2   -2.00   17.30
 -16  -4  -2   -9.10   17.10
 -17  -4  -2   15.50   22.40
 -18  -5   2   32.90   24.00
 -17  -5   2   -4.00   21.10
 -16  -5   2   78.59   29.50
  15  -5  -2   87.29   13.10
 -15  -5   2   58.29   27.30
 -15   5   2   65.39   12.30
  14  -5  -2   25.90    9.70
 -14  -5   2    7.70   19.80
 -14  -5   2   37.80   24.50
 -14   5   2   46.00   12.50
 -13  -5   2   36.50   18.40
  13  -5  -2    3.30    8.80
 -13  -5   2    4.30   19.70
 -13   5   2    9.10   10.50
 -12  -5   2   28.50   18.10
  12  -5  -2   39.50   11.60
  12   5  -2  -12.60   24.60
 -12   5   2   44.00   13.20
 -11  -5   2  178.48   28.60
  11  -5  -2  144.39   17.20
 -11   5   2  180.68   19.70
  11   5  -2  119.39   25.80
 -10  -5   2  131.99   25.50
  10  -5  -2  165.88   17.90
  10   5  -2  217.58   30.90
 -10   5   2  116.89   17.90
  -9  -5   2  188.08   26.50
   9  -5  -2  176.28   18.70
  -9   5   2  185.38   19.30
   9   5  -2  253.27   30.10
  -8  -5   2  343.77   29.40
   8  -5  -2  359.36   22.90
   8   5  -2  374.36   32.80
  -8   5   2  277.07   21.40
   7  -5  -2  657.13   29.20
  -7  -5   2  647.74   37.80
  -7   5   2  643.14   30.20
   7   5  -2  667.63   39.70
  -6  -5   2  615.14   35.40
   6  -5  -2  658.13   30.20
  -6   5   2  580.34   29.40
   6   5  -2  617.04   37.50
  -5  -5   2  331.37   26.40
   5   5  -2  291.17   27.00
  -5   5   2  304.87   23.60
   4  -5  -2  137.59   18.00
  -4  -5   2  157.28   22.70
   4   5  -2  127.89   21.20
  -4   5   2  134.49   17.60
  -3  -5   2  108.69   18.60
   3  -5  -2   82.09   16.40
  -3  -5   2  124.79   22.70
  -3   5   2   66.89   15.80
   2  -5  -2   13.50   11.10
  -2  -5   2   29.10   14.80
  -2  -5   2   37.70   12.60
  -2   5   2   36.40   13.10
   1  -5  -2  220.08   22.90
  -1  -5   2  209.68   23.50
  -1  -5   2  242.18   22.00
  -1   5   2  269.97   28.70
   0  -5  -2  816.12   38.50
   0  -5   2  885.01   35.50
   0  -5   2  804.42   35.80
   0   5   2  855.71   40.10
   1  -5   2  630.04   29.40
  -1  -5  -2  628.54   34.30
   1  -5   2  605.94   35.10
  -2  -5  -2  118.99   19.20
  -2  -5  -2  107.79   19.30
   2  -5   2  121.39   16.00
   2  -5   2  150.98   16.80
  -3  -5  -2   62.29   17.50
  -3  -5  -2   28.50   13.00
   3  -5   2   72.69   13.50
   3  -5   2   45.20   11.10
  -4  -5  -2   56.69   16.80
  -4  -5  -2   21.40   13.10
   4  -5   2   68.79   12.70
   4  -5   2   51.69   11.60
  -5  -5  -2    4.60   13.50
   5  -5   2    7.20    7.30
  -5  -5  -2    7.40   11.30
   5  -5   2    7.30    8.10
   6  -5   2   39.90    8.70
  -6  -5  -2   12.30   13.00
   6  -5   2   33.90    9.40
  -6  -5  -2   12.90   14.80
  -7  -5  -2  134.69   23.10
   7  -5   2  143.69   12.30
   7  -5   2  141.79   12.10
  -7  -5  -2  160.08   25.80
  -8  -5  -2  134.89   25.50
  -8  -5  -2  159.38   25.30
  -9  -5  -2   47.40   17.30
  -9  -5  -2   33.20   18.20
 -10  -5  -2   26.80   17.00
 -10  -5  -2   42.30   20.60
 -11  -5  -2   29.10   18.90
 -11  -5  -2   13.70   16.60
 -12  -5  -2   13.60   18.00
 -12  -5  -2   50.09   21.10
 -13  -5  -2   -2.20   17.80
 -13  -5  -2    5.20   17.10
 -14  -5  -2  -15.50   15.70
 -15  -5  -2    6.60   20.80
 -16  -5  -2    7.50   21.80
 -17  -6   2   21.30   24.60
 -16  -6   2   35.10   27.30
 -15  -6   2   29.70   23.50
  15  -6  -2   13.70    7.90
 -14  -6   2   42.70   25.90
  14  -6  -2   35.60   10.00
  13  -6  -2  181.88   18.40
 -13  -6   2  144.39   31.60
 -13   6   2  178.38   21.10
 -12  -6   2  147.39   32.60
  12  -6  -2  101.69   15.70
 -12   6   2  133.39   19.10
  11  -6  -2  110.09   17.10
 -11  -6   2  166.38   30.00
 -11  -6   2  140.49   31.60
 -11   6   2  105.69   18.40
 -10  -6   2  153.28   42.70
 -10  -6   2  100.69   24.30
  10  -6  -2  189.38   33.60
 -10   6   2  157.88   21.50
  -9  -6   2   67.29   33.00
   9  -6  -2   69.89   14.90
  -9  -6   2   94.79   27.70
  -9   6   2   77.19   17.10
  -8  -6   2  116.09   28.60
   8  -6  -2  130.99   18.60
  -8  -6   2  109.89   23.70
  -8   6   2  140.59   20.40
   7  -6  -2    0.60    9.20
  -7  -6   2   -0.30   15.40
  -7  -6   2    2.80   10.90
  -7   6   2   -4.60   10.40
  -6  -6   2   18.20   15.70
  -6  -6   2   35.00   18.40
   6  -6  -2   50.09   13.90
  -6   6   2   60.29   18.70
  -5  -6   2  152.98   24.80
  -5  -6   2  152.78   25.90
   5  -6  -2  150.28   19.70
  -5   6   2  122.59   20.30
  -4  -6   2  372.26   29.40
  -4  -6   2  342.77   31.90
   4  -6  -2  317.67   25.90
  -4   6   2  316.87   27.00
  -3  -6   2  262.37   28.00
   3  -6  -2  259.07   24.00
  -3  -6   2  332.87   27.60
  -3   6   2  286.97   26.20
  -2  -6   2  529.35   34.30
   2  -6  -2  560.74   33.10
  -2  -6   2  508.85   32.20
  -2   6   2  532.05   34.00
   1  -6  -2  326.57   28.10
  -1  -6   2  285.47   26.50
  -1  -6   2  312.67   25.90
   0  -6  -2  104.99   20.20
   0  -6   2  121.79   20.10
   0  -6  -2   93.59   19.40
   0  -6   2   98.89   18.90
  -1  -6  -2   36.00   15.60
  -1  -6  -2   29.30   14.50
   1  -6   2   52.29   14.60
   1  -6   2   36.70   12.30
  -2  -6  -2   63.19   17.10
   2  -6   2   90.29   16.10
  -2  -6  -2   48.50   15.70
   2  -6   2   52.69   13.80
   3  -6   2   55.09   13.50
  -3  -6  -2   59.49   16.80
   3  -6   2   91.29   15.40
  -3  -6  -2   30.50   14.40
   4  -6   2  114.99   17.00
  -4  -6  -2  118.79   22.50
  -4  -6  -2  148.69   23.80
  -5  -6  -2  345.57   31.10
   5  -6   2  339.07   22.20
   5  -6   2  327.27   22.20
  -5  -6  -2  358.46   32.90
  -6  -6  -2  231.88   28.80
   6  -6   2  224.38   18.90
   6  -6   2  206.68   18.10
  -6  -6  -2  211.68   29.50
   7  -6   2  326.27   20.10
  -7  -6  -2  342.47   35.10
  -7  -6  -2  377.56   34.90
   7  -6   2  331.47   19.70
   8  -6   2  135.59   14.30
   8  -6   2  126.29   14.30
  -8  -6  -2   80.19   22.90
  -8  -6  -2   92.69   23.20
  -9  -6  -2  -24.40   14.60
  -9  -6  -2   -6.10   11.90
 -10  -6  -2   14.50   18.20
 -10  -6  -2   44.70   20.60
 -11  -6  -2   17.90   17.80
 -12  -6  -2    6.20   21.50
 -13  -6  -2  -10.10   18.80
 -14  -6  -2   43.10   23.20
 -15  -6  -2   -7.50   20.30
 -16  -7   2  -10.20   36.50
 -15  -7   2  -12.00   22.70
 -14  -7   2   -9.70   20.10
  14  -7  -2   13.20   10.10
  14  -7  -2   -9.20    9.40
  13  -7  -2    1.60   11.50
 -13  -7   2   -6.20   16.60
  12  -7  -2    5.60   11.90
 -12  -7   2   36.40   22.90
  11  -7  -2   20.00   12.50
 -11  -7   2   30.40   23.70
  10  -7  -2    8.50   12.70
 -10  -7   2   32.90   20.80
  -9  -7   2  121.89   30.00
  -9  -7   2   81.49   23.20
   9  -7  -2  128.59   20.80
   8  -7  -2  145.99   21.60
  -8  -7   2  100.09   24.80
  -8  -7   2   70.49   23.10
  -8   7   2  161.28   24.90
  -7  -7   2  241.18   32.10
   7  -7  -2  180.88   23.40
  -7   7   2  207.68   28.20
  -6  -7   2  220.58   31.50
   6  -7  -2  192.08   22.90
  -5  -7   2   36.60   17.50
  -5  -7   2    5.50   16.50
   5  -7  -2   41.50   14.20
   4  -7  -2   72.99   17.40
  -4  -7   2   29.70   16.80
  -4  -7   2   32.40   15.90
   3  -7  -2   -4.60   10.50
  -3  -7   2    8.70   13.10
   3  -7  -2    5.40   11.80
  -3  -7   2    2.90   13.90
   2  -7  -2   28.30   13.40
  -2  -7   2   19.50   14.10
   2  -7  -2   -5.50   10.70
  -2  -7   2    8.50   13.70
   1  -7  -2    5.50   13.10
  -1  -7   2   25.40   14.20
  -1  -7   2   19.50   14.10
   1  -7  -2    1.90   12.40
   0  -7  -2  265.07   28.00
   0  -7  -2  301.97   29.80
   0  -7   2  257.67   26.60
   0  -7   2  286.17   27.50
  -1  -7  -2  307.47   30.20
  -1  -7  -2  225.18   28.40
   1  -7   2  274.27   26.10
   1  -7   2  210.18   24.40
   2  -7   2  337.17   27.10
  -2  -7  -2  273.77   30.30
   2  -7   2  330.77   27.40
  -2  -7  -2  238.98   28.50
   3  -7   2  326.57   27.20
  -3  -7  -2  325.57   32.50
  -3  -7  -2  351.16   32.90
   3  -7   2  349.57   27.60
  -4  -7  -2  116.19   26.00
   4  -7   2  119.59   19.60
  -4  -7  -2   82.39   22.00
   4  -7   2   90.69   17.30
  -5  -7  -2  148.69   27.30
  -5  -7  -2  163.48   28.20
   5  -7   2  155.78   21.30
   5  -7   2  130.79   19.40
   6  -7   2   20.20   12.10
  -6  -7  -2   -0.50   15.50
  -6  -7  -2   21.30   17.40
   6  -7   2   15.50   11.50
  -7  -7  -2   14.20   15.80
   7  -7   2   -2.20    9.20
  -7  -7  -2   27.50   18.00
   7  -7   2   10.50   11.30
   8  -7   2   24.40   11.30
   8  -7   2    1.30    9.80
  -8  -7  -2  -23.50   13.00
  -8  -7  -2   23.60   22.40
   9  -7   2   24.00    9.90
   9  -7   2    9.90    8.90
  -9  -7  -2  -10.70   16.80
 -10  -7  -2  -13.80   15.90
 -11  -7  -2   47.50   24.70
 -12  -7  -2    1.60   19.50
 -13  -7  -2  -19.30   19.00
 -14  -7  -2   36.50   25.40
  14  -8  -2   12.00   12.20
 -14  -8   2  -17.10   20.60
  14  -8  -2    5.10   10.70
  13  -8  -2   54.69   15.00
  13  -8  -2   74.89   17.00
 -13  -8   2   29.40   23.40
 -12  -8   2   26.70   22.50
  12  -8  -2   32.20   14.70
  12  -8  -2   26.10   17.00
  11  -8  -2   30.10   16.00
 -11  -8   2   74.99   25.70
  11  -8  -2   11.90   13.50
 -10  -8   2   44.60   23.90
  10  -8  -2   61.59   18.50
  10  -8  -2   58.29   15.90
  -9  -8   2   38.30   23.10
   9  -8  -2    9.70   14.00
   9  -8  -2   14.10   13.80
   8  -8  -2  -10.70   12.10
  -8  -8   2   19.40   19.10
   8  -8  -2    4.20   11.50
   7  -8  -2   43.10   15.90
   7  -8  -2   44.90   17.40
  -7  -8   2   56.79   22.90
   6  -8  -2   21.20   13.90
  -6  -8   2   34.50   19.20
  -6  -8   2   24.50   20.20
   6  -8  -2   34.80   16.30
  -5  -8   2   16.90   17.60
  -5  -8   2   20.40   17.60
   5  -8  -2  -17.90   11.30
   5  -8  -2    5.50   13.50
  -4  -8   2   45.10   31.40
  -4  -8   2    8.50   18.40
   4  -8  -2   36.70   16.30
   4  -8  -2   63.19   20.40
  -3  -8   2    8.30   14.10
   3  -8  -2   37.50   17.20
   3  -8  -2    2.40   14.60
   2  -8  -2  153.28   26.10
  -2  -8   2  131.29   25.40
  -2  -8   2  162.68   28.80
   2  -8  -2  122.39   24.10
   1  -8  -2   95.79   23.50
   1  -8  -2   85.09   22.80
  -1  -8   2  138.39   26.00
  -1  -8   2  110.79   23.10
   0  -8   2  108.09   22.60
   0  -8  -2  105.09   23.60
   0  -8   2  140.19   25.60
   0  -8  -2   96.99   24.80
   1  -8   2  103.99   21.60
   1  -8   2  138.79   25.40
  -1  -8  -2   59.59   19.80
  -1  -8  -2   76.69   23.50
   2  -8   2   15.30   13.10
  -2  -8  -2    1.20   14.90
   2  -8   2  -17.40   11.10
  -2  -8  -2    2.30   16.40
  -3  -8  -2   35.60   17.60
   3  -8   2    7.60   12.80
  -3  -8  -2   34.20   17.40
   3  -8   2   57.29   17.00
   4  -8   2  174.48   23.00
  -4  -8  -2   89.89   24.60
  -4  -8  -2  151.98   30.10
   4  -8   2  145.09   23.50
   5  -8   2  303.27   26.40
  -5  -8  -2  294.37   35.20
   5  -8   2  277.67   27.80
   6  -8   2   94.89   18.70
   6  -8   2   88.89   19.40
  -6  -8  -2   89.89   24.20
   7  -8   2  136.29   20.40
  -7  -8  -2   76.89   24.20
  -8  -8  -2   37.70   21.60
   8  -8   2    5.70   10.90
   8  -8   2   46.00   15.00
   9  -8   2   -2.20   10.00
   9  -8   2   14.70   11.00
  -9  -8  -2   -0.90   17.10
  10  -8   2   30.60    9.90
  10  -8   2   46.10   10.70
 -10  -8  -2   16.60   19.80
 -11  -8  -2    8.00   20.80
 -12  -8  -2    0.70   21.10
 -13  -8  -2  -25.00   17.60
 -12  -9   2   -0.40   21.10
  12  -9  -2    6.40   14.50
  12  -9  -2   -0.70   14.50
  11  -9  -2   32.50   16.20
 -11  -9   2   26.80   44.50
  11  -9  -2    6.70   15.20
  10  -9  -2  -16.80   14.40
  10  -9  -2   -4.70   13.50
 -10  -9   2   25.60   21.50
  -9  -9   2   18.80   19.00
   9  -9  -2   68.49   20.30
   9  -9  -2   68.39   19.50
   8  -9  -2   18.00   17.20
  -8  -9   2    7.10   17.30
   8  -9  -2   33.10   16.20
  -7  -9   2   58.49   23.00
   7  -9  -2   65.59   20.60
   7  -9  -2  128.69   24.60
  -6  -9   2  139.39   30.90
   6  -9  -2  125.89   25.80
   6  -9  -2  106.89   23.50
   5  -9  -2   68.99   20.20
  -5  -9   2   70.89   23.50
   5  -9  -2   32.50   17.20
   4  -9  -2   53.19   19.60
  -4  -9   2  114.09   27.70
   4  -9  -2   53.29   31.00
  -3  -9   2   49.50   19.40
   3  -9  -2   45.20   20.30
  -3  -9   2    4.90   20.30
  -2  -9   2   26.10   19.70
   2  -9  -2   26.60   17.60
  -2  -9   2   30.00   16.50
   2  -9  -2   18.80   16.30
  -1  -9   2    2.20   11.40
   1  -9  -2   32.10   17.50
   1  -9  -2   -7.40   15.20
  -1  -9   2    8.70   18.40
   0  -9  -2   23.10   17.60
   0  -9  -2   34.10   20.20
   0  -9   2    2.70   17.30
   1  -9   2   14.70   15.10
  -1  -9  -2   10.80   15.10
   1  -9   2   -2.30   17.40
  -2  -9  -2   15.80   17.90
   2  -9   2   48.40   20.70
   2  -9   2   33.60   16.40
   3  -9   2   35.20   17.50
  -3  -9  -2    6.80   16.30
   3  -9   2   62.19   18.60
  -4  -9  -2   29.40   19.10
   4  -9   2   32.40   17.70
   4  -9   2   11.30   13.00
   5  -9   2   26.20   15.70
   5  -9   2   59.29   20.40
  -5  -9  -2   27.10   20.80
   6  -9   2    1.30   12.60
   6  -9   2   21.50   17.50
  -6  -9  -2   10.10   18.00
   7  -9   2    5.10   11.90
  -7  -9  -2  -29.70   13.60
   7  -9   2   28.70   16.70
  -8  -9  -2   11.40   19.60
   8  -9   2    5.40   13.00
   8  -9   2   15.40   14.50
   9  -9   2   35.50   16.90
   9  -9   2   16.50   12.90
  -9  -9  -2   42.70   24.00
  10  -9   2   12.00   11.30
 -10  -9  -2  -14.40   16.50
  10  -9   2    8.90   10.60
  -9 -10   2   22.80   22.20
   9 -10  -2   -7.40   30.50
   9 -10  -2  -11.60   14.30
  -8 -10   2   46.00   36.30
   8 -10  -2   -9.20   26.20
   8 -10  -2   19.70   18.80
   7 -10  -2   18.50   18.90
  -7 -10   2  -24.60   14.60
   7 -10  -2    0.60   13.50
   6 -10  -2    9.00   15.20
   6 -10  -2    1.20   16.10
  -6 -10   2   13.20   18.50
   5 -10  -2   41.20   20.90
   5 -10  -2   22.00   16.30
  -5 -10   2   20.30   20.20
   4 -10  -2   61.59   20.90
  -4 -10   2   42.10   22.00
   3 -10  -2   32.80   19.80
  -3 -10   2   33.30   20.10
   2 -10  -2   43.50   20.10
  -2 -10   2   95.49   24.90
   1 -10  -2   27.00   17.50
  -1 -10   2   47.10   20.00
   0 -10   2   -4.50   14.70
   0 -10  -2   -1.40   16.00
  -1 -10  -2  -14.00   14.00
   1 -10   2   14.40   20.50
   1 -10   2    1.50   12.50
   2 -10   2    3.80   13.70
  -2 -10  -2  -16.30   14.60
   2 -10   2   -6.90   18.00
   3 -10   2   15.60   13.60
   3 -10   2   -1.60   18.00
  -3 -10  -2   17.50   16.70
   4 -10   2    0.80   22.30
  -4 -10  -2   23.10   20.50
   4 -10   2  -12.20   14.10
  -5 -10  -2   33.80   22.70
   5 -10   2   41.00   21.50
   5 -10   2   19.70   17.60
   6 -10   2   43.60   19.70
   6 -10   2   30.80   20.50
   7 -10   2   68.19   22.40
  -7 -10  -2   48.00   25.50
   7 -10   2   70.99   19.00
   8 -10   2   55.69   17.90
  -8 -10  -2   47.00   23.40
   4 -11  -2   -0.20   15.60
   3 -11  -2   19.90   19.50
  -3 -11   2   -9.10   15.90
  -2 -11   2    5.10   17.90
   2 -11  -2  -30.40   13.10
  -1 -11   2   27.70   22.10
   1 -11  -2   42.20   23.20
   0 -11  -2   24.70   20.50
   0 -11   2   71.69   25.50
   1 -11   2  122.69   29.00
  -1 -11  -2   64.59   25.60
   2 -11   2   32.80   19.00
  -2 -11  -2   68.69   32.80
 -20   0   3   39.30   20.20
  20   0  -3   50.59   20.90
  19   0  -3   50.19   19.90
 -19   0   3   48.40   19.50
 -18   0   3   16.40   16.00
  18   0  -3    2.50   15.90
  17   0  -3  -15.90   11.60
 -17   0   3   11.20   13.70
  16   0  -3   42.40   15.70
 -16   0   3    3.50   12.90
  15   0  -3   46.80   17.60
 -15   0   3   70.69   17.80
 -14   0   3  232.38   24.30
  14   0  -3  231.28   25.00
  13   0  -3  166.28   22.00
 -13   0   3  116.59   19.90
  12   0  -3  293.77   24.30
 -12   0   3  207.68   21.00
  11   0  -3   30.30   11.50
 -11   0   3   39.30   11.00
  10   0  -3   37.40   12.00
 -10   0   3   48.40   12.50
  -9   0   3   18.50   10.10
   9   0  -3   26.20   10.70
   8   0  -3   19.60    9.00
  -8   0   3   13.20    8.70
  -7   0   3   43.10    9.60
   7   0  -3   49.90   11.00
  -6   0   3  119.39   13.10
   6   0  -3  120.69   13.60
   5   0  -3  158.38   14.20
  -5   0   3  148.99   13.60
  -4   0   3   21.00    7.80
   4   0  -3   21.80    8.20
   3   0  -3   12.30    6.80
  -3   0   3   29.40    7.20
  -2   0   3    8.40    5.80
   2   0  -3    5.10    5.30
  -1   0   3    3.80    5.10
   1   0  -3   15.10    5.60
   0   0   3   42.10    6.90
   0   0  -3   43.60    7.10
   1   0   3   48.30    7.00
  -1   0  -3   49.99    7.60
   2   0   3   75.69    9.00
  -2   0  -3   71.39    9.60
  -3   0  -3   -7.50    4.90
   3   0   3   -3.20    5.20
   4   0   3    8.30    6.10
  -4   0  -3    7.20    5.40
  -5   0  -3  363.46   16.20
  -5   0  -3  345.57   15.90
  -6   0  -3   47.10    8.80
  -6   0  -3   73.89   11.70
  -7   0  -3  292.27   17.10
  -7   0  -3  263.97   15.90
  -8   0  -3   10.80    7.40
  -8   0  -3   35.20    8.60
  -9   0  -3  154.48   14.90
  -9   0  -3  143.09   15.50
 -10   0  -3   39.80   10.60
 -10   0  -3   69.49   12.30
 -11   0  -3   55.39   12.10
 -11   0  -3   55.59   12.40
 -12   0  -3  152.68   19.20
 -12   0  -3  149.29   18.20
 -13   0  -3  106.79   17.30
 -13   0  -3  117.99   17.50
 -14   0  -3  141.49   19.90
 -14   0  -3  109.59   29.90
 -15   0  -3   -6.00   12.70
 -15   0  -3    6.20   11.90
 -16   0  -3   93.79   18.80
 -17   0  -3   30.50   15.90
 -18   0  -3   11.70   14.10
 -18   0  -3   24.70   16.00
 -20  -1   3  -27.70   16.50
  20  -1  -3    0.60   15.60
 -20   1   3    8.00   15.30
  20   1  -3   14.60   21.80
 -19  -1   3  221.18   34.00
  19  -1  -3  258.97   29.00
 -19   1   3  227.08   29.60
  19   1  -3  266.47   32.90
  18  -1  -3    8.80   14.40
 -18  -1   3   18.40   15.80
  18   1  -3   -1.80   16.00
 -18   1   3   13.10   14.00
  17  -1  -3   76.89   18.10
 -17  -1   3   87.49   20.40
  17   1  -3   62.99   18.90
 -17   1   3   85.49   18.90
  16  -1  -3  200.88   23.90
 -16  -1   3  195.58   26.00
 -16   1   3  216.78   24.80
  16   1  -3  191.38   28.10
 -15  -1   3   20.40   14.60
  15  -1  -3   -5.20   10.40
 -15   1   3    7.30   11.80
  15   1  -3    0.80   14.20
 -14  -1   3  142.39   22.20
  14  -1  -3  133.89   21.60
  14   1  -3  126.19   21.70
  13  -1  -3  204.38   21.70
 -13  -1   3  250.47   24.40
  13   1  -3  231.68   25.50
 -13   1   3  222.08   22.00
 -12  -1   3    1.40    9.70
 -12   1   3   -8.40    7.90
  12   1  -3   13.00   12.20
  11  -1  -3    8.50    9.40
 -11  -1   3   20.40   10.80
  11   1  -3   17.30   11.60
 -11   1   3   23.80   10.60
  10  -1  -3  263.57   20.20
 -10  -1   3  343.67   23.50
  10   1  -3  312.07   24.20
 -10   1   3  308.97   20.20
  -9  -1   3  100.99   16.00
   9  -1  -3   53.99   11.70
  -9   1   3   55.09   12.00
   9   1  -3   41.70   14.80
  -8  -1   3  179.08   18.00
   8  -1  -3  150.98   15.40
   8   1  -3  168.98   18.30
  -8   1   3  177.18   15.80
  -7  -1   3  142.39   15.90
   7  -1  -3  152.08   14.40
   7   1  -3  159.88   17.20
  -7   1   3  184.18   14.80
   6  -1  -3    5.00    7.30
  -6  -1   3   11.70    8.50
  -6   1   3    6.50    7.30
   6   1  -3   13.20    8.50
  -5  -1   3  197.48   16.00
   5  -1  -3  186.88   14.30
   5   1  -3  151.68   15.40
  -5   1   3  202.18   15.10
  -4  -1   3  130.89   14.00
   4  -1  -3   83.49   11.90
   4   1  -3  111.99   13.50
  -4   1   3   76.99   12.30
   3  -1  -3   98.29   12.00
  -3  -1   3   97.09   12.50
  -3   1   3  115.19   12.20
   3   1  -3   77.19   12.30
   2  -1  -3   78.49   10.50
  -2  -1   3   84.09   10.60
   2   1  -3   85.79   11.20
  -2   1   3   81.29   10.30
  -1  -1   3    3.00    5.30
   1  -1  -3    6.10    6.20
   1   1  -3   13.20    6.00
  -1   1   3    9.80    6.40
   0  -1   3   53.49    7.30
   0  -1  -3   42.50    8.70
   0   1   3   46.40    8.90
   0   1  -3   46.40    7.10
  -1  -1  -3   26.90    7.80
   1  -1   3   30.20    6.00
  -1   1  -3   32.30    6.20
   1   1   3   31.80    8.10
   2  -1   3  175.38    9.00
  -2  -1  -3  148.69   13.10
  -2   1  -3  145.19    8.70
   2   1   3  164.78   13.60
  -3  -1  -3    4.10    6.70
   3  -1   3    2.60    3.50
  -3   1  -3    3.80    4.00
   3   1   3   -1.60    7.00
  -4  -1  -3   12.90    7.50
  -4   1  -3    0.00    3.80
   4   1   3   -2.70    6.70
  -5  -1  -3   61.69   11.00
  -5  -1  -3   46.00   10.10
  -5   1  -3   47.40    6.50
  -5   1  -3   60.59    6.20
  -6  -1  -3  147.09   15.60
  -6  -1  -3  138.09   15.60
  -6   1  -3  118.89    8.50
  -6   1  -3  136.99    9.40
  -7  -1  -3   29.80   11.00
  -7  -1  -3   18.70   10.50
  -7   1  -3   15.00    5.40
  -7   1  -3   21.20    6.00
  -8  -1  -3    6.60    8.30
  -8  -1  -3   15.20   10.50
  -8   1  -3   19.60    5.70
  -8   1  -3   19.20    6.30
  -9  -1  -3  160.38   19.20
  -9  -1  -3  172.58   17.90
  -9   1  -3  161.48   12.60
  -9   1  -3  155.38   11.70
 -10  -1  -3   -3.60    9.10
 -10   1  -3   10.80    6.80
 -10   1  -3    4.40    6.50
 -11  -1  -3   40.80   13.30
 -11  -1  -3   30.60   12.90
 -11   1  -3   37.50    8.90
 -11   1  -3   41.00    9.50
 -12  -1  -3   42.10   15.90
 -12  -1  -3   31.80   15.40
 -12   1  -3   66.49   11.00
 -12   1  -3   34.70    9.80
 -13  -1  -3   17.60   12.60
 -13  -1  -3    9.60   13.70
 -13   1  -3   -4.30    8.20
 -13   1  -3   23.10   10.20
 -14  -1  -3   18.60   13.30
 -14  -1  -3    8.50   15.10
 -14   1  -3    9.20    9.00
 -14   1  -3   -4.20    9.10
 -15  -1  -3    7.80   14.70
 -15  -1  -3    9.10   14.10
 -15   1  -3   11.40   10.90
 -15   1  -3   -1.80    8.90
 -16  -1  -3   16.40   16.30
 -16  -1  -3   -1.10   13.80
 -16   1  -3   16.70    9.90
 -16   1  -3    0.80   10.40
 -17  -1  -3    3.40   15.50
 -17  -1  -3   15.60   18.10
 -17   1  -3   -7.10    8.40
 -17   1  -3    0.90    9.50
 -18  -1  -3   36.90   20.60
 -18  -1  -3   -9.90   13.80
  20  -2  -3    9.30   14.60
 -20   2   3  -13.30   13.50
  19  -2  -3   13.30   14.60
 -19  -2   3   18.50   18.00
 -19   2   3    4.30   13.00
  19   2  -3   -3.30   17.50
 -18  -2   3    5.50   15.30
  18  -2  -3    2.30   12.70
 -18   2   3   -6.10   12.90
 -17  -2   3   22.90   17.40
  17  -2  -3   28.30   13.10
 -17   2   3   24.50   15.60
  17   2  -3    2.70   15.80
  16  -2  -3   -5.40   11.40
 -16  -2   3   13.60   16.30
 -16   2   3    1.10   23.40
  16   2  -3   36.40   19.40
  15  -2  -3   48.70   14.50
 -15  -2   3   66.39   20.20
  15   2  -3   51.29   18.80
 -15   2   3   19.40   13.30
 -14  -2   3  335.27   30.70
  14  -2  -3  296.87   23.70
  14   2  -3  341.37   32.30
 -14   2   3  290.47   24.20
 -13  -2   3  283.77   27.10
  13  -2  -3  217.58   25.00
 -13   2   3  295.07   22.80
  13   2  -3  283.57   29.70
 -12  -2   3  173.28   22.30
  12  -2  -3  205.68   19.60
 -12   2   3  207.58   19.70
  12   2  -3  211.58   25.80
 -11  -2   3  116.99   19.20
  11  -2  -3   82.99   13.80
  11   2  -3  126.89   20.70
 -11   2   3  119.59   16.20
 -10  -2   3   16.80   12.30
  10  -2  -3   10.90    8.90
 -10   2   3   20.80    9.70
  10   2  -3    6.20   10.40
  -9  -2   3   14.80   11.80
   9  -2  -3    8.90    8.70
  -9   2   3   21.40    9.10
   9   2  -3   15.10   12.40
   8  -2  -3    5.50    7.50
  -8  -2   3    0.20    8.90
  -8   2   3    8.00    8.20
   8   2  -3    2.80    9.90
   7  -2  -3   70.69   11.70
  -7  -2   3   79.69   15.00
  -7   2   3   89.99   13.00
   6  -2  -3   19.10    8.20
  -6  -2   3   19.70    9.20
   6   2  -3   16.10    9.90
  -6   2   3   23.20    8.20
  -5  -2   3   12.50    8.70
   5  -2  -3    7.60    7.30
   5   2  -3    7.00    8.60
  -5   2   3    9.90    7.60
   4  -2  -3    9.90    7.30
  -4  -2   3   -5.80    7.20
   4   2  -3   14.00    8.60
  -4   2   3    9.90    7.20
  -3  -2   3   10.90    8.60
   3  -2  -3   11.10    8.20
  -3   2   3    3.70    7.80
   3   2  -3    3.40    7.40
   2  -2  -3    5.50    7.30
  -2  -2   3  -11.50    6.80
  -2   2   3   14.20    7.90
   2   2  -3    0.40    6.70
  -1  -2   3   30.20    9.00
   1  -2  -3   34.60   10.10
   1   2  -3   39.40    9.00
  -1   2   3   23.70    9.10
   0  -2   3   24.10    7.50
   0  -2  -3   18.60    8.40
   0   2   3   20.00    8.60
   0   2  -3   27.20    7.30
  -1  -2  -3   11.60    7.90
   1  -2   3   14.40    6.20
   1   2   3   19.10    8.70
  -1   2  -3   19.10    6.40
  -2  -2  -3   62.29   11.30
   2  -2   3   62.09    7.30
   2   2   3   69.59   12.30
  -2   2  -3   57.39    7.90
  -3  -2  -3    1.90    7.20
   3  -2   3   -5.60    3.00
   3   2   3    0.90    7.60
  -3   2  -3    6.20    3.70
  -4  -2  -3    2.10    8.10
   4   2   3    4.20    8.40
  -5  -2  -3  222.28   19.20
  -5  -2  -3  179.28   18.30
  -6  -2  -3   -8.60    8.60
  -6  -2  -3   18.20   10.00
  -7  -2  -3  146.19   19.40
  -7  -2  -3  169.98   18.80
  -8  -2  -3   63.99   14.70
  -8  -2  -3   76.59   16.20
  -9  -2  -3    0.90    9.40
  -9  -2  -3    7.70   10.50
 -10  -2  -3   57.09   15.90
 -10  -2  -3   43.90   14.10
 -11  -2  -3   19.50   13.60
 -11  -2  -3   14.00   12.30
 -12  -2  -3  126.69   21.60
 -12  -2  -3  109.89   18.90
 -13  -2  -3  -14.60   11.00
 -13  -2  -3   18.20   15.90
 -14  -2  -3  115.99   24.30
 -14  -2  -3  147.39   24.50
 -15  -2  -3   49.30   19.60
 -15  -2  -3   31.10   17.30
 -16  -2  -3   81.29   22.00
 -16  -2  -3   63.69   21.30
 -17  -2  -3   -7.10   19.00
 -17  -2  -3   -9.00   15.70
 -18  -2  -3   14.20   19.60
 -18  -2  -3   21.80   31.30
 -20  -3   3   56.29   30.30
 -20   3   3   25.90   13.40
  19  -3  -3   39.20   14.50
 -19   3   3   41.70   14.50
 -18  -3   3   53.89   34.40
  18  -3  -3   36.50   13.00
 -18   3   3   38.80   14.70
  18   3  -3  -18.10   16.10
  17  -3  -3   32.10   12.40
 -17  -3   3   10.30   17.00
  17   3  -3    7.90   17.90
 -17   3   3    2.40   11.30
  16  -3  -3   35.50   15.60
 -16  -3   3   -5.80   13.80
 -16   3   3   34.60   13.10
 -15  -3   3   36.40   18.00
  15   3  -3    5.90   15.50
 -15   3   3   -5.50   10.50
 -14  -3   3   17.00   14.40
  14  -3  -3   -3.30    9.70
  14   3  -3  -11.00   15.10
 -14   3   3    5.30   11.00
 -13  -3   3   11.70   17.10
  13  -3  -3    8.60   10.00
 -13   3   3   17.80   11.30
  13   3  -3   -3.60   15.40
 -12  -3   3   18.10   13.30
  12  -3  -3   43.50   12.60
 -12   3   3   44.20   11.90
  12   3  -3   34.90   17.50
  11  -3  -3   11.90    9.10
 -11  -3   3   -8.00   10.30
 -11   3   3   23.70   10.60
  11   3  -3   12.30   13.80
  10  -3  -3   16.50    9.20
 -10  -3   3   35.50   14.20
  10   3  -3   39.90   14.50
 -10   3   3   18.40    8.90
  -9  -3   3   29.20   12.20
   9  -3  -3   36.60   10.40
  -9   3   3   31.20   10.00
   9   3  -3   24.10   13.70
  -8  -3   3   33.00   12.80
   8  -3  -3   34.00   10.10
  -8   3   3   31.60   10.30
   8   3  -3   37.90   14.50
  -7  -3   3   17.80   12.10
   7  -3  -3   18.80    8.80
   7   3  -3    9.50   11.90
  -7   3   3   15.70    9.60
   6  -3  -3   17.00    8.40
  -6  -3   3   -1.00    8.40
   6   3  -3    7.00    9.50
  -6   3   3    7.80    7.70
   5  -3  -3   -0.30    7.40
  -5  -3   3    2.60    9.00
   5   3  -3   -4.40    9.40
  -5   3   3    4.90    7.80
   4  -3  -3   23.70    9.20
  -4  -3   3   22.20   10.30
   4   3  -3   24.10   10.80
  -4   3   3   32.40    9.80
  -3  -3   3   -6.60    7.10
   3  -3  -3    1.90    6.70
   3   3  -3   -3.50    7.70
  -3   3   3    8.90    8.00
   2  -3  -3   -2.00    7.30
  -2  -3   3  -12.00    6.40
   2   3  -3   -2.20    7.70
  -2   3   3   -2.10    7.20
  -1  -3   3   29.20    9.90
   1  -3  -3   29.70    9.90
  -1   3   3   25.00    9.80
   1   3  -3   42.70   10.30
   0  -3  -3    3.30    7.70
   0  -3   3   14.50    7.40
   0   3  -3    3.20    7.20
   0   3   3    8.30    8.30
   1  -3   3   17.70    7.50
  -1  -3  -3    9.50    8.50
   1   3   3   17.40    9.60
  -1   3  -3    7.40    6.60
  -2  -3  -3   20.00    9.90
   2  -3   3   35.50    8.20
   2   3   3   19.40    9.60
  -2   3  -3   19.40    7.10
   3  -3   3   25.00    6.30
   3   3   3   12.90    9.70
   4  -3   3   16.30    4.90
  -4  -3  -3   26.80   12.00
   4  -3   3    7.50    4.80
   4   3   3   16.30   11.90
  -5  -3  -3    0.60    9.60
  -5  -3  -3   -5.90    9.20
  -6  -3  -3   19.40   12.10
  -6  -3  -3   17.60   11.40
  -7  -3  -3   -4.00   10.30
  -7  -3  -3   11.30   12.40
  -8  -3  -3  107.59   20.40
  -8  -3  -3   81.49   17.20
  -9  -3  -3   22.30   15.40
  -9  -3  -3   36.70   13.20
 -10  -3  -3   80.49   19.40
 -10  -3  -3   34.40   14.20
 -11  -3  -3   43.10   16.20
 -11  -3  -3   33.90   18.10
 -12  -3  -3   11.90   13.90
 -12  -3  -3    0.00   15.40
 -13  -3  -3   -7.90   14.00
 -13  -3  -3   -5.70   14.50
 -14  -3  -3   10.60   17.50
 -14  -3  -3   22.80   17.70
 -15  -3  -3   14.50   21.90
 -15  -3  -3   -1.10   16.90
 -16  -3  -3  -12.60   18.70
 -16  -3  -3   -8.20   17.30
 -17  -3  -3   21.80   20.40
 -17  -3  -3   -8.70   19.90
  19  -4  -3   24.80   11.60
 -19  -4   3   33.20   25.50
 -19   4   3   29.20   12.20
 -18  -4   3   48.70   25.40
  18  -4  -3    3.60   10.20
 -18   4   3   -6.70   11.70
  17  -4  -3    6.80   10.40
  17   4  -3  -32.70   15.80
 -17   4   3   12.00   12.70
  16  -4  -3  -14.10    7.70
 -16  -4   3  -22.50   14.20
 -16   4   3  -12.00   11.00
  16   4  -3  -25.60   15.30
  15  -4  -3   22.50   10.80
 -15  -4   3   14.60   18.80
 -15   4   3   37.10   13.90
  15   4  -3   33.20   19.40
 -14  -4   3   39.60   19.30
  14  -4  -3  100.09   15.00
  14   4  -3  159.08   35.10
 -14   4   3  144.29   19.10
  13  -4  -3  339.87   23.10
 -13  -4   3  368.26   34.90
  13   4  -3  410.66   38.60
 -13   4   3  340.27   24.70
  12  -4  -3   44.60   12.90
 -12  -4   3   73.99   20.10
  12   4  -3   62.79   22.40
 -12   4   3   67.59   15.30
 -11  -4   3   51.79   17.60
  11  -4  -3   29.40   11.50
  11   4  -3   64.89   20.00
 -11   4   3   56.99   13.70
  10  -4  -3    9.20   10.30
 -10  -4   3   22.00   13.80
  10   4  -3   31.00   16.50
 -10   4   3   49.50   12.80
  -9  -4   3   34.90   14.00
   9  -4  -3   13.30   10.00
  -9   4   3   25.50   10.50
   9   4  -3   16.00   14.20
   8  -4  -3    6.70    8.80
  -8  -4   3   14.60   11.50
   8   4  -3   -3.70   11.90
  -8   4   3    5.60    8.60
   7  -4  -3   21.30   10.80
  -7  -4   3    9.20   11.20
  -7   4   3   23.20    9.90
   7   4  -3   15.10   12.30
  -6  -4   3   27.00   12.00
   6  -4  -3    7.60    9.70
   6   4  -3   36.60   14.50
  -6   4   3   29.70   10.40
   5  -4  -3   40.10   11.40
  -5  -4   3    6.70   10.90
   5   4  -3   27.60   13.60
  -5   4   3   24.60   10.10
  -4  -4   3    3.20    8.30
   4  -4  -3   16.50    8.90
  -4   4   3    8.10    8.40
   4   4  -3   -2.80    9.50
  -3  -4   3    2.40    8.60
   3  -4  -3   24.70   10.20
  -3   4   3   -2.40    7.60
   3   4  -3   -2.70    9.20
   2  -4  -3   33.10   13.20
  -2  -4   3   23.10   10.40
   2   4  -3   32.50   12.60
  -2   4   3   31.50   11.00
  -1  -4   3    1.90    8.30
   1  -4  -3    9.90    9.90
  -1   4   3   13.90   10.90
   1   4  -3   -2.40    9.10
   0  -4   3   13.20    8.50
   0  -4  -3   -9.10    8.70
   0   4   3   11.40    9.20
   0   4  -3    5.20    8.80
  -1  -4  -3    3.00    9.30
   1  -4   3   -3.60    6.50
   1   4   3   10.20   10.80
   2  -4   3    1.30    7.90
  -2  -4  -3   -6.50    9.20
   2  -4   3   14.20    8.20
   2   4   3    5.90   16.90
  -3  -4  -3   11.80   10.90
   3  -4   3   -1.00    6.80
   3  -4   3   30.60    8.90
   3   4   3   11.10   12.50
  -4  -4  -3   10.20   10.10
   4  -4   3   26.20    7.80
   4  -4   3   19.60    7.40
  -4  -4  -3   22.20   13.00
  -5  -4  -3   58.89   15.60
   5  -4   3   84.19    9.60
   5  -4   3   76.39    9.30
  -5  -4  -3   45.30   15.10
  -6  -4  -3  192.28   24.30
  -6  -4  -3  183.68   23.00
  -7  -4  -3  115.29   21.50
  -7  -4  -3  112.99   20.80
  -8  -4  -3   35.30   15.90
  -8  -4  -3   41.40   15.80
  -9  -4  -3    5.30   13.50
  -9  -4  -3   38.40   16.90
 -10  -4  -3  -10.00   13.50
 -10  -4  -3   -8.80   11.70
 -11  -4  -3   23.60   16.60
 -11  -4  -3   -7.70   14.10
 -12  -4  -3   25.60   18.40
 -12  -4  -3    0.70   15.90
 -13  -4  -3   58.69   20.70
 -13  -4  -3   25.70   20.10
 -14  -4  -3   -1.10   18.20
 -14  -4  -3   28.20   19.90
 -15  -4  -3   31.00   20.20
 -15  -4  -3   35.30   20.50
 -16  -4  -3   10.50   20.20
 -17  -4  -3  -19.70   19.20
 -18  -5   3   62.79   28.00
  18  -5  -3   25.60    9.30
 -17  -5   3   95.79   32.00
  17  -5  -3   44.40   11.30
 -17   5   3   63.39   14.30
  16  -5  -3   34.20   11.10
 -16  -5   3   42.20   24.70
 -16   5   3   33.40   13.10
  15  -5  -3   33.20   11.30
  15   5  -3   31.40   23.60
 -15   5   3   40.20   14.10
  14  -5  -3   -2.40    9.50
 -14  -5   3   24.00   21.90
  14   5  -3   25.30   20.00
 -14   5   3    9.80   11.80
 -13  -5   3    1.20   16.50
  13  -5  -3   -2.10   10.50
 -13   5   3   16.30   11.80
  13   5  -3   -5.90   14.40
 -12  -5   3   59.09   23.10
  12  -5  -3   26.70   12.90
 -12   5   3   20.90   12.90
  12   5  -3   36.90   37.50
 -11  -5   3   57.29   20.30
  11  -5  -3  102.29   20.60
  11   5  -3   67.69   21.90
 -11   5   3   67.69   15.40
 -10  -5   3   38.70   17.30
  10   5  -3   45.00   19.00
 -10   5   3   27.00   12.70
   9  -5  -3   37.70   17.00
  -9  -5   3   55.49   18.30
  -9   5   3   54.59   13.60
   9   5  -3   29.20   16.90
   8  -5  -3   99.29   16.70
  -8  -5   3   85.09   19.10
  -8   5   3  115.99   17.40
   8   5  -3   73.29   21.10
  -7  -5   3   90.39   20.40
   7  -5  -3  113.49   17.20
  -7   5   3   92.49   16.00
   7   5  -3  103.29   22.00
  -6  -5   3   31.30   13.20
   6  -5  -3   31.90   12.10
   6   5  -3   33.70   15.90
  -6   5   3   15.70   11.10
   5  -5  -3    9.50   10.20
  -5  -5   3    1.40    8.00
   5   5  -3   -4.10   10.20
  -5   5   3   -8.10    9.60
  -4  -5   3    9.30   10.20
   4  -5  -3    0.90   10.00
   4   5  -3    8.20   11.80
  -4   5   3    7.30    9.80
   3  -5  -3    1.30   10.70
  -3  -5   3    1.00    8.30
   3   5  -3   10.70   12.00
   2  -5  -3  -11.10    9.70
  -2  -5   3   -4.90   11.10
   2   5  -3    4.30   10.60
  -2   5   3    6.90   10.10
   1  -5  -3    5.20   11.20
  -1  -5   3   16.20   11.10
  -1   5   3   25.70   12.10
   0  -5  -3   10.90   11.10
   0  -5   3   25.90   10.60
   0  -5   3    1.40   10.50
   0   5   3   17.10   11.40
   1  -5   3    8.20   10.00
  -1  -5  -3   22.20   13.00
   1  -5   3   12.10    9.50
   1   5   3   11.80   12.00
   2  -5   3    0.50    7.50
   2  -5   3    4.10    8.70
  -2  -5  -3  -13.00    9.80
   2   5   3    7.40   11.90
  -3  -5  -3   -6.00    9.90
   3  -5   3    4.60    8.10
   3  -5   3    6.90    8.10
  -3  -5  -3  -17.50    9.60
   4  -5   3    0.10    7.40
  -4  -5  -3   -3.60   10.80
   4  -5   3    2.00    7.30
  -4  -5  -3    6.00   11.20
   5  -5   3   -3.00    7.20
  -5  -5  -3   -3.10   10.10
  -5  -5  -3   -2.70   11.10
   5  -5   3    9.60    6.80
  -6  -5  -3    7.50   13.30
  -6  -5  -3    9.90   12.90
   6  -5   3    4.80    6.20
   6  -5   3    0.60    6.50
  -7  -5  -3    6.30   13.70
  -7  -5  -3   14.60   14.50
  -8  -5  -3   39.60   19.00
  -8  -5  -3   11.10   15.80
  -9  -5  -3   -8.40   14.10
  -9  -5  -3  -10.40   12.30
 -10  -5  -3   27.70   19.50
 -11  -5  -3   -4.90   13.90
 -12  -5  -3   -9.20   17.40
 -12  -5  -3   18.60   18.70
 -13  -5  -3   23.00   19.60
 -14  -5  -3   16.80   20.40
 -15  -5  -3  -17.80   16.10
 -16  -5  -3   41.60   25.30
 -17  -6   3  -19.40   18.40
 -16  -6   3   -5.70   19.10
  16  -6  -3   23.70   10.30
 -16   6   3   -1.30   11.70
  15  -6  -3   88.79   15.20
 -15  -6   3   89.99   30.90
 -15   6   3   70.99   17.10
 -14  -6   3   25.10   25.70
 -14   6   3   29.50   15.60
 -13  -6   3   89.29   29.20
  13  -6  -3  147.49   21.10
 -13   6   3  124.99   20.60
  12  -6  -3  121.69   18.50
 -12   6   3  105.59   19.30
  11  -6  -3   47.60   14.40
 -11  -6   3   51.49   22.80
 -11   6   3   13.90   14.10
  11   6  -3   26.40   20.00
  10  -6  -3   30.50   13.20
 -10  -6   3    2.00   16.70
  10   6  -3   54.59   23.70
 -10   6   3   39.20   30.10
   9  -6  -3    5.70   10.90
  -9   6   3   36.50   16.80
   9   6  -3   24.10   17.30
   8  -6  -3    7.10   11.40
  -8  -6   3  -15.20   10.60
  -8   6   3    6.20   10.90
   8   6  -3   15.00   15.80
   7  -6  -3   15.20   12.90
  -7  -6   3   22.00   15.00
  -7   6   3   23.40   14.00
   7   6  -3   12.20   14.80
  -6  -6   3   50.19   17.60
   6  -6  -3   49.40   14.80
   6   6  -3   60.29   18.60
  -6   6   3   53.89   16.50
  -5  -6   3    3.60   11.00
   5  -6  -3   16.90   11.80
  -5   6   3    6.70   10.20
   5   6  -3   38.90   15.20
   4  -6  -3   24.40   12.70
  -4  -6   3   -8.40   10.20
  -4   6   3   -6.50   10.40
  -3  -6   3   -7.00   11.60
  -3  -6   3    6.10   12.90
   3  -6  -3    5.30   11.80
  -3   6   3   24.20   14.00
  -2  -6   3  -10.20    9.40
   2  -6  -3   -5.60   10.30
  -2  -6   3   -9.70   11.60
  -2   6   3  -16.40    8.80
  -1  -6   3    2.80   11.10
  -1  -6   3    1.50   11.50
   1  -6  -3   14.90   12.00
  -1   6   3  -10.80   10.40
   0  -6   3   22.70   11.30
   0  -6   3    8.00    9.90
   0  -6  -3    5.20   11.80
   0   6   3   11.40   12.10
   1  -6   3   11.30   10.00
  -1  -6  -3  -18.30    9.00
  -2  -6  -3    4.80   11.80
  -2  -6  -3    7.50   11.90
   2  -6   3   17.20   10.50
   2  -6   3   15.40   10.80
   3  -6   3   -3.40    8.90
  -3  -6  -3   -7.50   10.90
   3  -6   3    0.30    8.40
  -3  -6  -3   11.90   12.10
   4  -6   3    9.80    9.00
  -4  -6  -3    1.00   11.70
  -4  -6  -3   23.00   13.90
   4  -6   3   10.70    9.30
  -5  -6  -3   33.60   16.10
   5  -6   3   53.69   12.80
   5  -6   3   70.69   14.20
  -5  -6  -3   68.19   19.50
   6  -6   3   16.40   10.40
   6  -6   3    2.60    8.70
  -6  -6  -3    9.10   16.30
  -6  -6  -3   -9.60   13.10
  -7  -6  -3   48.60   18.70
   7  -6   3   22.70    9.30
   7  -6   3   20.20    8.50
  -8  -6  -3   -7.00   28.40
  -8  -6  -3    3.70   14.90
  -9  -6  -3    7.40   17.00
  -9  -6  -3    1.80   15.20
 -10  -6  -3  -22.70   12.10
 -10  -6  -3   -8.00   14.60
 -11  -6  -3   -6.00   17.00
 -12  -6  -3   36.10   20.80
 -13  -6  -3    6.20   18.20
 -14  -6  -3   28.40   23.00
 -15  -6  -3   14.90   22.40
  16  -7  -3   34.20   10.90
  15  -7  -3   -0.40   13.80
 -15  -7   3   -6.80   22.50
  14  -7  -3   34.90   14.10
 -14  -7   3   10.50   20.10
 -13  -7   3  -16.90   17.40
  13  -7  -3    4.80   11.30
  12  -7  -3  -14.30   10.90
 -12  -7   3    6.80   19.80
 -12   7   3   -3.70   14.90
  11  -7  -3    7.70   12.50
 -11  -7   3  -12.00   19.10
 -11   7   3   -5.20   13.90
 -10  -7   3   26.00   23.00
  10  -7  -3   47.60   15.20
 -10   7   3   56.49   18.70
  -9  -7   3   21.00   18.80
  -9  -7   3   34.40   23.20
   9  -7  -3   15.80   13.60
  -9   7   3   48.30   18.60
  -8  -7   3   33.40   20.20
   8  -7  -3   51.99   16.20
  -8  -7   3   34.20   21.80
  -8   7   3   32.90   16.30
   7  -7  -3   19.70   13.00
  -7  -7   3   32.60   16.50
  -7  -7   3   -8.20   26.80
  -7   7   3   22.30   15.60
  -6  -7   3   -5.80   15.90
  -6  -7   3   12.30   18.70
   6  -7  -3    0.50   12.40
  -6   7   3   -6.60   11.70
   5  -7  -3   15.90   13.90
  -5  -7   3   -6.90   14.00
  -5  -7   3   41.40   18.50
  -5   7   3   -6.20   12.70
  -4  -7   3   18.40   16.10
   4  -7  -3   13.70   13.30
  -4  -7   3    8.40   14.50
  -4   7   3   13.70   14.20
  -3  -7   3   18.50   14.30
  -3  -7   3   33.70   14.50
   3  -7  -3  -14.10   10.70
  -3   7   3   -7.60   12.90
  -2  -7   3    6.90   14.50
   2  -7  -3   -0.40   12.10
  -2  -7   3    5.00   13.50
  -2   7   3   -2.00   12.50
  -1  -7   3   39.70   15.10
  -1  -7   3   20.20   14.90
   1  -7  -3   19.20   14.30
   0  -7  -3   28.90   15.20
   0  -7   3    5.30   12.80
   0  -7  -3   20.00   14.50
   0  -7   3   19.20   14.00
   1  -7   3   19.90   12.90
  -1  -7  -3   10.40   14.10
  -1  -7  -3  -21.20   10.70
   1  -7   3    9.00   13.00
  -2  -7  -3   -5.00   12.40
   2  -7   3   -3.20   12.00
  -2  -7  -3   13.40   14.80
   2  -7   3   18.50   12.00
   3  -7   3   27.40   14.90
  -3  -7  -3   10.50   14.70
  -3  -7  -3   31.70   16.10
   3  -7   3   45.00   14.10
   4  -7   3   12.70   10.90
   4  -7   3   -8.90   18.60
  -4  -7  -3   24.40   17.10
  -4  -7  -3   -0.30   15.30
   5  -7   3   11.20   11.00
  -5  -7  -3   13.00   16.00
   5  -7   3   15.60   13.20
  -5  -7  -3   30.60   19.60
   6  -7   3   24.30   14.10
  -6  -7  -3  -15.30   13.00
   6  -7   3   21.10   12.30
  -6  -7  -3   -9.80   14.70
   7  -7   3    0.70    9.60
  -7  -7  -3   14.10   17.40
  -7  -7  -3   12.90   17.20
   7  -7   3    9.70   10.30
   8  -7   3    8.20    9.70
  -8  -7  -3    7.00   17.30
   8  -7   3    3.80    8.50
  -9  -7  -3   53.29   23.30
 -10  -7  -3  -12.30   16.90
 -11  -7  -3   83.59   26.10
 -12  -7  -3   18.90   19.00
 -13  -7  -3  -40.30   15.90
 -14  -7  -3   13.00   24.50
 -14  -8   3   15.80   25.40
  14  -8  -3   55.89   15.80
  14  -8  -3   54.79   18.00
  13  -8  -3   24.90   14.70
 -13  -8   3   41.70   23.90
  12  -8  -3   35.50   15.80
 -12  -8   3   16.10   22.10
  11  -8  -3   -2.30   12.40
 -11  -8   3  -12.60   21.00
  10  -8  -3    5.80   13.00
 -10  -8   3  -12.90   16.10
  -9  -8   3    5.60   18.70
   9  -8  -3   -2.90   13.10
   8  -8  -3   25.10   14.30
  -8  -8   3   31.90   20.70
  -7  -8   3  -12.90   14.20
   7  -8  -3   -9.10   12.60
   6  -8  -3  -21.70   12.10
  -6  -8   3   18.40   18.50
  -6  -8   3  -28.70   14.10
  -5  -8   3    7.60   16.50
  -5  -8   3    0.20   15.60
   5  -8  -3   -4.20   12.30
   4  -8  -3   15.00   15.30
   4  -8  -3   -5.20   11.80
  -4  -8   3   13.00   17.90
   3  -8  -3    1.20   13.50
  -3  -8   3   27.00   17.30
  -3  -8   3   19.10   27.10
   3  -8  -3   36.70   18.50
  -2  -8   3  -10.60   14.20
   2  -8  -3    7.10   14.60
  -2  -8   3    5.90   15.80
   2  -8  -3    5.20   15.50
   1  -8  -3  -15.30   16.00
   1  -8  -3  -12.90   12.70
  -1  -8   3   -2.20   11.80
  -1  -8   3  -31.50   11.40
   0  -8  -3    5.60   14.40
   0  -8   3    0.50   15.60
   0  -8   3   28.60   15.10
   0  -8  -3    9.10   17.60
   1  -8   3   -3.20   11.50
  -1  -8  -3  -16.10   14.00
   1  -8   3   31.30   15.90
  -1  -8  -3   -7.00   14.00
  -2  -8  -3   19.20   18.70
   2  -8   3   12.40   12.70
   2  -8   3  -11.90   10.90
  -2  -8  -3    0.80   16.40
  -3  -8  -3    3.40   16.80
   3  -8   3   -1.70   11.50
   3  -8   3  -12.10   12.00
  -3  -8  -3   19.90   17.20
  -4  -8  -3   -4.20   22.60
  -4  -8  -3   -5.30   13.70
   4  -8   3   -7.00   10.00
   4  -8   3  -22.40   11.60
   5  -8   3   39.50   16.70
   5  -8   3   30.00   14.10
  -5  -8  -3   57.19   23.30
  -6  -8  -3   23.50   18.80
   6  -8   3  -14.10   12.90
   6  -8   3   -7.90   10.30
   7  -8   3   29.00   14.20
  -7  -8  -3   28.70   18.40
   7  -8   3   15.10   11.60
  -8  -8  -3    7.30   19.80
   8  -8   3   10.50   10.20
   8  -8   3   15.90   11.80
  -9  -8  -3   10.10   18.40
   9  -8   3    4.30    8.40
   9  -8   3   22.10    9.40
 -10  -8  -3    0.30   18.70
 -11  -8  -3  -14.80   19.00
 -12  -8  -3   46.00   43.80
  12  -9  -3   42.00   16.80
 -12  -9   3   25.90   24.90
  12  -9  -3   23.30   16.30
  11  -9  -3    7.30   14.60
  11  -9  -3   11.10   16.10
 -10  -9   3   -8.60   19.70
  10  -9  -3   26.20   17.20
  10  -9  -3    9.10   15.40
   9  -9  -3   12.40   16.30
  -9  -9   3   18.70   20.60
   9  -9  -3   18.20   16.70
   8  -9  -3   48.60   18.40
  -8  -9   3   23.60   19.80
   8  -9  -3   28.50   17.20
   7  -9  -3   32.70   17.10
   7  -9  -3   45.30   19.20
  -7  -9   3    4.20   16.90
  -6  -9   3    0.50   16.30
   6  -9  -3    6.10   15.50
   5  -9  -3    3.20   18.30
  -5  -9   3   38.70   19.60
   5  -9  -3   13.30   16.40
   4  -9  -3   16.80   15.10
   4  -9  -3    2.60   15.00
  -4  -9   3   -2.30   14.80
  -3  -9   3    7.60   15.00
   3  -9  -3  -15.10   15.00
  -3  -9   3   51.79   22.50
   3  -9  -3    5.90   14.70
   2  -9  -3    3.90   15.50
  -2  -9   3   -2.70   16.50
  -2  -9   3   19.70   18.60
   2  -9  -3    7.60   16.00
  -1  -9   3    0.20   20.50
   1  -9  -3  -25.50   14.70
  -1  -9   3   12.70   15.50
   1  -9  -3   -1.70   14.20
   0  -9   3    3.30   13.10
   0  -9  -3  -13.50   11.70
   0  -9   3   -7.60   16.70
   1  -9   3    4.60   11.90
   1  -9   3   11.40   16.40
  -1  -9  -3   -5.80   13.90
   2  -9   3   -3.00   15.00
   2  -9   3   -5.30   13.20
  -2  -9  -3   16.80   16.90
  -3  -9  -3   14.60   18.70
   3  -9   3   -1.10   14.50
   3  -9   3    3.70   13.10
   4  -9   3    0.70   11.40
  -4  -9  -3  -18.00   13.90
   4  -9   3   -0.60   15.00
  -5  -9  -3    6.00   19.20
   5  -9   3    8.00   15.10
   5  -9   3    5.60   13.50
   6  -9   3    6.00   12.40
   6  -9   3    1.70   13.70
  -6  -9  -3   -6.20   17.50
   7  -9   3   -6.70   11.70
  -7  -9  -3    5.20   19.10
   7  -9   3   14.50   13.60
   8  -9   3    6.00   11.60
   8  -9   3  -16.60   18.30
  -8  -9  -3   -1.80   18.80
  -9  -9  -3  -10.90   33.80
   9  -9   3   34.90   13.10
   9  -9   3   17.90   14.70
 -10  -9  -3   15.40   25.60
   9 -10  -3   -7.10   16.10
   9 -10  -3   -8.50   14.20
  -9 -10   3  -13.00   15.80
   8 -10  -3    9.30   15.00
   8 -10  -3    3.70   17.40
   7 -10  -3  -11.00   13.30
  -7 -10   3    4.00   19.50
   7 -10  -3  -14.90   16.70
   6 -10  -3   16.90   18.00
  -6 -10   3   -3.30   15.90
   6 -10  -3   33.30   18.10
  -5 -10   3   12.60   18.60
   5 -10  -3   12.20   15.00
  -4 -10   3    7.50   16.20
   4 -10  -3  -11.90   13.40
  -3 -10   3    9.90   15.90
   3 -10  -3   24.60   19.50
   2 -10  -3   20.40   18.20
  -2 -10   3   -1.60   14.20
   1 -10  -3   -9.70   13.30
  -1 -10   3   13.00   16.10
   0 -10  -3   -6.80   13.80
   0 -10   3    8.80   14.80
   1 -10   3    1.00   17.80
  -1 -10  -3    8.60   16.00
   1 -10   3   12.60   15.20
   2 -10   3   -3.50   14.00
  -2 -10  -3  -13.50   13.60
   2 -10   3    6.20   18.90
   3 -10   3   13.30   17.20
  -3 -10  -3   -1.10   16.70
   3 -10   3   -4.80   18.50
  -4 -10  -3    6.60   17.90
   4 -10   3   24.40   15.50
   4 -10   3    4.70   19.00
  -5 -10  -3   20.60   24.30
   5 -10   3   21.20   15.40
   5 -10   3   -2.30   17.20
   6 -10   3   16.70   18.30
   6 -10   3    0.90   12.60
  -6 -10  -3  -19.40   17.60
   7 -10   3   14.10   14.60
   7 -10   3   18.90   17.50
  -7 -10  -3   48.00   23.30
   3 -11  -3   -1.00   16.80
  -3 -11   3   26.90   20.50
  -2 -11   3  -11.10   17.80
   2 -11  -3    2.70   18.00
   1 -11  -3   12.10   17.80
  -1 -11   3    2.90   17.80
   0 -11   3   22.90   19.10
   0 -11  -3   10.50   19.30
  -1 -11  -3   27.80   38.40
   1 -11   3  -11.30   13.50
  20   0  -4   12.60   18.30
 -20   0   4   17.70   19.00
 -19   0   4   -9.70   14.20
  19   0  -4   -3.90   15.40
 -18   0   4  -16.20   13.30
  18   0  -4  -13.40   14.00
  17   0  -4   42.90   16.80
 -17   0   4   20.90   15.70
 -16   0   4   58.79   17.80
  16   0  -4   56.89   17.40
  15   0  -4   98.79   19.50
 -15   0   4   94.99   20.20
 -14   0   4  581.94   34.40
  14   0  -4  515.75   33.80
 -13   0   4  204.78   22.60
  13   0  -4  294.67   25.40
 -12   0   4  823.52   37.50
  12   0  -4  852.91   37.70
 -11   0   4   17.80   10.40
  11   0  -4    2.60    9.60
 -10   0   4  116.69   16.50
  10   0  -4  155.78   18.70
  -9   0   4  187.68   18.70
   9   0  -4  183.08   18.90
  -8   0   4 1507.95   44.90
   8   0  -4 1558.34   46.10
   7   0  -4  899.41   32.10
  -7   0   4  853.61   31.40
   6   0  -4 1861.21   47.70
  -6   0   4 1856.51   47.80
   5   0  -4  370.36   19.70
  -5   0   4  371.26   19.90
   4   0  -4 2132.99   49.60
  -4   0   4 2107.99   49.00
  -3   0   4   81.89   12.20
   3   0  -4   97.79   12.50
   2   0  -4 1199.18   32.20
  -2   0   4 1199.78   32.50
   1   0  -4   51.19    9.20
  -1   0   4   58.29    9.90
   0   0   4  254.67   14.60
   0   0  -4  267.97   15.30
   1   0   4   33.00    7.40
  -1   0  -4   34.60    8.00
  -2   0  -4   51.49    8.80
   2   0   4   72.59   10.10
   3   0   4  740.23   23.10
  -3   0  -4  691.53   22.80
  -4   0  -4 1318.17   33.30
   4   0   4 1270.57   32.90
   5   0   4  116.29   13.10
  -5   0  -4  110.49   12.30
  -6   0  -4  838.62   27.10
  -6   0  -4  808.52   26.80
  -7   0  -4   71.09   10.90
  -7   0  -4   51.09    9.60
  -8   0  -4   10.20    7.80
  -8   0  -4   28.10    8.10
  -9   0  -4  161.48   15.90
  -9   0  -4  136.29   15.20
 -10   0  -4   -0.70    8.60
 -10   0  -4   17.60    9.50
 -11   0  -4   39.30   12.00
 -11   0  -4   31.30   11.40
 -12   0  -4  302.27   22.40
 -12   0  -4  269.87   22.40
 -13   0  -4   77.89   16.30
 -13   0  -4   88.59   15.50
 -14   0  -4   27.80   13.50
 -14   0  -4    6.80   12.50
 -16   0  -4  -24.20   22.80
 -16   0  -4   41.90   14.50
 -17   0  -4   49.40   21.50
 -17   0  -4   39.60   21.60
 -20  -1   4    4.50   17.00
  20  -1  -4   17.20   17.00
 -20   1   4   14.70   17.50
  20   1  -4    2.80   17.90
 -19  -1   4  180.78   34.80
  19  -1  -4  263.47   28.90
 -19   1   4  273.17   31.60
  19   1  -4  230.28   32.30
  18  -1  -4    2.10   14.40
 -18  -1   4   -2.20   13.00
  18   1  -4   13.70   17.70
 -18   1   4   20.70   16.20
 -17  -1   4   39.10   16.50
  17  -1  -4   24.80   14.30
  17   1  -4   31.00   17.90
 -17   1   4    9.30   13.30
 -16  -1   4  208.58   27.60
  16  -1  -4  191.58   24.30
  16   1  -4  223.68   29.00
 -16   1   4  250.87   26.40
  15  -1  -4   55.69   16.20
 -15  -1   4   73.69   18.10
  15   1  -4   68.19   19.90
 -15   1   4   81.39   19.20
  14  -1  -4   48.90   15.30
 -14  -1   4   15.10   13.00
  14   1  -4   62.49   18.90
 -14   1   4   15.10   13.80
  13  -1  -4 1156.48   43.70
 -13  -1   4 1110.19   46.50
  13   1  -4 1172.58   47.60
  12  -1  -4  261.77   22.90
 -12  -1   4  288.47   25.10
 -12   1   4  299.27   23.20
  12   1  -4  286.47   26.30
  11  -1  -4   91.59   15.10
 -11  -1   4  111.19   17.90
  11   1  -4   88.09   16.20
 -11   1   4   62.49   13.20
  10  -1  -4 1232.78   41.20
 -10   1   4 1189.68   40.20
  10   1  -4 1267.37   45.70
   9  -1  -4  540.65   26.20
  -9  -1   4  524.35   28.20
  -9   1   4  513.45   25.70
   9   1  -4  439.26   27.80
  -8  -1   4  267.17   20.90
   8  -1  -4  229.08   18.80
   8   1  -4  288.27   26.20
  -8   1   4  284.27   19.60
  -7  -1   4  428.66   23.40
   7  -1  -4  384.16   21.30
  -7   1   4  370.26   21.20
   7   1  -4  410.16   24.20
  -6  -1   4  440.46   23.40
   6  -1  -4  485.75   22.40
  -6   1   4  444.26   22.00
   6   1  -4  471.05   24.40
   5  -1  -4   26.50    8.60
  -5  -1   4   22.50    8.90
   5   1  -4   40.90   11.20
  -5   1   4   31.20    9.30
  -4  -1   4 1969.10   49.90
   4  -1  -4 2108.59   48.70
  -4   1   4 2107.79   49.20
   4   1  -4 2066.99   50.49
   3  -1  -4   43.50   10.20
  -3  -1   4   73.39   11.90
  -3   1   4   56.49   11.00
   3   1  -4   56.39   10.70
   2  -1  -4 4552.14   86.09
  -2  -1   4 4517.95   84.89
  -2   1   4 4518.25   85.49
   2   1  -4 4526.35   84.39
   1  -1  -4 5848.81  105.39
  -1  -1   4 5783.72  101.89
   1   1  -4 5880.41  102.29
  -1   1   4 5742.93  104.49
   0  -1  -4   72.99   11.10
   0  -1   4   96.99   10.70
   0   1   4   68.99   10.80
   0   1  -4   79.09   10.50
  -1  -1  -4 4994.20   91.59
   1  -1   4 4881.91   84.79
   1   1   4 4786.32   91.09
  -1   1  -4 4909.41   84.79
   2  -1   4  176.78   10.80
  -2  -1  -4  156.08   14.50
  -2   1  -4  189.88   10.90
   2   1   4  177.88   14.70
   3  -1   4   19.40    5.40
  -3  -1  -4   42.10    9.70
  -3   1  -4   30.60    6.20
   3   1   4   24.50    8.40
  -4  -1  -4  871.21   29.70
   4  -1   4  842.02   21.10
   4   1   4  839.72   29.80
  -4   1  -4  829.22   21.40
  -5  -1  -4 2347.36   56.59
  -5   1  -4 2416.36   45.30
   5   1   4 2408.66   58.69
  -6  -1  -4   -9.40    8.40
  -6  -1  -4    7.20    8.90
  -6   1  -4    7.20    5.30
  -7  -1  -4  800.12   31.50
  -7  -1  -4  791.52   30.70
  -7   1  -4  802.92   21.20
  -7   1  -4  798.72   21.80
  -8  -1  -4  626.54   28.20
  -8  -1  -4  606.04   29.30
  -8   1  -4  595.64   18.90
  -8   1  -4  603.74   19.40
  -9  -1  -4    3.20    9.70
  -9  -1  -4    9.10    9.50
  -9   1  -4    0.60    6.10
 -10  -1  -4  408.46   25.10
 -10  -1  -4  334.17   25.80
 -10   1  -4  381.26   17.60
 -10   1  -4  369.06   16.80
 -11  -1  -4    9.70   10.80
 -11  -1  -4   -5.80   10.70
 -11   1  -4    0.90    7.10
 -11   1  -4    5.00    7.60
 -12  -1  -4   31.50   14.20
 -12  -1  -4   -3.70   11.20
 -12   1  -4   36.20   10.00
 -12   1  -4   23.30    8.60
 -13  -1  -4    4.20   13.40
 -13  -1  -4    7.70   15.30
 -13   1  -4    7.40    8.90
 -13   1  -4   10.60    8.70
 -14  -1  -4   50.49   16.70
 -14  -1  -4   67.19   16.90
 -14   1  -4   58.89   10.60
 -14   1  -4   49.60   10.50
 -15  -1  -4   65.49   19.50
 -15  -1  -4   19.80   14.90
 -15   1  -4   45.80   10.20
 -15   1  -4   44.10   10.50
 -16  -1  -4   53.09   19.40
 -16  -1  -4   10.70   15.00
 -17  -1  -4   -1.90   15.70
 -17  -1  -4  -16.50   14.00
  20  -2  -4   23.40   16.20
  20   2  -4    2.80   18.50
 -20   2   4    3.30   15.90
 -19  -2   4   -2.50   16.10
  19  -2  -4   -9.40   14.10
  19   2  -4    6.00   18.50
 -19   2   4   -2.70   14.40
 -18  -2   4  -15.10   12.60
  18  -2  -4   14.40   14.10
 -18   2   4   -0.70   15.00
  18   2  -4   55.89   20.60
  17  -2  -4   16.20   13.40
 -17   2   4   18.00   14.70
  17   2  -4    6.40   17.40
 -16  -2   4   17.10   15.30
  16  -2  -4  -18.40   10.50
  16   2  -4    7.10   15.30
 -16   2   4   39.30   15.30
  15  -2  -4   50.69   15.10
 -15  -2   4   87.59   20.90
 -15   2   4   93.09   18.30
  15   2  -4   75.29   20.50
  14  -2  -4  439.36   28.70
 -14  -2   4  428.86   34.10
  14   2  -4  493.15   37.10
 -14   2   4  457.35   39.40
 -13  -2   4  343.07   29.50
  13  -2  -4  364.76   25.30
 -13   2   4  295.97   24.20
  13   2  -4  416.96   32.70
  12  -2  -4  133.89   17.90
 -12  -2   4  141.09   21.20
 -12   2   4  132.39   19.00
  12   2  -4  153.58   23.60
 -11  -2   4    4.00   10.50
  11  -2  -4    9.80    9.20
 -11   2   4   23.90   11.10
  11   2  -4   15.20   12.90
 -10  -2   4   26.60   12.40
  10  -2  -4   -0.30    8.60
  10   2  -4   -5.30   10.10
 -10   2   4    3.60    9.60
  -9  -2   4   12.10   10.70
   9  -2  -4   14.30    9.50
  -9   2   4    7.90    9.50
   9   2  -4   16.40   11.60
  -8  -2   4  169.08   19.80
   8  -2  -4  169.08   16.70
  -8   2   4  190.28   17.70
   8   2  -4  176.98   20.90
   7  -2  -4 1245.98   37.70
  -7  -2   4 1241.48   43.60
  -7   2   4 1218.88   38.10
   7   2  -4 1188.58   43.40
   6  -2  -4 1191.18   36.70
  -6  -2   4 1196.88   41.60
   6   2  -4 1223.68   42.10
  -6   2   4 1248.78   37.70
  -5  -2   4  935.21   35.10
   5  -2  -4  955.00   31.70
  -5   2   4  878.61   31.00
   5   2  -4  909.41   34.80
  -4  -2   4 1480.45   43.60
   4  -2  -4 1463.55   40.90
   4   2  -4 1394.76   42.80
  -4   2   4 1478.15   40.60
   3  -2  -4 2020.30   49.80
  -3  -2   4 1956.90   50.39
   3   2  -4 1943.91   50.29
  -3   2   4 2024.40   49.40
  -2  -2   4 1335.87   38.00
   2  -2  -4 1317.67   38.50
  -2   2   4 1376.46   39.40
   2   2  -4 1380.16   38.50
   1  -2  -4 1483.85   41.00
  -1  -2   4 1443.56   38.30
  -1   2   4 1496.95   41.40
   1   2  -4 1471.95   38.60
   0  -2  -4  761.72   29.00
   0  -2   4  738.73   24.20
   0   2   4  742.33   28.80
   0   2  -4  809.82   25.40
   1  -2   4   68.09    9.10
  -1  -2  -4   71.69   12.20
   1   2   4   53.39   11.10
  -1   2  -4   85.49   10.40
  -2  -2  -4   78.19   12.90
   2  -2   4   61.89    8.10
  -2   2  -4   80.19    9.00
   2   2   4   72.19   11.90
  -3  -2  -4   19.20    9.30
   3  -2   4   15.10    5.30
  -3   2  -4   20.90    5.10
   3   2   4   23.30   10.00
  -4  -2  -4  249.68   20.10
   4   2   4  270.07   20.70
  -5  -2  -4  284.37   21.90
   5   2   4  224.18   22.00
  -6  -2  -4  866.91   42.70
  -6  -2  -4  829.22   34.70
  -7  -2  -4  399.76   26.40
  -7  -2  -4  395.06   25.70
  -8  -2  -4  118.29   18.40
  -9  -2  -4   -3.40   11.50
  -9  -2  -4   25.40   12.80
 -10  -2  -4   60.99   16.70
 -10  -2  -4   66.89   15.90
 -11  -2  -4   43.00   14.90
 -11  -2  -4   56.69   16.20
 -12  -2  -4  233.08   26.70
 -12  -2  -4  248.68   28.70
 -13  -2  -4   39.60   16.80
 -13  -2  -4   46.30   18.60
 -14  -2  -4   37.90   18.10
 -14  -2  -4  -22.90   13.80
 -15  -2  -4   79.19   21.50
 -15  -2  -4   45.60   20.70
 -16  -2  -4   23.00   17.40
 -16  -2  -4    7.40   18.30
 -17  -2  -4  -22.00   16.80
 -17  -2  -4   -9.70   18.30
  20  -3  -4   11.40   13.50
 -20   3   4   -0.60   13.20
  20   3  -4   16.50   21.10
  19   3  -4  -11.10   18.00
 -19   3   4   24.30   14.10
  18  -3  -4   -1.80   10.90
 -18   3   4    0.90   13.10
  18   3  -4   20.30   18.60
  17  -3  -4   53.19   15.00
 -17  -3   4   53.29   21.70
 -17   3   4   31.90   14.80
  17   3  -4   31.10   20.70
  16  -3  -4   25.60   13.30
 -16  -3   4   16.00   16.60
 -16   3   4    0.60   21.60
  16   3  -4   -7.30   28.40
 -15  -3   4   40.10   20.80
  15  -3  -4   50.69   15.30
  15   3  -4   51.29   20.30
 -15   3   4   35.00   16.90
 -14  -3   4   23.10   16.70
  14  -3  -4    3.80   11.40
 -14   3   4    0.20   10.70
  14   3  -4    4.20   15.30
 -13  -3   4   49.30   17.20
  13  -3  -4   36.70   13.30
  13   3  -4   30.80   17.20
 -13   3   4   47.20   13.40
  12  -3  -4   79.59   17.80
 -12  -3   4   74.29   18.70
  12   3  -4   76.79   20.40
 -12   3   4   52.79   12.80
  11  -3  -4  113.19   19.00
 -11  -3   4  105.89   20.30
 -11   3   4  111.59   17.10
  11   3  -4  124.39   23.40
 -10  -3   4   22.70   12.50
  10  -3  -4   98.89   15.30
  10   3  -4   69.19   18.90
 -10   3   4   75.49   14.00
  -9  -3   4    0.60   10.10
   9  -3  -4   19.20   10.00
   9   3  -4    7.10   11.00
  -9   3   4    5.30   10.10
  -8  -3   4   47.70   13.80
   8  -3  -4   73.59   13.30
  -8   3   4   70.99   13.20
   8   3  -4   71.89   17.00
   7  -3  -4   41.80   11.90
  -7  -3   4   56.19   14.20
  -7   3   4   31.30   10.70
   7   3  -4   24.50   12.70
  -6  -3   4   26.50   11.60
   6  -3  -4   29.80   10.70
  -6   3   4   40.10   11.50
   6   3  -4   37.10   13.50
  -5  -3   4   50.49   13.10
   5  -3  -4   39.90   11.40
  -5   3   4   39.00   11.30
   5   3  -4   32.60   12.60
  -4  -3   4   74.39   15.70
   4  -3  -4   90.59   14.50
  -4   3   4   63.09   12.90
   4   3  -4   83.69   15.80
  -3  -3   4  175.98   17.70
   3  -3  -4  120.09   16.00
   3   3  -4  177.68   18.00
  -3   3   4  127.79   15.60
  -2  -3   4   64.49   12.70
   2  -3  -4   46.70   12.00
   2   3  -4   81.09   13.50
  -2   3   4   62.49   11.80
  -1  -3   4  942.61   32.30
   1  -3  -4  925.01   34.60
   1   3  -4  857.71   30.60
  -1   3   4  938.81   35.10
   0  -3   4 2163.38   51.29
   0  -3  -4 2055.89   55.89
   0   3  -4 2141.39   49.60
   0   3   4 2093.59   56.49
  -1  -3  -4  983.90   37.60
   1  -3   4  996.30   29.80
   1   3   4  955.30   36.80
  -1   3  -4  989.50   28.90
  -2  -3  -4  439.66   28.90
   2  -3   4  443.56   18.10
   2   3   4  470.75   27.20
  -2   3  -4  401.96   17.40
   3  -3   4  356.56   14.40
  -3  -3  -4  327.47   24.00
   3   3   4  386.06   26.00
  -3   3  -4  353.96   14.50
   4  -3   4   -2.80    4.10
  -4  -3  -4    6.40   11.00
   4   3   4    0.40   10.30
  -5  -3  -4   59.59   14.40
  -6  -3  -4  399.56   27.50
  -6  -3  -4  454.75   29.70
  -7  -3  -4  399.06   28.40
  -7  -3  -4  411.56   29.20
  -8  -3  -4  168.08   23.30
  -8  -3  -4  199.88   23.10
  -9  -3  -4  180.18   24.10
  -9  -3  -4  222.58   25.90
 -10  -3  -4   71.49   17.40
 -11  -3  -4   35.90   17.00
 -11  -3  -4   58.59   18.20
 -12  -3  -4   -6.60   14.00
 -12  -3  -4   18.90   16.30
 -13  -3  -4  -18.30   14.20
 -13  -3  -4  -10.10   16.30
 -14  -3  -4  -14.90   13.30
 -14  -3  -4  -28.20   15.00
 -15  -3  -4   18.90   22.90
 -15  -3  -4    4.00   20.80
 -16  -3  -4   11.40   18.90
 -16  -3  -4   35.40   36.60
 -17  -3  -4  -19.50   21.60
 -17  -3  -4   -1.30   18.70
  19  -4  -4   -2.50   11.50
 -19   4   4    7.70   14.20
  19   4  -4    9.60   18.90
  18  -4  -4    9.00   13.00
  18   4  -4    3.50   20.00
 -18   4   4   28.00   15.70
  17  -4  -4  -10.40   10.60
  17   4  -4   36.20   21.80
 -17   4   4    0.80   12.90
  16  -4  -4   35.90   13.10
 -16  -4   4   14.80   22.30
  16   4  -4   19.90   16.90
 -16   4   4   -2.20   12.60
 -15  -4   4  163.08   29.20
  15  -4  -4  130.69   20.00
  15   4  -4  107.49   27.40
 -15   4   4  117.89   20.30
  14  -4  -4  130.99   19.80
 -14  -4   4  111.59   26.40
 -14   4   4  162.98   22.60
  13  -4  -4  363.16   25.40
 -13  -4   4  407.16   37.90
  13   4  -4  361.16   36.80
 -13   4   4  425.26   28.70
  12  -4  -4   69.79   15.20
 -12  -4   4   42.90   16.20
  12   4  -4   54.39   19.50
 -12   4   4  108.19   16.80
 -11  -4   4   32.90   15.40
  11  -4  -4   31.10   12.00
  11   4  -4   17.90   14.90
 -11   4   4   26.60   11.90
 -10  -4   4   34.50   15.30
  10  -4  -4    6.80   11.40
  10   4  -4   19.10   14.20
 -10   4   4   32.70   12.10
  -9  -4   4   11.90   11.40
  -9   4   4   21.60   11.50
   9   4  -4  -10.60   10.30
  -8  -4   4  177.28   23.10
   8   4  -4  178.08   24.30
  -8   4   4  159.38   18.90
  -7  -4   4  701.93   37.60
  -7   4   4  711.83   31.60
   7   4  -4  646.04   37.00
  -6  -4   4  949.60   42.10
  -6   4   4  920.51   36.00
   6   4  -4  909.91   41.70
  -5  -4   4  595.34   32.90
   5  -4  -4  534.45   41.90
  -5   4   4  542.95   28.70
   5   4  -4  602.84   33.80
  -4  -4   4  492.35   31.10
   4  -4  -4  506.75   28.20
   4   4  -4  472.35   29.40
  -4   4   4  487.45   27.70
   3  -4  -4  267.97   22.30
  -3  -4   4  281.87   23.20
   3   4  -4  281.47   23.20
  -3   4   4  317.17   23.20
  -2  -4   4  202.58   20.20
   2  -4  -4  227.78   21.40
   2   4  -4  246.48   21.40
  -2   4   4  265.07   21.90
   1  -4  -4   29.20   12.10
  -1  -4   4   53.59   13.20
  -1   4   4   27.30   12.30
   1   4  -4   33.00   12.00
   0  -4  -4   62.99   14.80
   0  -4   4   73.89   13.70
   0   4  -4   98.99   14.70
   0   4   4   81.79   18.90
   1  -4   4  120.39   15.10
  -1  -4  -4  120.99   18.30
   1   4   4  107.29   17.20
  -1   4  -4  140.39   15.70
   2  -4   4  562.64   24.20
  -2  -4  -4  550.54   31.90
  -2   4  -4  566.54   23.30
   2   4   4  594.14   32.80
  -3  -4  -4  511.55   31.40
   3  -4   4  507.25   21.40
   3  -4   4  473.05   21.60
   3   4   4  463.05   30.70
   4  -4   4  753.22   23.00
  -4  -4  -4  758.32   38.90
   4  -4   4  763.02   23.70
   4   4   4  753.32   39.60
  -5  -4  -4  921.91   43.20
  -5  -4  -4  938.11   42.40
   5  -4   4  956.40   23.30
   5  -4   4  930.01   22.60
  -6  -4  -4  686.53   38.20
  -6  -4  -4  678.13   38.20
  -7  -4  -4  293.27   28.40
  -7  -4  -4  261.17   27.00
  -8  -4  -4   23.40   14.80
  -8  -4  -4   -6.40   11.40
  -9  -4  -4  -38.40   10.90
  -9  -4  -4    1.10   14.20
 -10  -4  -4   83.39   21.50
 -10  -4  -4   85.89   21.50
 -11  -4  -4   42.30   19.90
 -11  -4  -4   24.80   17.60
 -12  -4  -4   73.99   22.60
 -12  -4  -4   31.90   34.70
 -13  -4  -4   88.39   23.30
 -13  -4  -4  104.39   29.50
 -14  -4  -4   -5.40   18.90
 -14  -4  -4   15.60   19.80
 -15  -4  -4   68.49   27.90
 -15  -4  -4   34.60   33.10
 -16  -4  -4    4.70   21.30
 -18   5   4   20.80   13.90
  17  -5  -4   12.10   12.20
 -17   5   4   33.50   14.90
  17   5  -4   31.00   23.50
  16  -5  -4    2.40   11.40
 -16   5   4    0.30   12.90
  16   5  -4  -15.90   17.50
  15  -5  -4   -4.90   10.40
 -15   5   4  -23.70   12.00
  15   5  -4    6.60   18.50
 -14  -5   4   11.80   17.40
  14  -5  -4   21.40   12.50
  14   5  -4   66.99   26.10
 -14   5   4   15.50   13.80
 -13  -5   4   59.39   21.80
  13  -5  -4   95.99   16.40
 -13   5   4   61.09   16.40
  13   5  -4   29.30   21.20
 -12  -5   4  138.19   27.40
  12  -5  -4  122.49   18.40
 -12   5   4  102.49   18.40
  11  -5  -4  170.38   21.50
 -11  -5   4  181.08   33.50
  11   5  -4  154.38   28.70
 -11   5   4  129.29   19.80
 -10  -5   4  186.38   28.10
  10  -5  -4  154.88   20.10
  10   5  -4  201.08   28.80
 -10   5   4  135.49   20.40
   9  -5  -4  145.29   19.30
  -9  -5   4  101.19   21.60
   9   5  -4  165.98   27.00
  -9   5   4  130.19   19.40
  -8  -5   4  289.07   29.50
   8  -5  -4  313.37   24.90
  -8   5   4  238.78   27.00
   8   5  -4  321.87   31.70
   7  -5  -4  174.18   20.40
  -7  -5   4  173.88   24.10
   7   5  -4  198.38   26.60
   6  -5  -4  -14.90    9.00
  -6  -5   4   -0.40   11.50
   6   5  -4   -1.40   10.40
  -6   5   4   -0.30   11.50
  -5  -5   4  136.29   21.20
   5  -5  -4  147.99   21.10
   5   5  -4  165.68   23.00
  -5   5   4  138.49   19.60
  -4  -5   4  225.38   23.80
   4  -5  -4  233.98   22.80
  -4   5   4  242.78   22.90
   4   5  -4  218.88   24.00
  -3  -5   4  262.67   24.30
   3  -5  -4  255.67   24.20
  -3   5   4  291.57   24.90
   3   5  -4  300.47   25.30
   2  -5  -4  304.27   26.50
  -2  -5   4  339.77   29.80
  -2   5   4  352.56   26.90
   2   5  -4  342.77   25.70
   1  -5  -4  422.26   29.50
  -1  -5   4  430.46   27.00
  -1   5   4  455.05   30.30
   1   5  -4  416.96   26.70
   0  -5   4  444.26   26.60
   0  -5  -4  439.46   29.80
   0   5  -4  489.75   31.90
   0   5   4  457.85   30.10
  -1  -5  -4   97.59   19.00
   1  -5   4  114.09   15.80
   1   5   4  109.89   19.60
   2  -5   4   85.99   15.10
   2  -5   4   53.59   13.00
  -2  -5  -4   53.29   16.60
   2   5   4   77.79   19.30
  -3  -5  -4   53.99   17.00
   3  -5   4  102.49   14.50
   3  -5   4   73.99   13.00
   3   5   4  106.69   21.30
  -4  -5  -4   39.50   14.50
  -4  -5  -4   -2.20    9.90
   4  -5   4   21.40    9.20
   4  -5   4    0.70    7.80
   5  -5   4   20.70    7.90
   5  -5   4   20.20    7.40
  -5  -5  -4  -10.70   11.20
  -5  -5  -4   -2.40   10.20
  -6  -5  -4   52.09   17.30
   6  -5   4   81.09    9.80
   6  -5   4   60.59    9.60
  -6  -5  -4   71.99   20.10
  -7  -5  -4   26.70   14.70
  -7  -5  -4   31.50   16.50
  -8  -5  -4   30.70   16.90
  -8  -5  -4   18.00   16.50
  -9  -5  -4  -16.00   14.90
  -9  -5  -4    7.80   16.30
 -10  -5  -4   18.30   17.50
 -10  -5  -4  -12.20   15.10
 -11  -5  -4   16.50   17.00
 -11  -5  -4  -14.90   14.50
 -12  -5  -4   16.50   18.00
 -12  -5  -4    2.00   17.40
 -13  -5  -4   -1.40   22.10
 -14  -5  -4    4.80   19.90
 -15  -5  -4  -20.80   19.60
 -17  -6   4  -39.20   20.20
 -17   6   4   -4.40   13.10
 -16  -6   4   20.50   23.90
  16  -6  -4   39.10   13.60
 -16   6   4   28.90   16.00
  15  -6  -4   54.99   15.10
  15   6  -4   60.99   26.60
  14  -6  -4  118.89   20.10
 -14   6   4   69.29   24.40
  14   6  -4   98.49   29.10
  13  -6  -4   94.29   17.30
 -13   6   4   85.89   19.80
  13   6  -4  106.59   26.20
  12  -6  -4  119.59   20.40
 -12   6   4  157.48   24.00
  12   6  -4  126.29   27.70
  11  -6  -4   22.90   13.30
 -11  -6   4    1.50   15.80
 -11   6   4   22.30   14.30
  11   6  -4   11.20   17.40
 -10  -6   4   25.20   17.20
  10  -6  -4    2.10   11.90
 -10   6   4   -6.80   12.20
  10   6  -4   47.10   23.30
   9  -6  -4   44.60   14.80
  -9   6   4   54.69   16.40
   9   6  -4   41.60   19.60
  -8  -6   4  270.97   31.00
   8  -6  -4  263.37   25.50
  -8   6   4  275.87   27.00
   8   6  -4  267.57   32.30
  -7  -6   4  461.95   36.10
   7  -6  -4  409.56   29.20
   7   6  -4  491.05   38.10
  -7   6   4  411.56   30.50
   6  -6  -4  468.85   30.40
  -6  -6   4  445.06   34.80
  -6   6   4  464.55   32.20
   6   6  -4  442.26   35.60
   5  -6  -4  285.57   25.50
  -5  -6   4  323.17   29.80
   5   6  -4  255.77   28.10
  -5   6   4  338.87   28.50
   4  -6  -4   84.19   19.00
  -4  -6   4   92.79   20.80
  -4   6   4   71.19   19.00
   4   6  -4   92.09   20.00
   3  -6  -4  100.39   21.10
  -3  -6   4  108.19   21.70
  -3   6   4   84.99   18.80
   3   6  -4  106.69   22.40
   2  -6  -4   82.49   18.20
  -2  -6   4   58.49   17.20
  -2   6   4   52.79   16.50
   2   6  -4   49.50   16.90
   1  -6  -4   64.89   17.60
  -1  -6   4  108.79   20.60
  -1  -6   4   80.09   19.40
  -1   6   4   62.09   17.10
   0  -6   4    7.30   12.10
   0  -6   4    8.50   11.40
   0  -6  -4   -4.40   11.10
   0   6   4   -6.00   11.40
  -1  -6  -4   -2.90    9.90
   1  -6   4   17.20   11.30
   1   6   4    1.50   11.50
   2  -6   4    4.00    8.80
  -2  -6  -4   31.30   15.10
   2  -6   4    9.60    9.00
   2   6   4   16.20   14.00
   3  -6   4  153.88   18.90
  -3  -6  -4  174.48   24.70
  -3  -6  -4  123.69   24.10
   4  -6   4  201.58   19.40
  -4  -6  -4  198.08   27.50
  -4  -6  -4  218.58   29.10
   4  -6   4  221.68   20.10
   5  -6   4  103.69   16.30
  -5  -6  -4  108.69   23.60
   5  -6   4  101.79   16.10
  -5  -6  -4   79.39   21.50
   6  -6   4  188.08   16.60
  -6  -6  -4  173.88   30.30
   6  -6   4  178.18   16.20
  -6  -6  -4  190.78   36.50
   7  -6   4    7.60    7.00
  -7  -6  -4   -9.00   14.60
   7  -6   4   12.20    6.50
  -7  -6  -4  -24.10   11.80
  -8  -6  -4   17.30   17.50
  -8  -6  -4    2.90   16.40
  -9  -6  -4    5.80   16.70
  -9  -6  -4  -14.50   14.70
 -10  -6  -4  -19.60   14.60
 -11  -6  -4   -3.50   18.00
 -12  -6  -4   30.00   19.90
 -13  -6  -4   21.00   22.80
 -14  -6  -4  -18.90   19.50
  16  -7  -4   25.20   13.70
 -16   7   4   25.60   22.20
  15  -7  -4   23.50   13.80
 -15  -7   4   60.69   31.10
 -15   7   4   18.40   17.50
  14  -7  -4   33.00   13.90
 -14  -7   4    7.10   22.10
 -14   7   4   26.00   19.00
  13  -7  -4   21.10   14.20
 -13  -7   4   45.80   25.70
 -13   7   4   15.00   16.50
  12  -7  -4   90.89   18.40
 -12  -7   4   90.19   30.60
 -12   7   4   73.69   21.00
  11  -7  -4  118.59   22.00
 -11   7   4   67.89   21.00
  10  -7  -4  135.29   21.80
 -10   7   4  142.69   25.50
  -9  -7   4   15.70   17.90
   9  -7  -4   86.99   19.20
   9   7  -4   25.00   20.30
  -9   7   4   28.70   16.80
  -8  -7   4   27.20   19.50
   8  -7  -4   40.80   15.60
  -8   7   4   29.70   15.60
   8   7  -4   45.10   19.80
   7  -7  -4   25.90   14.90
  -7  -7   4   24.10   17.70
  -7   7   4    6.50   12.50
   6  -7  -4   55.49   17.20
  -6  -7   4   15.20   18.60
  -6   7   4   12.70   14.60
  -5  -7   4  -27.40   11.00
   5  -7  -4    2.00   12.80
  -5  -7   4   -4.90   14.90
  -5   7   4   12.70   14.50
  -4  -7   4  192.18   28.30
   4  -7  -4  157.28   25.10
  -4  -7   4  177.28   30.60
  -4   7   4  157.48   25.10
  -3  -7   4   96.79   21.90
  -3  -7   4   73.99   21.60
   3  -7  -4   93.29   20.20
  -3   7   4   47.30   18.00
  -2  -7   4  322.87   30.80
  -2  -7   4  341.97   32.10
   2  -7  -4  305.97   30.40
  -2   7   4  269.87   30.60
  -1  -7   4  576.94   37.50
  -1  -7   4  575.54   37.10
   1  -7  -4  635.54   40.50
  -1   7   4  627.64   42.60
   0  -7   4  255.47   27.30
   0  -7   4  275.37   27.40
   0  -7  -4  268.17   29.70
   0   7   4  206.98   30.10
  -1  -7  -4  395.06   34.30
   1  -7   4  425.36   31.30
  -1  -7  -4  415.36   35.10
   1  -7   4  451.25   31.30
  -2  -7  -4   49.80   18.90
   2  -7   4   55.29   17.20
   2  -7   4   33.10   13.00
  -2  -7  -4   80.89   21.70
  -3  -7  -4  -20.60   13.70
  -3  -7  -4  -10.70   12.00
   3  -7   4    3.70   10.40
   3  -7   4  -10.30   10.50
  -4  -7  -4   -2.60   13.40
   4  -7   4   11.70   11.10
   4  -7   4   27.00   13.00
  -4  -7  -4   -3.00   24.60
   5  -7   4  121.19   19.40
  -5  -7  -4  118.69   26.00
   5  -7   4  187.78   22.50
  -5  -7  -4   51.69   21.30
  -6  -7  -4   11.50   17.80
   6  -7   4   31.20   11.50
   6  -7   4   27.10   11.80
  -6  -7  -4    2.80   15.40
   7  -7   4  148.19   16.70
   7  -7   4  130.59   16.90
  -7  -7  -4  107.89   27.20
   8  -7   4   81.59   12.50
  -8  -7  -4  106.49   27.40
  -9  -7  -4   69.49   25.90
 -10  -7  -4   83.29   27.20
 -11  -7  -4   34.80   24.20
 -12  -7  -4   18.50   21.30
 -13  -7  -4    0.20   20.90
  14  -8  -4   14.40   14.10
 -14  -8   4   64.59   37.00
 -13  -8   4   -2.80   22.40
  13  -8  -4   -6.00   13.80
 -13   8   4   31.60   20.90
 -12  -8   4    2.30   22.40
  12  -8  -4   17.30   15.40
 -12   8   4   33.20   19.50
  11  -8  -4   16.80   14.60
 -11  -8   4   30.30   23.50
 -11   8   4    1.00   17.90
  10  -8  -4    6.20   13.80
 -10  -8   4   12.50   19.00
 -10   8   4   -1.60   16.40
  -9  -8   4    3.90   20.80
   9  -8  -4   -3.50   12.30
  -9   8   4    4.90   17.30
   8  -8  -4   15.70   14.50
  -8  -8   4    8.90   19.30
  -8   8   4  -11.40   16.80
  -7  -8   4   13.70   19.00
   7  -8  -4  -13.00   11.50
  -7   8   4    6.30   16.50
  -6  -8   4   60.49   23.90
  -6  -8   4   29.50   22.00
   6  -8  -4   54.29   20.00
  -6   8   4   49.20   20.90
  -5  -8   4   54.29   22.60
  -5  -8   4   20.60   18.70
   5  -8  -4   42.50   18.30
  -5   8   4   84.99   21.90
   4  -8  -4   69.39   20.10
  -4  -8   4   75.59   23.90
  -4  -8   4   47.50   32.60
  -4   8   4   47.70   20.20
  -3  -8   4  212.68   33.10
   3  -8  -4  224.88   30.40
  -3  -8   4  188.58   38.70
  -3   8   4  197.48   32.20
   2  -8  -4   86.89   22.10
  -2  -8   4  106.89   25.50
  -2  -8   4  107.99   26.30
  -1  -8   4   43.80   19.60
  -1  -8   4   60.49   21.10
   1  -8  -4   60.69   28.40
   1  -8  -4   58.19   21.80
   0  -8   4   -8.00   12.70
   0  -8  -4  -15.40   12.90
   0  -8   4    4.90   12.30
   0  -8  -4    9.00   15.60
  -1  -8  -4   24.30   19.10
  -1  -8  -4  -13.90   13.60
   1  -8   4   23.90   16.10
   1  -8   4   -0.40   10.90
  -2  -8  -4   -7.50   13.20
   2  -8   4   -9.30   12.80
  -2  -8  -4   14.40   18.70
   2  -8   4   20.20   12.90
  -3  -8  -4   23.30   22.30
   3  -8   4   31.20   14.00
  -3  -8  -4   35.50   20.00
   3  -8   4   18.90   15.80
   4  -8   4   41.10   14.80
  -4  -8  -4   19.70   18.30
   4  -8   4   57.69   18.70
  -5  -8  -4   33.00   20.10
   5  -8   4   32.20   13.00
   5  -8   4   39.50   15.60
   6  -8   4   76.99   16.70
   6  -8   4   90.59   17.30
  -6  -8  -4   31.80   19.60
   7  -8   4   30.50   13.20
  -7  -8  -4   -4.50   17.50
   8  -8   4   46.80   11.40
  -8  -8  -4   43.60   22.90
   8  -8   4   37.80   11.90
  -9  -8  -4  -23.40   19.20
 -10  -8  -4    0.80   19.50
 -11  -8  -4   -3.30   24.10
  12  -9  -4   24.30   16.50
 -12  -9   4   -4.40   20.00
  12  -9  -4   46.70   19.60
  11  -9  -4   16.00   16.10
 -11  -9   4   -8.50   34.70
 -10  -9   4   31.90   24.40
  10  -9  -4   29.60   19.10
  -9  -9   4   29.70   21.50
   9  -9  -4   30.80   17.50
   8  -9  -4   32.20   18.80
  -8  -9   4   26.30   22.20
  -7  -9   4   53.99   23.60
   7  -9  -4   28.80   32.00
   6  -9  -4   -9.80   14.10
  -6  -9   4    2.80   17.50
   6  -9  -4  -21.00   13.40
   5  -9  -4    5.70   15.50
  -5  -9   4   10.60   18.50
   5  -9  -4   28.00   17.60
   4  -9  -4   36.60   18.60
  -4  -9   4   21.20   16.20
   4  -9  -4   45.80   19.30
   3  -9  -4   10.30   14.20
  -3  -9   4    1.50   13.30
   3  -9  -4    5.10   16.60
  -3  -9   4    0.40   18.40
  -2  -9   4   62.09   21.50
  -2  -9   4   77.79   25.30
   2  -9  -4   -3.30   17.40
   2  -9  -4   59.19   23.10
  -1  -9   4  150.98   34.20
  -1  -9   4  226.78   35.70
   1  -9  -4  126.09   27.10
   0  -9   4  180.18   28.00
   0  -9  -4  115.69   26.70
  -1  -9  -4  231.18   33.40
   1  -9   4  216.88   32.80
   1  -9   4  214.18   28.40
  -2  -9  -4   35.90   20.60
   2  -9   4  104.19   26.40
   2  -9   4   77.99   19.70
   3  -9   4   56.49   21.00
   3  -9   4   50.99   18.30
  -3  -9  -4   65.89   23.40
   4  -9   4   48.50   19.40
   4  -9   4   19.60   14.10
  -4  -9  -4   21.90   20.10
  -5  -9  -4   20.40   21.00
   5  -9   4   26.00   13.40
   5  -9   4   55.59   19.60
   6  -9   4   10.40   13.00
   6  -9   4    0.70   14.40
  -6  -9  -4  -16.80   15.90
   7  -9   4   13.80   12.10
   7  -9   4   57.69   25.60
  -7  -9  -4   35.10   22.50
   8  -9   4   34.10   13.40
  -8  -9  -4  -17.00   34.70
  -9  -9  -4   19.10   23.60
   9  -9   4   16.60    9.30
   9  -9   4    3.30    9.10
   9 -10  -4   22.40   21.80
  -9 -10   4   -4.60   18.30
   9 -10  -4   17.40   17.30
   8 -10  -4    7.60   18.90
   8 -10  -4    3.00   21.80
   7 -10  -4   25.50   18.20
  -7 -10   4   54.89   24.50
   6 -10  -4   71.09   23.70
  -6 -10   4   36.60   20.50
  -5 -10   4   23.00   19.50
   5 -10  -4   35.10   19.20
  -4 -10   4   16.70   18.80
   4 -10  -4   27.40   19.20
   3 -10  -4    7.30   16.50
  -3 -10   4  -18.10   14.40
   2 -10  -4    8.50   17.80
  -2 -10   4   -0.50   16.20
  -1 -10   4   -2.90   14.70
   1 -10  -4    4.20   17.10
   0 -10  -4    3.90   17.50
   0 -10   4    4.30   14.60
   0 -10   4  -10.60   22.40
   1 -10   4  -14.60   13.90
   1 -10   4   -8.10   18.20
  -1 -10  -4   20.50   18.30
   2 -10   4    8.50   21.20
   2 -10   4   19.30   15.60
  -2 -10  -4    8.90   19.30
   3 -10   4   39.20   33.50
   3 -10   4   70.29   24.40
  -3 -10  -4   33.60   21.90
   4 -10   4   84.29   22.20
   4 -10   4  121.29   28.30
  -4 -10  -4   97.99   29.00
   5 -10   4   72.19   24.30
  -5 -10  -4   27.30   21.40
   5 -10   4   66.29   19.20
  -6 -10  -4    3.10   20.60
   6 -10   4   29.20   16.80
   6 -10   4   80.29   22.50
   2 -11  -4   44.60   21.60
  -2 -11   4   29.40   20.50
   1 -11  -4   37.60   23.80
  -1 -11   4    1.30   17.10
  21   0  -5    8.80   18.10
 -21   0   5   16.40   19.40
  20   0  -5   -7.10   15.20
  19   0  -5    9.10   15.80
 -19   0   5   13.60   18.00
 -18   0   5  -16.70   11.10
  18   0  -5   -6.30   15.30
  17   0  -5   30.80   17.10
 -17   0   5   83.69   20.50
 -16   0   5  -11.30   13.00
  16   0  -5   16.20   14.20
 -15   0   5    2.20   12.00
  15   0  -5  -16.40   11.30
  14   0  -5  687.33   38.70
 -14   0   5  781.12   39.90
 -13   0   5  114.09   18.80
  13   0  -5   76.99   17.40
  12   0  -5   54.19   15.70
 -12   0   5  120.19   19.00
  11   0  -5   31.20   13.30
 -11   0   5   78.89   16.20
 -10   0   5   47.70   13.40
  10   0  -5   60.69   14.90
   9   0  -5   65.79   13.60
  -9   0   5   54.89   13.10
  -8   0   5  218.38   19.60
   8   0  -5  227.58   19.80
   7   0  -5  199.88   18.00
  -7   0   5  228.48   18.80
  -6   0   5   10.60    8.00
   6   0  -5    3.90    7.70
  -5   0   5   98.29   14.10
   5   0  -5   99.09   14.00
  -4   0   5   77.39   12.40
   4   0  -5   84.79   12.90
   3   0  -5   28.60    9.40
  -3   0   5   48.40   10.50
   2   0  -5   24.90    8.90
  -2   0   5   17.10    8.60
   1   0  -5   -1.60    6.90
  -1   0   5   -1.20    6.90
   0   0  -5   24.40    8.30
   0   0   5   14.60    7.30
  -1   0  -5   -0.80    7.10
   1   0   5   -2.40    6.50
   2   0   5   21.90    7.60
  -2   0  -5   40.60    9.20
   3   0   5   47.00    9.20
  -3   0  -5   36.40    9.30
   4   0   5   12.10    6.90
  -4   0  -5    3.00    7.00
  -5   0  -5   22.40    8.30
   5   0   5   10.00    7.60
   6   0   5   16.60    9.40
  -6   0  -5   14.60    8.50
  -7   0  -5   -4.50    7.60
  -7   0  -5  -12.40    6.80
  -8   0  -5   -1.60    8.10
  -8   0  -5   -1.90    8.40
  -9   0  -5   -0.20    7.50
  -9   0  -5    8.10    9.70
 -10   0  -5    0.10    9.40
 -10   0  -5   24.30   10.00
 -11   0  -5   -1.60    9.40
 -11   0  -5   18.30   11.30
 -12   0  -5  108.79   16.40
 -12   0  -5  117.79   17.40
 -13   0  -5    1.60   11.00
 -13   0  -5   21.70   13.90
 -14   0  -5    2.70   12.40
 -14   0  -5  -11.90   11.60
 -15   0  -5  142.39   20.50
 -16   0  -5   -3.70   11.20
 -17   0  -5   17.40   11.60
  21  -1  -5   97.49   22.60
 -21   1   5   73.29   25.30
  21   1  -5   66.49   24.10
  20  -1  -5  108.19   23.00
 -20  -1   5  159.38   29.70
  20   1  -5  123.99   26.80
 -20   1   5  171.28   29.50
  19  -1  -5   19.90   15.00
 -19  -1   5   27.90   19.10
  19   1  -5   11.00   19.80
 -19   1   5   38.70   19.90
 -18  -1   5  148.99   31.80
  18  -1  -5  139.49   22.90
 -18   1   5  132.49   24.70
  18   1  -5  157.58   27.20
  17  -1  -5   11.60   13.90
 -17  -1   5   22.70   16.30
  17   1  -5   21.00   16.10
 -17   1   5   19.60   15.70
  16  -1  -5   53.49   16.10
 -16  -1   5   38.40   17.60
 -16   1   5  104.19   20.50
  16   1  -5   60.19   18.90
 -15  -1   5   -4.50   12.20
  15  -1  -5    4.10   12.90
  15   1  -5   28.80   15.30
 -15   1   5    5.90   13.90
 -14  -1   5  524.45   35.50
  14  -1  -5  422.56   30.60
 -14   1   5  460.25   31.30
  14   1  -5  466.15   34.80
 -13  -1   5   77.49   18.50
  13  -1  -5  100.39   18.80
 -13   1   5   98.39   17.60
  13   1  -5   87.19   18.90
  12  -1  -5  456.25   29.10
 -12  -1   5  430.66   30.20
 -12   1   5  537.15   30.60
  12   1  -5  476.85   31.90
  11  -1  -5  103.99   16.90
 -11  -1   5  150.08   20.00
 -11   1   5  125.99   18.50
  11   1  -5  101.79   19.00
  10  -1  -5   22.40   11.50
 -10  -1   5   11.90    9.90
 -10   1   5   14.90   10.40
  10   1  -5  -13.10    9.20
  -9  -1   5  507.15   29.60
   9  -1  -5  508.05   32.60
  -9   1   5  579.34   28.40
   9   1  -5  538.75   30.50
   8  -1  -5   93.09   15.10
  -8  -1   5  107.59   16.90
  -8   1   5  118.49   16.40
   8   1  -5  103.79   16.90
   7  -1  -5   14.90    9.80
  -7  -1   5   16.50    9.80
  -7   1   5    4.10    9.30
   7   1  -5   13.00   11.30
  -6  -1   5   25.10   10.00
   6  -1  -5   22.20    9.20
  -6   1   5   16.20    9.00
   6   1  -5    8.80    9.40
  -5  -1   5  348.77   21.30
   5  -1  -5  363.66   20.80
   5   1  -5  330.77   21.10
  -5   1   5  316.67   20.20
  -4  -1   5   99.49   13.80
   4  -1  -5   82.59   13.50
  -4   1   5   86.19   13.30
   4   1  -5   89.99   13.20
   3  -1  -5  171.98   16.30
  -3  -1   5  195.38   15.90
  -3   1   5  146.29   15.00
   3   1  -5  160.68   15.30
   2  -1  -5   37.40   10.30
  -2  -1   5   52.69   10.30
   2   1  -5   49.60   10.50
  -2   1   5   35.10    9.70
  -1  -1   5   16.10    7.40
   1  -1  -5   11.40    8.90
  -1   1   5   20.00    8.60
   1   1  -5   22.50    8.10
   0  -1   5    7.90    6.90
   0  -1  -5   15.50    8.90
   0   1   5   14.10    8.00
   0   1  -5   13.80    7.20
   1  -1   5   71.89   10.70
  -1  -1  -5   90.99   12.80
  -1   1  -5   68.59    9.60
   1   1   5   80.89   12.50
   2  -1   5   43.80    8.30
  -2  -1  -5   45.30   10.40
  -2   1  -5   35.00    7.80
   2   1   5   37.30   10.00
  -3  -1  -5    2.60    7.60
   3  -1   5   -1.10    5.40
   3   1   5    3.90    7.60
  -3   1  -5   -2.10    5.40
   4  -1   5   73.59    9.30
  -4  -1  -5   91.19   14.00
   4   1   5   80.19   13.00
  -4   1  -5   70.39   10.50
  -5  -1  -5  616.24   27.70
   5  -1   5  586.64   20.00
   5   1   5  615.14   28.00
  -5   1  -5  601.94   20.50
  -6  -1  -5   29.00   10.70
  -6   1  -5   23.80    7.70
   6   1   5   21.90   10.60
  -7  -1  -5  186.38   19.00
  -7  -1  -5  175.48   18.30
  -7   1  -5  174.98   12.10
  -7   1  -5  185.08   13.00
  -8  -1  -5   89.09   15.20
  -8  -1  -5   91.19   15.50
  -8   1  -5   98.49   11.60
  -8   1  -5  110.09   10.90
  -9  -1  -5   -6.80    9.80
  -9  -1  -5  -10.40   11.30
  -9   1  -5    0.00    6.30
  -9   1  -5    9.80    6.80
 -10  -1  -5  115.59   18.10
 -10  -1  -5  106.39   16.60
 -10   1  -5  101.49   12.20
 -10   1  -5  142.59   13.00
 -11  -1  -5   11.90   12.50
 -11   1  -5   25.10    8.30
 -11   1  -5   12.90    8.30
 -12  -1  -5   -0.10   12.90
 -12  -1  -5    4.30   13.00
 -12   1  -5    8.00    7.90
 -13  -1  -5   23.50   14.70
 -13  -1  -5   14.90   15.00
 -13   1  -5   16.60    8.30
 -13   1  -5   21.20    8.50
 -14  -1  -5   48.10   17.00
 -14  -1  -5   70.59   19.80
 -14   1  -5   57.09   10.20
 -14   1  -5   67.09   10.30
 -15  -1  -5   36.10   17.60
 -15  -1  -5   12.80   13.80
 -16  -1  -5   67.19   22.00
 -16  -1  -5   24.00   15.80
 -17  -1  -5   14.10   16.40
 -17  -1  -5    0.10   18.20
 -20   2   5   13.00   18.00
  20   2  -5   -9.10   16.90
  19  -2  -5   37.70   15.90
 -19  -2   5   35.60   20.80
  19   2  -5   10.80   18.10
 -19   2   5   39.20   17.20
 -18  -2   5    8.30   15.00
  18  -2  -5    5.60   14.40
 -18   2   5    2.90   14.40
  18   2  -5  -10.30   15.30
 -17  -2   5   29.10   18.50
  17  -2  -5   22.70   14.90
 -17   2   5   19.40   16.30
  17   2  -5    8.10   17.70
 -16  -2   5   -8.70   12.40
  16  -2  -5   -3.00   11.30
 -16   2   5    3.30   12.70
  16   2  -5  -19.00   12.30
 -15  -2   5   56.79   19.70
  15  -2  -5   29.30   15.40
  15   2  -5   17.90   15.30
 -15   2   5   11.40   12.90
 -14  -2   5  169.18   25.20
  14  -2  -5  148.99   21.80
 -14   2   5  164.28   23.30
  14   2  -5  199.48   27.20
  13  -2  -5   69.99   15.90
 -13  -2   5   52.09   17.70
 -13   2   5   71.09   16.40
  13   2  -5   71.49   19.50
 -12  -2   5   10.90   13.00
  12  -2  -5   20.90   11.90
 -12   2   5   23.80   12.70
  12   2  -5   23.30   14.00
  11  -2  -5   -8.70    8.70
 -11  -2   5    3.40   10.70
  11   2  -5   29.00   12.60
 -11   2   5   21.80   12.00
  10  -2  -5   17.10   11.10
 -10  -2   5  -15.00    8.20
 -10   2   5    9.30   10.60
  10   2  -5   22.60   12.60
  -9  -2   5   16.00   11.30
   9  -2  -5   13.20   11.80
   9   2  -5    9.50   12.10
  -9   2   5   12.30   10.30
  -8  -2   5  185.98   24.10
   8  -2  -5  162.38   18.20
  -8   2   5  125.99   17.50
   8   2  -5  149.39   20.50
  -7  -2   5  209.28   20.90
   7  -2  -5  204.78   18.50
  -7   2   5  227.88   19.20
   7   2  -5  217.08   21.90
  -6  -2   5  112.89   17.00
   6  -2  -5  108.19   16.00
  -6   2   5  106.19   15.70
   6   2  -5  127.49   22.20
   5  -2  -5  125.99   15.90
  -5  -2   5  108.19   16.40
   5   2  -5  125.59   16.80
  -5   2   5  122.49   15.50
  -4  -2   5   12.80    9.70
   4  -2  -5    5.10    8.80
   4   2  -5   -1.30    8.60
  -4   2   5   14.10    8.50
   3  -2  -5   20.50    9.60
  -3  -2   5   29.80   10.10
   3   2  -5   14.70    9.30
  -3   2   5   24.80    9.30
  -2  -2   5   30.70    9.50
   2  -2  -5   22.70   10.00
   2   2  -5   23.10    9.10
  -2   2   5    8.10    8.30
  -1  -2   5    0.40    6.60
   1  -2  -5   10.60    9.00
  -1   2   5   -8.00    6.20
   1   2  -5   -5.60    6.40
   0  -2  -5   14.20    9.00
   0  -2   5    6.10    6.50
   0   2   5    4.80    7.30
   0   2  -5    3.00    6.70
   1  -2   5    2.00    5.50
  -1  -2  -5    2.80    8.40
   1   2   5    4.30    8.70
  -1   2  -5    7.20    7.00
   2  -2   5    8.20    5.80
  -2  -2  -5   -7.20    8.00
  -2   2  -5    5.80    6.00
   2   2   5    4.30    7.50
   3  -2   5   50.99    7.90
  -3  -2  -5   33.90   11.40
  -3   2  -5   28.00    7.10
   3   2   5   48.00   12.20
  -4  -2  -5   67.69   15.60
   4  -2   5   50.99    7.30
  -4   2  -5   50.09    7.50
   4   2   5   46.30   12.20
  -5  -2  -5    9.60   10.50
   5   2   5   13.10   11.00
  -6  -2  -5  163.68   19.50
   6   2   5  185.68   22.70
  -7  -2  -5    2.80   10.30
  -8  -2  -5    4.40   10.80
  -8  -2  -5  -12.80   10.30
  -9  -2  -5    2.30   11.60
  -9  -2  -5   19.00   12.70
 -10  -2  -5   80.09   17.70
 -10  -2  -5   64.09   16.50
 -11  -2  -5   25.50   14.70
 -11  -2  -5   51.39   17.20
 -12  -2  -5   68.79   20.00
 -12  -2  -5   67.79   18.20
 -13  -2  -5   -1.50   13.30
 -13  -2  -5  -19.30   15.00
 -14  -2  -5   13.40   17.10
 -14  -2  -5   15.70   17.20
 -15  -2  -5   20.70   17.70
 -15  -2  -5   -2.30   16.90
 -16  -2  -5   18.00   18.50
 -16  -2  -5    8.20   17.10
 -17  -2  -5   28.90   18.70
 -17  -2  -5   -2.50   18.70
  20  -3  -5   48.80   16.40
  20   3  -5   16.80   21.30
 -20   3   5   40.40   17.90
  19  -3  -5   44.70   15.70
 -19   3   5   35.50   15.70
  19   3  -5   15.00   20.50
  18  -3  -5   11.10   12.90
 -18   3   5   25.80   15.10
  18   3  -5    5.30   17.20
 -17  -3   5   48.00   20.90
  17  -3  -5  107.69   19.20
 -17   3   5   53.49   17.30
  17   3  -5   80.79   24.30
 -16  -3   5   40.50   18.90
  16  -3  -5   17.70   13.90
 -16   3   5   17.80   14.80
  16   3  -5   40.80   19.70
  15  -3  -5   -6.60   11.00
  15   3  -5   28.00   16.80
 -15   3   5   23.70   13.00
  14  -3  -5    7.60   13.10
 -14  -3   5   54.39   20.40
  14   3  -5   24.30   18.70
 -14   3   5   32.10   14.20
 -13  -3   5  117.19   22.80
  13  -3  -5  142.39   20.60
 -13   3   5  141.19   23.80
  13   3  -5  108.69   22.70
  12  -3  -5   85.19   16.30
 -12  -3   5   72.79   19.70
 -12   3   5   65.49   16.70
  12   3  -5   79.69   19.70
 -11  -3   5   96.89   20.60
  11  -3  -5  126.39   18.50
 -11   3   5   94.99   16.80
  11   3  -5  118.29   22.50
  10  -3  -5   28.00   11.60
 -10  -3   5   11.70   12.00
  10   3  -5    7.20   12.90
 -10   3   5   34.30   12.90
   9  -3  -5   45.30   12.90
  -9  -3   5   65.09   15.70
   9   3  -5   45.40   15.90
  -9   3   5   54.39   13.50
  -8  -3   5   47.30   15.20
   8   3  -5   42.80   14.80
  -8   3   5   55.99   12.60
   7  -3  -5   12.40   10.00
  -7  -3   5   -0.70   10.30
  -7   3   5  -16.80    7.20
   7   3  -5   -5.50    9.50
   6  -3  -5   -2.30    9.40
   6   3  -5    0.90   10.00
  -6   3   5   -2.30    8.50
  -5  -3   5   31.00   12.40
   5  -3  -5   -5.20    8.20
   5   3  -5   18.70   10.50
  -5   3   5   17.10   10.50
  -4  -3   5    9.10   10.10
   4  -3  -5   15.70    9.80
  -4   3   5   14.60    9.70
   3  -3  -5   14.90    9.70
  -3  -3   5    7.70    9.30
   3   3  -5   10.20    9.70
  -3   3   5    1.50    8.30
   2  -3  -5   -2.20   10.20
  -2  -3   5   -4.60    7.40
  -2   3   5   -1.30    7.10
   2   3  -5   -4.60    6.80
  -1  -3   5   -0.80    8.00
   1   3  -5    1.90    7.20
  -1   3   5   10.50    9.90
   0  -3   5   -3.80    7.70
   0  -3  -5   -6.00    8.80
   0   3   5   -9.80    8.80
   0   3  -5    1.30    7.40
  -1  -3  -5  -10.70    8.20
   1  -3   5    6.10    7.40
   1   3   5    2.20    9.40
  -1   3  -5    2.00    7.60
   2  -3   5    1.10    6.10
  -2  -3  -5    0.70    9.80
  -2   3  -5    2.10    6.80
   2   3   5   -1.60    9.70
  -3  -3  -5    2.00    9.70
   3  -3   5   -5.70    5.30
   3   3   5   -4.30   11.00
  -3   3  -5   -7.40    5.40
  -4  -3  -5   -6.60    9.30
   4  -3   5   -1.20    5.00
   4   3   5    2.30    9.80
  -4   3  -5    3.90    5.00
  -5  -3  -5   54.49   15.70
   5   3   5   54.69   16.80
  -6  -3  -5   30.30   13.00
  -6  -3  -5   22.90   11.70
  -7  -3  -5  133.09   21.50
  -7  -3  -5  149.59   22.40
  -8  -3  -5   36.30   17.10
  -8  -3  -5   28.60   14.00
  -9  -3  -5   95.29   20.10
  -9  -3  -5   75.49   18.70
 -10  -3  -5   23.40   15.60
 -10  -3  -5   50.09   17.30
 -11  -3  -5   -9.00   13.70
 -11  -3  -5   12.40   14.30
 -12  -3  -5  -18.10   12.90
 -12  -3  -5    4.70   17.20
 -13  -3  -5   19.70   16.90
 -13  -3  -5   44.90   18.90
 -14  -3  -5   12.10   16.60
 -14  -3  -5  -16.50   17.30
 -15  -3  -5    0.90   18.60
 -15  -3  -5   15.60   18.70
 -16  -3  -5   38.00   20.80
 -16  -3  -5    0.30   23.30
  19  -4  -5   13.60   13.70
 -19   4   5   13.40   15.80
  19   4  -5  -16.00   16.60
  18  -4  -5    5.80   11.70
  18   4  -5   68.69   26.40
 -18   4   5   18.00   13.40
  17  -4  -5   29.80   13.30
  17   4  -5   21.30   18.50
 -17   4   5    3.60   12.00
  16  -4  -5    3.40   12.10
 -16   4   5   12.30   13.70
  16   4  -5    0.60   18.60
  15  -4  -5   27.00   15.40
 -15  -4   5   64.29   22.60
 -15   4   5   86.69   18.30
  15   4  -5  126.39   28.30
  14  -4  -5  107.09   18.40
 -14  -4   5   85.09   24.40
 -14   4   5  148.49   21.80
  14   4  -5   92.19   27.40
 -13  -4   5   29.10   26.50
  13  -4  -5   17.40   14.20
  13   4  -5    3.40   16.30
 -13   4   5   55.99   15.80
  12  -4  -5   40.30   14.30
 -12  -4   5   24.50   17.40
 -12   4   5   41.10   17.10
  12   4  -5   59.79   21.20
 -11  -4   5   -7.30   13.90
  11  -4  -5   16.00   11.30
  11   4  -5  -20.00   12.20
 -10  -4   5   -0.80   11.50
  10  -4  -5   -0.10    9.50
  10   4  -5    2.20   12.50
 -10   4   5   20.30   13.00
  -9  -4   5   45.70   15.70
   9  -4  -5   33.50   12.10
   9   4  -5   23.20   15.20
  -9   4   5   31.80   12.70
  -8  -4   5   61.69   17.90
   8  -4  -5   53.79   14.30
  -8   4   5   46.80   13.40
   8   4  -5   39.00   16.90
  -7  -4   5  137.99   20.60
   7  -4  -5  131.99   18.90
   7   4  -5  122.69   21.40
  -7   4   5  143.39   19.40
   6  -4  -5   81.09   16.10
  -6  -4   5  116.99   20.90
  -6   4   5   65.99   14.40
   6   4  -5   79.99   17.70
   5  -4  -5    3.60    9.40
  -5  -4   5   -0.70    9.10
  -5   4   5    2.50    8.90
   5   4  -5    9.50   11.10
   4  -4  -5   32.60   12.80
   4   4  -5   15.80   12.30
  -4   4   5    3.00    9.60
   3  -4  -5    1.60    9.50
  -3  -4   5  -12.40    9.40
  -3   4   5   15.20   11.30
   3   4  -5   12.40   10.80
   2  -4  -5   -2.00   10.00
  -2  -4   5   19.30   11.10
  -1  -4   5   -1.10    8.40
   1  -4  -5   15.60   12.60
  -1   4   5    6.50   10.40
   1   4  -5    8.20    9.80
   0  -4  -5   -5.80    9.30
   0  -4   5    7.40    8.60
   0   4   5   -3.60    8.50
   0   4  -5   12.70    9.70
   1  -4   5    4.30    7.70
  -1  -4  -5   -8.50   10.00
  -1   4  -5    7.10    9.00
   1   4   5   10.20   10.60
   2  -4   5   42.70   10.70
  -2  -4  -5   53.49   14.60
  -2   4  -5   76.79   11.70
   2   4   5   55.49   14.30
   3  -4   5   21.40    7.70
  -3  -4  -5   41.80   13.80
  -3   4  -5   34.60    9.00
   3   4   5   17.30   11.20
   4  -4   5   17.60    6.70
  -4  -4  -5   17.20   12.10
   4   4   5   25.20   14.50
   5  -4   5   34.80    6.40
  -5  -4  -5   19.40   13.50
   5  -4   5   43.90    6.80
   5   4   5   25.60   14.70
  -6  -4  -5   38.30   14.50
  -6  -4  -5    9.70   13.00
  -7  -4  -5    3.10   13.50
  -7  -4  -5    3.10   12.50
  -8  -4  -5    7.00   14.30
  -8  -4  -5   -0.40   12.80
  -9  -4  -5   59.09   20.00
  -9  -4  -5    8.10   16.00
 -10  -4  -5   77.19   21.80
 -10  -4  -5   26.30   18.70
 -11  -4  -5   17.80   17.50
 -11  -4  -5   -4.10   18.40
 -12  -4  -5   62.69   22.20
 -12  -4  -5   17.10   19.30
 -13  -4  -5   12.50   18.50
 -13  -4  -5    6.00   21.20
 -14  -4  -5   16.40   18.80
 -14  -4  -5   -4.50   17.90
 -15  -4  -5  -19.40   19.70
 -16  -4  -5   -6.50   22.10
 -19   5   5   40.30   23.30
  19   5  -5   38.40   24.20
  18  -5  -5   35.30   14.70
  18   5  -5  -18.50   18.80
 -18   5   5   -1.10   14.60
  17  -5  -5   23.40   13.20
  17   5  -5    4.80   20.00
 -17   5   5   16.60   15.10
  16  -5  -5    3.30   11.80
 -16   5   5   -2.10   12.30
  16   5  -5   -3.20   18.90
  15  -5  -5   32.40   14.20
 -15   5   5   13.50   15.60
  15   5  -5   17.30   19.60
 -14  -5   5   64.69   37.10
  14  -5  -5   48.20   15.90
 -14   5   5   10.70   13.80
  14   5  -5   83.09   25.50
  13  -5  -5   97.89   18.80
 -13  -5   5   82.79   27.80
  13   5  -5  108.19   27.90
 -13   5   5   96.49   19.90
 -12  -5   5  101.19   24.00
  12  -5  -5  111.59   19.20
 -12   5   5   99.99   19.00
  12   5  -5  170.38   46.90
  11  -5  -5  119.99   19.70
  11   5  -5   69.89   22.70
 -11   5   5   69.19   16.60
  10  -5  -5   88.29   17.40
 -10  -5   5  147.69   26.50
  10   5  -5  128.79   26.50
 -10   5   5   94.39   18.60
   9  -5  -5   41.80   13.90
  -9  -5   5   51.49   17.70
  -9   5   5   41.80   13.30
   9   5  -5   27.00   14.80
   8  -5  -5   28.70   13.60
  -8  -5   5   70.99   20.30
  -8   5   5   48.10   14.30
   8   5  -5   29.60   14.00
  -7  -5   5    4.40   12.20
   7  -5  -5   -3.80    9.50
  -7   5   5    2.10   10.70
   7   5  -5  -15.60   11.90
  -6  -5   5   27.90   13.60
   6  -5  -5   27.50   12.90
   6   5  -5   -1.50   12.60
  -6   5   5    8.60   10.40
  -5  -5   5    5.50   11.60
   5  -5  -5   -0.30   10.80
  -5   5   5    3.60    9.80
   5   5  -5   21.00   13.40
   4  -5  -5   13.00   11.40
  -4  -5   5    9.10   12.80
  -4   5   5   -3.80   10.40
   4   5  -5    3.40   11.10
  -3  -5   5   28.00   13.00
   3  -5  -5   -4.60    9.20
  -3   5   5   10.30    9.60
   3   5  -5   25.00   12.80
   2  -5  -5   14.50   12.60
  -2  -5   5   -4.10   10.50
   2   5  -5   -3.80    9.90
  -2   5   5    8.40   10.60
   1  -5  -5    8.20   11.40
  -1  -5   5   28.40   13.60
  -1   5   5   -0.20   10.20
   1   5  -5    5.30    9.60
   0  -5   5   -3.50    9.00
   0  -5  -5  -10.70    9.50
   0   5  -5   -0.80    9.10
   0   5   5    4.30   10.50
   1  -5   5    6.70    8.60
  -1  -5  -5    8.80   12.50
  -1   5  -5    2.40    8.80
   1   5   5  -12.10    7.20
  -2  -5  -5   21.20   12.50
   2  -5   5   20.50    9.20
   2   5   5   -0.60   11.00
  -3  -5  -5   -5.30   11.40
   3  -5   5    4.70    8.40
   3  -5   5    0.90    8.30
   3   5   5    4.90   11.70
  -4  -5  -5   14.80   14.40
   4  -5   5    0.00    7.40
   4  -5   5    5.50    7.10
   4   5   5    7.00   13.30
   5  -5   5    6.00    6.20
   5  -5   5   12.00    6.90
  -5  -5  -5   19.70   16.10
  -5  -5  -5   -7.70   10.80
  -6  -5  -5   10.00   14.10
  -6  -5  -5   30.00   16.10
  -7  -5  -5   20.50   15.00
  -7  -5  -5   31.50   16.60
  -8  -5  -5   25.90   17.50
  -8  -5  -5   36.50   18.10
  -9  -5  -5   19.10   17.70
  -9  -5  -5   36.20   18.00
 -10  -5  -5    6.90   17.00
 -10  -5  -5    5.10   19.80
 -11  -5  -5   -1.70   16.80
 -11  -5  -5   -1.10   18.70
 -12  -5  -5  -14.10   17.70
 -13  -5  -5   31.50   22.20
 -14  -5  -5   -3.70   20.80
 -15  -5  -5  -20.80   20.60
 -18   6   5   10.40   20.80
  17  -6  -5    3.70   11.40
 -17   6   5   -1.50   14.80
  17   6  -5  -21.20   19.20
  16  -6  -5   21.00   14.50
 -16   6   5   28.20   16.60
  16   6  -5    9.70   21.10
  15  -6  -5   43.50   15.70
  15   6  -5   78.79   28.50
 -15   6   5   43.20   18.50
  14  -6  -5   81.99   18.10
 -14   6   5   92.09   21.70
  14   6  -5  106.39   27.70
  13  -6  -5    1.10   13.30
  13   6  -5   28.50   17.90
 -13   6   5   63.49   19.30
  12  -6  -5   26.00   14.60
 -12   6   5   18.10   14.90
  12   6  -5    3.80   18.10
 -11  -6   5  -12.00   14.80
  11  -6  -5    3.80   11.70
 -11   6   5  -18.70   11.50
  11   6  -5  -11.70   14.50
 -10  -6   5   71.49   24.00
  10  -6  -5   40.50   16.00
 -10   6   5    8.00   14.10
  10   6  -5   10.30   19.00
   9  -6  -5   12.30   13.70
  -9  -6   5   49.80   23.60
   9   6  -5   41.30   18.90
  -9   6   5   38.10   15.50
  -8  -6   5  105.99   24.90
   8  -6  -5  107.89   19.80
  -8   6   5  141.89   23.10
   8   6  -5  100.19   23.50
  -7  -6   5   56.49   20.00
   7  -6  -5   89.89   18.90
  -7   6   5   49.50   16.90
   7   6  -5   40.80   18.30
   6  -6  -5    7.50   12.80
  -6  -6   5   25.60   17.20
   6   6  -5   21.50   15.10
  -6   6   5    5.20   13.40
   5  -6  -5   34.20   14.50
  -5  -6   5   22.30   14.80
  -5   6   5   10.80   12.50
   5   6  -5   36.10   16.20
   4  -6  -5  -23.60    9.30
  -4  -6   5    2.50   11.80
   4   6  -5    0.10   12.20
  -4   6   5   13.30   13.00
   3  -6  -5   16.80   12.80
  -3  -6   5   -4.60   10.90
  -3   6   5   -9.70   10.90
   3   6  -5   12.00   13.50
   2  -6  -5    7.90   11.10
  -2  -6   5   21.20   13.90
  -2   6   5   13.70   14.30
   2   6  -5   -0.20   11.90
  -1  -6   5   24.60   12.20
   1  -6  -5   -3.60   11.70
  -1   6   5   -6.70    9.30
   1   6  -5   14.10   11.80
   0  -6   5  -13.60    8.30
   0  -6  -5   19.40   13.90
   0   6   5   23.30   13.50
   1  -6   5   22.10   15.30
   1  -6   5    1.20    9.90
  -1  -6  -5   31.30   14.80
   1   6   5  -10.10    9.90
  -2  -6  -5    1.50   12.20
   2  -6   5   -2.70   10.40
   2  -6   5   11.80   10.40
   2   6   5    3.10   13.50
   3  -6   5   11.80   12.80
   3  -6   5   -3.30    9.20
  -3  -6  -5   -7.60   11.10
   3   6   5   -4.20   14.10
  -4  -6  -5   38.10   17.70
  -4  -6  -5   52.39   18.40
   4  -6   5   53.99   12.50
   4  -6   5   39.10   11.40
   5  -6   5   11.20    9.10
  -5  -6  -5  -16.00   15.60
   5  -6   5   -2.10    8.20
  -5  -6  -5    7.70   15.70
   6  -6   5   24.10    8.60
  -6  -6  -5   14.90   16.40
  -6  -6  -5    0.70   15.20
   6  -6   5   23.00    9.00
  -7  -6  -5   15.40   17.10
  -7  -6  -5  -22.00   13.50
  -8  -6  -5   16.60   17.50
  -8  -6  -5    8.90   17.20
  -9  -6  -5   44.00   21.00
  -9  -6  -5   -7.90   19.20
 -10  -6  -5   -3.90   18.10
 -11  -6  -5  -17.70   16.20
 -12  -6  -5  -23.60   16.80
 -13  -6  -5   -8.20   20.30
 -14  -6  -5    9.00   20.40
  16  -7  -5   -5.60   13.10
 -16   7   5   22.30   17.30
  15  -7  -5   17.10   14.20
 -15   7   5    0.80   16.90
  14  -7  -5   45.80   17.50
 -14   7   5   63.59   20.80
  14   7  -5   20.20   21.90
  13  -7  -5   20.00   13.60
  13   7  -5   35.60   22.60
 -13   7   5   26.60   18.50
  12  -7  -5  104.89   21.50
  12   7  -5   92.49   27.80
 -12   7   5   92.39   21.90
  11  -7  -5   27.20   15.80
  11   7  -5   49.80   23.70
 -11   7   5   34.00   18.30
  10  -7  -5    4.30   12.30
 -10   7   5  -20.40   14.60
  10   7  -5   59.69   22.80
   9  -7  -5   39.70   17.50
  -9  -7   5   97.19   25.10
  -9   7   5   53.09   19.30
   9   7  -5   23.90   19.40
   8  -7  -5   17.70   15.70
  -8  -7   5  -10.40   14.50
   8   7  -5    3.50   16.30
  -8   7   5   -0.20   13.20
   7  -7  -5   29.70   15.80
  -7  -7   5    0.50   15.60
   7   7  -5  -19.60   22.20
  -7   7   5   -1.40   13.60
   6  -7  -5   10.20   13.90
  -6  -7   5  -27.80   14.60
  -6   7   5   13.40   15.20
   6   7  -5  -14.00   12.50
  -5  -7   5   32.80   19.30
   5  -7  -5    8.70   14.70
   5   7  -5    9.30   15.30
  -5   7   5    6.80   13.10
  -4  -7   5   41.00   17.90
   4  -7  -5   54.39   18.20
   4   7  -5    9.60   15.30
  -4   7   5   20.40   13.60
  -3  -7   5    4.40   14.20
   3  -7  -5   24.30   16.90
  -3   7   5   56.69   18.70
   2  -7  -5   12.80   15.10
  -2  -7   5   15.70   14.90
  -2  -7   5    7.90   14.00
  -2   7   5  -15.10   10.70
  -1  -7   5   11.20   13.50
  -1  -7   5  -23.40   10.30
   1  -7  -5   -9.40   11.10
  -1   7   5   -6.50   13.40
   0  -7  -5   -5.50   13.00
   0  -7   5   30.30   13.90
   0  -7   5    1.80   13.80
   0   7   5   -9.30   12.00
   1  -7   5  -13.80   12.20
   1  -7   5    8.30   11.40
  -1  -7  -5   25.20   16.50
   1   7   5    4.10   17.70
   2  -7   5   -2.60   10.50
   2  -7   5  -22.80   11.10
  -2  -7  -5  -14.40   11.90
  -2  -7  -5    2.60   13.40
   3  -7   5   -2.30   11.10
   3  -7   5   -3.50   12.80
  -3  -7  -5   32.10   17.60
  -3  -7  -5    0.60   15.60
   4  -7   5   -8.20   11.30
   4  -7   5   15.80   10.50
  -4  -7  -5    3.70   15.70
  -4  -7  -5   20.10   17.60
  -5  -7  -5   31.10   19.10
  -5  -7  -5   35.80   18.30
   5  -7   5   22.40   12.30
   5  -7   5   41.70   16.90
  -6  -7  -5   -1.30   15.60
   6  -7   5    7.80   10.80
   6  -7   5   11.10   10.00
  -7  -7  -5   78.29   23.00
   7  -7   5   57.39   10.70
   7  -7   5   41.40   10.40
  -8  -7  -5    4.10   18.10
  -9  -7  -5    2.30   19.50
 -10  -7  -5   51.29   23.90
 -11  -7  -5   19.00   24.70
 -12  -7  -5   21.70   23.60
 -15  -8   5   50.59   29.90
 -15   8   5   21.80   19.10
  14  -8  -5   -2.20   14.40
 -14  -8   5   35.70   28.50
 -14   8   5    9.90   20.20
 -13  -8   5   27.00   24.20
  13  -8  -5  -18.30   12.70
 -13   8   5   19.20   21.20
 -12  -8   5   -2.70   21.00
  12  -8  -5   -6.70   13.60
 -12   8   5   23.00   20.30
  11  -8  -5    0.40   13.50
 -11  -8   5   26.50   22.80
 -11   8   5  -31.80   15.80
  10  -8  -5  -17.50   13.20
 -10  -8   5  -17.70   17.20
 -10   8   5    3.60   17.30
   9  -8  -5   20.90   15.10
  -9  -8   5  -12.40   18.60
  -9   8   5    6.70   18.40
  -8  -8   5   55.89   24.00
   8  -8  -5   33.80   16.90
  -8   8   5   -6.50   15.40
  -7  -8   5   29.20   22.10
   7  -8  -5   28.20   16.20
  -7   8   5   34.90   19.10
   6  -8  -5   22.70   16.40
  -6  -8   5   -5.10   18.10
  -6  -8   5    1.50   17.20
  -6   8   5    3.70   15.70
   5  -8  -5   -4.20   13.60
  -5  -8   5   -6.50   16.90
  -5  -8   5   12.90   18.40
  -5   8   5    5.00   17.10
   4  -8  -5   15.40   16.00
  -4  -8   5    1.20   32.40
  -4  -8   5    2.80   16.40
  -4   8   5  -21.10   21.10
  -3  -8   5  -12.50   14.10
  -3  -8   5   26.20   18.90
   3  -8  -5    1.00   15.70
  -3   8   5   21.20   17.60
  -2  -8   5   -5.20   14.30
  -2  -8   5   16.00   16.80
   2  -8  -5   -1.90   23.60
  -2   8   5   15.40   17.90
  -1  -8   5   -1.00   13.40
   1  -8  -5   28.40   18.20
  -1  -8   5  -17.80   11.30
  -1   8   5  -13.30   14.50
   0  -8  -5    1.30   14.90
   0  -8   5   11.40   17.10
   0  -8   5   -7.00    9.90
   0  -8  -5   -6.90   13.10
   1  -8   5    1.40   15.20
  -1  -8  -5  -10.30   14.00
  -1  -8  -5   22.80   18.80
   1  -8   5    8.10   13.40
   2  -8   5   15.60   15.50
   2  -8   5  -18.00   11.40
  -2  -8  -5   23.10   16.20
   3  -8   5   19.10   13.60
  -3  -8  -5   11.80   15.60
   3  -8   5   26.20   15.00
   4  -8   5    3.90   14.10
   4  -8   5   -3.40   11.60
  -4  -8  -5   33.00   18.40
  -5  -8  -5   15.40   18.50
   5  -8   5   21.90   12.40
   6  -8   5   32.30   13.40
  -6  -8  -5   23.40   20.70
   6  -8   5   22.70   12.50
   7  -8   5    0.00    9.20
   7  -8   5    7.80   10.00
  -7  -8  -5   21.50   19.10
  -8  -8  -5   18.10   21.50
  -9  -8  -5   19.30   21.30
 -10  -8  -5    3.20   19.50
 -11  -8  -5    8.70   23.30
 -12  -9   5   55.29   28.70
  12  -9  -5   34.30   18.00
 -12   9   5   50.99   39.40
 -11  -9   5   89.39   51.09
  11  -9  -5   -1.10   14.10
 -11   9   5   34.20   29.20
 -10  -9   5   17.50   20.90
  10  -9  -5  -29.50   24.40
 -10   9   5   55.49   26.50
  -9  -9   5   44.30   25.60
   9  -9  -5   41.60   24.40
  -9   9   5   51.99   25.90
  -8  -9   5   -3.20   16.50
   8  -9  -5   10.90   16.00
  -8   9   5   49.90   25.00
  -7  -9   5   -6.50   17.00
   7  -9  -5    4.50   13.50
  -7   9   5  -18.70   15.80
  -6  -9   5  -14.70   16.70
   6  -9  -5   23.40   18.70
  -6   9   5   55.59   23.20
  -5  -9   5   -9.90   15.60
   5  -9  -5   -4.90   15.00
  -5   9   5    9.10   16.80
   4  -9  -5   11.70   16.20
  -4  -9   5  -16.80   14.00
  -3  -9   5   24.10   21.90
   3  -9  -5    0.30   15.90
  -3  -9   5   32.60   17.20
  -2  -9   5    4.70   16.70
  -2  -9   5   26.70   19.80
   2  -9  -5   34.90   18.40
  -1  -9   5   -4.20   19.80
   1  -9  -5   -8.30   15.70
  -1  -9   5    4.10   17.10
   0  -9   5   23.70   22.80
   0  -9   5    4.50   13.20
   0  -9  -5   20.10   19.60
   1  -9   5   -2.90   11.60
   1  -9   5    0.50   16.90
  -1  -9  -5    8.50   17.10
   2  -9   5    8.90   15.20
   2  -9   5   10.70   17.60
  -2  -9  -5    3.60   15.40
   3  -9   5   -3.70   13.60
   3  -9   5   33.80   19.20
  -3  -9  -5   -4.30   16.00
   4  -9   5  -16.00   11.20
  -4  -9  -5   34.00   21.70
   4  -9   5   25.80   16.80
   5  -9   5   28.80   15.20
   5  -9   5   28.70   16.90
  -5  -9  -5  -21.40   13.80
   6  -9   5  -16.40   11.00
   6  -9   5   -2.40   13.50
  -6  -9  -5   33.70   22.00
   7  -9   5   13.50   11.40
  -7  -9  -5   34.90   20.90
   7  -9   5   24.20   13.90
   8  -9   5   19.60   11.00
  -8  -9  -5    6.40   22.00
   8  -9   5  -10.90   10.10
  -9  -9  -5  -36.90   17.10
   9 -10  -5   -7.90   15.50
  -9 -10   5   -1.00   21.40
   8 -10  -5   30.20   18.40
  -7 -10   5    1.10   18.60
   7 -10  -5   -3.30   14.60
  -6 -10   5   32.90   22.30
   6 -10  -5    8.20   17.40
   5 -10  -5   23.50   18.70
  -5 -10   5   -7.70   17.40
   4 -10  -5   26.10   17.90
  -4 -10   5    4.30   15.30
   3 -10  -5   -7.30   13.70
  -3 -10   5   18.60   16.40
  -2 -10   5  -31.80   11.40
   2 -10  -5   -0.40   16.40
  -1 -10   5  -10.20   13.30
   1 -10  -5   15.30   18.20
   0 -10   5   13.60   16.20
   0 -10  -5   47.30   24.10
   0 -10   5   -6.90   19.10
   1 -10   5    0.30   20.20
  -1 -10  -5   21.60   20.70
   1 -10   5   23.60   16.90
  -2 -10  -5   -1.00   16.80
   2 -10   5   16.40   16.70
   2 -10   5    6.50   20.10
  -3 -10  -5   40.20   25.20
   3 -10   5   -2.70   24.70
   3 -10   5   -8.00   11.30
   4 -10   5   -9.00   18.60
   4 -10   5    8.30   14.10
  -4 -10  -5   11.20   21.60
   5 -10   5   -7.90   11.60
  -5 -10  -5    0.10   17.60
   5 -10   5    0.60   18.10
 -21   0   6   -6.80   17.60
  21   0  -6   24.60   19.70
  20   0  -6  -18.40   14.40
 -20   0   6  -12.20   15.30
 -19   0   6   82.09   40.70
  19   0  -6  112.59   23.70
 -18   0   6   16.90   17.50
  18   0  -6   30.90   17.70
 -17   0   6  183.98   28.90
  17   0  -6  173.08   27.70
  16   0  -6   16.30   15.70
 -16   0   6   54.19   18.20
  15   0  -6   -9.80   11.90
 -15   0   6   -4.70   12.10
  14   0  -6  888.01   44.10
 -14   0   6  862.71   43.40
 -13   0   6   98.79   19.10
  13   0  -6   85.49   18.60
 -12   0   6  158.08   21.30
  12   0  -6  164.18   22.40
  11   0  -6   49.80   14.80
 -11   0   6   63.59   15.40
  10   0  -6  412.96   27.10
 -10   0   6  401.66   26.90
   9   0  -6   54.79   13.70
  -9   0   6   23.90   11.50
   8   0  -6  751.32   33.50
  -8   0   6  820.82   34.30
  -7   0   6 1970.30   53.89
   7   0  -6 1763.42   65.09
  -6   0   6    9.20    8.70
   6   0  -6   10.20    8.70
   5   0  -6  221.28   18.10
  -5   0   6  233.08   18.60
   4   0  -6   41.60   11.30
  -4   0   6   71.89   12.90
  -3   0   6  199.88   17.10
   3   0  -6  181.38   16.30
   2   0  -6  300.57   19.00
  -2   0   6  305.97   19.30
   1   0  -6  213.08   17.00
  -1   0   6  211.88   16.60
   0   0   6   50.49   10.00
   0   0  -6   70.89   11.50
  -1   0  -6  602.94   25.20
   1   0   6  642.44   24.90
  -2   0  -6  369.86   20.40
   2   0   6  357.96   19.10
   3   0   6   34.60    8.60
  -3   0  -6   32.40   10.40
  -4   0  -6  978.20   32.10
   4   0   6  895.11   30.40
   5   0   6  140.29   15.70
  -5   0  -6  132.39   15.30
   6   0   6  246.88   18.30
  -6   0  -6  191.28   17.20
  -7   0  -6  141.99   15.60
  -7   0  -6  135.59   16.30
  -8   0  -6    3.50    9.30
  -8   0  -6   -0.10    8.00
  -9   0  -6   15.70   10.00
  -9   0  -6   39.70   10.60
 -10   0  -6  211.88   20.30
 -10   0  -6  236.18   19.90
 -11   0  -6  121.29   18.00
 -11   0  -6   64.69   14.50
 -12   0  -6   41.80   12.60
 -12   0  -6   58.19   13.20
 -13   0  -6   75.79   16.30
 -13   0  -6   79.79   16.10
 -14   0  -6    5.20   14.40
 -14   0  -6   -9.70   12.10
 -15   0  -6   52.09   14.60
 -15   0  -6   49.60   16.40
 -16   0  -6   -6.60   11.00
 -16   0  -6  -19.50   12.50
  21  -1  -6   31.60   27.70
  21   1  -6   33.30   19.20
 -21   1   6  -10.20   18.20
  20  -1  -6   21.40   16.80
 -20  -1   6   28.30   20.40
  20   1  -6   30.10   20.20
 -20   1   6   20.50   18.40
  19  -1  -6   18.80   15.90
 -19  -1   6    7.50   16.40
  19   1  -6   16.40   17.30
 -19   1   6   22.50   18.30
  18  -1  -6   28.40   15.80
 -18  -1   6   51.79   20.80
 -18   1   6   22.90   18.00
  18   1  -6   54.59   20.60
  17  -1  -6   51.79   17.40
 -17  -1   6   70.09   22.40
  17   1  -6   82.69   20.50
 -17   1   6   44.20   17.70
  16  -1  -6  -10.90   11.30
 -16  -1   6  -21.70   10.90
  16   1  -6   26.40   15.90
 -16   1   6    9.60   15.10
 -15  -1   6    4.80   13.40
  15  -1  -6   -3.20   12.80
 -15   1   6  -14.10   11.20
  15   1  -6   -2.40   15.20
 -14  -1   6 1099.19   50.39
  14  -1  -6 1254.37   50.49
  14   1  -6 1228.08   52.59
 -14   1   6 1186.38   48.80
 -13  -1   6  203.88   24.90
  13  -1  -6  187.28   23.90
 -13   1   6  144.29   21.80
  13   1  -6  207.18   25.80
 -12  -1   6  881.81   42.90
  12  -1  -6 1003.20   42.10
  12   1  -6 1014.80   45.90
 -12   1   6  980.40   41.20
  11  -1  -6  339.47   25.20
 -11  -1   6  343.97   27.30
  11   1  -6  318.07   26.90
 -11   1   6  373.06   26.00
  10  -1  -6   15.00   11.40
 -10  -1   6   15.20   10.40
  10   1  -6   30.20   13.10
 -10   1   6   33.20   14.20
  -9  -1   6 1232.08   46.10
   9  -1  -6 1240.58   43.40
  -9   1   6 1211.68   43.70
   9   1  -6 1195.48   45.80
  -8  -1   6 1040.30   41.20
   8  -1  -6 1065.89   40.20
  -8   1   6 1115.09   40.30
   8   1  -6 1017.10   41.50
   7  -1  -6 1041.60   39.00
  -7  -1   6 1020.30   39.40
   7   1  -6 1119.79   40.80
  -7   1   6 1069.19   38.90
  -6  -1   6 1457.75   45.70
   6  -1  -6 1340.37   42.80
  -6   1   6 1465.05   44.90
   6   1  -6 1396.06   46.20
   5  -1  -6 2206.58   56.69
  -5  -1   6 2246.88   57.89
  -5   1   6 2246.28   57.69
   5   1  -6 2238.88   57.99
   4  -1  -6   -7.40    6.80
  -4  -1   6   -0.20    6.70
  -4   1   6    6.60    8.60
   4   1  -6   -1.40    7.20
   3  -1  -6  651.03   27.80
  -3  -1   6  617.34   26.00
  -3   1   6  615.94   27.50
   3   1  -6  609.94   26.50
   2  -1  -6   37.60   10.70
  -2  -1   6   39.90    9.70
   2   1  -6   37.50   10.00
  -2   1   6   25.20    9.80
   1  -1  -6    7.50    8.30
  -1  -1   6   17.30    8.20
   1   1  -6    3.90    7.70
  -1   1   6    4.30    7.90
   0  -1   6  370.96   19.30
   0  -1  -6  325.77   20.90
   0   1   6  327.07   20.40
   0   1  -6  378.36   19.20
  -1  -1  -6  809.02   31.20
   1  -1   6  788.32   26.90
  -1   1  -6  816.72   26.90
   1   1   6  793.52   30.50
   2  -1   6   31.80    8.50
  -2  -1  -6   45.10   12.10
   2   1   6   41.50   10.30
  -2   1  -6   46.10    9.20
  -3  -1  -6  453.25   24.10
   3  -1   6  378.46   18.30
  -3   1  -6  413.36   19.10
   3   1   6  416.86   23.70
  -4  -1  -6  176.88   18.80
   4  -1   6  180.58   13.80
   4   1   6  193.58   18.30
  -4   1  -6  201.68   14.80
  -5  -1  -6  284.97   21.90
   5  -1   6  296.77   16.00
   5   1   6  341.37   23.20
  -5   1  -6  304.77   16.60
   6  -1   6 1483.15   36.70
  -6  -1  -6 1505.15   46.40
   6   1   6 1530.65   47.10
  -6   1  -6 1453.95   36.50
  -7  -1  -6   -7.60   10.40
  -7   1  -6   10.10    7.10
  -7   1  -6   23.50    8.30
  -8  -1  -6  382.46   27.60
  -8  -1  -6  362.26   24.80
  -8   1  -6  356.56   17.80
  -8   1  -6  349.57   16.70
  -9  -1  -6  123.39   18.90
  -9  -1  -6  140.89   21.60
  -9   1  -6  134.09   13.00
  -9   1  -6  140.29   13.90
 -10  -1  -6   78.79   16.70
 -10   1  -6  108.09   13.20
 -10   1  -6   90.99   12.20
 -11  -1  -6  115.19   19.00
 -11  -1  -6   76.09   17.90
 -11   1  -6   96.89   14.10
 -12  -1  -6   73.49   17.10
 -12  -1  -6   77.89   17.90
 -12   1  -6   90.49   13.70
 -12   1  -6   88.19   13.00
 -13  -1  -6   64.79   16.70
 -13  -1  -6   34.40   16.20
 -13   1  -6   40.50    8.40
 -13   1  -6   41.30    9.30
 -14  -1  -6   -5.30   13.50
 -14  -1  -6   25.70   17.10
 -15  -1  -6   77.39   21.10
 -15  -1  -6   64.69   18.80
 -16  -1  -6   39.50   19.90
 -16  -1  -6   31.40   17.50
  20  -2  -6    8.80   14.50
 -20   2   6    6.80   17.30
  20   2  -6  -15.10   15.30
  19  -2  -6   -9.40   13.20
  19   2  -6   29.90   20.10
 -19   2   6   23.60   19.00
 -18  -2   6    4.90   16.00
  18  -2  -6   10.20   14.60
 -18   2   6  -18.70   14.90
  18   2  -6    3.60   17.90
 -17  -2   6   -3.70   15.40
  17  -2  -6   16.30   14.70
 -17   2   6   -6.40   14.40
  17   2  -6   13.00   18.60
 -16  -2   6   16.80   20.30
  16  -2  -6    3.10   13.30
 -16   2   6    4.90   14.40
  16   2  -6   60.29   21.00
 -15  -2   6    3.70   14.30
  15  -2  -6   33.90   16.60
  15   2  -6    6.00   14.30
 -15   2   6    5.80   13.70
 -14  -2   6  159.88   25.40
  14  -2  -6  162.08   23.30
 -14   2   6  161.38   24.30
  14   2  -6  138.09   25.10
  13  -2  -6    3.70   11.70
 -13  -2   6   -3.20   12.30
 -13   2   6   18.20   13.40
  13   2  -6   -1.00   13.30
 -12  -2   6   -8.10   10.90
  12  -2  -6  -17.50    8.80
 -12   2   6   -1.90   10.80
  12   2  -6   -4.50   12.20
 -11  -2   6   68.49   16.40
  11  -2  -6   56.89   14.50
 -11   2   6   45.10   14.90
  11   2  -6   82.59   18.50
  10  -2  -6  100.39   17.10
 -10  -2   6  105.29   19.30
  10   2  -6   85.59   18.70
 -10   2   6  119.09   21.70
   9  -2  -6   46.50   13.00
  -9  -2   6   32.40   13.60
   9   2  -6   45.80   14.40
  -9   2   6   36.50   11.90
  -8  -2   6 1237.08   46.80
   8  -2  -6 1357.86   44.40
  -8   2   6 1260.87   44.30
   8   2  -6 1313.47   48.70
   7  -2  -6 1818.72   59.79
   7   2  -6 1746.03   56.39
  -7   2   6 1861.31   53.49
  -6  -2   6 1083.49   40.60
   6  -2  -6 1080.49   45.60
  -6   2   6  963.20   37.20
   6   2  -6  983.60   39.80
  -5  -2   6  466.75   26.40
   5  -2  -6  424.36   25.00
  -5   2   6  467.25   25.50
   4  -2  -6  117.79   16.50
  -4  -2   6  122.79   16.90
  -4   2   6  127.99   16.00
   4   2  -6  111.09   17.00
  -3  -2   6   77.39   13.40
   3  -2  -6   42.50   12.00
  -3   2   6   45.50   11.90
   3   2  -6   53.19   12.40
   2  -2  -6  201.88   19.00
  -2  -2   6  217.78   17.20
   2   2  -6  209.98   17.40
  -2   2   6  231.78   19.20
   1  -2  -6  237.88   19.90
  -1  -2   6  241.18   17.20
  -1   2   6  254.97   19.60
   1   2  -6  272.47   18.10
   0  -2  -6   59.59   13.30
   0  -2   6   34.10    9.00
   0   2  -6   46.60   10.30
   0   2   6   62.79   13.30
  -1  -2  -6  426.36   25.10
   1  -2   6  410.06   19.20
   1   2   6  374.96   23.70
  -1   2  -6  433.16   20.10
   2  -2   6  675.23   24.00
  -2   2  -6  692.93   24.10
   2   2   6  748.33   32.50
  -3  -2  -6 1184.98   43.10
   3  -2   6 1185.88   30.90
  -3   2  -6 1214.78   31.30
   3   2   6 1204.88   42.40
   4  -2   6  841.22   23.50
  -4  -2  -6  840.42   35.90
  -4   2  -6  864.01   24.00
   4   2   6  875.21   36.80
   5  -2   6  370.36   14.40
  -5  -2  -6  387.36   26.40
  -5   2  -6  362.66   14.30
   5   2   6  394.56   27.50
  -6  -2  -6  257.17   23.20
  -6   2  -6  207.68   10.30
  -7  -2  -6    2.80   11.60
  -7  -2  -6   -0.20   10.20
  -8  -2  -6   38.20   13.80
  -8  -2  -6   38.40   14.00
  -9  -2  -6  141.59   22.40
  -9  -2  -6  168.38   23.80
 -10  -2  -6  108.19   20.50
 -11  -2  -6   31.00   15.20
 -11  -2  -6  -11.90   13.30
 -12  -2  -6   -6.90   13.30
 -12  -2  -6   22.50   16.30
 -13  -2  -6   -5.10   15.10
 -13  -2  -6   -9.60   15.50
 -14  -2  -6  -17.70   16.30
 -14  -2  -6  -14.60   16.70
 -15  -2  -6  -13.80   17.80
 -15  -2  -6   -7.90   14.80
 -16  -2  -6   28.50   20.60
 -16  -2  -6   12.80   17.20
  20  -3  -6   38.60   17.40
 -20   3   6   23.60   18.50
  20   3  -6   25.60   20.20
  19  -3  -6   43.50   15.90
  19   3  -6   17.10   19.90
 -19   3   6   16.20   15.80
  18  -3  -6   17.00   13.50
 -18   3   6   25.00   15.50
  18   3  -6   -7.90   16.60
  17  -3  -6   25.60   15.30
 -17  -3   6    8.50   17.60
  17   3  -6   12.70   18.00
 -17   3   6    8.80   14.70
  16  -3  -6    0.60   13.00
 -16  -3   6    3.10   14.50
  16   3  -6  -17.20   15.00
 -16   3   6  -13.60   12.10
  15  -3  -6   12.20   14.40
 -15  -3   6   43.70   19.00
  15   3  -6   57.09   22.50
 -15   3   6   33.00   15.70
  14  -3  -6  230.88   26.00
 -14  -3   6  192.78   28.70
  14   3  -6  282.07   32.70
 -14   3   6  238.68   26.80
 -13  -3   6  455.95   36.60
  13  -3  -6  455.75   30.20
 -13   3   6  493.35   31.90
  13   3  -6  415.36   36.20
  12  -3  -6  409.56   28.90
 -12  -3   6  456.45   34.80
 -12   3   6  440.26   29.10
  12   3  -6  473.95   36.00
 -11  -3   6  356.76   30.50
  11  -3  -6  320.67   25.10
  11   3  -6  310.47   29.60
 -11   3   6  335.37   26.10
  10  -3  -6  557.94   31.10
 -10  -3   6  555.04   35.10
  10   3  -6  624.74   37.90
 -10   3   6  612.84   38.20
  -9  -3   6  437.86   31.00
   9  -3  -6  432.26   27.50
  -9   3   6  437.76   32.50
   9   3  -6  438.16   32.00
   8  -3  -6  259.57   23.00
  -8  -3   6  321.07   26.80
  -8   3   6  282.87   23.00
   8   3  -6  275.27   26.40
   7  -3  -6  119.89   17.90
  -7  -3   6  139.39   21.40
   7   3  -6  100.59   20.30
  -7   3   6  114.49   17.80
   6  -3  -6   51.29   14.30
  -6  -3   6   35.60   12.80
  -6   3   6   30.40   12.30
   6   3  -6   25.80   13.70
  -5  -3   6  232.08   22.70
   5  -3  -6  265.07   22.80
   5   3  -6  215.88   22.50
  -5   3   6  261.87   22.20
  -4  -3   6  409.96   26.00
   4  -3  -6  408.06   26.90
   4   3  -6  437.16   27.00
  -4   3   6  412.96   25.90
   3  -3  -6  868.21   36.00
  -3  -3   6  816.32   34.80
   3   3  -6  819.62   34.50
  -3   3   6  869.51   36.30
  -2  -3   6 1229.58   41.00
   2  -3  -6 1299.97   44.50
  -2   3   6 1274.57   44.30
   2   3  -6 1287.77   42.00
  -1  -3   6  520.85   25.20
   1  -3  -6  432.46   27.20
  -1   3   6  467.55   27.70
   1   3  -6  504.25   25.30
   0  -3  -6   52.69   14.50
   0  -3   6   48.10   11.20
   0   3   6   50.39   13.10
   0   3  -6   37.70   10.40
   1  -3   6    6.20    7.80
  -1  -3  -6   53.59   14.50
  -1   3  -6   22.30    9.50
  -2  -3  -6   12.70   11.10
   2  -3   6    7.10    6.90
   2   3   6   10.70   10.30
  -2   3  -6    6.60    7.10
   3  -3   6   77.39   11.50
  -3  -3  -6   66.79   15.30
   3   3   6   83.59   16.40
  -3   3  -6   71.99   11.10
  -4  -3  -6  269.87   24.80
   4  -3   6  264.77   13.90
   4   3   6  259.47   23.60
  -4   3  -6  274.17   13.00
  -5  -3  -6  567.54   33.10
   5   3   6  481.75   32.30
  -6  -3  -6  541.45   33.40
   6   3   6  466.05   34.10
  -7  -3  -6  289.17   27.90
  -7  -3  -6  303.47   27.60
  -8  -3  -6  279.77   28.20
  -8  -3  -6  219.08   27.40
  -9  -3  -6  137.89   22.10
  -9  -3  -6  118.79   22.20
 -10  -3  -6   -2.40   13.80
 -10  -3  -6   26.30   16.50
 -11  -3  -6   11.40   15.40
 -11  -3  -6   15.90   16.70
 -12  -3  -6  -11.00   16.00
 -12  -3  -6   21.00   17.80
 -13  -3  -6   26.20   19.40
 -13  -3  -6   14.20   17.30
 -14  -3  -6   33.40   22.80
 -14  -3  -6   11.10   18.50
 -15  -3  -6  -16.50   16.90
 -15  -3  -6   -6.10   19.20
 -16  -3  -6    8.80   19.80
 -16  -3  -6   -8.60   19.90
  19  -4  -6   16.70   14.30
  19   4  -6   26.70   22.60
 -19   4   6    8.40   14.40
  18  -4  -6    7.10   12.90
 -18   4   6   15.60   15.50
  18   4  -6   42.40   23.90
  17  -4  -6    7.10   13.60
 -17   4   6   21.70   16.20
  17   4  -6   12.80   18.90
  16  -4  -6  -13.00   12.40
 -16   4   6   -0.90   13.30
  16   4  -6   -4.10   18.70
 -15  -4   6   17.50   18.70
  15  -4  -6   56.39   17.70
  15   4  -6   46.10   20.30
 -15   4   6   43.50   16.80
  14  -4  -6   80.89   18.50
 -14  -4   6   43.90   18.30
  14   4  -6   17.30   17.40
 -14   4   6   37.80   16.00
 -13  -4   6   -9.90   17.70
  13  -4  -6  -14.60   11.60
  13   4  -6  -18.80   13.90
 -13   4   6   -8.80   11.60
  12  -4  -6   -2.10   11.90
 -12  -4   6   -7.20   12.40
  12   4  -6  -13.50   14.60
 -12   4   6    2.00   11.60
 -11  -4   6   -0.30   12.60
  11  -4  -6   44.20   15.00
  11   4  -6   27.30   16.80
 -11   4   6   34.00   13.70
  10  -4  -6   26.00   12.30
 -10  -4   6   26.10   13.60
 -10   4   6    6.30   12.40
  10   4  -6   16.10   14.00
  -9  -4   6  114.29   22.00
   9  -4  -6  166.78   21.50
  -9   4   6  121.29   19.50
   9   4  -6  171.58   26.70
  -8  -4   6  385.26   31.30
   8  -4  -6  362.56   26.40
   8   4  -6  398.36   32.10
  -8   4   6  392.16   28.10
  -7  -4   6  361.76   29.70
   7  -4  -6  336.17   26.10
  -7   4   6  333.87   25.20
   7   4  -6  326.07   28.30
   6  -4  -6  209.98   22.20
  -6  -4   6  183.88   23.60
   6   4  -6  218.38   24.90
  -6   4   6  212.88   22.30
   5  -4  -6   35.30   13.70
  -5  -4   6   35.90   14.20
   5   4  -6   31.00   13.40
  -5   4   6   47.00   12.80
  -4  -4   6   29.30   13.30
   4  -4  -6    3.00   10.80
   4   4  -6   -0.10   11.00
  -4   4   6   18.10   10.80
  -3  -4   6   35.70   12.90
   3  -4  -6   37.50   13.40
   3   4  -6   32.20   13.20
  -3   4   6   41.00   12.50
   2  -4  -6  276.27   24.60
  -2  -4   6  245.38   22.30
  -2   4   6  243.78   22.60
   2   4  -6  296.57   23.20
   1  -4  -6  131.09   20.20
  -1  -4   6  111.09   17.10
  -1   4   6  138.79   19.90
   1   4  -6  146.29   18.50
   0  -4  -6  220.88   23.20
   0  -4   6  200.28   18.70
   0   4   6   98.89   18.00
   0   4  -6  223.58   18.90
  -1  -4  -6  198.38   23.20
   1  -4   6  177.78   17.10
   1   4   6  213.28   23.00
  -1   4  -6  189.68   17.30
   2  -4   6  415.56   21.00
  -2  -4  -6  419.16   29.80
   2   4   6  389.96   28.90
  -2   4  -6  408.76   20.90
   3  -4   6  262.87   15.90
  -3  -4  -6  191.98   24.10
   3   4   6  204.18   23.30
  -3   4  -6  218.88   15.50
  -4  -4  -6   30.10   14.60
   4  -4   6   36.50    8.30
   4   4   6   61.29   17.10
  -5  -4  -6   61.59   16.70
   5  -4   6   55.49    8.00
   5  -4   6   67.19    8.50
   5   4   6   42.80   15.90
  -6  -4  -6   42.70   16.20
  -6  -4  -6   36.70   15.30
  -7  -4  -6   24.90   14.20
  -7  -4  -6   -6.70   13.60
  -8  -4  -6   69.29   20.40
  -8  -4  -6   56.49   18.70
  -9  -4  -6  155.18   26.60
  -9  -4  -6  132.89   25.00
 -10  -4  -6   29.90   18.80
 -10  -4  -6   13.40   17.20
 -11  -4  -6   82.69   28.70
 -11  -4  -6  106.69   25.70
 -12  -4  -6   27.10   18.80
 -13  -4  -6   -0.20   18.10
 -13  -4  -6   -5.80   16.70
 -14  -4  -6    5.00   19.30
 -15  -4  -6    9.10   24.50
  19  -5  -6  -12.70   12.70
  19   5  -6   79.59   30.70
 -19   5   6   23.80   17.30
  18  -5  -6   11.60   12.50
 -18   5   6   11.60   17.20
  18   5  -6   -3.60   21.50
  17  -5  -6    9.40   13.60
  17   5  -6   -7.40   18.40
 -17   5   6  -24.50   13.10
  16  -5  -6   40.50   16.10
 -16   5   6   -6.60   16.20
  16   5  -6    6.10   20.30
  15  -5  -6   26.40   16.10
 -15   5   6    5.00   16.90
  15   5  -6   52.79   24.60
  14  -5  -6   66.69   18.50
  14   5  -6  101.69   24.10
 -14   5   6  106.29   22.00
 -13  -5   6  241.08   34.40
  13  -5  -6  287.87   27.40
 -13   5   6  288.37   30.80
  13   5  -6  249.88   34.60
 -12  -5   6  387.96   37.50
  12  -5  -6  299.47   27.90
  12   5  -6  340.37   36.70
 -12   5   6  280.87   28.90
 -11  -5   6  284.47   45.90
  11  -5  -6  288.77   26.60
  11   5  -6  224.58   31.60
 -11   5   6  265.37   26.80
  10  -5  -6  171.78   24.10
 -10  -5   6  263.27   31.60
 -10   5   6  192.98   24.50
  10   5  -6  192.98   29.90
   9  -5  -6   18.40   13.40
  -9  -5   6   39.70   17.50
   9   5  -6   61.29   19.60
  -9   5   6    4.10   11.30
  -8  -5   6   38.40   15.70
   8  -5  -6    2.70   12.20
   8   5  -6   14.90   14.80
  -8   5   6   15.20   11.10
  -7  -5   6  217.78   25.90
   7  -5  -6  261.37   25.60
   7   5  -6  218.98   27.90
  -7   5   6  242.48   24.10
  -6  -5   6  439.36   33.30
   6  -5  -6  418.26   30.60
   6   5  -6  461.15   34.00
  -6   5   6  488.55   32.10
  -5  -5   6  403.96   31.00
   5  -5  -6  421.96   30.40
   5   5  -6  436.76   32.20
  -5   5   6  495.15   31.50
   4  -5  -6  160.58   22.10
  -4  -5   6  208.48   23.80
   4   5  -6  199.38   24.10
  -4   5   6  148.89   21.10
  -3  -5   6  180.18   22.20
   3  -5  -6  182.68   22.60
  -3   5   6  182.18   22.50
   3   5  -6  218.68   23.70
  -2  -5   6  179.18   22.60
   2  -5  -6  187.38   23.00
  -2   5   6  214.88   23.90
   2   5  -6  239.28   23.60
   1  -5  -6  302.07   27.00
  -1  -5   6  261.07   24.50
   1   5  -6  248.78   22.60
  -1   5   6  287.67   26.20
   0  -5   6  146.09   19.40
   0  -5  -6  172.68   23.80
   0   5  -6  192.58   20.00
   0   5   6  228.88   24.90
   1  -5   6   78.99   14.80
  -1  -5  -6   63.99   17.60
  -1   5  -6   73.19   14.70
   1   5   6   49.30   16.40
  -2  -5  -6   43.20   15.90
   2  -5   6   64.99   13.10
  -2   5  -6   24.60   11.40
   2   5   6    4.30   10.30
  -3  -5  -6    4.10   12.30
   3  -5   6    1.20    7.90
   3   5   6   -7.10   10.70
   4  -5   6  166.18   15.00
   4  -5   6  158.68   16.40
  -4  -5  -6  177.28   25.70
   4   5   6  120.09   23.10
   5  -5   6   90.79   11.00
   5  -5   6  126.99   12.80
  -5  -5  -6   77.69   19.50
   5   5   6   83.19   21.90
  -6  -5  -6  144.69   25.80
  -6  -5  -6  192.68   28.00
  -7  -5  -6   45.40   19.10
  -7  -5  -6   69.89   20.40
  -8  -5  -6   21.10   18.50
  -8  -5  -6   40.30   18.60
  -9  -5  -6   49.80   21.00
 -10  -5  -6   -5.00   16.30
 -10  -5  -6   10.00   18.60
 -11  -5  -6   12.80   18.30
 -11  -5  -6   -9.10   17.60
 -12  -5  -6   -4.90   18.40
 -13  -5  -6   24.60   22.40
 -14  -5  -6  -14.80   18.60
  18  -6  -6   29.50   16.00
  18   6  -6    7.60   22.60
 -18   6   6   15.90   18.20
  17  -6  -6   10.10   13.20
  17   6  -6   30.00   24.40
 -17   6   6    8.20   16.20
  16  -6  -6   41.10   16.00
  16   6  -6   12.20   20.10
 -16   6   6   30.00   19.50
  15  -6  -6   13.60   15.10
 -15   6   6   27.80   18.00
  15   6  -6   10.50   20.70
  14  -6  -6   50.29   16.40
  14   6  -6   16.80   20.20
 -14   6   6   21.70   17.70
  13  -6  -6   25.80   15.00
  13   6  -6   -7.80   16.80
 -13   6   6    0.30   15.20
  12  -6  -6   21.30   13.20
 -12   6   6   27.70   16.00
  12   6  -6   29.00   18.80
 -11  -6   6   89.49   25.00
  11  -6  -6   62.29   18.20
  11   6  -6   40.50   20.40
 -11   6   6   35.80   17.00
 -10  -6   6  119.49   25.50
  10  -6  -6   81.59   19.30
 -10   6   6   68.19   19.70
  10   6  -6   70.99   24.20
  -9  -6   6  198.68   33.10
   9  -6  -6  165.18   24.80
   9   6  -6  220.78   33.60
  -9   6   6  158.48   25.00
   8  -6  -6  266.87   28.40
  -8  -6   6  309.77   33.80
  -8   6   6  260.97   27.90
   8   6  -6  282.67   33.60
  -7  -6   6  213.68   29.90
   7  -6  -6  182.68   25.50
   7   6  -6  216.48   29.90
  -7   6   6  161.48   24.50
   6  -6  -6   49.99   16.40
  -6  -6   6   81.19   21.80
   6   6  -6  108.59   22.80
  -6   6   6   57.39   17.30
  -5  -6   6   89.39   22.60
   5  -6  -6   89.49   20.20
   5   6  -6  100.29   21.80
  -5   6   6  108.89   20.80
   4  -6  -6   -1.10   12.00
  -4  -6   6    1.90   13.30
  -4   6   6    7.60   11.90
   4   6  -6    5.90   12.90
   3  -6  -6    7.60   12.90
  -3  -6   6   27.30   14.60
   3   6  -6   -2.70   12.00
  -3   6   6   15.60   13.10
   2  -6  -6    3.00   12.50
  -2  -6   6   -3.20   10.30
  -2   6   6   36.30   15.30
   2   6  -6   -3.90   10.40
   1  -6  -6   91.39   22.40
  -1  -6   6  162.28   24.10
   1   6  -6  120.99   21.70
  -1   6   6  118.79   23.50
   0  -6  -6  106.69   21.90
   0  -6   6  137.39   21.80
   0   6  -6  149.49   21.20
   0   6   6  125.89   24.60
  -1  -6  -6   96.69   21.10
   1   6   6   57.39   19.40
   2  -6   6  136.99   20.00
   2  -6   6  129.39   20.40
  -2  -6  -6  133.79   24.30
   2   6   6  196.78   27.80
   3  -6   6   56.79   16.30
   3  -6   6   79.39   15.50
  -3  -6  -6   77.39   21.00
   3   6   6   77.49   20.90
   4  -6   6   90.79   14.00
   4  -6   6   91.29   15.20
  -4  -6  -6   88.79   24.20
   4   6   6   81.39   28.40
  -5  -6  -6   13.50   16.10
   5  -6   6   37.60   10.40
   5  -6   6   19.80    9.80
  -5  -6  -6   15.70   15.80
   6  -6   6    8.60    7.10
  -6  -6  -6   46.60   20.10
  -6  -6  -6   -9.20   12.30
   6  -6   6   25.20    8.00
  -7  -6  -6   30.30   19.50
  -7  -6  -6   17.30   15.40
  -8  -6  -6   29.90   20.00
  -8  -6  -6    9.70   17.00
  -9  -6  -6  -35.00   15.80
 -10  -6  -6   43.80   22.40
 -11  -6  -6  -12.40   17.20
 -12  -6  -6    0.20   19.30
 -13  -6  -6  -10.10   18.70
  16  -7  -6    5.20   16.10
  16   7  -6  -13.10   19.20
 -16   7   6   16.90   18.70
  15  -7  -6   21.30   16.90
 -15   7   6   14.30   19.70
  15   7  -6   45.70   25.80
  14  -7  -6   79.59   19.60
  14   7  -6   90.39   29.10
 -14   7   6  115.89   25.90
  13  -7  -6   47.90   17.60
  13   7  -6   84.19   28.00
 -13   7   6   31.70   18.30
  12  -7  -6  134.59   23.30
  12   7  -6  162.88   32.90
 -12   7   6   98.79   21.80
  11  -7  -6   61.49   18.00
  11   7  -6   36.80   20.40
 -11   7   6   77.69   22.00
  10  -7  -6   11.10   14.20
 -10   7   6   17.80   16.60
  10   7  -6   21.40   19.60
   9  -7  -6  109.79   22.80
  -9  -7   6   67.89   25.20
   9   7  -6   83.59   26.80
  -9   7   6   90.69   22.90
   8  -7  -6   24.50   15.40
  -8  -7   6    7.10   18.40
  -8   7   6    1.50   14.40
   8   7  -6   -2.70   13.40
   7  -7  -6    2.80   13.60
  -7  -7   6   19.90   18.90
  -7   7   6    5.60   14.90
   6  -7  -6   34.90   16.20
   6   7  -6   25.00   17.30
  -6   7   6   30.00   17.20
   5  -7  -6  130.59   23.90
  -5  -7   6  181.28   31.50
   5   7  -6  181.08   28.40
  -5   7   6  132.89   24.80
  -4  -7   6   82.69   23.20
   4  -7  -6   18.20   15.00
   4   7  -6   89.79   22.50
  -4   7   6   -8.60   13.00
  -3  -7   6  165.88   28.20
   3  -7  -6  154.88   26.70
   3   7  -6  181.38   26.90
  -3   7   6  129.79   25.90
   2  -7  -6   40.80   17.20
  -2  -7   6   49.60   18.50
  -2   7   6   -1.40   12.40
   2   7  -6   29.90   15.40
   1  -7  -6  -17.70   12.10
  -1  -7   6    2.80   13.80
  -1   7   6   19.40   14.70
   0  -7  -6   -9.10   14.40
   0  -7   6  -23.30   10.20
   0  -7   6    2.50   14.50
   0   7   6    1.60   16.30
   1  -7   6   64.29   18.80
  -1  -7  -6   24.30   21.70
   1  -7   6   87.39   19.80
   1   7   6   97.09   23.30
   2  -7   6   23.00   15.10
  -2  -7  -6   19.70   16.40
   2  -7   6   16.20   12.20
   2   7   6   16.30   15.70
  -3  -7  -6  152.28   27.60
   3  -7   6  150.68   21.60
  -3  -7  -6   86.19   23.50
   4  -7   6  115.19   18.60
   4  -7   6  101.69   17.20
  -4  -7  -6  102.69   25.10
  -4  -7  -6   70.19   22.40
   5  -7   6   61.79   14.30
  -5  -7  -6   85.09   25.60
   5  -7   6   95.69   15.70
   6  -7   6  192.18   17.80
   6  -7   6  202.58   18.50
  -6  -7  -6  135.49   29.20
  -7  -7  -6   53.19   21.90
  -8  -7  -6   61.09   22.30
  -9  -7  -6   45.80   23.90
 -10  -7  -6   38.50   22.40
 -11  -7  -6  -19.10   18.80
 -12  -7  -6  -10.70   19.60
 -15  -8   6   -7.90   25.60
 -15   8   6   23.60   20.70
  14  -8  -6   35.90   17.40
 -14  -8   6   53.29   30.40
 -14   8   6    5.80   20.30
  13  -8  -6  -14.80   14.10
 -13   8   6   18.40   19.70
  12  -8  -6    9.20   16.10
  12   8  -6  -11.60   15.70
 -12   8   6   33.40   22.00
  11  -8  -6    3.30   14.50
 -11   8   6   51.89   23.40
  11   8  -6    5.40   18.10
  10  -8  -6   42.60   19.40
  10   8  -6   14.00   19.50
 -10   8   6   34.50   21.80
   9  -8  -6   38.40   18.70
   9   8  -6    4.20   17.80
  -9   8   6    9.40   18.30
   8  -8  -6  129.79   24.70
   8   8  -6  153.48   30.30
  -8   8   6  124.59   45.60
   7  -8  -6  242.58   30.60
  -7   8   6  181.38   37.90
   7   8  -6  333.07   37.50
   6  -8  -6  143.49   27.50
  -6  -8   6  158.68   32.80
  -6   8   6  157.28   29.60
  -5  -8   6  214.68   37.10
  -5   8   6  121.89   25.90
   4  -8  -6   33.60   20.00
  -4  -8   6   28.70   18.90
  -4   8   6    7.20   15.70
  -3  -8   6   17.70   21.70
   3  -8  -6   17.90   16.80
  -3  -8   6  -10.50   15.50
  -3   8   6   19.60   17.80
  -2  -8   6    4.00   15.80
  -2  -8   6   33.20   19.90
   2  -8  -6   -3.70   14.30
  -2   8   6   -0.10   13.90
  -1  -8   6   58.09   20.60
  -1  -8   6   56.39   21.10
   1  -8  -6   18.80   17.70
  -1   8   6   46.00   19.60
   0  -8   6    1.70   13.20
   0  -8   6    6.90   16.50
   0  -8  -6   30.30   17.90
   0   8   6   17.90   17.20
  -1  -8  -6  103.29   26.40
   1  -8   6   78.59   21.50
   1  -8   6   60.39   18.10
   2  -8   6   55.69   18.70
  -2  -8  -6   46.30   21.10
   2  -8   6  100.99   20.20
   3  -8   6  107.79   20.00
  -3  -8  -6  120.39   26.50
   3  -8   6  157.88   25.30
  -4  -8  -6  161.18   30.70
   4  -8   6  213.88   25.90
   4  -8   6  226.18   24.50
   5  -8   6   49.30   14.50
  -5  -8  -6   70.99   22.70
   5  -8   6   27.90   15.00
   6  -8   6   60.49   14.50
  -6  -8  -6   25.40   19.30
  -7  -8  -6    7.90   18.10
   7  -8   6  -14.40    8.30
   7  -8   6  -13.50    7.50
  -8  -8  -6  -17.30   16.60
  -9  -8  -6    7.10   20.90
 -10  -8  -6   43.90   41.40
  12  -9  -6   57.19   21.00
 -12  -9   6   40.20   24.10
 -12   9   6   41.50   26.50
  11  -9  -6    8.20   15.90
 -11  -9   6  -41.80   31.30
 -11   9   6   10.90   22.50
  10  -9  -6    8.60   16.90
 -10  -9   6   58.29   29.20
 -10   9   6   12.30   21.10
  -9  -9   6   41.60   26.00
   9  -9  -6   39.90   20.30
  -9   9   6   29.10   22.70
   8  -9  -6  -17.40   14.30
  -8  -9   6  -23.50   15.60
  -8   9   6   -4.60   20.70
   7  -9  -6   28.40   18.20
  -7  -9   6    6.90   20.40
  -7   9   6    4.30   22.80
   6  -9  -6    1.30   16.20
  -6  -9   6   -8.50   17.10
  -5  -9   6  100.39   27.90
   5  -9  -6   67.79   24.20
   4  -9  -6   58.99   21.30
  -4  -9   6  104.29   26.40
   3  -9  -6  134.39   28.60
  -3  -9   6  175.18   35.50
  -3  -9   6  103.59   26.10
   2  -9  -6   64.59   23.00
  -2  -9   6  137.29   33.20
  -2  -9   6  132.29   28.60
  -1  -9   6  126.39   29.10
   1  -9  -6  145.59   29.90
   0  -9   6   39.40   25.40
   0  -9   6   53.79   19.30
   0  -9  -6   10.00   18.20
   1  -9   6    4.10   13.80
   1  -9   6   13.30   18.30
  -1  -9  -6  -11.70   14.90
   2  -9   6  -19.60   15.60
  -2  -9  -6   20.50   17.40
   2  -9   6    6.50   13.00
   3  -9   6   25.50   16.10
  -3  -9  -6   46.30   24.20
   3  -9   6   83.09   23.10
   4  -9   6   54.99   17.80
   4  -9   6   29.40   17.10
  -4  -9  -6   20.40   21.10
   5  -9   6    6.30   13.70
   5  -9   6   36.40   16.70
  -5  -9  -6   30.60   21.20
  -6  -9  -6   87.09   28.50
   6  -9   6  121.39   21.00
   7  -9   6   10.60   19.00
   7  -9   6   27.00   12.60
  -7  -9  -6   37.90   25.70
  -8  -9  -6   -1.20   20.30
  -9 -10   6   31.10   24.00
   9 -10  -6    0.40   17.60
   8 -10  -6   42.50   21.00
  -7 -10   6   65.89   27.50
   7 -10  -6   18.60   18.00
   6 -10  -6   -6.90   16.70
  -6 -10   6   -6.00   17.30
  -5 -10   6   17.80   19.60
   5 -10  -6   -0.60   18.10
  -4 -10   6   32.00   19.50
   4 -10  -6   -0.80   15.80
   3 -10  -6   11.10   17.00
  -3 -10   6  -25.70   13.20
  -2 -10   6    3.30   15.60
   2 -10  -6    8.20   19.90
  -1 -10   6   21.60   16.90
   1 -10  -6   13.40   17.80
   0 -10   6   20.90   16.70
   0 -10   6   42.40   24.50
   0 -10  -6   27.50   21.00
   1 -10   6   40.70   24.70
   1 -10   6   82.79   21.00
  -1 -10  -6   18.80   19.80
   2 -10   6   17.50   20.90
   2 -10   6   16.00   18.60
  -2 -10  -6   29.00   29.30
   3 -10   6   22.40   16.70
   3 -10   6   30.10   22.20
  -3 -10  -6    1.30   21.30
   4 -10   6   20.10   19.90
   4 -10   6  -12.20   12.40
  -4 -10  -6  -11.40   17.40
 -21   0   7   88.79   41.40
  21   0  -7  109.49   24.50
 -20   0   7  228.98   35.00
  20   0  -7  141.49   26.40
 -19   0   7   -9.10   15.00
  19   0  -7   21.40   29.50
  18   0  -7  449.95   38.30
 -18   0   7  404.66   45.50
  17   0  -7   35.90   17.90
 -17   0   7   27.40   18.00
 -16   0   7  -11.80   13.10
  16   0  -7    4.30   14.10
  15   0  -7  214.58   27.60
 -15   0   7  168.38   25.80
  14   0  -7  122.09   23.00
 -14   0   7   75.09   19.00
 -13   0   7  219.78   25.30
  13   0  -7  232.88   26.10
 -12   0   7  294.37   26.40
  12   0  -7  323.97   28.80
 -11   0   7   95.59   18.70
  11   0  -7   98.89   18.50
 -10   0   7   -5.10    9.30
  10   0  -7   19.10   11.70
   9   0  -7  238.98   22.70
  -9   0   7  185.58   20.60
   8   0  -7    3.40   10.10
  -8   0   7   11.50   12.30
   7   0  -7  128.89   18.40
  -7   0   7  123.19   18.10
   6   0  -7   87.59   16.20
  -6   0   7   84.89   14.80
   5   0  -7  137.09   17.30
  -5   0   7  129.39   16.90
   4   0  -7  212.38   19.10
  -4   0   7  205.58   18.90
  -3   0   7  114.69   16.10
   3   0  -7   93.69   15.10
  -2   0   7   36.70   10.80
   2   0  -7   16.30    8.90
  -1   0   7    9.00    8.20
   1   0  -7    3.90    8.60
   0   0  -7   25.40   10.60
   0   0   7   42.30   10.80
  -1   0  -7  118.89   16.80
   1   0   7  110.49   14.80
  -2   0  -7   30.40   11.10
   2   0   7   49.80   11.30
   3   0   7   42.40   11.00
  -3   0  -7   36.40   11.40
  -4   0  -7   20.70   10.20
   4   0   7    8.60    8.80
   5   0   7    5.40    8.40
  -5   0  -7    9.60    9.70
   6   0   7   57.89   12.30
  -6   0  -7   52.69   12.80
  -7   0  -7    1.80    9.80
   7   0   7   21.00   11.90
  -8   0  -7   31.90   12.10
  -8   0  -7   22.60   11.20
  -9   0  -7   47.40   14.20
  -9   0  -7   47.20   12.50
 -10   0  -7  185.58   19.70
 -10   0  -7  150.18   20.80
 -11   0  -7   36.70   14.20
 -11   0  -7   43.40   13.00
 -12   0  -7   24.90   12.10
 -12   0  -7    5.00   12.10
 -13   0  -7    1.70   13.40
 -13   0  -7   23.70   14.10
 -14   0  -7   35.90   13.60
 -14   0  -7   -0.10   13.40
 -15   0  -7   16.00   12.30
 -15   0  -7    7.60   13.80
 -16   0  -7   15.40   12.60
 -16   0  -7   23.80   14.50
  21  -1  -7  -12.80   15.30
  21   1  -7   -9.90   15.70
 -21   1   7   -4.30   17.40
 -20   1   7   26.50   19.10
  20   1  -7   -7.50   16.40
 -19  -1   7   18.80   18.20
  19  -1  -7   -2.20   14.40
 -19   1   7   15.00   19.10
  19   1  -7    9.70   16.10
 -18  -1   7   -2.90   16.50
  18  -1  -7   17.80   15.60
 -18   1   7   55.19   22.10
  18   1  -7   20.10   17.70
  17  -1  -7   14.90   14.70
  17   1  -7    4.90   13.70
 -17   1   7  -10.50   15.40
  16  -1  -7   43.50   18.80
 -16  -1   7    2.80   15.70
 -16   1   7   37.70   17.60
  16   1  -7   42.10   19.00
  15  -1  -7   66.29   19.60
 -15  -1   7   38.20   17.30
  15   1  -7   51.89   18.80
 -15   1   7   46.90   17.00
  14  -1  -7  172.08   25.00
 -14  -1   7  228.08   27.40
  14   1  -7  228.68   28.40
 -14   1   7  169.98   25.30
 -13  -1   7  357.16   30.10
  13  -1  -7  323.17   28.00
 -13   1   7  255.17   26.70
  13   1  -7  322.47   30.20
 -12  -1   7   20.70   15.10
  12  -1  -7   51.79   16.20
 -12   1   7   38.10   13.90
  12   1  -7   32.90   15.70
 -11  -1   7  134.89   21.80
  11  -1  -7  147.49   20.80
 -11   1   7  115.39   20.10
  11   1  -7  144.89   23.30
 -10  -1   7    8.70    9.80
  10  -1  -7   30.50   13.50
  10   1  -7   50.39   14.50
 -10   1   7   27.60   12.00
  -9  -1   7    0.40    9.30
   9  -1  -7   15.70   11.00
   9   1  -7   -5.00    9.80
  -9   1   7   26.80   12.60
   8  -1  -7   -9.20    9.80
  -8  -1   7    9.60   11.20
   8   1  -7    2.60   10.60
  -8   1   7    6.80   10.60
   7  -1  -7  252.27   22.40
  -7  -1   7  246.18   22.10
  -7   1   7  290.87   23.50
   7   1  -7  222.48   21.80
   6  -1  -7   94.29   15.30
  -6  -1   7  102.89   17.10
  -6   1   7  124.39   17.50
   6   1  -7  134.29   19.00
  -5  -1   7   -9.10    7.60
  -5   1   7  -13.30    8.50
  -4  -1   7   97.09   15.20
   4  -1  -7   96.99   15.60
  -4   1   7  105.89   15.90
   4   1  -7   97.39   15.30
   3  -1  -7   26.00   11.00
  -3  -1   7   15.40    8.80
   3   1  -7   17.20    9.50
  -3   1   7   28.30   10.60
  -2  -1   7   20.00    8.70
   2  -1  -7   15.10   10.70
  -2   1   7   13.70    9.40
   2   1  -7   12.40    9.30
   1  -1  -7   -5.50    8.70
  -1  -1   7   18.00    9.30
  -1   1   7    5.40    8.20
   1   1  -7    5.50    8.10
   0  -1  -7   12.40   10.10
   0  -1   7   22.10    9.40
   0   1   7   14.00    9.40
   0   1  -7    1.10    8.00
  -1  -1  -7   65.49   14.00
   1  -1   7   80.39   12.90
   1   1   7   42.00   11.60
  -1   1  -7   53.59   11.40
  -2  -1  -7   -7.90    9.00
   2  -1   7   18.30    8.70
   2   1   7    1.70    8.40
  -2   1  -7   -5.40    7.70
   3  -1   7   48.70   10.10
  -3  -1  -7   81.69   14.80
  -3   1  -7   64.79   11.60
   3   1   7   79.09   13.50
  -4  -1  -7    1.30   10.60
   4  -1   7    7.00    7.50
  -4   1  -7    2.30    8.50
   4   1   7    3.50    8.60
  -5  -1  -7  -22.90    8.70
   5  -1   7    5.80    7.20
  -5   1  -7   -4.10    7.60
   5   1   7   -7.90    9.10
  -6  -1  -7  161.68   24.00
   6  -1   7  169.68   16.20
  -6   1  -7  173.18   15.80
   6   1   7  141.79   19.90
  -7  -1  -7   40.90   14.20
  -7   1  -7   14.20    9.50
   7   1   7   24.40   14.10
  -8  -1  -7   31.40   13.90
  -8  -1  -7   31.00   12.50
  -8   1  -7   20.80    9.00
  -8   1  -7   15.10    8.20
  -9  -1  -7    7.30   19.10
  -9  -1  -7   26.60   15.00
  -9   1  -7   39.90   10.90
  -9   1  -7   27.90    8.80
 -10  -1  -7   46.40   16.50
 -10  -1  -7   93.19   18.60
 -10   1  -7   41.70   10.30
 -10   1  -7   75.29   12.40
 -11  -1  -7   -3.70   12.40
 -11  -1  -7    8.30   14.30
 -11   1  -7   30.20    9.60
 -11   1  -7  -11.10    8.20
 -12  -1  -7   38.90   17.30
 -12  -1  -7    2.90   13.90
 -12   1  -7   26.90    9.40
 -12   1  -7   33.80    9.70
 -13  -1  -7   29.20   17.50
 -13  -1  -7   41.80   16.20
 -14  -1  -7    2.60   14.50
 -14  -1  -7    7.70   15.70
 -15  -1  -7   -3.60   15.10
 -15  -1  -7   25.80   17.10
 -16  -1  -7    2.10   17.50
 -16  -1  -7    2.80   16.70
  21  -2  -7    5.00   17.60
 -21   2   7    0.80   24.10
  21   2  -7    7.00   16.90
  20  -2  -7   47.60   19.30
 -20   2   7   38.80   20.50
  20   2  -7   38.40   21.70
  19  -2  -7   13.30   15.30
  19   2  -7   24.90   18.30
 -19   2   7   -0.40   16.90
 -18  -2   7   41.20   20.40
  18  -2  -7   80.89   20.80
 -18   2   7   71.59   21.20
  18   2  -7  117.39   24.90
  17  -2  -7   22.60   15.70
 -17  -2   7    0.90   16.00
 -17   2   7    4.40   15.90
  17   2  -7  -12.50   14.60
 -16  -2   7   20.60   16.50
  16  -2  -7   -5.30   13.40
  16   2  -7  -10.90   13.30
 -16   2   7    5.90   14.90
 -15  -2   7   59.09   19.90
  15  -2  -7   -9.70   12.90
 -15   2   7   -0.30   13.70
  15   2  -7   -7.70   15.60
  14  -2  -7    0.40   12.60
 -14  -2   7    0.40   13.10
 -14   2   7   -5.40   12.00
  14   2  -7    2.70   15.30
  13  -2  -7   14.30   13.20
 -13  -2   7   12.00   14.00
  13   2  -7   21.80   15.40
 -13   2   7   26.50   14.80
 -12  -2   7   69.19   18.30
  12  -2  -7   80.19   17.90
 -12   2   7   78.79   17.10
  12   2  -7    7.10   15.20
 -11  -2   7    1.30   12.10
  11  -2  -7   -7.00    9.00
  11   2  -7    1.80   12.90
 -11   2   7   10.20   10.70
  10  -2  -7    1.00   10.10
 -10  -2   7   30.00   12.50
 -10   2   7    7.10   12.00
  10   2  -7   12.10   12.20
  -9  -2   7  136.99   21.50
   9  -2  -7  123.09   19.10
   9   2  -7  110.09   20.00
  -9   2   7  129.69   19.30
  -8  -2   7   -1.20    9.90
   8  -2  -7   17.10   11.60
   8   2  -7   -8.90   10.20
  -7  -2   7  139.19   20.10
   7  -2  -7  165.88   20.20
  -7   2   7  178.68   20.00
   7   2  -7  166.98   21.40
   6  -2  -7   12.70   10.90
  -6  -2   7   32.30   14.20
  -6   2   7   22.00   10.70
   6   2  -7   22.30   12.80
  -5  -2   7   40.40   12.10
   5  -2  -7   53.09   13.50
  -5   2   7   51.09   13.50
   5   2  -7   46.20   13.50
   4  -2  -7   47.70   13.90
  -4  -2   7   67.59   15.10
  -4   2   7   53.49   12.80
  -3  -2   7   26.90   10.90
   3  -2  -7   24.50   11.60
  -3   2   7   40.40   11.90
   3   2  -7   33.10   11.50
  -2  -2   7    0.00    8.00
   2  -2  -7  -14.20    8.10
  -2   2   7   -5.70    8.90
   2   2  -7    2.50    9.10
   1  -2  -7   -4.20    8.50
  -1  -2   7    0.10    7.70
   1   2  -7   -0.50    8.30
  -1   2   7    1.20    8.20
   0  -2   7    5.20    8.30
   0  -2  -7  -10.30    9.20
   0   2  -7   -3.60    8.30
   0   2   7   -2.20    7.50
   1  -2   7   13.50    8.20
  -1  -2  -7   14.40   11.20
   1   2   7   16.20   10.80
  -1   2  -7   21.00    9.60
  -2  -2  -7   21.80   12.40
   2  -2   7   32.90    9.80
   2   2   7    9.30   10.30
  -2   2  -7   36.30   10.00
   3  -2   7   56.09    9.90
  -3  -2  -7   43.00   13.90
   3   2   7   32.70   12.60
  -3   2  -7   52.19   10.30
  -4  -2  -7   22.20   12.70
   4  -2   7   14.00    6.90
  -4   2  -7    8.90    6.90
   5  -2   7   -2.40    5.80
  -5  -2  -7   19.40   12.60
   5   2   7    8.70    9.60
  -5   2  -7  -14.20    6.60
  -6  -2  -7    2.80   11.20
   6  -2   7    9.00    6.40
   6   2   7  -16.30    9.70
  -6   2  -7   -6.60    6.20
  -7  -2  -7   45.80   15.40
  -7   2  -7   26.60    6.10
   7   2   7    2.50   12.00
  -8  -2  -7   15.80   13.40
  -8  -2  -7    7.20   14.30
  -9  -2  -7   33.80   17.00
  -9  -2  -7   12.20   14.90
 -10  -2  -7   59.19   17.00
 -10  -2  -7   41.10   18.10
 -11  -2  -7    0.40   13.50
 -11  -2  -7    0.40   16.10
 -12  -2  -7   20.30   16.60
 -12  -2  -7   20.10   16.60
 -13  -2  -7   26.00   16.30
 -13  -2  -7  -28.30   14.40
 -14  -2  -7    2.30   15.40
 -14  -2  -7   10.10   19.10
 -15  -2  -7   40.20   20.40
 -15  -2  -7   35.80   22.20
  20  -3  -7   -4.90   14.70
 -20   3   7   10.50   17.30
  20   3  -7   15.90   20.00
  19  -3  -7    3.00   14.50
 -19   3   7   26.30   16.80
  19   3  -7   14.30   18.50
  18  -3  -7   19.10   16.20
 -18   3   7   -1.20   15.00
  18   3  -7   37.40   21.40
  17  -3  -7  -10.20   12.80
  17   3  -7   36.90   21.20
 -17   3   7    2.30   14.20
 -16  -3   7   -3.50   15.10
  16  -3  -7   -2.20   13.10
  16   3  -7   19.60   19.30
 -16   3   7    6.50   14.40
  15  -3  -7   90.59   20.00
 -15  -3   7  117.79   25.50
 -15   3   7  165.78   26.10
  15   3  -7  106.19   27.50
  14  -3  -7  235.68   26.50
  14   3  -7  198.98   30.40
 -14   3   7  169.88   25.70
 -13  -3   7  224.28   29.80
  13  -3  -7  203.58   25.90
  13   3  -7  189.98   29.60
 -13   3   7  215.28   25.70
 -12  -3   7  164.68   25.30
  12  -3  -7  154.28   22.90
 -12   3   7  162.18   23.30
  12   3  -7  143.69   25.20
  11  -3  -7  133.39   20.80
 -11  -3   7  106.69   22.10
 -11   3   7   97.89   18.60
  11   3  -7  126.29   23.10
 -10  -3   7  206.28   26.30
  10  -3  -7  200.78   22.70
 -10   3   7  206.88   23.30
  10   3  -7  168.68   25.30
  -9  -3   7   42.80   15.80
   9  -3  -7   19.00   12.40
   9   3  -7   40.80   16.40
  -9   3   7    6.40   11.10
  -8  -3   7   12.70   13.10
   8  -3  -7   22.60   11.50
  -8   3   7    7.20   10.60
   8   3  -7  -20.90    9.40
   7  -3  -7   44.70   13.90
  -7  -3   7   19.70   13.30
  -7   3   7   37.30   12.10
   7   3  -7   27.80   15.10
   6  -3  -7  139.09   20.10
  -6  -3   7  135.29   20.10
  -6   3   7  119.09   18.00
   6   3  -7  128.19   20.10
   5  -3  -7   22.50   12.10
  -5  -3   7    5.20   11.20
  -5   3   7   -6.90    9.00
   5   3  -7   -4.00   11.90
   4  -3  -7   69.69   17.00
  -4  -3   7   86.49   17.60
   4   3  -7   77.29   16.50
  -4   3   7   67.69   16.20
   3  -3  -7   -3.10   10.00
  -3  -3   7  -15.60    8.00
   3   3  -7   21.50   12.00
  -3   3   7    2.20    9.80
  -2  -3   7    4.50    9.50
   2  -3  -7   -1.60   10.10
   2   3  -7  -12.40    8.60
  -2   3   7   -7.40    8.30
   1  -3  -7    0.50   10.20
  -1  -3   7   -2.40    7.90
  -1   3   7  -14.70    7.10
   1   3  -7    0.40    9.40
   0  -3  -7    2.50   10.30
   0  -3   7  -10.40    7.00
   0   3   7    5.90   10.00
   0   3  -7   -6.40    8.90
   1  -3   7    3.60    8.20
  -1  -3  -7   13.50   11.60
  -1   3  -7   12.30    9.30
   1   3   7    9.50   11.00
   2  -3   7    3.20    7.60
  -2  -3  -7   25.20   12.60
   2   3   7   10.30    9.70
  -2   3  -7   -4.00    7.80
   3  -3   7   43.10    9.50
  -3  -3  -7   24.70   13.40
   3   3   7   37.90   14.20
  -3   3  -7   50.29   10.00
  -4  -3  -7   24.70   13.80
   4  -3   7   45.60    8.60
   4   3   7   46.30   16.30
  -4   3  -7   24.30    7.90
  -5  -3  -7   84.79   19.30
   5  -3   7   61.99    8.10
  -5   3  -7   60.39    8.90
   5   3   7   30.30   14.10
  -6  -3  -7  139.19   23.10
   6   3   7   59.19   17.60
  -7  -3  -7    1.20   12.40
  -8  -3  -7   12.20   14.10
  -8  -3  -7   27.20   17.30
  -9  -3  -7    0.20   14.70
  -9  -3  -7    5.30   14.50
 -10  -3  -7   36.50   18.60
 -10  -3  -7   25.30   17.40
 -11  -3  -7   28.80   17.60
 -11  -3  -7  -16.80   16.40
 -12  -3  -7   38.10   18.70
 -12  -3  -7    8.60   18.70
 -13  -3  -7   11.00   19.30
 -13  -3  -7   39.40   31.90
 -14  -3  -7  -18.10   17.50
 -14  -3  -7  -10.70   20.30
 -15  -3  -7   -2.50   20.60
 -15  -3  -7   49.70   23.30
  19  -4  -7   64.89   19.70
 -19   4   7   80.99   22.10
  19   4  -7   95.39   29.10
  18  -4  -7   17.30   14.80
 -18   4   7   41.80   17.80
  18   4  -7   30.40   22.20
  17  -4  -7   28.40   15.20
 -17   4   7   -5.70   14.30
  17   4  -7   -8.60   16.40
  16  -4  -7   25.50   15.70
 -16   4   7   33.40   17.70
  16   4  -7   -0.50   16.80
  15  -4  -7   32.10   16.20
 -15  -4   7  -18.30   14.10
  15   4  -7    3.20   18.30
 -15   4   7   19.40   14.90
 -14  -4   7   31.10   20.00
  14  -4  -7   30.10   16.00
 -14   4   7   39.30   18.00
  14   4  -7  -16.40   16.20
 -13  -4   7   -6.40   12.50
  13  -4  -7   -5.70   11.80
 -13   4   7    6.40   13.30
  13   4  -7   29.70   23.90
 -12  -4   7   19.60   15.90
  12  -4  -7   -0.50   12.80
 -12   4   7    4.30   11.90
  12   4  -7   -7.40   12.70
 -11  -4   7   -4.10   12.70
  11  -4  -7   22.60   11.40
 -11   4   7   -3.10   10.20
  11   4  -7    3.50   15.60
 -10  -4   7   20.40   14.80
  10  -4  -7   27.90   13.00
 -10   4   7   48.60   15.40
  10   4  -7   21.20   14.90
   9  -4  -7   13.80   12.70
  -9  -4   7    4.40   12.90
  -9   4   7  -13.60    9.50
   9   4  -7   -2.30   11.90
  -8  -4   7   86.49   20.30
   8  -4  -7  123.39   20.10
  -8   4   7  100.59   19.40
   8   4  -7   90.09   21.70
  -7  -4   7   -7.70   11.80
   7  -4  -7    1.30   10.60
   7   4  -7    4.70   12.90
  -7   4   7    2.50   11.30
  -6  -4   7   -1.40   10.00
   6  -4  -7  -13.20    8.80
   6   4  -7    1.30   10.80
  -6   4   7   11.30   11.10
   5  -4  -7  -17.20    9.70
  -5  -4   7    2.20   10.00
  -5   4   7   -5.40    8.40
   5   4  -7    2.50   11.50
   4  -4  -7    7.90   10.40
  -4  -4   7    6.20   10.80
  -4   4   7   14.70   10.70
   4   4  -7   -5.00   10.20
   3  -4  -7   -5.80   10.60
  -3   4   7    9.90   10.10
   3   4  -7   -5.50    9.40
  -2  -4   7  -11.60    8.00
   2  -4  -7    9.90   11.90
  -2   4   7   23.20   13.00
   2   4  -7    6.80   10.20
  -1  -4   7    3.60    9.20
   1  -4  -7   -1.70   10.90
  -1   4   7   -1.60   10.50
   0  -4   7   -1.10    8.50
   0  -4  -7   -0.70   11.50
   0   4  -7   10.30    9.80
   0   4   7   -0.40   10.60
   1  -4   7    4.50    9.20
  -1  -4  -7   12.50   12.50
  -1   4  -7   -5.40    9.70
   1   4   7    5.00   11.90
   2  -4   7   -2.50    7.50
  -2  -4  -7    5.80   12.20
  -2   4  -7    8.40    8.60
   2   4   7   -5.60   10.40
  -3  -4  -7  -12.10   11.00
   3  -4   7   -5.90    7.30
   3   4   7   23.40   14.50
  -3   4  -7   -3.50    8.10
  -4  -4  -7   12.10   13.60
   4  -4   7   -1.50    7.30
  -4   4  -7   -6.10    6.20
   4   4   7  -10.90   10.10
  -5  -4  -7  -10.10   11.80
   5  -4   7   -5.30    5.80
   5   4   7    3.40   12.60
  -6  -4  -7   10.30   14.40
   6   4   7    3.80   15.20
  -7  -4  -7   12.90   14.60
  -7  -4  -7  -10.00   13.80
  -8  -4  -7   38.80   19.00
  -8  -4  -7   33.50   18.10
  -9  -4  -7   41.90   18.80
  -9  -4  -7   46.90   20.00
 -10  -4  -7   51.09   22.50
 -10  -4  -7   40.40   30.30
 -11  -4  -7   14.00   23.80
 -11  -4  -7   33.50   19.20
 -12  -4  -7   28.90   19.50
 -12  -4  -7    9.00   18.10
 -13  -4  -7    6.30   21.10
 -13  -4  -7    0.70   19.70
 -14  -4  -7   13.20   20.80
  19  -5  -7   10.80   14.70
  19   5  -7    0.40   32.30
 -19   5   7  -13.60   17.60
  18  -5  -7   -5.30   13.90
 -18   5   7    3.40   17.80
  18   5  -7   19.80   22.30
  17  -5  -7   24.20   16.40
  17   5  -7   17.50   19.70
 -17   5   7   19.20   17.40
  16  -5  -7   13.90   15.20
  16   5  -7   10.40   18.90
 -16   5   7   66.59   20.30
  15  -5  -7   25.60   16.80
  15   5  -7    4.30   19.40
 -15   5   7   42.30   19.20
  14  -5  -7  130.99   23.60
 -14   5   7  223.88   31.90
  14   5  -7  163.28   30.90
  13  -5  -7  167.58   25.10
 -13  -5   7  149.09   29.50
 -13   5   7  156.68   25.60
  13   5  -7  154.28   30.20
  12  -5  -7   92.09   20.10
 -12  -5   7  128.09   27.50
 -12   5   7  128.59   25.30
  12   5  -7  122.79   27.00
  11  -5  -7   19.00   13.70
 -11  -5   7   60.99   20.10
 -11   5   7   12.70   15.60
  11   5  -7   27.90   19.70
  10  -5  -7   10.70   13.00
 -10  -5   7   14.60   15.20
  10   5  -7   15.60   16.50
 -10   5   7   18.70   14.30
   9  -5  -7   -6.60   11.40
  -9  -5   7   -4.20   13.30
   9   5  -7    5.90   15.10
  -9   5   7   -0.80   11.30
  -8  -5   7   74.19   21.00
   8  -5  -7   61.39   16.50
  -8   5   7   30.70   13.90
   8   5  -7   41.80   18.90
   7  -5  -7   80.89   18.10
  -7  -5   7   92.39   21.90
  -7   5   7   36.50   14.20
   7   5  -7   48.00   18.30
  -6  -5   7   62.09   18.20
   6  -5  -7   40.90   16.30
   6   5  -7   47.10   16.70
  -6   5   7   48.20   16.00
   5  -5  -7   19.50   14.00
  -5  -5   7   21.50   15.70
  -5   5   7   20.50   13.40
   5   5  -7   -4.90   11.40
   4  -5  -7    6.20   12.10
  -4  -5   7   17.40   12.60
   4   5  -7   23.90   12.90
  -4   5   7   11.50   11.00
   3  -5  -7   27.70   13.90
  -3  -5   7   11.10   12.70
  -3   5   7   12.70   11.10
   3   5  -7    7.10   11.90
   2  -5  -7   -9.60   10.70
  -2  -5   7    5.40   10.40
  -2   5   7    7.60   11.30
   2   5  -7    4.50   11.80
   1  -5  -7    6.50   11.00
   1   5  -7  -15.80    9.00
  -1   5   7    9.00   11.90
   0  -5   7    0.00    9.80
   0  -5  -7  -14.00   10.70
   0   5   7   -2.10   10.30
   0   5  -7   17.60   11.70
  -1  -5  -7  -12.10   10.70
   1  -5   7    8.50   10.40
  -1   5  -7   11.40   12.20
   1   5   7   29.40   13.00
   2  -5   7  -12.80    8.40
  -2  -5  -7   13.10   13.70
   2   5   7  -14.50    9.10
  -2   5  -7   -2.10    9.10
  -3  -5  -7   36.60   16.40
   3  -5   7   10.50    9.00
   3   5   7    5.30   13.20
  -3   5  -7   18.90   10.10
   4  -5   7    5.10    9.20
  -4  -5  -7   39.80   17.60
   4   5   7   25.60   16.30
  -5  -5  -7   10.70   15.10
   5  -5   7   33.70    9.10
   5  -5   7   12.80    7.80
   5   5   7   22.10   17.10
  -6  -5  -7    9.00   15.30
  -6  -5  -7   12.30   16.20
  -7  -5  -7  -20.60   13.20
  -7  -5  -7   12.60   17.40
  -8  -5  -7    3.90   16.10
  -9  -5  -7  -16.30   14.60
  -9  -5  -7   14.40   18.30
 -10  -5  -7  -15.00   17.20
 -10  -5  -7  -19.20   15.80
 -11  -5  -7  -22.90   17.40
 -12  -5  -7   18.70   21.80
 -13  -5  -7   19.40   22.10
  18  -6  -7   17.30   16.10
  18   6  -7   31.40   24.00
 -18   6   7   40.00   21.70
  17  -6  -7    5.00   15.40
 -17   6   7  -11.40   16.60
  17   6  -7    4.40   21.30
  16  -6  -7   23.30   18.20
  16   6  -7   -7.20   17.60
 -16   6   7   43.10   22.30
  15  -6  -7   23.50   15.00
 -15   6   7   35.60   19.70
  15   6  -7   -4.10   18.20
  14  -6  -7   28.90   16.00
  14   6  -7   30.20   21.10
 -14   6   7   -6.20   14.80
  13  -6  -7    1.40   13.70
 -13   6   7   18.10   15.20
  13   6  -7   17.80   17.40
  12  -6  -7   65.99   18.80
  12   6  -7   42.10   21.60
 -12   6   7   33.40   17.60
  11  -6  -7   15.80   15.00
 -11  -6   7   -4.20   17.90
  11   6  -7   21.00   17.70
 -11   6   7   -0.40   13.60
 -10  -6   7   19.20   17.70
  10  -6  -7   30.20   15.90
 -10   6   7   -9.40   13.60
  10   6  -7   -3.70   16.70
  -9  -6   7  131.29   28.20
   9  -6  -7   44.00   17.60
   9   6  -7   52.09   33.30
  -9   6   7   47.30   17.30
  -8  -6   7   36.10   20.30
   8  -6  -7   44.90   16.70
   8   6  -7  -11.60   14.50
  -8   6   7   24.30   13.70
   7  -6  -7   42.30   16.50
  -7  -6   7   67.79   22.60
   7   6  -7   21.60   16.80
  -7   6   7    9.00   14.10
  -6  -6   7   27.80   20.30
   6  -6  -7  -11.80   12.20
  -6   6   7  -10.20   11.00
   6   6  -7   28.50   16.40
  -5  -6   7  -15.40   12.70
   5  -6  -7   -2.90   13.60
   5   6  -7   -2.30   13.20
  -5   6   7    7.80   10.50
  -4  -6   7   -4.60   13.90
   4  -6  -7    9.90   13.20
   4   6  -7    2.10   13.60
  -4   6   7    0.20   10.10
   3  -6  -7   -6.90   10.70
  -3  -6   7   31.60   15.80
  -3   6   7   -3.80   12.10
   3   6  -7   -1.60   12.80
   2  -6  -7  -14.40   12.00
  -2  -6   7  -14.40   10.30
  -2   6   7   14.30   14.20
   2   6  -7   -7.20   11.30
  -1  -6   7   11.50   13.30
   1  -6  -7   -6.80   13.10
   1   6  -7  -30.30    9.90
  -1   6   7    5.80   14.10
   0  -6  -7    7.40   14.20
   0  -6   7    4.40   11.60
   0   6   7  -15.90   10.70
   0   6  -7    4.10   11.30
  -1  -6  -7  -16.10   11.20
   1  -6   7   20.90   24.00
   1   6   7    7.00   11.60
  -1   6  -7   -8.50   10.20
  -2  -6  -7  -15.90   14.40
   2  -6   7   29.30   12.50
   2   6   7    7.70   14.20
  -3  -6  -7  -11.40   12.90
   3  -6   7   10.30   14.30
   3  -6   7   -7.50    9.70
   3   6   7   -6.90   21.40
   4  -6   7   -1.80    8.90
   4  -6   7    7.70    9.60
  -4  -6  -7    0.60   17.20
   4   6   7  -13.90   13.20
  -5  -6  -7   13.30   16.80
  -5  -6  -7    4.40   15.20
   5  -6   7    1.50    8.70
   5  -6   7    3.50    8.40
  -6  -6  -7   17.90   18.10
   6  -6   7    1.30    6.60
  -6  -6  -7   13.80   17.70
  -7  -6  -7   -5.90   15.70
  -7  -6  -7   12.90   20.10
  -8  -6  -7   24.90   20.10
  -9  -6  -7   10.20   20.40
 -10  -6  -7   22.00   20.00
 -11  -6  -7   64.19   24.80
 -12  -6  -7    3.40   21.00
  16  -7  -7   31.00   18.20
 -16   7   7   54.19   23.50
  16   7  -7  -11.90   20.70
  15  -7  -7   29.90   17.40
  15   7  -7   44.70   27.00
 -15   7   7   41.90   20.70
  14  -7  -7    7.30   15.30
  14   7  -7   79.99   27.30
 -14   7   7   25.00   20.50
  13  -7  -7   77.89   19.60
  13   7  -7  102.99   30.20
 -13   7   7   85.19   25.10
  12  -7  -7   53.99   18.70
 -12   7   7   44.00   21.10
  12   7  -7  -11.70   16.80
  11  -7  -7   33.40   16.90
 -11   7   7   16.10   18.00
  11   7  -7   36.80   21.50
  10  -7  -7   29.70   16.40
  10   7  -7   16.50   19.70
 -10   7   7   18.10   16.30
  -9  -7   7  -13.90   17.70
   9  -7  -7   -1.40   14.80
  -9   7   7    0.50   14.20
   9   7  -7  -11.30   14.50
  -8  -7   7  -14.90   15.10
   8  -7  -7  -17.50   13.00
  -8   7   7  -10.80   13.00
   8   7  -7  -17.00   13.10
  -7  -7   7   58.19   24.00
   7  -7  -7   26.30   17.40
  -7   7   7   19.80   15.10
   7   7  -7   78.39   27.60
  -6  -7   7   10.60   26.30
   6  -7  -7  -10.40   12.80
   6   7  -7  -15.30   12.80
  -6   7   7  -16.70   11.50
   5  -7  -7  -13.00   13.20
  -5  -7   7    9.60   17.00
  -5   7   7   19.80   16.20
   5   7  -7    5.00   14.80
  -4  -7   7   15.90   17.50
   4  -7  -7   19.90   15.70
   4   7  -7   23.60   16.90
  -4   7   7  -15.30   12.30
  -3  -7   7    8.40   16.90
   3  -7  -7   -3.60   13.50
   3   7  -7    2.10   13.50
  -3   7   7   -9.50   26.70
  -2  -7   7   11.30   15.10
   2  -7  -7   -2.00   15.40
  -2   7   7    9.50   14.40
   2   7  -7    4.20   14.50
  -1  -7   7    5.10   15.50
   1  -7  -7   21.70   22.00
  -1   7   7   12.10   13.30
   1   7  -7   12.40   13.00
   0  -7  -7   21.30   18.60
   0  -7   7  -18.60   12.60
   0   7   7   19.70   15.10
   1  -7   7   18.30   14.80
   1  -7   7   -3.50   12.90
  -1  -7  -7   35.10   19.50
   1   7   7   13.00   17.40
   2  -7   7  -32.00    9.10
   2  -7   7    5.50   11.60
  -2  -7  -7   -7.20   15.80
   2   7   7   -0.30   14.60
   3  -7   7   -2.30   11.00
  -3  -7  -7    8.10   15.90
   3  -7   7   30.40   22.60
   3   7   7   27.60   17.90
   4  -7   7   -0.80   10.20
   4  -7   7   25.40   12.60
  -4  -7  -7  -32.80   13.80
   5  -7   7  -12.10    8.90
   5  -7   7   -7.00    9.70
  -5  -7  -7  -20.70   14.30
   6  -7   7   12.90    8.90
  -6  -7  -7   16.70   18.30
   6  -7   7   11.20    9.40
  -7  -7  -7    5.20   18.90
  -8  -7  -7   -0.60   17.20
  -9  -7  -7   20.40   21.60
 -10  -7  -7  -22.70   17.10
 -11  -7  -7   -1.30   18.90
  14  -8  -7   35.30   18.90
  14   8  -7   72.59   31.00
 -14   8   7  -32.40   22.00
  13  -8  -7   28.30   17.40
  13   8  -7  -12.80   19.10
 -13   8   7   20.20   23.90
  12  -8  -7   26.40   20.20
  12   8  -7    5.50   20.20
 -12   8   7   46.60   23.70
  11  -8  -7   30.60   32.00
  11   8  -7    7.10   18.90
 -11   8   7  -16.20   17.40
  10   8  -7    7.30   18.20
 -10   8   7   27.70   20.10
   9  -8  -7   13.80   25.40
   9   8  -7   88.09   27.20
  -9   8   7    7.40   19.10
   8  -8  -7   15.30   19.80
  -8   8   7    0.90   20.90
   8   8  -7    8.80   18.40
   7  -8  -7   10.50   17.50
   7   8  -7   47.30   22.50
  -7   8   7   34.60   19.90
   6  -8  -7   12.10   18.00
  -6  -8   7  -14.10   17.40
   6   8  -7    1.60   16.00
  -6   8   7    1.00   18.30
   5  -8  -7   16.20   18.00
  -5  -8   7   10.60   17.30
  -5   8   7    8.60   15.10
   5   8  -7    8.30   17.20
   4  -8  -7    4.60   16.90
  -4  -8   7   35.90   20.10
  -4   8   7   29.40   17.80
   3  -8  -7  -17.20   13.60
  -3  -8   7   29.40   35.30
  -3   8   7   36.90   18.80
   2  -8  -7   -6.90   14.50
  -2  -8   7   22.20   17.90
  -2  -8   7   14.30   16.60
  -2   8   7  -21.80   12.50
   1  -8  -7  -11.00   13.80
  -1  -8   7   -9.30   16.70
  -1  -8   7   17.40   15.10
   0  -8   7   26.00   16.40
   0  -8   7    7.30   17.00
   0  -8  -7   -1.40   15.30
   1  -8   7   20.20   15.20
  -1  -8  -7   -1.60   16.70
   1  -8   7    8.20   15.30
  -2  -8  -7   -2.80   14.60
   2  -8   7   20.50   16.20
   2  -8   7   16.90   14.00
   3  -8   7   33.00   16.10
   3  -8   7   -0.80   10.90
  -3  -8  -7   11.90   19.70
   4  -8   7    5.90   11.60
  -4  -8  -7    5.50   17.00
   4  -8   7   18.70   14.40
   5  -8   7   14.80   11.80
   5  -8   7   -2.30   10.50
  -5  -8  -7   -5.50   16.50
  -6  -8  -7    0.40   17.60
   6  -8   7   -4.20    9.70
   6  -8   7   -7.90   10.00
  -7  -8  -7   -5.90   19.70
  -8  -8  -7   14.50   20.30
 -12  -9   7  -15.60   21.80
  12  -9  -7   26.50   17.50
 -12   9   7   -7.30   25.70
  11  -9  -7    4.70   15.70
 -11  -9   7   63.69   54.69
 -11   9   7   -1.00   34.40
 -10  -9   7  -13.70   17.20
  10  -9  -7  -11.10   15.60
  -9  -9   7    4.60   21.00
   9  -9  -7   -3.80   16.20
  -8  -9   7    1.80   19.90
   8  -9  -7    8.90   17.00
   7  -9  -7   32.20   19.90
  -7  -9   7    7.00   20.90
   6  -9  -7   16.70   18.60
  -6  -9   7   12.60   19.50
  -5  -9   7    1.20   16.20
   5  -9  -7    5.70   17.30
  -4  -9   7   38.00   19.70
   4  -9  -7   -3.00   16.60
  -3  -9   7   13.70   19.80
  -3  -9   7   30.00   18.70
   3  -9  -7   -9.40   16.40
  -2  -9   7   -0.50   21.00
  -2  -9   7   -0.90   15.70
   2  -9  -7  -10.60   16.80
  -1  -9   7    6.90   18.20
  -1  -9   7    2.40   20.70
   1  -9  -7   40.70   21.30
   0  -9  -7  -23.20   14.40
   0  -9   7  -20.00   19.10
   0  -9   7  -13.40   11.40
   1  -9   7    5.70   18.60
  -1  -9  -7  -11.00   19.10
   1  -9   7    9.80   13.00
  -2  -9  -7   -1.00   17.60
   2  -9   7   -8.20   12.40
   2  -9   7   38.50   18.60
   3  -9   7   18.40   14.30
  -3  -9  -7   43.40   22.90
   3  -9   7   40.30   18.30
  -4  -9  -7  -11.30   18.90
   4  -9   7    2.60   13.90
   4  -9   7   16.70   13.60
   5  -9   7  -11.70   12.20
   5  -9   7   -2.20   13.80
  -5  -9  -7   -6.40   18.20
   6  -9   7   -0.80   12.30
   6  -9   7    8.30   13.00
  -6  -9  -7   24.00   23.90
   7  -9   7    9.10   10.20
   7  -9   7   -5.30    9.60
  -7  -9  -7    8.50   21.40
  -8 -10   7   16.00   38.20
   8 -10  -7  -13.20   15.40
  -7 -10   7    5.00   20.30
   7 -10  -7    4.30   18.10
   6 -10  -7   13.90   19.20
  -6 -10   7   15.70   19.20
   5 -10  -7   25.30   21.00
  -5 -10   7   18.30   21.40
  -4 -10   7  -19.70   16.00
   4 -10  -7    1.00   16.40
  -3 -10   7   11.70   16.80
   3 -10  -7   -8.70   15.50
  -2 -10   7   13.30   17.90
   2 -10  -7    6.00   20.50
  -1 -10   7    8.40   17.80
   1 -10  -7  -21.40   16.00
   0 -10   7  -11.40   12.60
   0 -10   7    8.60   23.50
   0 -10  -7   -1.60   18.00
   1 -10   7   10.30   14.90
   1 -10   7   -4.30   20.20
   2 -10   7   14.50   21.20
  -2 -10  -7    9.80   20.00
   3 -10   7    6.50   15.00
  -3 -10  -7   -9.10   19.80
   3 -10   7   -3.60   18.80
  21   0  -8   93.29   23.50
  20   0  -8  102.39   23.80
 -20   0   8  142.29   31.70
  19   0  -8   21.30   19.20
 -19   0   8    7.70   19.00
 -18   0   8  219.48   32.30
 -17   0   8   19.60   17.40
  17   0  -8  -10.30   14.10
  16   0  -8  108.19   23.60
 -16   0   8  153.88   25.70
 -15   0   8   69.49   20.90
  15   0  -8  106.89   22.90
 -14   0   8  539.55   36.90
  14   0  -8  538.25   37.20
  13   0  -8   -3.50   13.70
 -13   0   8   -3.50   10.60
 -12   0   8  524.05   34.00
  12   0  -8  578.94   35.90
 -11   0   8  979.90   43.90
  11   0  -8  937.11   42.80
 -10   0   8    4.80   10.50
  10   0  -8    7.90   11.40
   9   0  -8  967.90   40.80
  -9   0   8  761.02   37.40
  -8   0   8   17.10   11.30
   8   0  -8   -3.20    9.30
  -7   0   8  505.25   29.80
   7   0  -8  508.75   30.40
   6   0  -8  124.79   18.40
  -6   0   8   94.19   17.50
   5   0  -8 1802.52   53.49
  -5   0   8 1693.43   52.99
  -4   0   8  816.82   34.60
   4   0  -8  779.82   34.00
  -3   0   8 2048.90   56.99
   2   0  -8  441.36   25.60
  -2   0   8  420.26   25.60
  -1   0   8   -9.40    7.00
   1   0  -8    7.30   10.10
   0   0  -8   86.99   15.20
   0   0   8   80.49   13.80
   1   0   8  289.77   20.60
  -1   0  -8  274.27   21.60
  -2   0  -8  732.13   32.00
   2   0   8  700.43   30.10
  -3   0  -8   70.99   14.00
   3   0   8  112.49   16.40
   4   0   8   46.70   12.20
  -4   0  -8   30.90   12.80
   5   0   8  449.06   25.20
  -5   0  -8  424.76   26.10
  -6   0  -8  223.38   21.40
   6   0   8  230.38   21.20
   7   0   8   26.80   12.40
  -7   0  -8   15.10   11.70
  -8   0  -8  303.07   24.80
  -8   0  -8  252.17   22.30
  -9   0  -8  804.12   33.40
  -9   0  -8  788.72   35.60
 -10   0  -8   25.40   12.80
 -10   0  -8    3.40   12.90
 -11   0  -8  130.99   27.30
 -11   0  -8  137.19   20.00
 -12   0  -8   -3.50   11.40
 -13   0  -8   -5.00   11.40
 -13   0  -8   21.00   26.60
 -14   0  -8    7.30   13.50
 -14   0  -8   -7.80   17.30
 -15   0  -8   48.30   13.40
 -15   0  -8   36.20   15.30
  21  -1  -8   -1.60   14.80
  21   1  -8   16.30   20.10
 -21   1   8  -11.60   18.40
  20  -1  -8  -21.30   14.00
  20   1  -8   13.50   16.50
 -20   1   8  -24.20   16.20
 -19  -1   8   23.80   24.70
  19   1  -8   25.80   19.30
 -19   1   8  -17.30   16.00
 -18  -1   8   34.50   19.80
  18  -1  -8   37.20   19.50
 -18   1   8   35.10   20.20
  18   1  -8   70.59   22.60
  17  -1  -8   13.70   16.60
 -17  -1   8    2.40   15.20
 -17   1   8   -0.70   16.50
 -16  -1   8   21.30   20.80
  16  -1  -8   64.39   20.20
  16   1  -8   44.10   19.10
 -16   1   8   59.19   19.70
 -15  -1   8  181.48   27.60
  15  -1  -8  145.99   24.80
  15   1  -8  176.38   29.20
 -15   1   8  142.89   25.30
 -14  -1   8  162.38   26.60
  14  -1  -8  166.88   24.90
  14   1  -8  180.88   27.10
 -14   1   8  186.78   28.20
 -13  -1   8  352.06   31.20
  13  -1  -8  454.55   33.20
  13   1  -8  375.26   32.70
 -13   1   8  330.57   31.20
  12  -1  -8   -0.10   12.00
 -12  -1   8   -1.50   11.70
 -12   1   8    9.10   11.90
  12   1  -8   -1.80   11.50
  11  -1  -8  206.18   23.70
 -11  -1   8  155.68   22.00
  11   1  -8  171.28   24.40
 -11   1   8  144.99   21.80
  10  -1  -8   59.39   16.40
 -10  -1   8   18.70   13.00
 -10   1   8   35.10   14.00
  10   1  -8   34.20   14.70
  -9  -1   8  168.58   21.30
   9  -1  -8  186.28   22.00
   9   1  -8  232.08   24.00
  -9   1   8  175.78   21.50
   8  -1  -8   17.90   11.70
  -8  -1   8   29.60   13.20
  -8   1   8   19.70   12.40
   8   1  -8   28.60   12.40
   7  -1  -8 1907.01   58.19
  -7  -1   8 1949.20   59.89
   7   1  -8 1914.81   59.19
  -7   1   8 1893.81   59.19
   6  -1  -8  545.55   30.30
  -6   1   8  600.94   47.00
   6   1  -8  565.24   30.80
  -5  -1   8  230.88   22.00
   5  -1  -8  219.18   21.80
   5   1  -8  245.48   22.20
  -5   1   8  268.17   23.10
  -4  -1   8 2303.07   61.99
   4  -1  -8 2384.76   64.09
   4   1  -8 2345.07   62.99
  -4   1   8 2266.97   62.99
   3  -1  -8   34.50   12.70
  -3  -1   8   43.40   12.70
  -3   1   8   39.70   11.90
   3   1  -8   26.60   15.60
   2  -1  -8  441.26   27.30
  -2  -1   8  429.06   25.10
   2   1  -8  466.55   25.50
  -2   1   8  385.66   25.00
  -1  -1   8   14.60   10.40
   1  -1  -8   38.40   12.90
   1   1  -8   27.70   10.80
  -1   1   8    8.90    9.30
   0  -1  -8  139.49   21.30
   0  -1   8  115.79   16.50
   0   1  -8  115.79   16.70
   0   1   8  125.79   17.40
  -1  -1  -8    8.50   11.50
   1  -1   8    2.50    7.80
  -1   1  -8   -1.40    8.30
   1   1   8   16.90   10.50
   2  -1   8  593.94   26.00
  -2  -1  -8  611.74   32.00
  -2   1  -8  542.65   25.90
   2   1   8  607.04   29.80
  -3  -1  -8  127.49   18.90
   3  -1   8  115.19   15.30
   3   1   8   70.59   14.30
  -3   1  -8   81.99   13.70
  -4  -1  -8  102.19   16.90
   4  -1   8  117.99   14.90
  -4   1  -8  124.69   15.50
   4   1   8  126.89   18.50
  -5  -1  -8  283.27   24.30
   5  -1   8  284.97   20.10
   5   1   8  295.07   24.50
  -5   1  -8  287.67   19.80
   6  -1   8    2.90    8.10
  -6  -1  -8    1.50   11.60
   6   1   8    5.70   10.10
  -6   1  -8    3.80    9.00
   7  -1   8  186.78   18.30
  -7  -1  -8  147.39   21.90
  -7   1  -8  173.18   17.40
   7   1   8  143.39   34.40
  -8  -1  -8   18.50   13.80
  -8  -1  -8   21.40   13.80
  -8   1  -8   25.00    9.90
  -8   1  -8    5.00    9.90
  -9  -1  -8    2.20   13.60
  -9  -1  -8   -2.70   12.50
  -9   1  -8  -22.40    8.50
  -9   1  -8    1.90    9.70
 -10  -1  -8   27.60   16.10
 -10  -1  -8   -3.30   12.80
 -10   1  -8   -1.70    9.10
 -10   1  -8    5.30    9.10
 -11  -1  -8   66.99   18.00
 -11  -1  -8   92.59   18.90
 -11   1  -8   69.49   11.40
 -12  -1  -8  -15.40   15.30
 -12  -1  -8   14.50   14.10
 -12   1  -8   11.00    8.10
 -12   1  -8    5.50    8.50
 -13  -1  -8   41.90   16.70
 -13  -1  -8   73.49   19.50
 -14  -1  -8   36.50   19.20
 -14  -1  -8   16.00   15.20
 -15  -1  -8   26.30   17.00
 -15  -1  -8   -8.20   15.50
  21  -2  -8   24.60   17.80
 -21   2   8   36.30   21.60
  21   2  -8   12.60   18.70
  20  -2  -8  103.39   40.10
 -20   2   8   50.49   23.00
  19  -2  -8   24.50   16.20
 -19   2   8    3.30   21.30
  19   2  -8   15.40   18.00
  18  -2  -8   56.19   21.20
 -18   2   8    5.90   16.20
  18   2  -8   53.79   20.00
  17  -2  -8   -2.90   15.00
 -17  -2   8   25.10   16.50
  17   2  -8    2.80   15.00
 -17   2   8    5.90   16.20
 -16  -2   8   13.90   15.50
  16  -2  -8   -2.30   13.80
 -16   2   8  -22.50   12.90
  16   2  -8  -22.70   13.00
  15  -2  -8    0.40   14.40
  15   2  -8   26.50   17.80
 -15   2   8   17.50   16.20
  14  -2  -8   39.00   16.90
 -14  -2   8    5.40   15.70
  14   2  -8   18.90   17.10
 -14   2   8    8.80   15.70
 -13  -2   8  -12.60   11.30
  13  -2  -8   -6.50   12.40
 -13   2   8   24.40   15.90
  13   2  -8   18.50   16.00
 -12  -2   8  200.18   26.40
  12  -2  -8  170.38   23.90
  12   2  -8  228.88   27.70
 -12   2   8  195.18   25.40
  11  -2  -8   84.59   18.70
 -11  -2   8   90.39   20.90
  11   2  -8   73.79   19.40
 -11   2   8   68.79   16.70
  10  -2  -8  135.89   21.10
 -10  -2   8   99.39   20.70
  10   2  -8  143.39   23.60
 -10   2   8  143.39   22.00
   9  -2  -8  393.56   28.40
  -9  -2   8  384.16   29.40
   9   2  -8  371.46   29.40
  -9   2   8  368.76   27.90
  -8  -2   8   27.80   12.70
   8  -2  -8   23.40   12.30
  -8   2   8    7.60   10.30
   8   2  -8   20.60   12.90
  -7  -2   8  237.18   23.50
   7  -2  -8  244.38   23.70
   7   2  -8  231.38   24.00
  -7   2   8  262.97   23.50
   6  -2  -8   56.59   15.50
  -6  -2   8   81.39   16.60
   6   2  -8   40.80   14.10
  -6   2   8   95.69   17.20
   5  -2  -8  846.12   38.40
  -5   2   8  885.61   38.90
   5   2  -8  834.62   37.50
   4  -2  -8   -3.30   11.10
  -4  -2   8   48.80   14.00
  -4   2   8   50.69   21.50
   4   2  -8   44.70   12.70
   3  -2  -8 1414.36   49.90
  -3  -2   8 1433.56   46.70
   3   2  -8 1379.16   50.79
  -2  -2   8  748.03   32.40
   2  -2  -8  758.22   36.00
   2   2  -8  765.42   32.90
   1  -2  -8  492.95   30.20
  -1  -2   8  488.55   25.80
   1   2  -8  536.25   26.80
   0  -2   8  356.16   22.40
   0  -2  -8  335.57   26.00
   0   2  -8  368.36   22.40
   1  -2   8  122.29   16.30
  -1  -2  -8  158.88   21.00
   1   2   8  123.99   21.60
  -1   2  -8  164.78   17.10
   2  -2   8  706.03   28.10
  -2  -2  -8  694.13   34.80
  -2   2  -8  674.73   27.90
   2   2   8  748.83   35.40
   3  -2   8   60.89   11.60
  -3  -2  -8   79.99   17.40
   3   2   8   42.00   14.00
  -3   2  -8   53.99   11.50
   4  -2   8   26.10    8.80
  -4  -2  -8   17.70   11.90
   4   2   8   25.90   13.20
  -4   2  -8   33.50   10.00
   5  -2   8   48.50    9.50
  -5  -2  -8   56.79   15.50
  -5   2  -8   13.30    8.10
   5   2   8   33.90   13.60
  -6  -2  -8   95.59   19.40
   6  -2   8  170.38   14.10
  -6   2  -8  125.19   13.30
   6   2   8   97.39   18.90
  -7  -2  -8   -3.30   13.10
  -7   2  -8   -2.30    6.40
   7   2   8    3.50   13.40
  -8  -2  -8  109.19   20.70
  -8  -2  -8   49.20   16.70
  -9  -2  -8  128.59   22.20
  -9  -2  -8   81.59   18.40
 -10  -2  -8    5.40   16.00
 -10  -2  -8    5.40   13.60
 -11  -2  -8   57.99   19.00
 -11  -2  -8   53.99   18.30
 -12  -2  -8   26.30   18.00
 -12  -2  -8  -20.30   14.10
 -13  -2  -8   -5.30   16.20
 -13  -2  -8   13.80   18.70
 -14  -2  -8    2.80   17.70
 -14  -2  -8    5.60   17.40
 -15  -2  -8   22.40   21.00
 -15  -2  -8    3.00   18.00
  20  -3  -8    3.40   16.70
  20   3  -8   -3.50   20.20
  19  -3  -8   24.50   16.60
  19   3  -8   -0.40   17.40
 -19   3   8   36.20   19.80
  18  -3  -8   -0.60   15.30
 -18   3   8   16.20   17.90
  18   3  -8   20.10   20.10
  17  -3  -8   52.89   18.00
  17   3  -8   65.79   22.50
 -17   3   8   25.50   17.80
  16  -3  -8   61.79   18.70
 -16  -3   8   16.00   17.20
  16   3  -8   41.50   20.40
 -16   3   8   55.09   20.10
  15  -3  -8  112.49   21.60
 -15  -3   8   50.59   21.50
  15   3  -8   80.39   23.00
 -15   3   8   53.19   16.60
  14  -3  -8  275.27   29.30
 -14  -3   8  317.67   33.90
 -14   3   8  239.28   29.20
  14   3  -8  319.87   35.20
  13  -3  -8  320.47   30.00
 -13  -3   8  314.57   33.90
 -13   3   8  394.86   31.90
  13   3  -8  338.87   35.40
 -12  -3   8  194.08   29.10
  12  -3  -8  191.98   24.80
 -12   3   8  158.78   24.00
  12   3  -8  243.98   29.10
  11  -3  -8  169.28   23.70
 -11  -3   8  261.37   27.90
  11   3  -8  217.68   27.90
 -11   3   8  201.78   24.60
  10  -3  -8  226.08   24.30
 -10  -3   8  145.19   23.30
  10   3  -8  168.48   25.50
 -10   3   8  191.78   23.60
  -9  -3   8   57.89   16.20
   9  -3  -8   44.70   15.40
   9   3  -8   39.10   16.30
  -9   3   8   13.40   11.00
  -8  -3   8  846.32   42.30
   8  -3  -8  834.32   39.70
  -8   3   8  816.52   39.00
   8   3  -8  803.92   41.80
  -7  -3   8 1504.45   55.39
   7  -3  -8 1465.95   52.29
   7   3  -8 1497.45   55.29
  -7   3   8 1339.77   50.29
   6  -3  -8 2388.86   68.79
  -6  -3   8 2374.36   70.39
  -6   3   8 2387.36   68.29
   6   3  -8 2286.37   69.79
  -5  -3   8 1724.93   56.99
   5  -3  -8 1719.73   57.39
  -5   3   8 1744.63   57.09
   5   3  -8 1675.03   57.09
   4  -3  -8  724.73   37.00
  -4  -3   8  667.13   40.10
  -4   3   8  684.43   35.70
   4   3  -8  696.03   35.50
  -3  -3   8  453.45   28.20
   3  -3  -8  455.95   30.60
   3   3  -8  435.86   28.40
  -3   3   8  513.25   30.80
  -2  -3   8  102.39   16.10
   2  -3  -8   49.90   15.20
  -2   3   8   49.30   13.00
   2   3  -8   46.80   13.40
   1  -3  -8   28.50   13.30
  -1  -3   8   37.50   11.40
  -1   3   8    7.00   10.90
   1   3  -8   23.50   10.80
   0  -3   8  231.28   19.10
   0  -3  -8  249.38   24.40
   0   3  -8  236.88   20.10
   0   3   8  186.98   22.20
  -1  -3  -8  192.38   23.40
   1  -3   8  198.08   18.20
  -1   3  -8  168.58   18.10
   1   3   8  150.18   21.50
   2  -3   8  302.77   20.30
  -2  -3  -8  351.36   27.90
  -2   3  -8  296.97   19.80
   2   3   8  320.77   26.80
  -3  -3  -8  562.64   34.80
   3  -3   8  580.64   24.80
   3   3   8  543.85   33.90
  -3   3  -8  554.04   24.40
   4  -3   8  570.64   22.80
  -4  -3  -8  487.95   34.00
  -4   3  -8  553.74   22.50
   4   3   8  539.95   34.80
   5  -3   8  270.27   15.80
  -5  -3  -8  364.66   30.90
  -5   3  -8  339.47   16.20
   5   3   8  204.28   25.60
  -6  -3  -8   -0.80   13.30
   6   3   8   28.50   15.40
  -7  -3  -8   30.10   17.70
   7   3   8   -1.80   16.30
  -8  -3  -8  -16.30   13.00
  -8  -3  -8   11.10   15.80
  -9  -3  -8   34.90   17.30
  -9  -3  -8   23.80   17.50
 -10  -3  -8   19.10   16.90
 -10  -3  -8   45.50   21.00
 -11  -3  -8  100.69   24.20
 -11  -3  -8   72.89   22.30
 -12  -3  -8   40.90   22.50
 -12  -3  -8   23.10   34.60
 -13  -3  -8   12.40   21.30
 -13  -3  -8   19.60   18.90
 -14  -3  -8   33.60   25.70
 -14  -3  -8   11.90   19.70
  19  -4  -8   30.70   17.50
  19   4  -8    3.50   19.40
 -19   4   8   54.49   22.10
  18  -4  -8   22.50   16.50
  18   4  -8   25.90   21.50
 -18   4   8   26.80   17.20
  17  -4  -8    5.70   14.90
 -17   4   8    6.30   16.70
  17   4  -8  -12.70   16.90
  16  -4  -8   50.29   20.10
 -16   4   8   19.50   15.60
  15  -4  -8    1.90   15.40
  15   4  -8    7.60   18.60
 -15   4   8    2.40   14.40
  14  -4  -8   -7.00   13.20
 -14  -4   8   16.30   18.40
 -14   4   8   23.80   15.20
  14   4  -8  -23.00   13.90
 -13  -4   8   10.80   15.90
  13  -4  -8  -20.00   10.20
 -13   4   8    6.90   14.80
  13   4  -8  -13.50   15.00
 -12  -4   8   14.90   27.10
  12  -4  -8   70.99   19.90
  12   4  -8   81.79   21.70
 -12   4   8  118.69   21.80
 -11  -4   8   47.70   19.70
  11  -4  -8   73.89   18.20
  11   4  -8   71.59   20.10
 -11   4   8   48.20   17.20
 -10  -4   8  192.08   27.50
  10  -4  -8   95.69   19.00
 -10   4   8  120.99   21.00
  10   4  -8  109.29   23.50
   9  -4  -8  269.27   26.80
  -9  -4   8  117.09   24.10
   9   4  -8  175.78   27.00
  -9   4   8  170.78   24.30
   8  -4  -8  272.77   26.40
  -8  -4   8  233.88   27.40
   8   4  -8  219.98   27.70
  -8   4   8  195.48   25.40
   7  -4  -8  157.88   22.70
  -7  -4   8  107.19   22.10
   7   4  -8  156.68   25.10
  -7   4   8  136.19   21.70
  -6  -4   8   25.10   13.90
   6  -4  -8   -1.50   10.90
   6   4  -8    1.00   11.80
  -6   4   8   24.90   13.30
  -5  -4   8   35.00   15.40
   5  -4  -8   76.89   18.30
  -5   4   8   72.79   17.80
   5   4  -8   28.00   15.00
  -4  -4   8   84.59   17.80
   4  -4  -8   89.29   18.90
   4   4  -8  109.89   21.20
  -4   4   8   85.69   18.10
  -3  -4   8   51.89   15.30
   3  -4  -8   61.79   16.80
   3   4  -8   28.50   14.10
  -3   4   8   58.89   15.30
   2  -4  -8  101.49   19.80
  -2  -4   8   99.69   21.10
   2   4  -8  141.49   20.40
  -2   4   8  147.69   21.30
   1  -4  -8  140.99   22.50
  -1  -4   8  127.29   18.60
   1   4  -8  107.59   17.60
  -1   4   8   61.69   16.20
   0  -4   8   19.40   10.60
   0  -4  -8    3.90   12.30
   0   4  -8   20.60   13.80
   0   4   8    9.30   10.90
  -1  -4  -8    4.20   10.60
   1  -4   8   39.00   11.90
  -1   4  -8   27.70   10.70
   1   4   8   30.00   14.10
   2  -4   8   -1.00    9.00
  -2  -4  -8   33.00   15.00
   2   4   8    8.10   10.70
  -2   4  -8   -8.50    9.10
  -3  -4  -8   14.60   13.90
   3   4   8   -3.00   11.60
  -3   4  -8   31.40   10.20
  -4  -4  -8  -13.50   11.50
   4  -4   8   -9.20    6.90
  -4   4  -8   -4.00    7.10
   4   4   8    1.20   10.60
  -5  -4  -8   68.99   19.30
   5  -4   8   45.00    8.70
  -5   4  -8   29.30    7.60
   5   4   8   22.90   16.10
  -6  -4  -8   32.80   16.80
   6   4   8   19.10   15.80
  -7  -4  -8  -17.70   14.20
  -7  -4  -8   16.00   15.30
  -8  -4  -8   12.50   17.30
  -8  -4  -8   13.30   16.60
  -9  -4  -8   57.19   21.30
  -9  -4  -8   23.60   23.10
 -10  -4  -8   37.40   25.40
 -10  -4  -8   72.39   23.00
 -11  -4  -8    5.20   17.60
 -11  -4  -8    4.80   16.70
 -12  -4  -8   18.90   23.00
 -12  -4  -8   39.10   22.30
 -13  -4  -8  -19.30   18.70
 -14  -4  -8   -2.20   21.50
  19  -5  -8    9.20   16.50
 -19   5   8  -15.20   18.40
  18  -5  -8   17.50   14.90
  18   5  -8    0.30   19.40
 -18   5   8   -2.00   17.20
  17  -5  -8   22.70   16.40
 -17   5   8   35.10   18.00
  17   5  -8   13.20   19.70
  16  -5  -8   19.70   16.20
  16   5  -8   32.70   21.00
 -16   5   8   59.29   22.00
  15  -5  -8   76.49   19.80
  15   5  -8   73.79   24.30
 -15   5   8  104.09   25.40
  14  -5  -8  114.59   23.10
  14   5  -8   97.09   25.70
 -14   5   8  104.69   23.60
  13  -5  -8   44.20   18.40
 -13  -5   8   22.70   22.90
 -13   5   8   45.50   18.00
  13   5  -8   38.00   22.00
  12  -5  -8  -16.40   11.00
 -12  -5   8   16.90   17.40
  12   5  -8  -12.40   14.70
 -12   5   8   30.80   17.70
  11  -5  -8   -5.90   12.90
 -11  -5   8    6.00   17.20
 -11   5   8   21.30   16.00
  11   5  -8   22.40   23.40
  10  -5  -8   42.70   17.40
  10   5  -8   45.70   18.80
 -10   5   8   62.89   19.40
  -9  -5   8  186.88   30.20
   9  -5  -8   98.39   19.90
   9   5  -8  134.59   25.70
  -9   5   8  112.69   21.40
  -8  -5   8  276.67   31.40
   8  -5  -8  261.47   27.60
  -8   5   8  218.18   25.90
   8   5  -8  271.97   30.80
   7  -5  -8  343.47   30.60
  -7  -5   8  320.67   31.60
   7   5  -8  334.37   32.70
  -7   5   8  322.17   28.50
  -6  -5   8  450.15   34.60
   6  -5  -8  503.95   34.80
   6   5  -8  451.05   34.30
  -6   5   8  480.45   33.30
   5  -5  -8  309.77   30.90
  -5  -5   8  343.17   30.60
  -5   5   8  286.67   27.80
   5   5  -8  354.66   31.30
   4  -5  -8  396.76   32.70
  -4  -5   8  436.36   32.70
   4   5  -8  419.76   32.30
  -4   5   8  484.65   34.80
  -3  -5   8  368.96   30.30
   3  -5  -8  328.17   30.40
  -3   5   8  323.57   29.80
   3   5  -8  283.97   27.60
   2  -5  -8  162.18   24.40
  -2  -5   8  141.89   21.20
   2   5  -8  166.78   22.40
  -2   5   8  164.68   23.50
  -1  -5   8   -1.10   10.40
   1  -5  -8   -6.00   11.40
  -1   5   8   -4.20    9.40
   1   5  -8    5.00   12.90
   0  -5   8  134.79   19.80
   0  -5  -8   97.39   21.00
   0   5   8   72.79   17.80
   0   5  -8  117.39   19.20
  -1  -5  -8   76.89   20.50
   1  -5   8  121.79   18.10
  -1   5  -8   84.69   17.50
   1   5   8  106.59   21.00
  -2  -5  -8  229.08   29.30
   2  -5   8  268.27   21.30
   2   5   8  257.27   30.20
  -2   5  -8  304.27   21.80
  -3  -5  -8  155.88   26.40
   3  -5   8  197.68   18.40
   3   5   8  188.08   25.70
  -3   5  -8  172.18   17.60
  -4  -5  -8  120.99   24.10
   4  -5   8  170.58   17.80
   4   5   8  127.49   23.90
   5  -5   8  178.58   15.80
  -5  -5  -8  159.28   28.70
   5   5   8  171.58   32.80
  -6  -5  -8   -5.40   15.10
   6   5   8    2.00   17.20
  -7  -5  -8   98.29   30.40
  -7  -5  -8   60.69   21.80
  -8  -5  -8   16.40   20.70
  -8  -5  -8   48.00   22.50
  -9  -5  -8   -2.20   16.80
  -9  -5  -8   -5.80   17.50
 -10  -5  -8    4.60   20.30
 -11  -5  -8   19.90   21.20
 -12  -5  -8    4.80   22.80
 -13  -5  -8    9.70   25.40
  18  -6  -8   -9.50   13.70
  18   6  -8   -0.60   20.40
 -18   6   8   -0.60   19.00
  17  -6  -8    6.90   17.10
 -17   6   8  -12.30   18.20
  17   6  -8   -1.80   22.80
  16  -6  -8   11.90   15.80
 -16   6   8   13.30   18.90
  16   6  -8   -5.40   18.50
  15  -6  -8   21.00   15.60
  15   6  -8   -0.40   17.20
 -15   6   8   15.20   19.40
  14  -6  -8   18.90   15.30
 -14   6   8   19.90   18.20
  14   6  -8   13.00   19.10
  13  -6  -8   -3.10   14.20
 -13   6   8   37.20   18.90
  13   6  -8   -0.60   16.40
  12  -6  -8   89.99   20.90
 -12   6   8   77.29   22.00
  12   6  -8   74.69   27.00
 -11  -6   8   24.60   22.10
  11  -6  -8   46.00   17.80
  11   6  -8   46.30   19.90
 -11   6   8    8.20   14.40
  10  -6  -8   -5.60   12.20
 -10  -6   8   49.20   21.90
 -10   6   8   -9.20   12.60
  10   6  -8   23.40   18.90
   9  -6  -8   67.69   20.30
  -9  -6   8  139.49   28.90
  -9   6   8   75.09   21.10
   9   6  -8  125.09   33.50
   8  -6  -8   53.49   19.30
  -8  -6   8   64.39   34.20
   8   6  -8   48.10   20.50
  -8   6   8   36.30   17.60
   7  -6  -8   19.00   15.70
  -7  -6   8   23.80   17.90
   7   6  -8   24.90   16.50
  -7   6   8    2.60   12.50
  -6  -6   8  -27.60   11.30
   6  -6  -8    0.50   15.20
   6   6  -8  -21.10   11.90
  -6   6   8    0.30   11.90
  -5  -6   8  110.09   23.10
   5  -6  -8  100.39   22.30
  -5   6   8  102.89   22.00
   5   6  -8   77.59   20.90
   4  -6  -8   98.39   22.90
  -4  -6   8   68.99   20.90
   4   6  -8   58.99   19.30
  -4   6   8   60.49   19.20
   3  -6  -8  231.88   29.40
  -3  -6   8  190.28   27.00
   3   6  -8  209.58   29.40
  -3   6   8  227.48   28.10
   2  -6  -8  197.88   27.50
  -2  -6   8  170.48   25.50
  -2   6   8  132.59   24.50
   2   6  -8  157.98   24.00
   1  -6  -8   86.79   22.30
  -1  -6   8  112.69   21.20
  -1   6   8   71.99   19.20
   1   6  -8  108.99   20.20
   0  -6   8   76.49   18.10
   0  -6  -8   59.59   19.80
   0   6   8   55.49   18.70
   0   6  -8   72.99   18.20
  -1  -6  -8   36.60   18.60
   1  -6   8   18.30   13.40
  -1   6  -8   14.60   13.10
  -2  -6  -8   15.00   14.90
   2   6   8   46.20   19.00
  -2   6  -8   56.69   15.60
  -3  -6  -8   42.80   22.80
   3  -6   8   54.29   13.80
   3   6   8   13.30   16.70
   4  -6   8    5.70   10.30
   4  -6   8    4.30   10.00
  -4  -6  -8   27.70   19.60
   4   6   8   16.80   17.30
  -5  -6  -8    7.00   15.40
   5  -6   8   21.70    9.90
   5  -6   8   10.50    9.80
   5   6   8   41.10   20.60
  -6  -6  -8   18.70   26.50
  -6  -6  -8   -6.00   16.30
  -7  -6  -8    8.40   17.30
  -8  -6  -8   12.40   19.20
  -9  -6  -8   71.49   25.90
 -10  -6  -8   31.00   22.90
 -11  -6  -8  -27.70   18.70
 -12  -6  -8  -20.20   19.30
  16  -7  -8   46.20   19.60
 -16   7   8  -16.20   30.10
  16   7  -8   17.10   24.00
  15  -7  -8   23.10   18.00
  15   7  -8    7.80   21.90
 -15   7   8   17.00   37.20
  14  -7  -8   50.09   18.80
  14   7  -8   22.40   22.90
  13  -7  -8   52.09   19.30
 -13   7   8    4.30   29.60
  13   7  -8   11.20   20.50
  12  -7  -8   12.80   16.00
  12   7  -8   44.00   24.60
 -12   7   8   35.90   33.10
  11  -7  -8   47.30   19.60
 -11   7   8   41.90   28.30
  11   7  -8   65.29   26.80
  10  -7  -8   10.70   14.40
 -10   7   8   11.00   26.20
  10   7  -8   -9.70   16.80
   9  -7  -8   30.50   18.20
  -9   7   8   30.40   27.90
   9   7  -8   22.90   19.80
   8  -7  -8   22.80   17.30
  -8  -7   8   32.70   20.90
   8   7  -8   10.70   17.40
   7  -7  -8  199.08   30.70
  -7  -7   8  246.68   37.80
   7   7  -8  206.58   33.10
   6  -7  -8   90.29   23.10
  -6  -7   8  111.39   27.60
  -6   7   8   70.79   24.80
   6   7  -8  150.78   29.00
  -5  -7   8   85.69   24.60
   5  -7  -8   39.50   19.90
  -5   7   8  109.39   23.00
   5   7  -8   61.19   22.70
   4  -7  -8  193.08   41.70
  -4  -7   8  178.38   32.00
   4   7  -8  156.98   28.80
  -4   7   8  160.88   28.50
  -3  -7   8   17.00   16.80
   3  -7  -8   -9.80   29.80
   3   7  -8   -0.20   14.00
  -3   7   8   46.50   18.90
   2  -7  -8   39.40   19.10
  -2  -7   8   69.39   23.10
  -2   7   8   45.00   20.50
   2   7  -8   39.00   17.80
  -1  -7   8  -22.30   13.80
   1  -7  -8    0.20   16.00
  -1   7   8   11.70   14.10
   1   7  -8    5.40   13.10
   0  -7   8   14.20   15.20
   0  -7  -8    2.60   13.90
   0   7   8  -12.70   12.50
   0   7  -8    2.90   13.40
   1  -7   8    3.40   12.80
  -1  -7  -8   10.40   17.20
   1   7   8    5.80   14.10
  -2  -7  -8   -7.00   15.90
   2  -7   8    7.60   11.80
   2  -7   8   16.50   12.90
   2   7   8   39.30   32.10
   3  -7   8   -2.90    9.90
   3  -7   8    7.10   24.60
  -3  -7  -8   -6.00   16.50
  -4  -7  -8    5.70   18.10
   4  -7   8   74.09   15.60
   4  -7   8   61.49   16.00
   5  -7   8   16.80   10.50
   5  -7   8   29.00   12.40
  -5  -7  -8   -4.30   18.00
   6  -7   8   -4.30    8.20
  -6  -7  -8    6.40   18.40
   6  -7   8   15.10    8.60
  -7  -7  -8  -12.80   19.30
  -8  -7  -8    2.80   19.00
  -9  -7  -8    2.70   21.20
 -10  -7  -8   20.30   22.80
  14  -8  -8   35.00   20.30
  14   8  -8  -12.00   15.90
 -14   8   8   11.90   22.60
  13  -8  -8   -4.10   14.70
  13   8  -8   -3.90   28.30
 -13   8   8  -11.60   19.40
  12  -8  -8   69.99   23.10
 -12   8   8   16.80   22.20
  12   8  -8   29.50   22.60
  11  -8  -8   44.70   19.80
 -11   8   8   49.70   22.80
  11   8  -8   65.49   26.70
  10  -8  -8   22.20   16.30
  10   8  -8   78.79   26.70
 -10   8   8   67.29   25.20
   9  -8  -8  224.68   32.80
  -9   8   8  143.79   29.70
   9   8  -8  175.98   35.30
   8  -8  -8   62.49   22.40
   8   8  -8   47.20   23.20
  -8   8   8   20.80   19.00
   7  -8  -8    9.90   18.10
   7   8  -8   45.50   20.30
  -7   8   8    5.80   18.30
   6  -8  -8   -8.20   16.00
  -6  -8   8   26.40   24.40
   6   8  -8  -18.30   13.80
  -6   8   8   -4.60   15.20
  -5  -8   8   51.59   24.20
   5  -8  -8   72.99   24.10
  -5   8   8   64.89   23.90
   5   8  -8   80.69   25.50
  -4  -8   8   18.20   19.50
   4  -8  -8   27.40   18.90
   4   8  -8   -7.70   19.50
   3  -8  -8  203.98   32.50
  -3  -8   8  246.68   54.79
   3   8  -8  224.38   30.80
   2  -8  -8   65.79   22.80
  -2  -8   8  115.49   28.70
  -1  -8   8  231.48   34.30
   1  -8  -8  159.78   30.80
  -1  -8   8  195.38   31.50
   0  -8   8  222.18   31.60
   0  -8   8  253.77   31.10
   0  -8  -8  219.78   35.00
   1  -8   8   37.70   18.40
  -1  -8  -8   25.20   21.10
   1  -8   8   13.00   16.10
   2  -8   8   72.09   20.10
   2  -8   8   42.70   17.30
  -2  -8  -8   38.20   22.50
   3  -8   8    4.00   12.10
  -3  -8  -8  -14.90   16.20
   3  -8   8   -6.90   12.20
   4  -8   8   48.80   15.70
  -4  -8  -8   11.70   19.60
   4  -8   8   12.50   14.30
   5  -8   8   23.10   13.30
   5  -8   8    6.30   11.20
  -5  -8  -8    2.00   18.60
  -6  -8  -8   31.20   22.90
   6  -8   8   64.39   13.70
   6  -8   8   83.19   14.30
  -7  -8  -8   -0.60   20.60
  -8  -8  -8  -13.40   34.20
  12  -9  -8    3.20   16.70
  12   9  -8  -18.30   18.30
  11  -9  -8   -9.60   14.00
  11   9  -8   24.00   31.20
  10  -9  -8   12.30   17.20
  10   9  -8   16.00   24.20
   9  -9  -8   17.50   18.00
   9   9  -8   11.20   23.10
   8  -9  -8   23.80   18.90
   8   9  -8   26.30   20.30
   7  -9  -8   49.10   22.70
   6  -9  -8   57.59   22.30
   5  -9  -8  179.58   34.20
   4  -9  -8  112.59   26.50
  -4  -9   8   74.59   24.50
  -3  -9   8   19.80   20.60
   3  -9  -8   20.30   18.20
  -3  -9   8   12.00   16.70
   2  -9  -8   42.50   22.00
  -2  -9   8    2.40   15.90
  -2  -9   8   16.40   20.10
  -1  -9   8  -13.20   12.70
   1  -9  -8    1.90   17.80
  -1  -9   8   -5.10   19.30
   0  -9   8  -18.00   13.50
   0  -9   8  -19.80   20.00
   0  -9  -8   38.20   20.20
   1  -9   8   30.60   19.00
  -1  -9  -8   -2.90   15.00
   1  -9   8   -5.30   11.80
  -2  -9  -8   52.29   23.90
   2  -9   8   58.89   23.00
   2  -9   8    8.90   14.30
   3  -9   8   26.10   18.60
  -3  -9  -8   43.10   22.50
   3  -9   8   63.49   19.50
   4  -9   8   26.70   15.60
   4  -9   8   13.60   15.10
  -4  -9  -8   69.39   42.30
   5  -9   8   19.60   16.30
  -5  -9  -8  -14.70   18.10
   5  -9   8   20.30   13.90
   6  -9   8   14.50   12.70
  -6  -9  -8   15.40   22.30
  -8 -10   8   15.60   30.40
   8 -10  -8   -6.00   17.80
  -7 -10   8   13.40   22.10
   7 -10  -8   36.60   22.70
  -6 -10   8   47.20   26.70
   6 -10  -8   15.20   19.90
   5 -10  -8   27.60   22.00
  -5 -10   8  -11.10   17.10
   4 -10  -8   10.00   19.40
  -4 -10   8   10.90   18.50
   3 -10  -8   16.90   19.40
  -3 -10   8   42.50   24.90
   2 -10  -8   42.90   24.20
  -2 -10   8   10.40   17.90
  -1 -10   8   18.20   16.40
   0 -10  -8  -10.00   18.30
   0 -10   8   18.60   16.70
   0 -10   8   39.00   26.10
  -1 -10  -8  -10.70   18.10
   1 -10   8    4.30   19.90
   1 -10   8    6.20   14.10
  -2 -10  -8  -15.20   18.50
   2 -10   8  -34.90   25.20
  21   0  -9    5.10   17.30
  20   0  -9   56.69   21.50
 -19   0   9   84.49   26.30
  19   0  -9  102.89   26.50
 -18   0   9   52.49   20.60
  18   0  -9   53.39   21.70
  17   0  -9   98.49   29.20
 -17   0   9   59.79   22.40
 -16   0   9  286.37   34.40
  16   0  -9  317.87   34.10
  15   0  -9   24.90   16.20
 -15   0   9   13.00   16.30
  14   0  -9   -2.10   13.60
 -14   0   9   10.40   13.70
  13   0  -9  644.94   40.00
 -13   0   9  677.63   40.50
  12   0  -9  104.39   21.10
 -12   0   9   38.50   16.70
  11   0  -9  308.67   28.20
 -11   0   9  326.97   28.80
  10   0  -9  102.99   19.90
 -10   0   9   99.89   19.20
  -9   0   9   60.29   16.00
   9   0  -9   50.69   15.40
   8   0  -9  294.97   25.70
  -8   0   9  328.87   26.90
  -7   0   9  121.59   20.30
   7   0  -9  154.68   22.40
   6   0  -9    2.00   11.50
  -6   0   9    4.60   11.30
  -5   0   9  -10.60    9.70
   5   0  -9    3.20   10.10
   4   0  -9  160.28   20.50
  -4   0   9  175.18   28.00
   3   0  -9  170.58   20.80
  -3   0   9  176.38   20.80
   2   0  -9  118.89   19.10
  -2   0   9  138.99   19.60
  -1   0   9    8.00    8.80
   1   0  -9   13.40   11.10
   0   0  -9   23.10   12.00
   0   0   9   27.70   11.60
   1   0   9   86.79   15.20
  -1   0  -9   79.79   17.80
   2   0   9   91.99   15.30
   3   0   9   -5.40    8.50
   4   0   9   39.40   13.20
   5   0   9   13.40   11.20
  -6   0  -9   76.69   27.70
   6   0   9   81.49   15.90
  -7   0  -9   -2.10   19.00
   7   0   9    8.40   11.90
  -8   0  -9   23.90   17.80
  -9   0  -9   27.90   15.70
  -9   0  -9   51.59   14.50
 -10   0  -9   17.40   14.10
 -10   0  -9  -15.40   10.80
 -11   0  -9   11.30   12.80
 -11   0  -9   -1.50   13.70
 -12   0  -9   -2.60   17.80
 -12   0  -9   19.20   13.10
 -13   0  -9   12.20   12.50
 -14   0  -9   -4.80   11.80
  21  -1  -9   -7.50   15.40
  21   1  -9    3.60   17.40
  20  -1  -9   39.80   20.80
  20   1  -9   14.80   19.20
 -20   1   9   21.90   22.80
  19  -1  -9   -1.90   16.00
  19   1  -9  -15.10   15.90
 -19   1   9    2.90   19.30
 -18  -1   9   89.09   25.80
 -18   1   9   91.59   24.90
  18   1  -9   73.39   21.40
 -17  -1   9  -15.90   13.20
  17  -1  -9   -5.50   14.90
  17   1  -9  -18.00   13.00
 -17   1   9   20.80   22.20
 -16  -1   9   55.39   20.50
  16  -1  -9   31.80   17.60
  16   1  -9   48.40   23.10
 -16   1   9   37.20   17.50
  15  -1  -9  149.79   26.20
 -15  -1   9  138.59   25.40
  15   1  -9  127.49   25.50
 -15   1   9  174.28   29.30
  14  -1  -9   -0.80   13.00
 -14  -1   9   32.70   17.40
  14   1  -9   41.20   19.80
 -14   1   9   30.10   16.60
 -13  -1   9   31.20   16.50
  13  -1  -9   92.19   21.60
 -13   1   9   39.20   16.40
  13   1  -9   46.80   19.00
  12  -1  -9    3.10   12.50
 -12  -1   9   17.80   15.20
  12   1  -9   24.50   13.80
 -12   1   9    2.40   12.90
  11  -1  -9   19.10   13.50
 -11  -1   9  -17.70   11.10
 -11   1   9    8.50   13.40
  11   1  -9    9.90   12.90
  10  -1  -9   14.40   13.30
 -10  -1   9   20.00   12.90
  10   1  -9    3.70   12.30
 -10   1   9   21.00   14.40
   9  -1  -9   63.49   16.30
  -9  -1   9   49.40   15.80
  -9   1   9   61.49   17.00
   9   1  -9   80.09   17.60
  -8  -1   9   17.90   11.70
   8  -1  -9   17.40   12.50
   8   1  -9   19.20   12.10
  -8   1   9   28.10   14.40
   7  -1  -9  102.39   17.80
  -7  -1   9  103.89   19.20
   7   1  -9   83.49   16.80
  -7   1   9   87.29   17.70
  -6  -1   9  121.79   19.20
   6  -1  -9   92.49   17.70
  -6   1   9   59.69   15.60
   6   1  -9   94.19   18.60
  -5  -1   9    3.20    9.50
   5  -1  -9  -21.60    8.60
  -5   1   9  -11.80    9.30
   5   1  -9   18.80   11.40
   4  -1  -9   84.09   17.30
  -4  -1   9   48.90   16.00
   4   1  -9   57.49   15.90
  -4   1   9   48.30   15.00
  -3  -1   9    6.10   10.20
   3  -1  -9   24.90   12.00
   3   1  -9    7.00   11.20
  -3   1   9    5.90   10.30
  -2  -1   9   10.00   10.30
   2  -1  -9   -7.20   10.30
   2   1  -9   -7.20    9.00
   1  -1  -9  -17.80    9.00
  -1  -1   9    3.60    9.00
  -1   1   9    6.20   10.90
   0  -1   9   -6.90    9.10
   0  -1  -9    4.30   11.50
   0   1  -9   10.80   10.90
   0   1   9    5.30   10.10
  -1  -1  -9   12.40   12.60
   1  -1   9   -2.90    8.90
  -1   1  -9   -5.60    8.30
   1   1   9    3.80   10.50
   2  -1   9   39.50   11.60
  -2  -1  -9   10.60   12.70
  -2   1  -9   48.10   12.30
   2   1   9   40.50   14.80
  -3  -1  -9   23.70   13.60
   3  -1   9    2.20    9.10
  -3   1  -9   17.10   10.30
   3   1   9   -3.60   19.40
  -4  -1  -9   34.70   13.70
   4  -1   9   24.20   10.70
  -4   1  -9   17.30   10.80
  -5  -1  -9   90.89   18.30
   5  -1   9   55.99   13.00
   5   1   9   59.49   15.60
  -5   1  -9   22.80   10.80
  -6  -1  -9   19.10   13.80
   6  -1   9   -7.80    8.60
  -6   1  -9   14.70   11.00
   6   1   9    5.60   12.50
  -7  -1  -9   22.20   14.10
   7  -1   9   14.30   10.60
  -7   1  -9  -14.50    9.60
   7   1   9   33.00   14.40
  -8  -1  -9    8.50   14.00
  -8   1  -9    9.00   11.20
  -9  -1  -9   -6.70   13.60
  -9  -1  -9   -7.20   14.70
  -9   1  -9  -13.50    8.70
  -9   1  -9   14.60   11.00
 -10  -1  -9   22.40   15.40
 -10  -1  -9   -3.50   14.00
 -10   1  -9   -7.70    9.20
 -10   1  -9   26.50   11.00
 -11  -1  -9   49.00   19.30
 -11  -1  -9   37.70   17.10
 -11   1  -9   39.10   11.20
 -11   1  -9   24.10   10.10
 -12  -1  -9    4.80   15.30
 -12  -1  -9    5.60   15.80
 -12   1  -9   12.70    9.20
 -12   1  -9    0.60    8.60
 -13  -1  -9   11.70   17.10
 -13  -1  -9   28.90   17.10
 -14  -1  -9   17.40   17.50
 -14  -1  -9    7.40   15.30
  21  -2  -9   42.60   19.70
 -21   2   9    0.40   24.20
  21   2  -9   29.40   22.40
  20  -2  -9   51.59   20.70
 -20   2   9   61.79   23.60
  20   2  -9   89.69   25.70
  19  -2  -9   62.69   21.70
  19   2  -9   73.49   24.80
 -19   2   9  121.99   27.90
  18  -2  -9   -0.10   15.00
  18   2  -9   23.20   18.70
 -18   2   9    4.10   20.40
 -17  -2   9   -1.90   17.20
  17  -2  -9   45.90   19.40
 -17   2   9   40.90   20.10
  17   2  -9   27.50   19.70
 -16  -2   9  -16.60   13.70
  16  -2  -9   28.10   18.40
 -16   2   9   24.70   18.20
  16   2  -9   25.20   18.40
 -15  -2   9   28.70   18.10
  15  -2  -9    5.70   14.10
 -15   2   9   20.10   16.30
  14  -2  -9    1.10   14.30
 -14  -2   9  -12.20   15.00
  14   2  -9   13.80   15.90
 -14   2   9   -3.10   12.70
 -13  -2   9  208.58   29.00
  13  -2  -9  146.39   24.50
  13   2  -9  205.38   29.30
 -13   2   9  186.78   27.60
 -12  -2   9   34.40   17.50
  12  -2  -9    1.90   13.70
  12   2  -9    0.70   12.90
 -12   2   9    6.10   14.40
 -11  -2   9   77.99   19.90
  11  -2  -9  118.79   21.90
  11   2  -9   83.69   19.60
 -11   2   9  101.09   21.40
 -10  -2   9  101.69   19.80
  10  -2  -9   95.79   19.60
 -10   2   9   93.89   19.30
  10   2  -9   76.19   19.00
   9  -2  -9   18.00   12.60
  -9  -2   9   26.50   13.90
  -9   2   9   18.40   11.40
   9   2  -9    1.00   12.60
   8  -2  -9   88.99   18.10
  -8  -2   9   99.29   18.90
  -8   2   9   92.39   18.80
   8   2  -9  119.39   21.30
   7  -2  -9    7.60   11.60
  -7  -2   9   24.20   12.40
   7   2  -9   15.60   11.50
  -7   2   9   20.60   11.90
   6  -2  -9   28.40   14.20
  -6  -2   9   16.20   11.60
   6   2  -9    7.80   12.30
  -6   2   9   23.70   13.50
   5  -2  -9   -9.00   10.00
  -5  -2   9   -0.90   10.10
   5   2  -9   11.50   12.40
  -5   2   9  -12.00   10.10
  -4  -2   9  116.59   21.80
   4  -2  -9  136.19   21.90
  -4   2   9   84.99   16.80
   4   2  -9  137.19   20.60
   3  -2  -9   29.40   14.10
  -3  -2   9   21.70   11.50
   3   2  -9    2.80   10.80
  -3   2   9   38.70   13.00
  -2  -2   9    9.10   10.00
   2  -2  -9   -1.70   10.20
  -2   2   9   25.20   12.20
   2   2  -9   14.40   10.00
  -1  -2   9    5.10   10.10
   1  -2  -9   24.20   13.00
  -1   2   9    2.80    9.40
   0  -2   9   25.40   11.30
   0  -2  -9   14.80   13.40
   0   2  -9   41.60   12.30
   0   2   9   15.30   10.90
   1  -2   9   36.20   11.80
  -1  -2  -9   19.70   13.30
  -1   2  -9   15.80   10.60
   1   2   9    5.90   10.50
  -2  -2  -9   31.40   13.60
   2  -2   9  -11.30    8.40
   2   2   9   10.30   11.70
  -2   2  -9   -6.40    9.00
   3  -2   9   21.20   10.00
  -3  -2  -9   15.10   13.30
  -3   2  -9   26.20   11.00
   3   2   9   17.30   10.70
  -4  -2  -9   62.59   16.80
   4  -2   9   29.70   10.40
  -4   2  -9   18.90   10.50
   4   2   9    8.50   11.80
  -5  -2  -9    8.70   13.90
   5  -2   9   10.40    9.30
   5   2   9   -2.20   11.80
  -5   2  -9   -0.90    8.40
  -6  -2  -9   24.80   15.70
   6  -2   9   32.50    9.40
  -6   2  -9   29.40   11.00
   6   2   9   25.90   14.30
   7  -2   9  -20.00    8.40
  -7  -2  -9   24.20   16.10
   7   2   9   20.60   15.40
  -7   2  -9    8.60    9.00
  -8  -2  -9   46.40   18.90
  -8   2  -9   30.00    7.90
  -8   2  -9   63.49   10.00
  -9  -2  -9   21.50   17.50
  -9  -2  -9   26.90   16.60
 -10  -2  -9   -5.20   14.20
 -10  -2  -9    5.20   17.00
 -11  -2  -9   20.50   17.40
 -11  -2  -9   28.30   18.50
 -12  -2  -9   37.20   20.60
 -13  -2  -9    1.70   17.50
 -13  -2  -9   11.10   17.50
 -14  -2  -9   14.80   18.40
 -14  -2  -9   27.40   21.20
  20  -3  -9   17.70   17.50
  20   3  -9   44.30   23.10
 -20   3   9   31.20   20.70
 -19   3   9   43.00   22.50
  19   3  -9   56.49   25.30
  18  -3  -9   63.09   20.20
  18   3  -9   23.90   20.20
 -18   3   9   -7.10   29.40
  17  -3  -9   44.80   19.10
 -17   3   9   11.30   17.30
  17   3  -9   41.40   22.30
  16  -3  -9  106.39   23.70
  16   3  -9  106.39   25.90
 -16   3   9   51.69   20.60
 -15  -3   9   27.70   17.80
  15  -3  -9   20.20   16.00
 -15   3   9   39.10   17.90
  15   3  -9   46.90   21.80
 -14  -3   9  181.48   32.10
  14  -3  -9  145.59   25.30
 -14   3   9   90.29   21.30
  14   3  -9   96.09   25.20
  13  -3  -9   46.70   19.30
 -13  -3   9  165.98   47.90
  13   3  -9   49.60   19.80
 -13   3   9   88.79   21.70
  12  -3  -9    1.50   13.10
 -12  -3   9  -28.00   13.70
  12   3  -9  -46.00   10.90
 -12   3   9    8.20   12.20
 -11  -3   9   18.60   14.80
  11  -3  -9    8.50   12.90
  11   3  -9   12.30   15.20
 -11   3   9   13.70   12.00
 -10  -3   9   14.60   13.00
  10  -3  -9  -21.30   10.70
  10   3  -9   11.20   13.70
 -10   3   9   -4.20   10.80
   9  -3  -9   27.20   14.70
  -9  -3   9   34.40   17.30
  -9   3   9   61.49   16.90
   9   3  -9    6.90   13.20
   8  -3  -9  212.18   24.90
  -8  -3   9  166.28   24.30
  -8   3   9  188.18   23.30
   8   3  -9  130.69   24.10
   7  -3  -9  154.48   22.10
  -7  -3   9  129.49   22.80
   7   3  -9  107.79   22.30
  -7   3   9  151.88   20.90
  -6  -3   9   55.39   17.20
   6  -3  -9   55.09   16.50
  -6   3   9   55.59   14.50
   6   3  -9   69.99   19.00
  -5  -3   9   33.80   14.70
   5  -3  -9   79.99   18.00
   5   3  -9   67.49   16.50
  -5   3   9   57.19   15.00
  -4  -3   9   -4.60    9.70
   4  -3  -9   -3.30   12.40
  -4   3   9    9.90   11.00
   4   3  -9  -12.90   10.10
  -3  -3   9   -8.90    9.70
   3  -3  -9    0.00   11.90
   3   3  -9   -6.50    9.80
  -3   3   9   -1.50    9.90
   2  -3  -9   26.50   15.10
  -2  -3   9  -16.10    9.70
  -2   3   9   20.10   11.30
   2   3  -9    9.40   12.60
  -1  -3   9  -14.70    7.40
   1  -3  -9    4.70   12.40
  -1   3   9   -2.20    8.80
   1   3  -9   -5.70    9.60
   0  -3  -9   -9.90   11.60
   0  -3   9   26.60   10.90
   0   3  -9    4.30   10.60
   0   3   9  -16.70    9.20
   1  -3   9   12.60   10.80
  -1  -3  -9   21.60   13.80
   1   3   9   17.00   12.30
  -1   3  -9   17.00   12.00
   2  -3   9   31.80   12.00
  -2  -3  -9   31.00   15.90
   2   3   9   41.90   14.90
  -2   3  -9   29.30   11.80
  -3  -3  -9    0.60   13.60
   3  -3   9    3.10    9.50
   3   3   9   10.60   11.90
  -3   3  -9   -3.80    9.00
  -4  -3  -9    7.60   13.70
   4  -3   9   32.10   10.20
   4   3   9   -2.80   13.10
  -4   3  -9   24.20   10.40
   5  -3   9   15.00    8.40
  -5  -3  -9  -26.40   12.00
  -5   3  -9   20.50    8.90
   5   3   9  -12.70   10.30
   6  -3   9   28.30    8.10
  -6  -3  -9   22.00   16.40
  -6   3  -9   11.50    7.30
   6   3   9   14.90   14.90
  -7  -3  -9   21.60   16.60
   7   3   9   25.60   18.40
  -8  -3  -9   12.30   15.50
  -8  -3  -9   51.19   19.90
  -9  -3  -9   24.20   19.00
  -9  -3  -9   13.70   17.30
 -10  -3  -9   -1.00   16.20
 -10  -3  -9   47.60   20.80
 -11  -3  -9   28.20   34.20
 -11  -3  -9   22.40   21.30
 -12  -3  -9   21.10   20.90
 -12  -3  -9   -6.70   18.10
 -13  -3  -9   -1.90   17.30
 -13  -3  -9  -12.20   22.10
 -19   4   9   27.20   19.30
  19   4  -9   36.90   23.90
  18  -4  -9   45.40   18.70
  18   4  -9   -6.70   17.40
  17  -4  -9    7.70   14.90
 -17   4   9   11.30   15.70
  17   4  -9    4.30   18.40
  16  -4  -9    3.00   15.80
  16   4  -9   29.60   21.00
 -16   4   9   20.10   16.50
  15  -4  -9   13.50   15.30
  15   4  -9   27.70   19.80
 -15   4   9    1.20   15.10
  14  -4  -9   18.10   15.60
 -14  -4   9   26.70   19.50
  14   4  -9    6.20   15.00
 -14   4   9   39.70   18.30
 -13  -4   9   44.90   18.20
  13  -4  -9   19.90   14.50
 -13   4   9   20.60   15.70
  13   4  -9   56.39   21.00
  12  -4  -9  151.98   25.70
 -12  -4   9  126.19   26.20
  12   4  -9  118.09   40.70
 -12   4   9  141.69   25.60
 -11  -4   9   29.10   16.90
  11  -4  -9   49.20   17.60
  11   4  -9   28.90   17.40
 -11   4   9   16.20   15.30
  10  -4  -9   46.70   16.50
 -10  -4   9   54.39   21.50
 -10   4   9   75.89   18.80
  10   4  -9   57.29   19.90
  -9  -4   9   92.09   23.10
   9  -4  -9   74.79   19.30
   9   4  -9   59.79   19.50
  -9   4   9   69.19   18.20
   8  -4  -9   -4.10   10.50
  -8  -4   9    3.80   12.20
  -8   4   9   -2.60   11.80
   8   4  -9   26.90   16.20
  -7  -4   9   16.20   14.10
   7  -4  -9   22.30   13.70
   7   4  -9    2.70   14.10
  -7   4   9   51.19   16.90
   6  -4  -9    0.00   13.50
  -6  -4   9  -15.90   10.70
   6   4  -9  -11.40   11.30
  -6   4   9   11.00   13.70
  -5  -4   9   -2.80   11.20
   5  -4  -9    2.60   12.90
   5   4  -9   18.80   12.50
  -5   4   9   -8.30   10.10
  -4  -4   9   10.90   12.80
   4  -4  -9   -4.10   12.60
   4   4  -9    4.30   12.70
  -4   4   9   16.90   11.10
  -3  -4   9    0.20   10.70
   3  -4  -9   14.00   12.40
  -3   4   9    3.60    9.50
   3   4  -9   -0.50   11.40
  -2  -4   9    5.80   10.40
   2  -4  -9  -11.40   11.20
   2   4  -9   -2.00   10.60
  -2   4   9   17.00   11.50
   1  -4  -9   -0.30   11.50
  -1  -4   9   -2.10    9.90
  -1   4   9   16.10   13.00
   1   4  -9   11.30   11.80
   0  -4  -9   -0.70   12.40
   0  -4   9   -7.50    9.50
   0   4  -9   -2.00   10.00
   0   4   9    8.30   10.20
  -1  -4  -9  -11.20   12.80
   1  -4   9   -3.60    9.90
  -1   4  -9  -12.00    8.80
   1   4   9    6.30   12.00
   2  -4   9   -2.40   10.00
  -2  -4  -9   13.90   14.90
  -2   4  -9   13.50   10.60
   2   4   9    6.50   11.40
   3  -4   9  -16.20    8.60
  -3  -4  -9    5.10   13.60
  -3   4  -9    2.50    9.90
   3   4   9   16.20   13.00
  -4  -4  -9   16.30   15.60
   4  -4   9    9.20    9.80
  -4   4  -9    2.60    8.60
   4   4   9  -20.90   11.80
   5  -4   9    3.90    7.50
  -5  -4  -9    5.80   15.40
   5   4   9   -1.20   13.80
  -5   4  -9    3.60    7.00
  -6  -4  -9  -12.40   14.20
   6   4   9   21.30   17.10
  -7  -4  -9    6.20   16.30
   7   4   9  -23.80   14.10
  -8  -4  -9    3.30   17.00
  -8  -4  -9   26.90   20.20
  -9  -4  -9    8.60   17.40
 -10  -4  -9  -12.80   19.20
 -10  -4  -9   24.10   19.60
 -11  -4  -9   -9.70   17.80
 -11  -4  -9   22.70   20.90
 -12  -4  -9    1.80   21.10
 -13  -4  -9    3.10   24.00
  19  -5  -9   27.50   21.10
 -19   5   9   -5.10   19.90
  19   5  -9   31.00   22.60
  18  -5  -9   25.10   19.80
  18   5  -9    5.00   20.70
 -18   5   9    7.60   20.50
  17  -5  -9   27.70   17.90
 -17   5   9   20.90   33.60
  17   5  -9   32.20   22.20
  16  -5  -9   57.09   20.10
 -16   5   9   40.60   22.40
  16   5  -9   66.49   24.90
  15  -5  -9   27.10   18.00
 -15   5   9    9.00   18.40
  15   5  -9   42.00   22.70
  14  -5  -9   41.40   18.10
  14   5  -9   37.80   22.00
 -14   5   9    6.30   17.90
  13  -5  -9   23.40   15.40
 -13   5   9    0.90   16.40
  13   5  -9   14.80   17.60
 -12  -5   9    1.30   15.60
  12  -5  -9   16.30   14.90
 -12   5   9   48.70   18.00
  12   5  -9   11.50   18.60
 -11  -5   9  -14.10   14.30
  11  -5  -9   29.00   15.50
  11   5  -9   -5.60   14.20
 -11   5   9   -9.30   13.10
 -10  -5   9   11.60   17.20
  10  -5  -9   12.60   15.50
  10   5  -9   31.90   19.90
 -10   5   9   27.40   16.30
   9  -5  -9   14.70   14.90
  -9  -5   9    9.30   14.80
   9   5  -9   15.50   16.70
  -9   5   9   -0.60   14.60
  -8  -5   9   32.60   20.70
   8  -5  -9   37.50   17.60
   8   5  -9   42.00   19.40
  -8   5   9    1.40   11.60
   7  -5  -9   20.20   15.00
  -7  -5   9   76.69   22.40
  -7   5   9   46.20   17.00
   7   5  -9   44.70   18.90
   6  -5  -9   38.70   17.80
  -6  -5   9   27.30   17.20
   6   5  -9   61.89   18.80
  -6   5   9   19.10   14.10
   5  -5  -9   35.50   17.10
  -5  -5   9   10.50   14.20
   5   5  -9   10.60   14.10
  -5   5   9    7.70   12.60
  -4  -5   9   21.40   14.20
   4  -5  -9    1.90   13.80
  -4   5   9   18.20   13.70
   4   5  -9    7.90   13.30
  -3  -5   9   11.30   12.70
   3  -5  -9   -0.20   13.70
  -3   5   9   -8.60   10.20
   3   5  -9   33.00   15.80
  -2  -5   9  -24.00   10.10
   2  -5  -9   18.00   15.10
   2   5  -9    5.90   12.50
  -2   5   9   -5.40   11.50
   1  -5  -9   10.80   12.80
  -1  -5   9   16.90   12.90
   1   5  -9   -8.30   11.10
  -1   5   9   -4.20   12.10
   0  -5   9    2.70   13.30
   0  -5  -9   23.50   15.70
   0   5   9   12.60   14.60
   0   5  -9   -5.70   12.40
  -1  -5  -9    3.10   14.60
   1  -5   9  -12.10   10.50
   1   5   9   12.20   12.90
  -1   5  -9   -9.10   10.30
   2  -5   9   28.00   11.80
  -2  -5  -9    5.90   16.00
   2   5   9   -8.20   12.30
  -2   5  -9   -3.90   10.50
   3  -5   9   27.20   11.80
  -3  -5  -9    6.40   16.60
  -3   5  -9   11.20   10.30
   3   5   9   24.30   14.90
  -4  -5  -9    4.60   16.70
   4  -5   9   -2.80    9.70
   4   5   9   36.80   24.40
  -4   5  -9   12.30    9.70
  -5  -5  -9   -2.30   34.40
   5  -5   9   47.70   10.70
   5   5   9   11.20   18.00
  -6  -5  -9   19.70   19.40
   6   5   9   -0.50   15.30
  -7  -5  -9    2.40   17.90
  -7  -5  -9  -10.90   16.30
  -8  -5  -9  -18.00   19.80
  -8  -5  -9   45.90   22.30
  -9  -5  -9    3.40   20.50
 -10  -5  -9   36.80   22.20
 -11  -5  -9   -3.20   20.30
 -12  -5  -9   -2.80   23.70
  17  -6  -9    8.60   30.50
 -17   6   9   15.50   18.50
  16  -6  -9   -3.10   18.90
  16   6  -9   -2.90   19.60
 -16   6   9   13.40   19.80
  15  -6  -9   19.60   17.10
  15   6  -9    1.90   19.30
 -15   6   9    4.60   22.40
  14  -6  -9    8.50   15.60
 -14   6   9    8.40   25.30
  14   6  -9   18.90   19.00
  13  -6  -9   12.80   17.30
 -13   6   9   76.49   23.60
  13   6  -9   40.80   20.90
  12  -6  -9   16.00   15.80
 -12   6   9   14.70   17.30
  12   6  -9   27.40   20.30
  11  -6  -9   33.80   18.60
 -11   6   9   23.30   17.50
  11   6  -9   26.10   17.90
 -10  -6   9   15.20   17.90
  10  -6  -9   15.70   16.00
  10   6  -9   30.30   20.20
 -10   6   9   -1.40   13.30
   9  -6  -9   -1.70   14.50
  -9  -6   9   21.90   19.10
   9   6  -9  -17.10   15.90
  -9   6   9    1.10   13.70
   8  -6  -9   -9.90   13.80
  -8  -6   9   15.00   18.20
   8   6  -9   12.60   18.50
  -8   6   9    8.50   13.80
   7  -6  -9    4.40   16.10
  -7  -6   9   16.60   18.20
   7   6  -9    7.70   14.90
  -7   6   9   -1.20   14.30
   6  -6  -9   21.30   16.00
  -6  -6   9    0.30   15.00
  -6   6   9    3.90   14.40
   6   6  -9   -9.20   14.30
  -5  -6   9   27.90   16.90
   5  -6  -9   16.50   17.30
  -5   6   9   -4.70   11.40
   5   6  -9    1.90   14.60
  -4  -6   9    1.80   16.00
   4  -6  -9   30.70   17.80
   4   6  -9   -1.10   13.20
  -4   6   9   16.20   15.20
   3  -6  -9   -9.20   13.30
  -3  -6   9   -6.60   13.70
  -3   6   9   -0.20   11.80
   3   6  -9   16.50   15.30
   2  -6  -9  -10.30   12.60
  -2  -6   9   16.50   14.80
   2   6  -9   -9.30   12.30
  -1  -6   9   31.30   16.20
   1  -6  -9   -8.20   13.80
   1   6  -9  -22.80   10.00
  -1   6   9   23.70   16.50
   0  -6  -9   14.00   20.00
   0  -6   9  -16.10   11.50
   0   6   9   -5.90   13.50
   0   6  -9   -9.30    9.50
  -1  -6  -9  -14.00   14.20
   1  -6   9   -7.90   10.90
   1   6   9  -11.20   11.60
  -1   6  -9  -10.20   10.20
   2  -6   9  -11.10   12.20
  -2  -6  -9   10.50   15.30
  -2   6  -9   -8.70   10.40
   2   6   9   21.70   14.90
  -3  -6  -9   -1.30   16.30
   3  -6   9   21.30   12.20
   3   6   9   17.60   15.10
   4  -6   9   12.50   10.70
  -4  -6  -9   -4.50   16.30
   4   6   9  -12.70   14.00
   5  -6   9   -5.40    8.50
  -5  -6  -9   -6.20   15.60
   5  -6   9   15.70   10.50
  -6  -6  -9    2.90   16.20
  -7  -6  -9   32.40   23.30
  -8  -6  -9    7.50   19.90
  -9  -6  -9   25.80   22.10
 -10  -6  -9  -11.80   19.10
 -11  -6  -9   12.70   23.60
  16  -7  -9   -4.10   16.40
 -16   7   9   28.00   23.60
  16   7  -9   19.70   22.40
  15  -7  -9   16.20   16.10
 -15   7   9    4.30   19.90
  14  -7  -9   38.50   18.30
  14   7  -9   26.60   22.00
 -14   7   9  -23.30   16.00
  13  -7  -9   56.89   19.90
  13   7  -9    1.20   21.90
 -13   7   9   18.20   19.90
  12  -7  -9    0.40   16.20
  12   7  -9  -14.30   17.20
 -12   7   9   -2.00   16.90
  11  -7  -9   12.00   16.60
 -11   7   9    3.40   17.70
  11   7  -9   -5.00   14.90
  10  -7  -9  -19.50   12.20
 -10   7   9   -0.20   15.10
  10   7  -9    3.90   15.60
   9  -7  -9   12.20   16.50
   9   7  -9   30.60   17.70
  -9   7   9   28.20   19.70
   8  -7  -9    6.30   16.70
  -8  -7   9    3.10   19.90
  -8   7   9   31.10   18.70
   8   7  -9   36.60   18.70
  -7  -7   9   28.70   21.70
   7  -7  -9   49.10   20.00
   7   7  -9    8.60   17.30
  -7   7   9   10.50   16.70
  -6  -7   9   44.80   22.60
   6  -7  -9   11.10   17.90
  -6   7   9   28.00   17.10
   5  -7  -9    6.40   16.30
   5   7  -9   -8.70   14.50
  -5   7   9  -24.10   12.40
   4  -7  -9   13.70   17.20
  -4  -7   9  -13.30   17.10
  -4   7   9   28.50   19.70
   4   7  -9   11.20   14.70
  -3  -7   9    3.90   17.20
   3  -7  -9   -0.80   15.00
  -3   7   9   -6.50   14.20
   3   7  -9   19.00   16.10
   2  -7  -9   26.70   18.30
  -2  -7   9   24.40   16.90
  -2   7   9   14.40   15.40
   2   7  -9    5.90   13.30
  -1  -7   9   -1.70   14.80
   1  -7  -9  -22.20   12.80
  -1   7   9   15.30   17.30
   1   7  -9   -0.50   14.50
   0  -7  -9   57.29   21.90
   0  -7   9   -4.30   13.40
   0   7  -9    4.30   14.60
  -1  -7  -9  -17.60   13.90
   1  -7   9   -1.20   13.30
  -1   7  -9  -18.40    9.80
  -2  -7  -9    2.20   17.30
   2  -7   9  -15.70   11.70
  -3  -7  -9    8.90   18.50
   3  -7   9  -16.80   12.00
  -4  -7  -9  -26.30   15.80
   4  -7   9    7.70   12.10
   4  -7   9    2.50   12.00
   5  -7   9   14.70   10.20
  -5  -7  -9  -16.40   17.80
   5  -7   9  -13.10   10.30
  -6  -7  -9   -0.50   17.40
  -7  -7  -9   21.50   22.30
  -8  -7  -9   17.80   21.70
  -9  -7  -9   -1.40   22.70
  14  -8  -9   28.40   19.10
  14   8  -9   -1.60   19.10
  13  -8  -9   14.70   17.30
  12  -8  -9   11.20   17.30
  12   8  -9  -11.80   16.10
  11  -8  -9   47.60   21.00
  11   8  -9    6.10   18.60
  10  -8  -9   54.59   21.10
  10   8  -9   28.80   23.60
   9  -8  -9    1.40   17.80
   9   8  -9   17.30   20.20
   8  -8  -9   31.40   21.60
   8   8  -9    7.10   18.00
   7  -8  -9   14.70   17.90
   7   8  -9    5.50   19.00
   6  -8  -9    1.10   16.50
   6   8  -9   18.10   18.90
   5  -8  -9  -11.10   14.00
  -5  -8   9  -18.10   16.60
   5   8  -9   27.80   19.10
  -4  -8   9   -3.70   18.20
   4  -8  -9  -15.00   15.70
   4   8  -9   34.60   19.90
  -3  -8   9   13.50   19.00
   3  -8  -9  -13.50   18.80
   3   8  -9    6.70   15.70
   2  -8  -9    8.60   19.30
  -2  -8   9    3.20   17.00
   2   8  -9    7.70   13.80
  -1  -8   9    2.90   16.50
   1  -8  -9   14.70   18.60
   0  -8   9   13.10   17.20
   0  -8  -9   55.19   23.10
   0  -8   9   28.40   18.80
  -1  -8  -9   40.80   20.70
   1  -8   9   -0.40   14.70
   1  -8   9   27.40   17.80
  -2  -8  -9    0.60   16.70
   2  -8   9    4.00   13.50
   2  -8   9    6.00   15.20
  -3  -8  -9    0.10   17.30
   3  -8   9   -5.40   14.40
   3  -8   9   -5.30   11.90
   4  -8   9   -3.60   20.50
  -4  -8  -9  -21.80   15.10
   4  -8   9  -10.30   10.60
   5  -8   9   -3.00   12.30
  -5  -8  -9   -9.70   19.20
   6  -8   9   10.80   10.10
  -6  -8  -9   20.50   22.80
   6  -8   9    7.70   10.10
  -7  -8  -9  -17.90   29.30
  11  -9  -9   26.60   20.50
  11   9  -9  -12.60   18.30
  10  -9  -9   -9.60   13.90
  10   9  -9  -15.20   17.90
   9  -9  -9   19.00   20.00
   9   9  -9  -25.50   15.90
   8  -9  -9  -14.30   15.40
   8   9  -9   15.00   20.90
   7  -9  -9   34.10   22.00
   7   9  -9   -2.00   17.80
   6  -9  -9   -4.40   17.40
   6   9  -9    9.60   19.50
   5  -9  -9   15.00   18.40
   4  -9  -9   48.40   24.90
  -3  -9   9   23.50   27.10
  -3  -9   9    1.30   15.30
   3  -9  -9   64.89   24.90
   2  -9  -9   18.20   18.20
  -2  -9   9   -2.60   13.20
  -2  -9   9   15.50   21.90
  -1  -9   9   -3.00   14.70
   1  -9  -9   21.50   21.20
  -1  -9   9   25.40   21.80
   0  -9   9  -11.20   37.30
   0  -9   9    3.10   13.50
   0  -9  -9   17.60   18.50
   1  -9   9   -7.00   13.90
  -1  -9  -9   -0.70   17.20
   1  -9   9   -1.50   17.60
   2  -9   9   19.50   16.10
  -2  -9  -9    0.60   21.80
   2  -9   9    8.20   13.90
   3  -9   9    3.40   16.00
  -3  -9  -9  -27.20   28.70
   3  -9   9    6.30   12.60
   4  -9   9    0.50   11.40
   4  -9   9   -8.20   14.20
  -4  -9  -9   24.50   23.60
  -5  -9  -9    5.40   20.10
   5  -9   9    1.10   12.70
   6 -10  -9    7.30   18.30
  -6 -10   9   -8.40   17.30
  -5 -10   9    1.10   19.10
   5 -10  -9  -13.70   17.00
   4 -10  -9  -25.00   19.10
  -4 -10   9   17.10   19.70
   3 -10  -9    1.40   32.50
  -3 -10   9    3.40   18.60
  -2 -10   9    3.20   15.30
   2 -10  -9   51.39   26.50
   1 -10  -9    4.50   20.40
  -1 -10   9   15.70   15.00
   0 -10   9   -4.10   14.60
   0 -10  -9   34.00   22.70
  21   0 -10  -17.20   16.80
  20   0 -10  -11.70   17.80
  19   0 -10   40.20   20.80
  18   0 -10  158.38   28.30
 -18   0  10  187.98   32.20
 -17   0  10    1.70   17.00
  17   0 -10  -12.50   14.90
 -16   0  10  468.05   39.80
  16   0 -10  436.46   52.99
 -15   0  10  181.88   29.40
  15   0 -10  220.98   30.40
 -14   0  10   -2.60   14.50
  14   0 -10    7.20   15.70
 -13   0  10 1178.28   54.59
  13   0 -10 1271.77   55.79
 -12   0  10  229.48   27.90
  12   0 -10  238.88   27.10
  11   0 -10  544.85   35.60
 -11   0  10  504.35   35.30
  10   0 -10  229.98   26.00
 -10   0  10  212.18   24.90
   9   0 -10  304.97   28.00
  -9   0  10  315.67   28.90
  -8   0  10  564.14   35.20
   8   0 -10  617.64   35.70
  -7   0  10  256.47   25.70
   7   0 -10  187.28   23.90
  -6   0  10   74.49   16.30
   6   0 -10   37.70   13.90
   5   0 -10  108.39   19.10
  -5   0  10  118.59   19.70
   4   0 -10  623.84   33.80
  -4   0  10  684.43   35.40
   3   0 -10   26.10   11.60
  -3   0  10    2.10    9.80
  -2   0  10  590.44   32.30
   2   0 -10  630.84   33.30
   1   0 -10    5.80   11.40
  -1   0  10   -2.30   10.50
   0   0 -10  713.83   35.10
  -1   0 -10  426.86   28.60
   1   0  10  384.36   26.70
  -2   0 -10  104.69   18.00
   2   0  10  105.59   17.10
   3   0  10   -1.90   11.40
  -3   0 -10   -7.20   10.50
   4   0  10  246.78   24.10
  -4   0 -10  245.98   24.40
  -5   0 -10  294.77   26.60
   5   0  10  286.27   25.60
   6   0  10  161.68   22.30
  -6   0 -10  121.09   20.10
   7   0  10   60.99   16.20
  -7   0 -10   51.89   18.50
  -8   0 -10   20.10   16.30
   8   0  10   -1.10   15.40
  -9   0 -10   27.20   15.60
 -10   0 -10   16.30   16.60
 -11   0 -10   81.79   18.80
 -12   0 -10   51.09   17.80
 -13   0 -10   16.00   15.90
 -13   0 -10   22.50   19.40
  21  -1 -10    2.40   16.70
  21   1 -10   21.50   21.00
  20  -1 -10   47.30   20.10
  20   1 -10   44.00   24.00
  19  -1 -10   20.60   20.70
 -19   1  10   37.70   22.70
  19   1 -10   48.60   21.30
  18  -1 -10   85.79   24.20
 -18   1  10  102.49   26.80
  18   1 -10   69.69   22.30
  17  -1 -10   18.90   25.30
 -17  -1  10   33.50   18.30
 -17   1  10   69.69   23.70
  17   1 -10   32.70   19.30
  16  -1 -10    5.10   14.90
 -16  -1  10   46.90   20.90
  16   1 -10   82.59   23.70
 -15  -1  10  114.09   25.60
  15  -1 -10  172.38   28.10
 -15   1  10  132.99   27.70
  15   1 -10  169.48   29.40
 -14  -1  10    5.60   13.10
  14  -1 -10   17.80   14.60
 -14   1  10   22.70   17.10
  14   1 -10   29.00   17.60
  13  -1 -10   30.30   15.30
 -13  -1  10   29.10   17.30
 -13   1  10   56.09   19.30
  13   1 -10   34.20   18.60
  12  -1 -10   45.00   16.30
 -12  -1  10   -6.70   12.60
  12   1 -10   63.29   20.10
 -12   1  10   49.60   17.00
 -11  -1  10   15.00   12.80
  11  -1 -10   11.50   13.60
  11   1 -10   -4.90   11.40
 -11   1  10   -1.40   11.40
  10  -1 -10   16.50   13.90
 -10  -1  10   34.50   14.50
  10   1 -10   12.70   13.10
 -10   1  10    7.10   12.20
  -9  -1  10  391.06   31.10
   9  -1 -10  432.66   31.50
   9   1 -10  425.66   31.80
  -9   1  10  516.65   34.10
  -8  -1  10  631.74   36.20
   8  -1 -10  556.34   34.20
  -8   1  10  541.35   34.30
   8   1 -10  519.15   33.60
  -7  -1  10  417.26   30.00
   7  -1 -10  347.47   28.60
  -7   1  10  351.46   28.50
   7   1 -10  380.06   29.20
   6  -1 -10  950.30   42.70
  -6  -1  10  952.40   42.10
   6   1 -10 1016.70   43.70
  -6   1  10  921.91   42.50
  -5  -1  10  236.18   24.00
   5  -1 -10  219.48   23.60
   5   1 -10  206.18   23.30
  -5   1  10  219.68   23.10
   4  -1 -10  206.88   23.80
  -4  -1  10  258.07   24.00
   4   1 -10  255.57   24.60
  -4   1  10  194.88   22.00
   3  -1 -10   23.00   13.60
  -3  -1  10  -12.30    8.10
  -3   1  10   -7.80    9.10
   3   1 -10   17.70   12.10
   2  -1 -10  143.19   21.70
  -2   1  10  167.48   20.60
   2   1 -10  141.79   20.20
   1  -1 -10  103.39   18.70
  -1  -1  10  110.89   18.80
   1   1 -10   74.89   16.50
  -1   1  10   80.69   16.50
   0  -1  10  438.06   27.40
   0  -1 -10  424.76   30.20
   0   1  10  418.66   28.90
   0   1 -10  452.35   28.30
  -1  -1 -10  198.48   24.10
   1  -1  10  214.18   21.40
   1   1  10  201.68   22.50
  -1   1 -10  229.98   22.00
   2  -1  10  474.05   27.30
  -2  -1 -10  486.15   32.50
   2   1  10  468.95   30.20
  -2   1 -10  458.45   32.20
  -3  -1 -10  673.63   36.90
   3  -1  10  710.63   32.30
   3   1  10  729.83   36.90
  -3   1 -10  680.03   42.00
   4  -1  10  133.59   19.50
  -4  -1 -10  131.89   21.30
   4   1  10  168.08   22.40
  -4   1 -10  154.28   19.50
  -5  -1 -10  228.88   26.30
   5  -1  10  138.59   20.20
   5   1  10  100.09   19.30
  -5   1 -10  173.78   20.60
   6  -1  10   -1.70   10.40
  -6  -1 -10   10.70   15.50
  -6   1 -10    9.50   11.60
   6   1  10    1.30   14.60
  -7  -1 -10   -2.80   14.50
   7  -1  10  -11.40   10.30
   7   1  10   32.30   16.00
  -7   1 -10    7.90   11.90
  -8  -1 -10   15.60   14.40
   8   1  10    2.10   16.40
  -8   1 -10   -2.80   10.50
  -9  -1 -10   84.69   18.40
  -9  -1 -10   72.19   19.60
  -9   1 -10   81.79   14.40
  -9   1 -10   88.59   14.60
 -10  -1 -10   36.70   18.80
 -10  -1 -10   27.80   16.10
 -10   1 -10   46.00   13.20
 -10   1 -10   33.10   12.10
 -11  -1 -10    8.90   16.70
 -11  -1 -10   12.50   15.70
 -11   1 -10    3.60   10.40
 -11   1 -10   32.70   10.80
 -12  -1 -10   62.59   21.00
 -12  -1 -10   18.00   16.50
 -12   1 -10   10.90    9.50
 -12   1 -10   37.90   10.70
 -13  -1 -10    4.80   15.70
 -13  -1 -10   -0.50   17.70
  20  -2 -10   53.99   22.40
  20   2 -10   -3.40   17.30
  19  -2 -10   22.80   18.20
 -19   2  10   32.60   22.00
  19   2 -10   10.20   19.20
  18  -2 -10   15.50   17.20
 -18   2  10   16.10   18.50
  18   2 -10  -16.20   15.80
  17  -2 -10   -7.60   18.60
  17   2 -10    1.50   16.70
 -17   2  10   17.80   19.70
 -16  -2  10  113.89   26.70
  16  -2 -10   67.79   19.90
  16   2 -10   63.19   21.60
 -16   2  10   72.09   28.10
  15  -2 -10   86.99   21.30
 -15  -2  10   47.30   20.70
  15   2 -10   38.50   19.70
 -15   2  10   69.09   21.50
  14  -2 -10   17.20   15.90
 -14  -2  10   68.29   21.50
 -14   2  10   14.00   16.00
  14   2 -10    3.20   17.60
  13  -2 -10  427.66   35.10
 -13  -2  10  335.57   34.20
  13   2 -10  424.86   36.90
 -13   2  10  312.67   33.00
 -12  -2  10   47.40   18.50
  12  -2 -10   40.30   16.40
 -12   2  10   18.60   16.80
  12   2 -10   24.80   18.10
  11  -2 -10  391.96   31.80
 -11  -2  10  319.87   31.40
 -11   2  10  341.57   30.80
  11   2 -10  354.56   32.50
 -10  -2  10  102.79   21.60
  10  -2 -10  110.49   21.50
  10   2 -10  106.89   21.40
 -10   2  10   87.29   19.30
  -9  -2  10  -10.20    9.70
   9  -2 -10   -7.20   11.00
   9   2 -10   27.30   15.00
  -9   2  10  -14.50    9.90
  -8  -2  10  105.39   20.70
   8  -2 -10   65.99   17.80
   8   2 -10   32.10   14.80
  -8   2  10   87.19   18.40
  -7  -2  10  265.07   26.20
   7  -2 -10  252.77   26.30
   7   2 -10  300.27   27.20
  -7   2  10  328.77   27.50
  -6  -2  10  240.28   24.80
   6  -2 -10  166.08   23.50
   6   2 -10  213.38   23.70
  -6   2  10  166.58   22.70
   5  -2 -10  552.94   34.50
  -5  -2  10  653.83   35.00
  -5   2  10  618.74   35.00
   5   2 -10  602.54   34.30
   4  -2 -10  703.13   38.70
  -4  -2  10  767.12   37.00
  -4   2  10  774.12   38.70
   4   2 -10  774.92   37.40
   3  -2 -10  461.75   32.30
  -3  -2  10  467.75   29.30
  -3   2  10  463.05   30.30
   3   2 -10  462.85   29.10
   2  -2 -10  435.56   31.90
   2   2 -10  473.05   29.40
  -2   2  10  517.35   32.70
  -1  -2  10   19.50   11.50
   1  -2 -10   19.70   13.60
   1   2 -10   26.00   12.60
  -1   2  10   15.90   11.90
   0  -2 -10  205.08   25.40
   0  -2  10  168.38   20.20
   0   2  10  177.38   22.60
   0   2 -10  165.88   20.20
  -1  -2 -10   96.99   20.00
   1  -2  10   58.49   13.50
   1   2  10   46.30   14.30
  -2  -2 -10  311.97   29.40
   2  -2  10  288.57   23.10
   2   2  10  298.37   28.30
  -2   2 -10  288.57   23.50
   3  -2  10   96.49   15.80
  -3  -2 -10   83.79   19.50
  -3   2 -10   59.89   14.80
   3   2  10   99.69   19.40
   4  -2  10  330.87   22.70
  -4  -2 -10  361.16   31.60
   4   2  10  267.87   27.80
  -4   2 -10  369.36   23.80
  -5  -2 -10   79.09   19.80
   5  -2  10  108.29   15.60
   5   2  10   91.69   20.60
  -5   2 -10   80.89   14.90
   6  -2  10   21.50   11.40
  -6  -2 -10    5.50   15.20
  -6   2 -10   -1.00    9.80
   6   2  10   15.10   13.80
   7  -2  10   45.60   12.80
  -7  -2 -10   19.20   16.90
  -7   2 -10   52.79   11.60
   7   2  10    8.30   14.90
  -8  -2 -10   28.30   17.10
   8   2  10   29.80   18.20
  -8   2 -10   29.60   10.10
  -9  -2 -10   94.79   23.20
  -9  -2 -10   82.99   21.30
 -10  -2 -10   11.30   17.70
 -10  -2 -10   34.30   17.00
 -11  -2 -10    9.30   18.30
 -11  -2 -10   22.00   18.30
 -12  -2 -10   27.40   20.40
 -12  -2 -10    5.30   18.00
 -13  -2 -10   -6.10   18.00
 -13  -2 -10  -11.90   17.40
  20  -3 -10   11.40   17.10
 -20   3  10   46.20   28.80
  20   3 -10   33.90   21.00
  19  -3 -10   17.30   17.50
  19   3 -10   17.00   20.50
 -19   3  10   31.00   22.50
  18  -3 -10   39.70   19.30
 -18   3  10   55.69   23.40
  18   3 -10   38.10   20.80
  17  -3 -10   26.10   22.00
 -17   3  10   40.90   19.50
  17   3 -10   16.80   19.90
  16  -3 -10   64.69   20.00
 -16   3  10   65.09   33.70
  16   3 -10  118.59   28.30
 -15  -3  10   59.59   21.60
  15  -3 -10    3.10   16.20
  15   3 -10   27.20   20.30
 -15   3  10   26.20   18.50
 -14  -3  10   44.80   21.50
  14  -3 -10   51.19   19.00
  14   3 -10   43.50   19.80
 -14   3  10   46.00   17.50
  13  -3 -10   39.90   17.50
 -13  -3  10   59.99   21.10
 -13   3  10   47.70   19.00
  12  -3 -10  147.19   25.00
 -12  -3  10  181.18   44.40
 -12   3  10  167.28   26.70
  12   3 -10  171.28   28.50
 -11  -3  10   90.69   22.90
  11  -3 -10   74.69   18.50
 -11   3  10   98.29   22.00
  11   3 -10   73.49   20.60
  10  -3 -10  245.28   27.80
 -10  -3  10  285.07   30.40
  10   3 -10  291.97   31.00
 -10   3  10  224.38   26.30
  -9  -3  10  544.35   37.90
   9  -3 -10  517.25   34.90
  -9   3  10  358.36   31.20
   9   3 -10  469.25   36.10
   8  -3 -10  437.56   33.30
  -8  -3  10  450.75   34.80
  -8   3  10  513.05   34.10
   8   3 -10  383.76   33.00
  -7  -3  10  471.35   33.50
   7  -3 -10  475.65   33.90
   7   3 -10  402.76   32.40
  -7   3  10  424.96   31.70
  -6  -3  10  150.28   22.70
   6  -3 -10  111.19   20.50
  -6   3  10   99.39   19.20
   6   3 -10  103.69   20.50
  -5  -3  10  129.09   21.50
   5  -3 -10  116.59   21.80
   5   3 -10  102.89   20.40
  -5   3  10   84.59   19.10
   4  -3 -10    6.00   11.70
  -4  -3  10   -2.10   11.00
  -4   3  10   18.20   12.60
   4   3 -10  -22.30   10.50
   3  -3 -10   -6.40   10.60
  -3  -3  10   15.10   11.20
   3   3 -10    6.80   11.90
  -3   3  10   -6.90    8.90
   2  -3 -10   73.89   18.50
  -2  -3  10   73.59   15.50
   2   3 -10   57.29   14.30
  -2   3  10   50.69   15.60
  -1  -3  10  376.46   31.10
   1  -3 -10  412.66   32.70
  -1   3  10  316.07   28.00
   1   3 -10  402.26   27.20
   0  -3 -10  340.47   30.60
   0  -3  10  273.97   23.70
   0   3  10  312.17   28.90
   0   3 -10  281.47   24.50
   1  -3  10  349.67   25.40
  -1  -3 -10  334.57   30.50
   1   3  10  331.67   30.20
   2  -3  10  255.37   23.20
  -2  -3 -10  309.57   30.30
  -2   3 -10  305.47   23.40
   2   3  10  274.87   27.50
   3  -3  10   70.79   14.10
  -3  -3 -10   72.49   19.20
  -3   3 -10   74.79   14.00
   3   3  10   48.20   15.70
  -4  -3 -10   15.50   16.10
   4  -3  10   16.50   10.60
  -4   3 -10   14.50   10.60
   4   3  10    1.20   14.30
   5  -3  10   37.50   11.80
  -5  -3 -10   34.80   17.30
   5   3  10   28.00   17.20
  -5   3 -10   15.60   10.50
   6  -3  10    6.50    9.10
  -6  -3 -10    9.40   17.00
   6   3  10    3.20   16.80
  -6   3 -10   19.90    9.40
  -7  -3 -10    3.90   18.20
   7   3  10    2.80   17.00
  -8  -3 -10    4.90   17.90
  -9  -3 -10  -29.90   13.60
  -9  -3 -10   10.40   17.40
 -10  -3 -10   42.50   24.30
 -10  -3 -10   37.10   22.30
 -11  -3 -10   16.30   20.60
 -11  -3 -10  -11.70   23.10
 -12  -3 -10   26.10   22.90
 -12  -3 -10   21.80   19.90
 -13  -3 -10   -6.20   22.00
 -13  -3 -10    4.90   19.10
  19  -4 -10  -19.30   14.80
  19   4 -10   -5.80   18.20
 -19   4  10    8.90   19.00
  18  -4 -10    2.50   16.10
  18   4 -10  -25.50   16.40
 -18   4  10  -16.50   17.30
  17  -4 -10   11.40   30.50
 -17   4  10    4.80   15.70
  17   4 -10   17.10   19.20
  16  -4 -10   29.40   18.00
 -16   4  10   -2.30   17.00
  16   4 -10   23.30   19.30
  15  -4 -10   89.09   23.80
 -15   4  10  161.28   29.80
  15   4 -10  119.29   28.60
  14  -4 -10  191.38   29.00
 -14   4  10  177.68   29.20
  14   4 -10  226.58   33.20
 -13  -4  10  190.28   32.90
  13  -4 -10  117.99   22.10
  13   4 -10  119.19   26.00
 -13   4  10  130.49   25.30
  12  -4 -10  348.47   33.10
 -12  -4  10  372.36   38.00
  12   4 -10  432.26   39.20
 -12   4  10  327.17   34.30
  11  -4 -10  221.88   28.90
 -11  -4  10  224.48   32.00
  11   4 -10  220.78   30.80
 -11   4  10  173.08   27.60
 -10  -4  10  169.28   28.20
  10  -4 -10  179.08   26.20
 -10   4  10  132.39   23.50
  10   4 -10  155.18   28.40
   9  -4 -10  156.28   26.00
  -9  -4  10  170.08   27.30
  -9   4  10  135.79   25.40
   9   4 -10  183.68   27.50
  -8  -4  10   32.30   16.60
   8  -4 -10   35.60   15.90
   8   4 -10    7.70   13.60
  -8   4  10   41.70   16.80
   7  -4 -10    5.80   13.20
  -7  -4  10    8.10   13.40
  -7   4  10   15.80   13.80
   7   4 -10  -10.60   12.30
   6  -4 -10   44.70   17.60
  -6  -4  10   -3.40   12.70
  -6   4  10   47.90   17.30
   6   4 -10   25.00   15.20
  -5  -4  10  222.68   27.00
   5  -4 -10  239.48   28.80
  -5   4  10  227.18   27.60
   5   4 -10  232.48   27.50
   4  -4 -10  474.85   35.50
  -4  -4  10  547.35   34.80
  -4   4  10  464.35   33.40
   4   4 -10  574.34   35.90
  -3  -4  10  463.65   31.40
   3  -4 -10  443.26   35.30
   3   4 -10  421.26   31.60
  -3   4  10  484.95   34.30
  -2  -4  10  261.17   25.40
   2  -4 -10  260.77   29.50
   2   4 -10  263.27   26.20
  -2   4  10  249.58   27.10
  -1  -4  10   79.39   15.90
   1  -4 -10   49.90   17.60
   1   4 -10   98.99   18.90
  -1   4  10   80.39   19.80
   0  -4  10    9.00   12.90
   0  -4 -10   20.70   15.80
   0   4 -10   14.70   12.10
   0   4  10   12.40   13.30
  -1  -4 -10   21.10   15.40
   1  -4  10    8.90   11.60
   1   4  10   19.50   12.90
  -1   4 -10    5.30   10.90
   2  -4  10    7.70   11.10
  -2  -4 -10    3.80   15.40
  -2   4 -10   16.60   12.30
   2   4  10   17.40   14.50
   3  -4  10   16.00   11.80
  -3  -4 -10    5.90   17.20
   3   4  10   42.30   18.20
  -3   4 -10   34.60   12.30
   4  -4  10   40.50   12.40
  -4  -4 -10   62.89   21.00
  -4   4 -10   40.70   12.00
   4   4  10   34.70   16.90
   5  -4  10   35.60   10.10
  -5  -4 -10   13.50   17.10
  -5   4 -10   39.30    9.60
   5   4  10   17.10   15.20
  -6  -4 -10   33.30   19.40
  -7  -4 -10   27.00   22.40
   7   4  10   30.30   22.70
  -8  -4 -10   15.90   19.40
  -8  -4 -10   42.00   21.60
  -9  -4 -10   26.40   22.00
  -9  -4 -10   40.20   20.50
 -10  -4 -10   34.10   22.70
 -10  -4 -10   26.10   24.80
 -11  -4 -10   30.10   23.20
 -12  -4 -10  -21.30   19.80
  18  -5 -10   26.40   18.50
  18   5 -10   74.59   34.20
 -18   5  10   17.60   22.30
  17  -5 -10   15.30   17.40
 -17   5  10    3.10   22.10
  17   5 -10   21.90   21.70
  16  -5 -10  -17.40   14.00
 -16   5  10   21.20   19.90
  16   5 -10   14.00   19.90
  15  -5 -10   27.90   20.70
 -15   5  10  -13.90   16.20
  15   5 -10    0.60   18.40
  14  -5 -10    1.00   15.60
 -14   5  10   -1.90   28.30
  14   5 -10  -16.40   15.40
  13  -5 -10   16.90   16.00
 -13   5  10   22.60   23.80
  13   5 -10  -18.60   13.70
  12  -5 -10    4.80   14.80
 -12  -5  10  -15.50   23.50
 -12   5  10  -24.20   13.50
  12   5 -10   19.30   16.70
  11  -5 -10    2.60   15.90
 -11  -5  10  -26.20   12.30
 -11   5  10    9.70   15.80
  11   5 -10    4.20   15.30
 -10  -5  10    6.50   17.60
  10  -5 -10  -13.40   14.00
 -10   5  10   37.40   18.20
  10   5 -10   11.70   17.20
   9  -5 -10   -4.80   13.20
  -9  -5  10   39.20   26.30
   9   5 -10   33.70   18.20
  -9   5  10   42.20   18.70
  -8  -5  10  110.29   26.80
   8  -5 -10  160.08   27.50
   8   5 -10  144.09   28.50
  -8   5  10  108.29   22.20
  -7  -5  10  132.59   25.70
   7  -5 -10   95.69   22.10
  -7   5  10  127.39   23.60
   7   5 -10  185.48   29.80
   6  -5 -10  119.39   26.10
  -6  -5  10  138.19   27.20
   6   5 -10  183.98   30.50
  -6   5  10  101.89   22.00
  -5  -5  10   52.39   19.30
   5  -5 -10   25.90   16.80
  -5   5  10   23.40   13.70
   5   5 -10    8.30   14.80
   4  -5 -10   31.40   16.80
  -4  -5  10    1.40   15.20
   4   5 -10  -11.60   14.10
  -4   5  10    7.60   13.80
   3  -5 -10   24.40   16.80
  -3  -5  10   28.80   16.60
   3   5 -10   44.90   18.00
  -3   5  10   11.90   14.90
  -2  -5  10  190.18   25.70
   2  -5 -10  203.18   29.50
  -2   5  10  201.98   28.90
   2   5 -10  272.97   27.80
  -1  -5  10  165.08   24.30
   1  -5 -10  195.28   29.90
  -1   5  10  191.68   26.60
   1   5 -10  195.68   24.90
   0  -5  10   91.39   18.60
   0  -5 -10   41.90   18.90
   0   5  10   67.79   19.20
   0   5 -10   88.29   18.50
  -1  -5 -10  110.49   25.10
   1  -5  10  133.99   34.10
   1   5  10  130.49   37.40
  -1   5 -10  148.09   21.40
   2  -5  10   37.20   14.50
  -2  -5 -10   49.20   19.80
   2   5  10   15.90   17.00
  -2   5 -10   54.39   16.10
   3  -5  10  182.98   22.00
  -3  -5 -10  268.77   59.19
   3   5  10  172.38   29.80
  -3   5 -10  152.28   20.20
  -4  -5 -10  112.79   27.20
   4  -5  10  126.99   19.60
   4   5  10   94.79   25.00
  -4   5 -10  123.79   16.80
  -5  -5 -10   40.70   20.20
   5  -5  10   17.30    9.90
   5   5  10   -6.00   14.80
  -6  -5 -10    9.60   19.80
   6   5  10    5.40   18.80
  -7  -5 -10   37.80   21.30
  -8  -5 -10   13.30   21.00
  -9  -5 -10   39.90   25.00
 -10  -5 -10  120.29   29.90
 -11  -5 -10   35.00   25.90
  17  -6 -10    9.90   18.90
 -17   6  10   -1.10   20.60
  17   6 -10   17.10   23.00
  16  -6 -10   50.59   19.80
  16   6 -10    2.60   18.60
 -16   6  10   42.80   21.70
  15  -6 -10   -9.60   15.10
 -15   6  10   13.30   19.20
  15   6 -10   11.80   20.30
  14  -6 -10   21.10   17.20
 -14   6  10   -7.80   17.10
  14   6 -10    8.10   18.00
  13  -6 -10   39.60   20.10
 -13   6  10   39.30   21.70
  13   6 -10   38.20   23.60
 -12   6  10   32.20   17.50
  12   6 -10    2.20   16.40
  11   6 -10   23.30   19.30
 -11   6  10   19.30   16.70
 -10  -6  10   35.60   30.90
  10  -6 -10   18.30   19.10
  10   6 -10    9.30   17.80
 -10   6  10   35.50   17.40
   9  -6 -10   -6.70   15.40
  -9  -6  10   -4.80   15.70
   9   6 -10    0.50   15.70
  -9   6  10    7.90   14.00
   8  -6 -10    2.60   15.30
  -8  -6  10   41.00   21.80
   8   6 -10  -14.80   14.30
  -8   6  10   44.30   17.60
   7  -6 -10   20.30   17.30
  -7  -6  10   -5.50   18.70
   7   6 -10   16.80   18.40
  -7   6  10    7.80   15.00
  -6  -6  10    1.00   16.10
   6  -6 -10   36.00   17.90
  -6   6  10   50.19   19.00
   6   6 -10   27.70   18.50
  -5  -6  10   47.00   21.00
   5  -6 -10   60.89   22.60
   5   6 -10   67.29   21.90
  -5   6  10   42.00   18.80
   4  -6 -10  206.68   43.20
  -4  -6  10  207.18   32.20
   4   6 -10  176.58   28.40
  -4   6  10  120.19   24.80
  -3  -6  10   75.99   20.20
  -3   6  10   46.20   17.70
   3   6 -10   80.39   21.30
  -2  -6  10   83.49   21.40
   2  -6 -10   35.50   21.60
  -2   6  10    7.00   12.40
   2   6 -10   89.39   22.30
  -1  -6  10   33.40   17.70
   1  -6 -10   67.09   22.40
  -1   6  10   32.30   16.80
   1   6 -10   51.69   17.10
   0  -6 -10    8.40   16.60
   0  -6  10   -3.80   12.40
   0   6  10   14.60   15.00
   0   6 -10   -2.50   13.10
   1  -6  10   17.90   13.20
  -1  -6 -10    4.10   17.30
   1   6  10   18.60   17.00
  -1   6 -10   29.90   14.70
  -2  -6 -10   -8.30   15.40
   2   6  10   13.00   15.90
  -2   6 -10    8.40   12.30
  -3  -6 -10   18.10   18.40
   3  -6  10   40.20   14.60
  -4  -6 -10   33.40   21.40
   4  -6  10   86.79   15.90
  -5  -6 -10   53.29   24.10
   5  -6  10   77.29   14.40
   5  -6  10   78.09   13.30
  -6  -6 -10  -10.30   17.90
  -7  -6 -10   48.50   23.50
  -8  -6 -10   -1.80   19.50
  -9  -6 -10   22.70   22.30
 -10  -6 -10   31.90   24.50
  16  -7 -10   -0.30   16.60
  16   7 -10    8.70   20.50
  15  -7 -10   23.50   19.40
  15   7 -10   42.50   26.70
  14  -7 -10   14.20   17.90
 -14   7  10   45.30   32.80
  14   7 -10    3.50   18.60
  13  -7 -10    4.00   16.60
  13   7 -10    6.90   16.60
 -13   7  10   -2.60   18.70
  12  -7 -10   -7.30   15.40
 -12   7  10    4.80   18.40
  12   7 -10   29.00   22.30
  11  -7 -10   34.80   18.60
 -11   7  10   41.90   22.00
  11   7 -10   -2.80   17.60
  10  -7 -10   56.29   20.20
  10   7 -10   64.29   24.80
 -10   7  10   36.50   19.80
   9  -7 -10  133.39   27.10
  -9   7  10   95.09   24.40
   9   7 -10   90.99   25.60
   8  -7 -10  184.38   31.50
  -8   7  10  145.99   28.40
   8   7 -10  222.48   34.00
  -7  -7  10  149.39   32.50
   7  -7 -10  109.79   25.40
  -7   7  10   58.79   21.10
   7   7 -10  118.89   27.90
  -6  -7  10  179.78   33.60
   6  -7 -10  163.28   31.90
   6   7 -10  205.48   33.30
  -6   7  10  154.58   29.00
   5  -7 -10   93.99   23.50
  -5  -7  10   86.19   26.40
   5   7 -10   81.19   24.00
  -5   7  10   50.59   18.50
  -4  -7  10  150.38   30.50
   4  -7 -10  100.49   25.80
   4   7 -10  100.89   24.30
  -4   7  10   47.00   20.10
  -3  -7  10    3.00   16.30
   3  -7 -10    9.30   17.90
   3   7 -10   -9.70   12.70
   2  -7 -10   24.80   18.40
  -2  -7  10    6.70   17.30
   2   7 -10  -19.60   13.70
  -1  -7  10   -2.20   15.60
   1  -7 -10   35.20   19.80
   1   7 -10   17.80   15.10
   0  -7 -10   50.99   23.40
   0  -7  10  120.69   24.70
   0   7 -10  105.29   23.80
  -1  -7 -10   65.89   22.50
   1  -7  10   93.49   21.30
  -1   7 -10   60.19   18.70
  -2  -7 -10   22.70   19.80
   2  -7  10   75.19   18.50
   3  -7  10  114.69   31.40
  -3  -7 -10   34.50   22.20
   3  -7  10   71.99   18.30
   4  -7  10    9.40   12.80
  -4  -7 -10   10.40   17.60
   4  -7  10   -8.70   11.30
  -5  -7 -10  -11.40   18.50
   5  -7  10   17.00   10.70
   5  -7  10   -6.60   10.90
  -6  -7 -10   -5.20   17.70
  -7  -7 -10   17.40   21.40
  -8  -7 -10    1.20   21.60
  14  -8 -10    3.80   16.10
  14   8 -10    4.20   23.60
  13  -8 -10   46.80   21.10
  13   8 -10  136.19   35.80
  12  -8 -10    5.00   15.80
  12   8 -10    9.60   21.00
  11  -8 -10   20.70   16.70
  11   8 -10   16.50   20.30
  10  -8 -10    1.80   15.20
  10   8 -10  -22.60   16.50
   9  -8 -10    4.30   17.00
   9   8 -10    9.80   21.00
   8  -8 -10   -1.50   17.10
   8   8 -10    1.20   18.20
   7  -8 -10   20.90   20.00
   7   8 -10   82.09   26.00
   6  -8 -10    9.70   18.80
   6   8 -10   25.40   21.10
   5  -8 -10   44.80   23.10
  -5  -8  10   97.59   30.40
   5   8 -10   52.69   22.40
   4  -8 -10  192.28   33.40
  -4  -8  10  168.38   34.30
   4   8 -10  193.18   32.80
  -3  -8  10   83.09   26.70
   3  -8 -10   31.10   22.50
   2  -8 -10   39.30   22.10
  -2  -8  10   26.00   39.80
   2   8 -10   43.50   19.80
   1  -8 -10   17.70   21.00
  -1  -8  10    9.30   18.10
   1   8 -10  -10.40   12.20
   0  -8  10   36.80   20.10
   0  -8 -10   25.50   20.00
   1  -8  10    7.60   17.70
  -1  -8 -10   27.90   21.40
   1  -8  10   22.10   16.10
   2  -8  10  126.99   23.80
  -2  -8 -10   65.99   26.40
   2  -8  10   94.49   21.30
  -3  -8 -10   16.90   22.30
   3  -8  10    4.60   15.00
   3  -8  10   37.70   17.10
   4  -8  10   31.70   13.70
  -4  -8 -10   31.70   23.30
   5  -8  10   15.30   14.00
  -5  -8 -10    5.80   23.50
   5  -8  10    3.80   15.90
  -6  -8 -10   17.10   24.00
  11  -9 -10   -0.30   17.80
  11   9 -10   -3.50   18.60
  10  -9 -10   37.60   19.60
   9  -9 -10   36.40   21.50
   9   9 -10   30.80   24.30
   8  -9 -10   61.19   23.10
   8   9 -10   49.80   23.80
   7  -9 -10   34.70   23.20
   7   9 -10   34.30   22.50
   6  -9 -10   -0.20   19.30
   6   9 -10   16.60   20.00
   5  -9 -10  -11.40   16.80
   5   9 -10   -1.30   17.80
   4  -9 -10   39.50   23.10
   4   9 -10  -13.40   14.10
   3  -9 -10   15.60   20.40
   2  -9 -10   43.90   23.90
  -2  -9  10   54.49   27.20
  -2  -9  10   24.60   19.00
   1  -9 -10    4.30   20.00
  -1  -9  10   68.09   21.00
  -1  -9  10   50.59   25.10
   0  -9 -10   26.30   23.40
   0  -9  10   47.20   26.80
   0  -9  10   59.29   30.60
   1  -9  10   76.59   24.70
   1  -9  10    3.70   16.10
   2  -9  10   28.90   16.20
   2  -9  10   34.20   19.90
  -2  -9 -10   51.49   25.90
   3  -9  10   24.90   16.40
  -3  -9 -10    7.20   22.20
   3  -9  10   43.40   19.40
  21   0 -11   73.49   25.30
  20   0 -11    5.60   19.50
  19   0 -11  -19.00   13.70
  18   0 -11   -6.00   15.90
  17   0 -11  171.88   30.10
 -17   0  11  190.88   33.10
  16   0 -11   17.20   17.10
 -16   0  11   27.70   19.40
 -15   0  11   91.09   24.40
 -14   0  11   -0.50   17.40
  14   0 -11   40.80   17.40
  13   0 -11   26.40   15.50
 -13   0  11   35.70   18.60
  12   0 -11   52.59   18.90
 -12   0  11   42.70   19.20
 -11   0  11    1.30   12.60
  11   0 -11    5.80   12.20
 -10   0  11   29.30   15.70
  10   0 -11   -2.50   13.20
   9   0 -11    6.00   12.40
  -9   0  11   40.30   15.50
  -8   0  11   40.40   15.50
   8   0 -11   67.89   19.40
  -7   0  11   70.89   17.30
   7   0 -11   71.19   18.10
  -6   0  11   90.19   18.70
   6   0 -11   68.09   17.70
  -5   0  11   20.30   12.70
   5   0 -11    1.40   11.80
  -4   0  11    5.30   11.60
   4   0 -11    8.80   11.70
   3   0 -11   95.49   18.60
  -3   0  11   74.39   16.60
   2   0 -11   86.59   18.00
  -2   0  11   54.69   15.90
  -1   0  11    8.90   11.80
   1   0 -11    4.30   12.00
   0   0  11   -1.70    9.70
   0   0 -11   -8.90   11.50
  -1   0 -11   11.00   12.90
   1   0  11   11.20   12.10
   2   0  11   22.00   13.90
  -2   0 -11   64.89   17.50
  -3   0 -11   13.30   13.90
   3   0  11   -8.50   10.20
   4   0  11    3.10   13.20
  -4   0 -11   39.90   15.10
   5   0  11   52.99   15.90
  -5   0 -11   27.40   15.50
  -6   0 -11   17.10   15.50
   6   0  11   40.50   16.20
  -7   0 -11   17.30   15.60
   7   0  11  -12.50   12.60
  -8   0 -11  -12.70   13.60
   8   0  11  -16.60   14.90
  -9   0 -11    2.20   13.60
  -9   0 -11  -32.60   12.50
 -10   0 -11   27.30   15.70
 -10   0 -11  -13.10   14.40
 -11   0 -11   26.00   15.50
 -11   0 -11   56.99   18.30
 -12   0 -11  -16.60   13.90
 -12   0 -11    1.80   14.50
  21  -1 -11   -0.90   16.90
  21   1 -11   -5.50   17.40
  20  -1 -11   66.39   23.30
  20   1 -11   63.49   24.10
  19  -1 -11  232.38   34.30
  19   1 -11  224.98   35.20
  18  -1 -11   -8.80   15.60
 -18   1  11   10.10   21.40
  18   1 -11   38.10   19.90
  17  -1 -11  201.68   32.50
  17   1 -11  228.18   33.40
 -17   1  11  273.77   39.40
  16  -1 -11   -9.80   12.40
 -16  -1  11   29.20   19.70
 -16   1  11   62.89   22.40
  16   1 -11   25.00   16.80
  15  -1 -11    3.00   13.70
 -15  -1  11   -9.10   14.60
  15   1 -11  -25.90   14.50
 -15   1  11   57.49   21.80
  14  -1 -11   56.59   21.10
 -14  -1  11   40.30   18.80
  14   1 -11   36.60   17.60
 -14   1  11   83.99   24.80
 -13  -1  11   -8.00   13.30
  13  -1 -11   16.80   16.40
 -13   1  11   30.20   18.80
  13   1 -11   32.70   18.10
  12  -1 -11   -4.70   12.80
 -12  -1  11   -5.20   12.40
 -12   1  11   20.10   16.10
  12   1 -11   -4.50   12.40
  11  -1 -11   36.40   16.10
 -11  -1  11   19.00   15.00
 -11   1  11   36.90   16.20
  11   1 -11   23.90   15.00
  10  -1 -11   24.50   15.70
 -10  -1  11   58.69   18.60
 -10   1  11   35.00   16.90
  10   1 -11   19.90   13.90
   9  -1 -11   -7.70   10.60
  -9  -1  11   -2.60   10.60
   9   1 -11   11.40   12.50
  -9   1  11   -7.50   10.40
   8  -1 -11  252.37   27.20
  -8  -1  11  244.38   26.50
   8   1 -11  207.38   24.90
  -8   1  11  250.87   27.40
   7  -1 -11   43.10   14.70
  -7  -1  11   16.70   13.50
   7   1 -11   29.70   15.00
  -7   1  11    9.60   10.80
  -6  -1  11   74.69   18.10
   6  -1 -11   72.49   18.00
   6   1 -11   60.59   16.90
  -6   1  11   41.40   15.10
  -5  -1  11    6.30   11.40
   5  -1 -11   -4.10   10.80
   5   1 -11   19.70   13.20
  -5   1  11   -4.00    9.70
   4  -1 -11   23.60   15.20
  -4  -1  11   16.40   12.30
   4   1 -11   24.00   14.10
  -4   1  11   31.20   13.80
  -3  -1  11   36.50   14.60
   3  -1 -11   51.29   15.50
   3   1 -11   17.80   12.80
  -3   1  11   14.20   11.90
   2  -1 -11    1.00   12.30
  -2  -1  11   21.50   13.20
   2   1 -11   21.00   12.90
  -2   1  11   20.20   13.30
  -1  -1  11    9.30   10.80
   1  -1 -11   -2.10   11.90
  -1   1  11  -11.30    9.10
   1   1 -11    1.30   10.60
   0  -1 -11   23.90   14.90
   0  -1  11    4.80   10.80
   0   1 -11   -8.00   11.00
   0   1  11   29.50   13.60
   1  -1  11  -11.90   18.40
  -1  -1 -11    5.10   13.20
  -1   1 -11   -9.60   11.20
   1   1  11   -4.00   11.80
  -2  -1 -11   51.09   18.60
   2  -1  11   32.10   16.00
   2   1  11   25.90   14.30
  -2   1 -11   34.50   14.00
  -3  -1 -11   12.60   15.20
   3  -1  11   -1.00   11.90
  -3   1 -11   14.50   12.50
   3   1  11    1.40   11.60
   4  -1  11   11.60   12.70
  -4  -1 -11   12.30   16.30
  -4   1 -11   -1.80   12.40
   4   1  11    8.90   14.00
   5  -1  11  -10.90   11.20
  -5  -1 -11   12.80   14.70
   5   1  11   -4.60   12.30
  -5   1 -11   21.10   14.20
   6  -1  11    6.80   13.70
  -6  -1 -11    7.00   16.90
  -6   1 -11   16.50   15.40
   6   1  11  -10.90   13.20
  -7  -1 -11  -14.60   15.50
   7  -1  11   -5.70   14.70
   7   1  11   -4.10   15.60
  -8  -1 -11    0.70   18.00
   8  -1  11   22.50   15.60
  -8   1 -11    3.70   13.50
   8   1  11   22.80   19.90
  -9  -1 -11   49.60   21.20
  -9  -1 -11   16.30   15.90
  -9   1 -11    7.80   12.30
  -9   1 -11   -1.20   12.70
 -10  -1 -11   11.50   17.50
 -10  -1 -11   28.60   19.20
 -10   1 -11    0.90   12.30
 -10   1 -11   13.00   12.50
 -11  -1 -11   20.10   19.40
 -11  -1 -11    0.50   15.50
 -11   1 -11   34.00   12.00
 -11   1 -11   15.80   12.20
 -12  -1 -11   17.20   16.90
 -12  -1 -11   -3.30   17.80
 -12   1 -11    3.20    9.80
 -12   1 -11   -1.90    8.90
  20  -2 -11   40.10   21.30
  20   2 -11    8.30   18.90
  19  -2 -11   -7.20   14.90
  19   2 -11  -17.70   16.20
  18  -2 -11    7.50   17.10
  18   2 -11    8.80   19.80
 -18   2  11    3.20   20.00
  17  -2 -11   48.90   19.90
  17   2 -11   -5.60   16.40
 -17   2  11   32.70   20.50
  16  -2 -11   18.20   18.30
  16   2 -11   61.99   23.10
 -16   2  11   31.80   19.90
  15  -2 -11  115.79   24.10
 -15  -2  11  115.59   28.00
  15   2 -11   75.19   23.10
 -15   2  11   94.79   28.00
 -14  -2  11   96.59   25.00
  14  -2 -11   49.00   19.30
 -14   2  11   33.90   18.40
  14   2 -11   93.29   24.40
 -13  -2  11    1.10   15.10
  13  -2 -11   16.30   17.70
  13   2 -11   67.09   21.70
 -13   2  11   14.80   16.00
 -12  -2  11   28.90   17.70
  12  -2 -11   76.39   21.10
  12   2 -11   37.80   18.40
 -12   2  11   61.39   20.20
 -11  -2  11    1.30   12.90
  11  -2 -11   -2.30   12.40
  11   2 -11   -8.80   13.50
 -11   2  11   -3.30   12.00
  10  -2 -11    3.20   12.30
 -10  -2  11   -8.90   11.10
 -10   2  11   14.40   14.40
  10   2 -11  -16.10   12.50
  -9  -2  11   -5.50   11.60
   9  -2 -11    0.90   11.90
   9   2 -11   -3.50   11.80
  -9   2  11   -1.10   11.60
  -8  -2  11   29.90   16.30
   8  -2 -11   40.60   15.30
   8   2 -11   62.19   18.50
  -8   2  11   51.69   17.00
   7  -2 -11    7.20   12.80
  -7  -2  11    3.70   11.50
  -7   2  11   12.10   11.10
   7   2 -11   -8.60   10.80
   6  -2 -11   33.80   16.10
  -6  -2  11   13.00   12.70
   6   2 -11    9.20   12.10
  -6   2  11   29.00   13.70
  -5  -2  11   17.20   13.60
   5  -2 -11   11.80   13.70
  -5   2  11    0.70   11.20
   5   2 -11   46.90   16.10
  -4  -2  11    4.50   13.00
   4  -2 -11    3.50   13.50
   4   2 -11    4.10   11.90
  -4   2  11   -7.00   10.20
  -3  -2  11   44.90   14.90
   3  -2 -11   53.09   17.10
   3   2 -11   24.70   14.50
  -3   2  11   14.50   11.40
   2  -2 -11   -0.70   12.90
  -2  -2  11   10.30   11.80
  -2   2  11   -8.10   10.80
   2   2 -11   33.80   15.00
  -1  -2  11   10.10   11.80
   1  -2 -11    1.60   13.90
   1   2 -11  -17.10   10.20
  -1   2  11  -10.50    9.80
   0  -2  11   10.90   19.20
   0  -2 -11  -14.60   11.20
   0   2 -11    9.70   12.90
   0   2  11  -21.10    8.90
   1  -2  11  -11.90    9.50
  -1  -2 -11    3.40   14.40
   1   2  11    0.30   12.70
  -1   2 -11  -16.10   11.10
   2  -2  11   56.79   14.50
  -2  -2 -11   41.60   17.40
  -2   2 -11   39.40   14.70
   2   2  11   59.19   18.80
  -3  -2 -11   29.40   17.60
   3  -2  11   -5.60    9.90
   3   2  11    3.60   12.30
  -3   2 -11   29.00   21.30
  -4  -2 -11    3.00   15.80
   4  -2  11   38.50   14.40
   4   2  11   38.30   16.70
  -4   2 -11   31.20   14.90
   5  -2  11   37.00   13.80
  -5  -2 -11    1.60   15.30
  -5   2 -11    5.70   11.90
   5   2  11    7.50   14.00
   6  -2  11    2.10   11.80
  -6  -2 -11  -17.30   14.80
   6   2  11    2.40   17.40
  -6   2 -11   14.40   11.90
   7  -2  11    0.00   11.40
  -7  -2 -11    1.40   16.80
  -7   2 -11    8.30   11.60
   7   2  11  -10.60   15.50
  -8  -2 -11    8.50   19.80
  -8   2 -11   35.20   11.30
   8   2  11   18.90   19.50
  -9  -2 -11  -27.90   16.40
  -9  -2 -11  -18.80   14.70
  -9   2 -11   -1.70    7.50
  -9   2 -11    5.80    8.60
 -10  -2 -11   -0.10   18.10
 -10  -2 -11  -22.60   15.50
 -11  -2 -11   35.30   20.30
 -11  -2 -11   42.30   22.20
 -12  -2 -11   -3.90   18.30
 -12  -2 -11   19.90   20.60
  20  -3 -11   47.50   23.20
  20   3 -11   80.99   27.20
  19  -3 -11   38.20   20.50
  19   3 -11   49.70   23.90
  18  -3 -11   21.60   18.20
  18   3 -11   17.40   21.00
 -18   3  11   85.19   28.00
  17  -3 -11  117.59   26.10
 -17   3  11   12.60   19.70
  17   3 -11   84.39   26.50
  16  -3 -11   38.20   21.60
 -16   3  11   33.80   20.80
  16   3 -11    4.80   18.40
  15  -3 -11   -9.30   15.70
 -15   3  11   -3.10   15.30
  15   3 -11   39.50   19.40
  14  -3 -11   -2.90   15.00
 -14  -3  11   15.30   16.20
  14   3 -11  -12.70   13.40
 -14   3  11   -2.60   24.00
 -13  -3  11   -4.60   16.80
  13  -3 -11  -14.00   13.30
 -13   3  11   -8.10   11.80
  13   3 -11    8.50   15.50
  12  -3 -11   55.99   19.70
 -12  -3  11   30.90   18.00
  12   3 -11   27.00   30.50
 -12   3  11   37.80   17.60
 -11  -3  11   31.30   20.80
  11  -3 -11   64.49   21.30
  11   3 -11   40.90   18.60
 -11   3  11   49.20   19.10
  10  -3 -11   44.50   17.30
 -10  -3  11   16.30   17.50
  10   3 -11   35.50   17.20
 -10   3  11   11.00   13.70
   9  -3 -11   63.89   17.90
  -9  -3  11   56.29   19.00
  -9   3  11   56.39   18.80
   9   3 -11   29.10   16.10
   8  -3 -11    3.20   13.40
  -8  -3  11   26.30   16.10
   8   3 -11  -14.90   12.20
  -8   3  11   16.50   13.90
   7  -3 -11   11.30   13.30
  -7  -3  11    1.60   13.90
  -7   3  11    1.10   12.70
   7   3 -11    5.50   13.60
  -6  -3  11   -2.80   12.00
   6  -3 -11   -7.40   11.60
  -6   3  11   17.20   12.60
   6   3 -11    0.90   12.90
   5  -3 -11   12.70   14.20
  -5  -3  11    8.90   13.00
   5   3 -11    1.60   12.20
  -5   3  11   -4.30   11.30
   4  -3 -11   20.30   14.10
  -4  -3  11   -0.30   11.10
  -4   3  11    2.70   11.10
   4   3 -11   14.70   12.40
   3  -3 -11  -21.40   11.00
  -3  -3  11   -9.70   10.90
  -3   3  11  -13.30    9.30
   3   3 -11  -21.50    9.70
  -2  -3  11    2.20   11.80
   2  -3 -11   -1.40   12.80
  -2   3  11   23.40   13.60
   2   3 -11    0.50   11.40
   1  -3 -11   -1.90   13.50
  -1  -3  11    7.80   11.60
  -1   3  11   27.00   13.40
   1   3 -11   12.70   12.20
   0  -3 -11    2.90   14.30
   0  -3  11    7.70   13.60
   0   3  11   -9.20   11.00
   0   3 -11   13.50   12.40
  -1  -3 -11    5.10   13.70
   1  -3  11    4.40   10.90
  -1   3 -11    4.60   11.80
   1   3  11   10.10   15.50
  -2  -3 -11    2.20   15.40
   2  -3  11   -2.20   10.40
  -2   3 -11  -11.40   10.90
   2   3  11   15.30   13.30
  -3  -3 -11   -4.80   14.70
   3  -3  11   25.40   12.00
  -3   3 -11   14.60   13.00
   3   3  11   20.90   15.70
   4  -3  11    1.80   10.30
  -4  -3 -11   33.50   18.30
   4   3  11    0.00   13.50
  -4   3 -11  -13.70   10.20
  -5  -3 -11  -18.40   14.90
   5  -3  11   -5.20   11.20
  -5   3 -11   -2.60   10.70
   5   3  11   -7.50   16.20
   6  -3  11    2.50   10.30
  -6  -3 -11    8.40   17.70
  -6   3 -11   -3.80    9.10
   6   3  11   23.10   19.60
   7  -3  11    3.50    9.50
  -7  -3 -11  -16.20   16.00
   7   3  11   29.10   20.00
  -7   3 -11    7.80    8.10
  -8  -3 -11    1.00   17.70
   8   3  11   -8.60   21.00
  -9  -3 -11    5.30   19.70
  -9  -3 -11   -2.80   17.00
 -10  -3 -11  -27.50   31.50
 -10  -3 -11    7.20   19.30
 -11  -3 -11   -6.00   17.40
 -11  -3 -11    2.70   21.80
 -12  -3 -11   -1.20   19.20
 -12  -3 -11   -7.20   21.20
  19  -4 -11    7.80   18.20
  19   4 -11    6.70   25.00
  18  -4 -11   55.69   21.10
  18   4 -11    7.20   19.00
 -18   4  11   54.79   29.20
  17  -4 -11   41.40   21.20
 -17   4  11  -11.70   16.00
  17   4 -11   15.00   21.60
  16  -4 -11  136.39   27.30
 -16   4  11   29.90   21.90
  16   4 -11  102.59   27.90
  15  -4 -11  112.99   26.50
  15   4 -11   86.39   25.50
 -15   4  11   79.89   24.10
  14  -4 -11   79.19   26.60
  14   4 -11   83.09   25.30
 -14   4  11   92.29   23.30
 -13  -4  11   49.80   26.90
  13  -4 -11   18.00   16.10
 -13   4  11   10.80   31.50
  13   4 -11   47.50   22.70
 -12  -4  11   25.90   19.60
  12  -4 -11   28.20   18.30
 -12   4  11   27.00   17.50
  12   4 -11   48.30   21.70
 -11  -4  11   26.60   20.00
  11  -4 -11   42.20   17.70
  11   4 -11   29.40   20.80
 -11   4  11   46.00   20.00
 -10  -4  11   22.20   22.40
  10  -4 -11   13.00   14.30
  10   4 -11  -17.90   13.70
 -10   4  11   19.30   15.60
   9  -4 -11  -16.60   12.20
  -9  -4  11  -11.70   12.90
  -9   4  11    5.10   13.00
   9   4 -11  -10.60   14.90
   8  -4 -11   44.40   16.30
  -8  -4  11   12.90   17.20
   8   4 -11   -5.80   15.70
  -8   4  11   30.00   15.90
  -7  -4  11   18.00   16.50
   7  -4 -11   43.70   17.40
   7   4 -11   -5.80   12.70
  -7   4  11  -16.50   11.60
   6  -4 -11   -3.80   13.10
  -6  -4  11   18.70   15.70
   6   4 -11  -22.60   11.90
  -6   4  11   -2.10   12.10
  -5  -4  11    0.20   12.90
   5  -4 -11   13.40   14.70
   5   4 -11   19.80   14.20
  -5   4  11    6.60   13.40
  -4  -4  11   13.50   12.80
   4  -4 -11   -3.90   13.20
  -4   4  11    2.50   11.70
   4   4 -11   -9.00   13.20
   3  -4 -11  -19.60   13.20
  -3  -4  11  -10.20   12.10
   3   4 -11   15.40   13.20
  -3   4  11    9.60   12.40
   2  -4 -11   21.60   17.60
  -2  -4  11    2.50   11.80
  -2   4  11   20.30   15.10
   2   4 -11   18.80   15.00
   1  -4 -11   -3.50   14.30
  -1  -4  11  -13.50   11.00
   1   4 -11  -16.10   12.90
  -1   4  11  -10.30   14.00
   0  -4  11  -24.20   11.60
   0  -4 -11   24.40   17.80
   0   4  11  -14.70   11.60
   0   4 -11    5.70   12.20
  -1  -4 -11   -2.70   15.00
   1  -4  11  -20.60   15.00
   1   4  11   19.70   15.10
  -1   4 -11  -22.30   12.00
   2  -4  11   14.60   14.10
  -2  -4 -11   22.00   17.30
   2   4  11    1.50   13.90
  -2   4 -11   17.20   13.20
   3  -4  11   18.10   13.40
  -3  -4 -11  -17.20   15.40
  -3   4 -11   11.20   12.30
   3   4  11   30.00   15.90
  -4  -4 -11   -5.50   15.10
   4  -4  11    5.00   11.10
  -4   4 -11   22.80   12.50
   5  -4  11   11.20   10.40
  -5  -4 -11  -16.50   17.00
  -5   4 -11    4.50   10.10
   5   4  11    6.90   14.20
   6  -4  11   -4.90    8.20
  -6  -4 -11  -16.20   18.30
  -6   4 -11    6.50    7.40
   6   4  11   24.30   17.60
  -7  -4 -11    7.20   18.80
   7   4  11   27.10   20.50
  -8  -4 -11  -21.10   18.80
  -8  -4 -11  -18.80   15.40
  -9  -4 -11    5.80   18.60
 -10  -4 -11   -0.80   19.20
 -11  -4 -11   -4.90   22.60
  18  -5 -11   16.10   18.90
  18   5 -11   20.80   25.90
  17  -5 -11    5.00   17.40
 -17   5  11   28.20   27.50
  17   5 -11    9.10   20.80
  16  -5 -11    3.90   16.60
  16   5 -11   19.60   20.00
 -16   5  11   10.50   19.40
  15  -5 -11    4.60   16.20
 -15   5  11   35.40   22.30
  15   5 -11    1.10   16.10
  14  -5 -11  -20.00   13.50
 -14   5  11   19.60   19.60
  14   5 -11   18.70   17.50
  13  -5 -11  -23.20   13.00
 -13   5  11  -26.90   14.60
  13   5 -11  -12.00   15.80
 -12   5  11   -2.50   15.80
  12   5 -11   -4.70   15.00
  11  -5 -11   -0.20   14.10
 -11  -5  11   19.80   17.80
 -11   5  11  -18.20   13.40
  11   5 -11  -16.70   13.50
 -10  -5  11   -9.20   14.90
  10  -5 -11   12.40   15.40
  10   5 -11  -13.80   16.00
 -10   5  11  -11.10   17.40
   9  -5 -11  -17.30   13.50
  -9  -5  11    2.10   19.90
   8  -5 -11   -4.40   14.20
  -8   5  11  -12.70   29.70
   8   5 -11   -4.90   14.80
   7  -5 -11    1.40   15.10
  -7  -5  11  -19.20   15.10
   7   5 -11   -7.10   15.50
  -7   5  11   31.20   18.00
   6  -5 -11  -20.80   13.60
  -6  -5  11   -7.90   15.60
   6   5 -11   -6.20   14.00
  -6   5  11    5.50   13.90
   5  -5 -11    0.40   14.90
  -5  -5  11    6.30   14.80
  -5   5  11   28.70   16.70
   5   5 -11    3.70   14.80
  -4  -5  11  -16.40   14.70
   4  -5 -11    0.70   15.50
  -4   5  11   18.20   17.80
   4   5 -11  -21.80   11.50
   3  -5 -11   16.40   17.20
  -3  -5  11   -6.40   14.50
   3   5 -11  -14.80   11.60
  -2  -5  11   -9.80   13.10
   2  -5 -11   15.30   17.60
   2   5 -11  -11.00   11.90
  -2   5  11   14.70   19.00
  -1  -5  11    9.20   13.20
   1  -5 -11  -19.20   14.30
   1   5 -11   31.40   17.30
  -1   5  11  -12.10   10.40
   0  -5 -11   12.90   24.70
   0  -5  11   -1.90   14.30
   0   5  11    4.00   12.40
   0   5 -11  -25.70   12.30
  -1  -5 -11   30.50   23.30
   1  -5  11   10.10   13.70
   1   5  11   -1.00   15.40
  -1   5 -11   35.10   15.00
   2  -5  11   -7.00   12.90
  -2  -5 -11   15.90   18.80
   2   5  11  -26.30   12.80
  -2   5 -11    2.70   13.30
  -3  -5 -11   -6.30   17.10
   3  -5  11   -4.30   12.60
   3   5  11   21.80   19.30
  -3   5 -11   17.10   15.40
   4  -5  11   17.50   12.80
  -4  -5 -11    3.30   17.00
   4   5  11   -3.30   12.30
  -4   5 -11  -10.80    9.80
   5  -5  11   13.80   10.80
  -5  -5 -11   31.60   20.30
   5   5  11    6.30   19.80
  -5   5 -11   16.00    9.60
  -6  -5 -11   -1.70   20.00
  -7  -5 -11    3.90   18.50
  -8  -5 -11   39.50   22.90
  -9  -5 -11   20.20   21.90
 -10  -5 -11   41.50   27.00
  17  -6 -11   29.80   20.70
  17   6 -11   40.60   25.40
  16  -6 -11    9.70   19.10
  16   6 -11   39.70   37.20
  15  -6 -11   43.10   21.30
  15   6 -11   64.19   26.20
  14  -6 -11   53.99   20.70
  14   6 -11   69.79   25.60
 -14   6  11    2.20   16.50
  13  -6 -11    0.50   17.10
 -13   6  11  -21.50   14.20
  13   6 -11   36.10   21.90
  12  -6 -11   23.30   17.40
 -12   6  11   38.20   19.20
  12   6 -11    7.40   18.60
  11  -6 -11  -16.80   13.10
  11   6 -11  -14.50   16.60
 -11   6  11   -1.00   14.70
  10  -6 -11  -15.10   13.60
 -10   6  11   12.60   14.60
  10   6 -11   49.60   21.80
   9  -6 -11    2.10   14.70
  -9  -6  11  -20.90   14.10
   9   6 -11  -19.70   15.50
  -9   6  11   -0.30   14.50
  -8  -6  11  -11.90   17.10
   8  -6 -11    2.10   16.00
   8   6 -11    2.90   16.10
  -8   6  11  -15.10   13.10
  -7  -6  11   22.60   18.70
   7  -6 -11   -0.90   16.60
  -7   6  11   47.60   19.00
   6  -6 -11    4.00   16.40
   6   6 -11  -24.20   13.40
  -6   6  11   -0.80   16.40
   5  -6 -11  -11.20   15.10
  -5  -6  11  -11.40   14.50
  -5   6  11   21.10   17.80
   5   6 -11   -8.30   13.70
  -4  -6  11   16.60   17.70
   4  -6 -11   -9.60   14.20
   4   6 -11    7.10   16.30
  -4   6  11    5.70   13.70
   3  -6 -11    6.90   17.10
  -3  -6  11  -12.10   15.30
  -3   6  11   24.60   16.70
   3   6 -11   14.60   17.40
  -2  -6  11   12.50   15.70
   2  -6 -11    2.50   16.40
  -2   6  11   10.10   15.50
   2   6 -11    9.50   16.20
  -1  -6  11    9.80   15.60
   1  -6 -11  -10.10   15.70
  -1   6  11   12.20   16.00
   1   6 -11    1.30   14.60
   0  -6 -11   16.60   16.90
   0  -6  11   27.40   16.90
   0   6 -11    6.80   15.90
   0   6  11   25.00   18.80
   1  -6  11    0.00   13.90
  -1  -6 -11  -14.60   16.20
  -1   6 -11   -0.80   14.50
   2  -6  11   32.80   15.70
  -2  -6 -11   -0.80   17.70
  -2   6 -11    6.80   14.70
  -3  -6 -11  -15.10   16.70
   3  -6  11    6.10   14.30
  -3   6 -11    8.60   12.60
   4  -6  11   39.60   14.10
  -4  -6 -11   12.50   20.30
   5  -6  11   11.70   10.80
  -5  -6 -11    3.80   19.40
  -6  -6 -11  -12.30   17.40
  -7  -6 -11    0.30   19.50
  -8  -6 -11   -7.60   19.10
  -9  -6 -11   -6.80   20.80
  15  -7 -11   -0.40   16.90
  15   7 -11   27.10   21.80
  14  -7 -11    9.80   17.20
  14   7 -11   18.30   24.40
  13  -7 -11   14.20   18.30
  13   7 -11   34.00   22.10
  12  -7 -11  -12.10   15.40
  12   7 -11   -0.40   18.50
  11  -7 -11    5.20   15.60
  11   7 -11   -3.20   15.40
  10  -7 -11   32.20   18.90
  10   7 -11  -17.10   18.30
   9  -7 -11   15.70   16.70
   9   7 -11    9.00   20.00
   8  -7 -11   68.29   23.50
   8   7 -11   20.40   19.00
  -7  -7  11   14.60   20.60
   7  -7 -11   20.30   19.60
   7   7 -11   22.50   19.70
   6  -7 -11   -2.30   18.20
  -6  -7  11    5.50   19.00
   6   7 -11   60.19   24.00
   5  -7 -11  -11.60   17.80
  -5  -7  11   -9.90   18.70
   5   7 -11   -7.10   27.50
   4  -7 -11   11.00   18.40
  -4  -7  11   44.00   37.80
   4   7 -11   12.80   16.60
  -3  -7  11   18.20   18.80
   3  -7 -11   -8.00   17.00
   3   7 -11   25.50   18.30
   2  -7 -11  -27.20   15.00
  -2  -7  11   16.80   17.80
   2   7 -11   11.00   15.00
  -1  -7  11   -5.20   16.60
   1  -7 -11   -9.50   17.10
   1   7 -11   10.70   16.00
   0  -7 -11  -12.50   16.80
   0  -7  11  -11.10   15.30
   0   7 -11  -13.30   13.00
  -1  -7 -11  -14.20   17.30
   1  -7  11   18.40   16.60
  -1   7 -11   -1.30   12.60
  -2  -7 -11   -9.80   18.50
   2  -7  11    5.10   13.90
  -2   7 -11   11.30   13.90
   3  -7  11    6.10   16.00
  -3  -7 -11    2.40   18.20
   4  -7  11   -5.70   10.60
  -4  -7 -11  -26.60   16.80
   4  -7  11    5.40   12.80
  -5  -7 -11   12.30   18.60
   5  -7  11   -3.00    9.50
   5  -7  11   14.10   12.50
  -6  -7 -11  -12.80   20.10
  -7  -7 -11    0.00   21.30
  13  -8 -11  -11.80   17.00
  13   8 -11   -6.50   20.00
  12  -8 -11  -15.50   14.40
  12   8 -11   46.90   43.60
  11  -8 -11   -2.40   17.20
  11   8 -11   -4.90   17.80
  10  -8 -11    0.00   15.80
  10   8 -11   24.30   20.30
   9  -8 -11   28.50   19.80
   9   8 -11   -2.10   17.40
   8  -8 -11   -0.60   18.00
   8   8 -11   21.40   21.10
   7  -8 -11  -12.40   16.30
   7   8 -11  -14.40   17.00
   6  -8 -11  -22.30   16.80
   6   8 -11   10.20   18.60
   5  -8 -11   -0.20   18.50
   5   8 -11   46.60   21.30
   4  -8 -11    5.00   19.20
  -4  -8  11   -0.40   18.60
   4   8 -11   23.20   20.30
   3  -8 -11    9.70   16.50
  -3  -8  11   12.30   21.00
   3   8 -11   16.80   19.20
   2  -8 -11    9.20   18.80
  -2  -8  11   -3.80   18.30
   2   8 -11   -0.90   16.60
  -1  -8  11   17.10   19.60
   1  -8 -11   13.30   18.70
   1   8 -11   -5.40   14.70
   0  -8 -11  -12.10   19.90
   0  -8  11   15.00   18.70
   0   8 -11  -17.70   12.10
  -1  -8 -11   36.50   22.20
   1  -8  11   14.80   18.60
   2  -8  11    0.70   15.40
   2  -8  11   12.30   15.70
  -2  -8 -11   25.30   20.10
   3  -8  11   -2.40   16.00
  -3  -8 -11  -24.10   16.60
   3  -8  11  -16.00   12.10
  -4  -8 -11   56.39   39.30
   5  -8  11    9.20   12.90
  -5  -8 -11   -7.00   20.30
   5  -8  11    8.70   11.50
  10  -9 -11   -0.10   16.90
  10   9 -11    7.10   21.20
   9  -9 -11  -22.50   15.90
   9   9 -11    3.50   20.30
   8  -9 -11    5.50   21.00
   8   9 -11   -9.10   19.30
   7  -9 -11  -40.60   15.50
   7   9 -11   35.20   23.30
   6  -9 -11   -2.30   20.60
   6   9 -11   46.20   25.30
   5  -9 -11   11.80   21.60
   5   9 -11   -1.60   17.90
   4  -9 -11  -16.60   18.90
   4   9 -11    9.30   20.60
   3  -9 -11   46.10   25.70
   3   9 -11   20.70   18.30
   2  -9 -11  -25.60   23.10
  -2  -9  11    7.00   21.70
   1  -9 -11   -2.30   29.20
  -1  -9  11    9.00   21.50
  -1  -9  11   30.30   19.30
   0  -9  11  -22.70   22.10
   0  -9  11   -1.30   19.60
   0  -9 -11   -1.40   18.90
   1  -9  11  -10.70   17.60
   1  -9  11    6.00   15.70
  -1  -9 -11  -16.20   16.40
   2  -9  11    0.30   14.90
  -2  -9 -11  -21.30   17.30
  20   0 -12   18.20   19.30
  19   0 -12   16.70   19.10
  18   0 -12    9.90   17.90
  17   0 -12  288.67   36.00
 -16   0  12   17.30   20.60
  16   0 -12    0.10   16.80
  15   0 -12   81.29   22.90
 -15   0  12   51.39   22.20
 -14   0  12   15.90   18.20
  14   0 -12    0.90   24.30
  13   0 -12    7.40   15.90
 -13   0  12    7.90   21.40
 -12   0  12   24.50   16.80
  12   0 -12   26.80   16.10
 -11   0  12    6.00   15.10
  11   0 -12   -1.10   13.10
 -10   0  12   20.00   15.50
  10   0 -12  -22.00   11.20
   9   0 -12   -2.00   12.70
  -9   0  12  -12.40   10.40
  -8   0  12  518.35   36.90
   8   0 -12  589.14   38.30
  -7   0  12   51.19   18.10
   7   0 -12   78.59   18.70
   6   0 -12 1060.99   48.40
  -6   0  12 1054.09   49.40
  -5   0  12  507.45   35.20
   5   0 -12  499.25   34.80
   4   0 -12  221.48   26.70
  -4   0  12  197.68   25.10
  -3   0  12 1680.23   59.99
   3   0 -12 1647.24   58.79
   2   0 -12    4.10   13.40
  -2   0  12   13.30   13.70
   1   0 -12  -12.10   11.20
  -1   0  12   26.90   12.60
   0   0  12   67.69   16.40
   0   0 -12   54.69   18.00
  -1   0 -12  617.34   36.70
   1   0  12  616.14   36.40
   2   0  12    5.20   13.50
  -2   0 -12   11.00   15.40
   3   0  12  524.15   35.60
  -3   0 -12  454.15   34.50
  -4   0 -12   87.79   21.00
   4   0  12   77.29   20.80
  -5   0 -12    1.60   15.00
   5   0  12  -15.50   12.70
  -6   0 -12  -13.10   13.70
   6   0  12   -4.50   15.00
  -7   0 -12   34.60   17.00
   7   0  12   78.79   20.90
  -8   0 -12   22.30   17.70
   8   0  12   54.69   20.00
  -9   0 -12  -24.30   14.30
  -9   0 -12   16.90   15.50
 -10   0 -12   31.10   15.90
 -10   0 -12   14.10   17.00
 -11   0 -12    7.00   15.80
 -11   0 -12   -7.20   14.30
 -12   0 -12   33.80   16.90
 -12   0 -12   21.20   15.60
  20  -1 -12   37.80   23.50
  20   1 -12   27.10   21.40
  19  -1 -12  131.29   30.20
  19   1 -12   93.99   25.60
  18  -1 -12   -9.10   15.40
  18   1 -12    8.10   18.20
  17  -1 -12   96.09   25.10
  17   1 -12   98.39   26.30
  16  -1 -12    0.80   14.80
  16   1 -12    1.90   17.10
 -16   1  12    0.40   18.90
 -15  -1  12   14.20   19.00
  15  -1 -12   -6.90   14.00
  15   1 -12   53.99   21.20
 -15   1  12   -2.50   17.10
 -14  -1  12   21.70   17.30
 -14   1  12  -27.00   14.90
  14   1 -12   11.30   17.40
 -13  -1  12   -2.90   14.20
  13  -1 -12   61.79   19.30
  13   1 -12    8.40   17.70
 -12  -1  12  358.56   42.20
  12  -1 -12  392.06   35.50
  12   1 -12  373.36   35.00
 -12   1  12  380.76   36.60
 -11  -1  12   63.49   19.30
  11  -1 -12   87.39   21.60
 -11   1  12   65.19   21.20
  11   1 -12   74.49   19.40
  10  -1 -12  392.86   34.10
 -10  -1  12  362.06   33.10
 -10   1  12  384.56   34.50
  10   1 -12  391.56   33.60
   9  -1 -12   84.09   20.10
  -9  -1  12   43.00   16.50
   9   1 -12  101.49   22.50
  -9   1  12   64.59   18.70
  -8  -1  12  612.44   39.80
   8  -1 -12  578.94   38.10
   8   1 -12  570.54   37.90
  -8   1  12  585.84   38.10
   7  -1 -12  -14.70   11.00
  -7  -1  12   14.40   14.40
  -7   1  12    0.30   11.90
   7   1 -12    7.90   13.60
   6  -1 -12   37.70   15.40
  -6  -1  12   33.70   14.40
  -6   1  12   20.30   14.30
   6   1 -12   36.10   16.90
  -5  -1  12    1.10   12.30
   5  -1 -12   15.70   14.40
   5   1 -12  -13.80   10.20
  -5   1  12    0.30   11.60
  -4  -1  12  694.53   40.00
   4  -1 -12  708.53   40.90
   4   1 -12  790.32   41.50
  -4   1  12  769.02   41.10
   3  -1 -12   98.29   19.70
  -3  -1  12   19.00   13.80
   3   1 -12   79.69   18.00
  -3   1  12   69.59   17.60
  -2  -1  12  367.86   29.50
   2  -1 -12  410.36   32.30
   2   1 -12  331.37   29.70
  -2   1  12  401.86   31.10
  -1  -1  12  414.36   30.50
   1  -1 -12  442.76   33.70
  -1   1  12  423.96   32.10
   1   1 -12  459.15   32.50
   0  -1 -12   65.79   19.10
   0  -1  12   36.80   14.40
   0   1  12   13.00   14.40
   0   1 -12   22.40   13.80
   1  -1  12  466.95   32.00
  -1  -1 -12  481.45   35.50
  -1   1 -12  449.46   32.60
   1   1  12  409.66   33.60
  -2  -1 -12   -1.10   16.00
   2  -1  12   12.20   14.10
  -2   1 -12  -12.70   12.90
   2   1  12   19.20   12.70
   3  -1  12   23.50   13.50
  -3  -1 -12   30.90   17.70
  -3   1 -12   17.50   15.20
   3   1  12   23.80   17.70
  -4  -1 -12   -3.00   15.00
   4  -1  12   31.80   15.40
   4   1  12   19.90   15.80
  -4   1 -12   19.10   14.20
  -5  -1 -12   80.19   20.80
   5  -1  12  116.69   24.10
  -5   1 -12   87.69   19.10
   5   1  12   71.89   18.90
   6  -1  12   22.20   25.90
  -6  -1 -12    5.90   16.90
   6   1  12   -6.10   14.90
  -6   1 -12   14.70   14.70
   7  -1  12   68.59   19.80
  -7  -1 -12   69.39   21.40
  -7   1 -12   84.59   17.60
   7   1  12   60.89   20.90
  -8  -1 -12   10.50   19.20
   8  -1  12   48.60   19.20
   8   1  12   25.10   21.30
  -8   1 -12   49.50   15.90
  -9  -1 -12   22.60   19.40
  -9  -1 -12    1.30   18.20
  -9   1 -12  -11.00   12.40
 -10  -1 -12   65.39   22.20
 -10  -1 -12   55.19   21.30
 -10   1 -12   70.69   15.60
 -10   1 -12   82.39   17.90
 -11  -1 -12   14.30   20.40
 -11  -1 -12   10.20   16.90
 -11   1 -12   14.80   11.40
 -11   1 -12    7.20   12.50
  20  -2 -12   -2.20   17.80
  20   2 -12   21.60   22.50
  19  -2 -12    8.30   18.60
  19   2 -12   20.50   19.60
  18  -2 -12   11.40   17.80
  18   2 -12   16.30   21.40
  17  -2 -12  151.78   30.00
 -17   2  12  176.48   41.60
  17   2 -12   70.89   23.30
  16  -2 -12   96.79   23.70
  16   2 -12  176.48   32.20
 -16   2  12  149.09   30.70
  15  -2 -12  200.28   30.80
 -15   2  12  169.28   32.00
  15   2 -12  161.68   30.20
 -14  -2  12  119.19   26.10
 -14   2  12  101.99   24.90
  14   2 -12   77.59   24.70
  13  -2 -12   25.80   17.40
 -13  -2  12    6.20   15.80
  13   2 -12   -2.50   14.40
 -13   2  12   21.30   26.90
 -12  -2  12   24.40   17.50
  12  -2 -12   28.20   17.30
  12   2 -12   16.10   16.00
 -12   2  12   12.10   14.30
  11  -2 -12    5.10   15.30
 -11  -2  12    8.60   14.30
  11   2 -12   34.20   17.40
 -11   2  12   12.40   14.50
 -10  -2  12   93.69   22.30
  10  -2 -12   88.59   21.70
 -10   2  12   79.99   20.10
  10   2 -12   89.79   21.80
  -9  -2  12  153.08   26.20
   9  -2 -12  168.68   26.30
   9   2 -12  112.59   23.80
  -9   2  12  171.68   25.40
  -8  -2  12  198.38   27.20
   8  -2 -12  265.47   29.40
  -8   2  12  269.97   28.70
   8   2 -12  196.58   26.50
  -7  -2  12   12.20   13.70
   7  -2 -12   27.70   15.40
   7   2 -12   12.10   13.90
  -7   2  12   23.80   14.60
   6  -2 -12  270.77   28.80
  -6  -2  12  301.17   29.60
  -6   2  12  300.27   29.40
   6   2 -12  244.78   27.20
   5  -2 -12  212.28   28.10
  -5  -2  12  249.97   28.00
  -5   2  12  211.98   25.60
   5   2 -12  214.28   26.10
  -4  -2  12  130.69   22.50
   4  -2 -12   88.49   20.80
   4   2 -12  163.18   24.10
  -4   2  12  115.39   22.20
  -3  -2  12  191.88   25.60
   3  -2 -12  126.29   23.30
  -3   2  12  184.98   27.50
   3   2 -12  168.78   25.10
  -2  -2  12   32.60   14.90
   2  -2 -12   47.00   16.50
   2   2 -12   27.60   14.10
  -2   2  12   13.40   14.30
   1  -2 -12   84.09   20.20
  -1  -2  12   78.49   18.40
   1   2 -12   35.80   16.10
  -1   2  12   79.29   20.00
   0  -2  12   52.89   15.80
   0  -2 -12   36.70   16.90
   0   2  12   38.40   15.90
   0   2 -12   65.49   17.80
  -1  -2 -12  376.76   34.90
   1  -2  12  317.37   27.40
  -1   2 -12  318.87   28.10
   1   2  12  428.16   34.10
   2  -2  12   64.89   17.60
  -2  -2 -12   52.09   19.00
   2   2  12   45.20   18.50
  -2   2 -12   34.60   16.10
   3  -2  12  325.47   33.40
  -3  -2 -12  308.87   33.40
   3   2  12  254.47   30.50
  -3   2 -12  325.77   28.30
   4  -2  12   94.99   20.50
  -4  -2 -12   70.09   22.20
  -4   2 -12   53.69   15.90
   4   2  12   79.89   20.90
   5  -2  12   26.50   14.90
  -5  -2 -12    4.30   16.50
   5   2  12   15.30   16.50
  -5   2 -12   11.40   16.20
  -6  -2 -12  -12.70   16.60
   6  -2  12   -4.90   12.00
   6   2  12   -0.90   16.90
  -6   2 -12    8.20   12.40
   7  -2  12   30.80   14.50
  -7  -2 -12   61.89   22.90
  -7   2 -12   22.90   13.40
   7   2  12    6.00   18.30
  -8  -2 -12   19.90   20.20
   8   2  12    9.40   20.10
  -8   2 -12    2.00   11.60
  -9  -2 -12   48.70   22.70
  -9  -2 -12   14.50   19.00
  -9   2 -12   -4.70    9.70
  -9   2 -12    4.60    8.80
 -10  -2 -12    9.80   21.70
 -10  -2 -12   26.10   20.90
 -11  -2 -12  -10.00   36.80
 -11  -2 -12   15.70   22.60
  20  -3 -12   54.59   22.30
  20   3 -12   63.99   39.40
  19  -3 -12   24.80   19.80
  19   3 -12   23.70   19.60
  18  -3 -12   19.40   18.60
  18   3 -12   -7.10   17.40
  17  -3 -12   68.99   23.40
  17   3 -12   47.00   21.00
  16  -3 -12    3.20   16.30
  16   3 -12  -12.50   16.70
 -16   3  12  -15.20   15.50
  15  -3 -12   14.60   15.60
  15   3 -12   17.40   19.40
 -15   3  12   -5.70   16.20
  14  -3 -12   60.99   22.80
  14   3 -12   69.29   24.10
 -14   3  12   24.90   18.80
  13  -3 -12  127.59   35.10
 -13  -3  12   67.69   22.40
  13   3 -12   54.99   20.50
 -13   3  12   81.19   22.40
 -12  -3  12  142.89   29.40
  12  -3 -12  124.99   24.80
 -12   3  12   49.40   34.60
  12   3 -12   96.09   24.10
  11  -3 -12  161.98   27.10
 -11  -3  12  157.18   28.40
  11   3 -12  161.88   45.10
 -11   3  12  171.38   28.30
 -10  -3  12   89.59   28.80
  10  -3 -12  106.79   22.90
  10   3 -12   63.09   21.60
 -10   3  12   75.29   20.80
   9  -3 -12  115.49   22.70
  -9  -3  12  161.18   28.20
   9   3 -12  149.59   26.90
  -9   3  12  128.29   23.90
  -8  -3  12  136.59   27.00
   8  -3 -12  159.58   25.80
   8   3 -12  137.09   25.70
  -8   3  12   99.99   21.20
  -7  -3  12   35.90   18.10
   7  -3 -12   40.40   17.20
   7   3 -12   15.80   16.30
  -7   3  12   53.29   17.10
   6  -3 -12   76.39   20.30
  -6  -3  12   81.49   21.00
   6   3 -12  103.49   21.80
  -6   3  12   99.49   21.80
  -5  -3  12   66.99   19.00
   5  -3 -12   39.10   17.90
  -5   3  12   37.70   16.90
   5   3 -12   48.10   17.80
  -4  -3  12  133.69   24.10
   4  -3 -12  156.18   27.60
   4   3 -12  151.78   25.00
  -4   3  12  100.69   20.60
   3  -3 -12  239.78   29.90
  -3  -3  12  194.98   25.90
   3   3 -12  166.68   25.10
  -3   3  12  191.28   27.30
   2  -3 -12  355.66   34.70
  -2  -3  12  362.56   30.30
   2   3 -12  338.47   30.10
  -2   3  12  354.46   32.80
   1  -3 -12   88.89   22.10
  -1  -3  12   75.29   18.30
  -1   3  12   95.29   22.50
   1   3 -12   51.29   17.50
   0  -3 -12    7.50   17.20
   0  -3  12   10.80   14.70
   0   3  12   20.70   15.40
   0   3 -12    3.90   13.40
   1  -3  12   23.50   15.40
  -1  -3 -12   11.50   17.00
   1   3  12   19.50   18.40
  -1   3 -12    3.10   14.40
   2  -3  12   -3.40   24.70
  -2  -3 -12   22.00   18.20
  -2   3 -12   12.00   14.10
   2   3  12  -19.80   10.00
   3  -3  12   20.20   14.00
  -3  -3 -12  -12.10   15.70
   3   3  12    9.40   15.10
  -3   3 -12   19.80   13.50
   4  -3  12    4.30   12.80
  -4  -3 -12   -1.70   17.10
   4   3  12   -1.30   17.10
  -4   3 -12   -0.70   14.30
   5  -3  12   19.60   13.40
  -5  -3 -12   20.70   19.80
   5   3  12   30.70   18.80
  -5   3 -12   11.30   12.30
  -6  -3 -12  -19.80   16.20
   6  -3  12    1.40   10.90
  -6   3 -12   -3.20   10.70
   7  -3  12   12.60   11.10
  -7  -3 -12   -1.90   18.20
   7   3  12    7.90   18.50
  -7   3 -12   -1.70   10.00
  -8  -3 -12   26.60   38.80
   8   3  12   40.00   24.00
  -9  -3 -12   24.50   21.50
  -9  -3 -12   13.30   20.90
 -10  -3 -12    0.10   19.90
 -10  -3 -12   10.40   23.00
 -11  -3 -12   -6.30   20.30
  19  -4 -12   18.20   19.30
  19   4 -12    1.30   20.70
  18  -4 -12   68.09   23.60
  18   4 -12   79.29   26.70
  17  -4 -12   53.79   22.90
  17   4 -12    5.70   20.00
  16  -4 -12   76.89   24.70
  16   4 -12  128.59   30.90
 -16   4  12  100.09   31.10
  15  -4 -12  118.29   26.80
  15   4 -12  146.09   31.50
 -15   4  12  102.59   26.80
  14  -4 -12   20.80   17.50
  14   4 -12   31.10   20.30
 -14   4  12   19.60   18.60
  13  -4 -12  -11.70   14.40
 -13   4  12    6.70   16.20
  13   4 -12   15.60   16.40
 -12  -4  12   -7.30   17.80
  12  -4 -12   -1.40   23.40
  12   4 -12   14.80   17.20
 -12   4  12   30.80   17.40
 -11  -4  12   27.60   19.90
  11  -4 -12   11.50   17.90
  11   4 -12   12.30   16.50
 -11   4  12   42.30   18.80
 -10  -4  12  172.58   30.80
  10  -4 -12  127.69   24.80
 -10   4  12   80.99   27.30
  10   4 -12  121.39   30.50
  -9  -4  12  253.07   40.20
   9  -4 -12  280.97   32.70
   9   4 -12  246.58   32.80
  -9   4  12  313.67   63.69
   8  -4 -12  363.16   34.80
  -8  -4  12  269.17   33.90
   8   4 -12  343.87   35.30
  -8   4  12  316.57   36.10
   7  -4 -12  201.08   29.00
  -7  -4  12  215.88   31.00
  -7   4  12  292.77   32.90
   7   4 -12  188.28   28.80
   6  -4 -12  362.56   35.30
  -6  -4  12  332.67   33.20
  -6   4  12  243.68   30.70
   6   4 -12  316.77   33.20
   5  -4 -12  512.95   39.40
  -5  -4  12  478.95   37.90
  -5   4  12  490.35   39.00
   5   4 -12  512.05   37.70
   4  -4 -12  257.47   33.70
  -4  -4  12  272.97   30.60
  -4   4  12  316.77   32.30
   4   4 -12  300.47   32.10
  -3  -4  12   88.59   20.00
   3  -4 -12  127.29   26.00
  -3   4  12  109.59   24.20
   3   4 -12  136.89   24.70
   2  -4 -12   24.10   18.90
  -2  -4  12   11.70   14.60
  -2   4  12   10.20   13.80
   2   4 -12    8.50   14.90
  -1  -4  12   26.20   15.70
   1  -4 -12   22.70   19.10
  -1   4  12   24.30   18.80
   1   4 -12   25.90   15.60
   0  -4  12    6.50   14.90
   0  -4 -12   22.40   18.80
   0   4 -12   26.70   15.50
   0   4  12   54.99   40.10
   1  -4  12  105.59   20.40
  -1  -4 -12  137.59   27.50
  -1   4 -12   73.59   18.40
   1   4  12   52.19   24.20
  -2  -4 -12  111.79   26.70
   2   4  12   40.40   18.20
  -2   4 -12  113.29   20.30
   3  -4  12  224.08   24.80
   3   4  12  143.79   26.50
  -3   4 -12  197.98   25.40
   4  -4  12  100.59   18.10
  -4  -4 -12   99.19   25.50
  -4   4 -12  102.09   17.20
   4   4  12   35.80   20.10
  -5  -4 -12   42.90   21.40
   5  -4  12   13.50   12.70
  -5   4 -12   -0.60   11.10
   5   4  12   15.50   18.20
  -6  -4 -12    5.90   18.50
   6  -4  12   10.20   10.50
   6   4  12    7.20   19.60
  -6   4 -12    0.00    8.60
  -7  -4 -12  -12.10   17.20
   7   4  12   16.80   25.70
  -8  -4 -12   32.20   22.70
  -9  -4 -12    2.70   20.20
 -10  -4 -12   -2.90   22.80
  18  -5 -12   30.00   21.10
  18   5 -12    3.20   22.00
  17  -5 -12    4.80   19.30
  17   5 -12   40.80   29.80
  16  -5 -12   20.60   19.40
  16   5 -12   12.80   19.70
  15  -5 -12   26.30   20.50
  15   5 -12    2.50   17.70
  14  -5 -12   -4.10   16.30
  14   5 -12   -3.30   17.30
 -14   5  12   -9.70   20.70
  13  -5 -12    0.60   15.20
  13   5 -12   27.90   18.30
 -13   5  12   10.80   18.70
  12  -5 -12   41.60   18.70
 -12   5  12  -10.00   16.40
  12   5 -12  -16.80   15.00
  11  -5 -12   60.89   21.50
  11   5 -12   10.50   18.10
 -11   5  12   60.99   23.20
  10  -5 -12   75.49   22.30
 -10  -5  12  116.19   27.80
 -10   5  12   94.19   24.40
  10   5 -12  110.59   26.60
  -9  -5  12  144.99   30.70
   9  -5 -12  110.39   25.20
  -9   5  12   71.09   23.50
   9   5 -12   37.30   18.90
   8  -5 -12   58.49   21.40
  -8  -5  12    8.70   18.60
  -8   5  12   55.09   22.00
   7  -5 -12   18.30   19.90
  -7  -5  12   -3.60   34.60
   7   5 -12   36.40   18.90
  -7   5  12   59.99   20.20
   6  -5 -12  -21.00   14.90
  -6  -5  12  -19.60   16.30
  -6   5  12   12.70   14.40
   6   5 -12   11.20   19.20
  -5  -5  12    8.00   17.10
   5  -5 -12   19.00   19.40
   5   5 -12   36.50   19.10
  -5   5  12  -16.80   11.50
  -4  -5  12   18.80   17.00
   4  -5 -12   25.10   18.60
   4   5 -12   21.90   17.10
  -4   5  12   -5.10   14.00
   3  -5 -12   69.69   23.60
  -3  -5  12   53.09   21.50
  -3   5  12   45.10   19.70
   3   5 -12   56.69   20.70
  -2  -5  12   42.80   18.60
   2  -5 -12   22.40   18.20
   2   5 -12   11.50   17.90
  -2   5  12   29.10   19.10
   1  -5 -12   33.50   20.50
  -1  -5  12   40.50   17.40
  -1   5  12   17.40   14.90
   1   5 -12   26.40   18.50
   0  -5  12  104.29   20.80
   0  -5 -12   20.20   19.60
   0   5 -12   62.69   19.30
   0   5  12   32.50   17.00
  -1  -5 -12   34.70   21.20
   1  -5  12   41.10   17.90
   1   5  12   -5.60   14.10
  -1   5 -12   87.39   21.00
   2  -5  12   61.49   18.90
  -2  -5 -12   51.49   23.40
  -2   5 -12   48.50   16.50
   2   5  12   88.49   23.00
   3  -5  12  -17.60   12.70
  -3  -5 -12   41.30   21.10
  -3   5 -12  -14.60   11.60
  -4  -5 -12   12.10   20.30
   4  -5  12   12.00   13.30
  -4   5 -12   16.10   11.50
  -5  -5 -12   29.60   22.10
   5  -5  12   46.40   13.00
  -5   5 -12   35.10   10.50
  -6  -5 -12    9.20   21.00
  -7  -5 -12    8.70   21.80
  -8  -5 -12    5.40   19.90
  -9  -5 -12   -3.60   22.40
  17  -6 -12    7.40   18.50
  17   6 -12   18.70   22.80
  16  -6 -12    9.70   17.30
  16   6 -12   18.00   22.40
  15  -6 -12    4.90   17.20
  15   6 -12   78.99   28.20
  14  -6 -12   26.70   20.40
  14   6 -12   20.30   19.50
  13  -6 -12   10.40   17.00
  13   6 -12   17.80   19.40
  12  -6 -12   22.50   18.20
  12   6 -12   18.30   19.30
  11  -6 -12    1.40   17.40
  11   6 -12    4.70   18.00
  10  -6 -12    9.60   16.00
  10   6 -12   33.70   19.80
   9  -6 -12    1.30   17.10
  -9   6  12    5.80   25.10
   9   6 -12   -6.80   15.60
   8  -6 -12   77.19   23.90
  -8  -6  12   62.89   24.60
   8   6 -12   81.39   26.30
  -8   6  12   66.79   25.90
   7  -6 -12   34.80   20.70
  -7  -6  12   -0.20   18.20
  -7   6  12   -3.90   14.20
   7   6 -12   27.80   20.90
   6  -6 -12   87.79   25.20
  -6  -6  12   64.29   25.70
  -6   6  12   52.99   23.80
   6   6 -12  120.39   41.30
  -5  -6  12  136.29   45.10
   5  -6 -12  158.88   31.60
  -5   6  12  103.09   30.20
   5   6 -12  154.98   28.20
  -4  -6  12  141.09   28.90
   4  -6 -12   63.29   22.60
   4   6 -12   70.59   23.00
  -3  -6  12   89.39   24.50
   3  -6 -12  124.49   28.60
   3   6 -12   84.89   22.70
   2  -6 -12    4.90   18.20
  -2  -6  12   13.20   18.30
   2   6 -12   18.30   16.70
   1  -6 -12    6.10   17.40
  -1  -6  12   16.40   17.00
   1   6 -12  -10.60   13.60
   0  -6 -12  -21.10   16.40
   0  -6  12    4.00   15.80
   0   6 -12   -8.90   14.10
   1  -6  12   84.39   21.70
  -1  -6 -12   29.20   20.70
  -1   6 -12  127.19   23.00
  -2  -6 -12   12.50   17.60
   2  -6  12   24.60   16.50
  -2   6 -12   55.09   16.40
  -3  -6 -12   71.99   24.40
   3  -6  12  120.09   37.20
  -3   6 -12  148.39   22.20
   4  -6  12   48.30   15.80
  -4  -6 -12    3.80   19.40
  -4   6 -12   34.00   13.60
  -5  -6 -12    3.20   20.40
   5  -6  12   -7.30   10.30
  -6  -6 -12   -1.90   20.30
  -7  -6 -12   21.20   23.50
  -8  -6 -12   27.50   24.50
  15  -7 -12    8.00   16.80
  15   7 -12   29.70   23.60
  14  -7 -12   17.20   17.90
  14   7 -12   -7.20   19.80
  13  -7 -12   38.00   19.40
  13   7 -12   36.10   22.70
  12  -7 -12   30.50   19.70
  12   7 -12   58.09   26.50
  11  -7 -12   56.79   22.70
  11   7 -12    8.30   19.80
  10  -7 -12   47.40   21.40
  10   7 -12   99.09   30.40
   9  -7 -12   29.50   20.40
   9   7 -12   34.00   23.20
   8  -7 -12   55.49   23.60
   8   7 -12   36.80   24.60
   7  -7 -12  -16.60   16.40
   7   7 -12   14.40   20.20
   6  -7 -12   20.60   18.60
  -6  -7  12   -5.90   18.90
   6   7 -12    0.70   18.70
   5  -7 -12   -6.50   17.70
  -5  -7  12  -15.20   19.30
   5   7 -12   25.90   18.20
   4  -7 -12  108.89   30.10
  -4  -7  12  169.38   32.30
   4   7 -12   93.29   44.30
  -3  -7  12  137.09   45.80
   3  -7 -12   64.19   24.30
   3   7 -12  125.89   27.00
   2  -7 -12  119.39   28.10
  -2  -7  12  193.48   31.40
   2   7 -12  158.88   28.40
   1  -7 -12  119.09   28.70
  -1  -7  12  174.28   29.30
   1   7 -12  102.49   23.20
   0  -7  12   35.60   18.70
   0  -7 -12   39.90   22.40
   0   7 -12   21.60   16.80
  -1  -7 -12   66.39   26.00
   1  -7  12   32.60   17.90
  -1   7 -12   53.99   18.70
  -2  -7 -12    5.80   18.20
   2  -7  12    0.00   16.30
  -2   7 -12    5.00   14.20
   3  -7  12   -1.00   14.70
  -3  -7 -12  -40.20   14.80
   4  -7  12   -8.00   11.50
   4  -7  12   24.10   15.80
  -4  -7 -12   -4.50   19.70
   5  -7  12   -9.00   10.90
   5  -7  12  -22.60    8.80
  -5  -7 -12    9.10   21.80
  12  -8 -12   -1.10   17.10
  12   8 -12  -18.10   17.30
  11  -8 -12   16.90   19.40
  11   8 -12  -15.10   19.90
  10  -8 -12    2.40   18.70
  10   8 -12   17.90   20.30
   9  -8 -12   13.10   18.90
   9   8 -12   47.60   23.20
   8  -8 -12   25.40   22.00
   8   8 -12   52.49   24.00
   7  -8 -12   14.50   21.20
   7   8 -12   13.70   19.30
   6  -8 -12   72.79   26.20
   6   8 -12   50.39   21.80
   5  -8 -12   15.50   20.90
   5   8 -12   20.40   20.20
  -4  -8  12    2.80   23.90
   4  -8 -12   17.80   21.20
   4   8 -12   -9.30   14.70
  -3  -8  12   35.60   24.40
   3  -8 -12   28.90   24.20
   3   8 -12   20.10   17.80
   2  -8 -12   32.30   20.20
  -2  -8  12  -22.20   18.10
  -1  -8  12    5.30   34.70
   1  -8 -12    1.70   19.00
   1   8 -12    0.80   17.40
   0  -8 -12   -0.70   21.40
   0  -8  12   -3.60   16.70
   0   8 -12   -8.40   14.40
   1  -8  12   10.80   18.20
  -1  -8 -12   16.10   21.30
   2  -8  12   17.60   17.50
  -2  -8 -12   10.90   33.80
   2  -8  12    8.70   15.40
   3  -8  12   16.90   15.80
   3  -8  12   -5.00   16.50
  -3  -8 -12  -12.30   19.70
   4  -8  12  -14.60   11.00
  -4  -8 -12  -12.50   20.30
   8  -9 -12   41.00   28.60
   8   9 -12   25.80   22.90
   7  -9 -12   10.50   28.90
   7   9 -12   36.70   21.40
   6   9 -12   -3.80   18.20
   5  -9 -12    7.50   31.00
   5   9 -12    3.70   21.30
   4  -9 -12   54.89   27.40
   4   9 -12   50.29   24.00
   3  -9 -12  -12.00   19.40
   3   9 -12   11.80   20.40
   2  -9 -12   79.49   27.80
   1  -9 -12   41.70   26.50
  -1  -9  12   15.50   23.00
  20   0 -13    5.50   20.50
  19   0 -13   10.50   21.00
  18   0 -13    0.60   17.40
  17   0 -13   59.69   24.10
  16   0 -13  109.89   27.40
 -15   0  13   -2.00   18.90
  15   0 -13   23.30   19.80
  14   0 -13    0.50   15.80
 -14   0  13    1.40   16.40
  13   0 -13   -2.60   15.00
 -13   0  13   -7.00   15.80
  12   0 -13    1.00   16.20
 -12   0  13    9.60   16.10
 -11   0  13   57.89   30.40
  11   0 -13    2.40   12.90
 -10   0  13  117.79   24.30
  10   0 -13   79.69   21.70
   9   0 -13   11.50   14.30
  -9   0  13   -1.00   13.80
  -8   0  13   18.20   15.90
   8   0 -13   34.40   17.50
  -7   0  13  -16.10   11.10
   7   0 -13  -19.10   12.20
   6   0 -13    5.90   14.10
  -6   0  13   -2.00   11.50
   5   0 -13    4.70   14.60
  -5   0  13   42.80   16.80
   4   0 -13    2.50   12.90
  -4   0  13   15.00   14.20
  -3   0  13  -10.50   12.10
   3   0 -13  -16.30   12.50
   2   0 -13  -32.90    9.80
  -2   0  13   25.20   16.00
  -1   0  13  -11.20   12.80
   1   0 -13    5.80   15.30
   0   0  13   -4.00   14.30
   0   0 -13  -17.60   12.80
  -1   0 -13   52.09   18.10
   1   0  13   47.20   18.60
  -2   0 -13  -20.80   14.20
   2   0  13   -9.90   15.40
   3   0  13   -2.30   16.10
  -3   0 -13   36.50   18.30
  -4   0 -13   48.50   18.80
   4   0  13   55.59   19.90
  -5   0 -13   11.40   16.80
   5   0  13  -20.80   13.50
   6   0  13   10.50   18.00
  -6   0 -13    1.40   16.40
   7   0  13   -7.80   16.70
  -7   0 -13   -7.40   16.50
  -8   0 -13   16.20   17.00
   8   0  13  -15.50   17.80
  -9   0 -13   -0.70   16.20
  -9   0 -13  -20.50   15.30
 -10   0 -13   38.20   19.00
 -10   0 -13   16.10   17.50
 -11   0 -13   16.60   17.00
 -11   0 -13   10.00   17.10
  20  -1 -13   48.20   23.40
  20   1 -13   12.50   20.30
  19  -1 -13   -6.70   17.30
  19   1 -13   18.20   19.30
  18  -1 -13   36.10   21.40
  18   1 -13   95.79   26.70
  17  -1 -13    3.80   14.50
  17   1 -13   29.00   19.30
  16  -1 -13   26.30   18.10
  16   1 -13   18.90   17.10
  15  -1 -13   -0.20   15.20
 -15   1  13   43.10   22.30
  15   1 -13   58.79   21.90
 -14  -1  13   39.30   21.00
  14  -1 -13   38.20   19.50
 -14   1  13  101.89   26.50
  14   1 -13  108.49   26.10
 -13  -1  13   15.10   17.40
  13  -1 -13   25.10   19.50
  13   1 -13   18.20   17.10
 -13   1  13   54.09   23.50
 -12  -1  13  223.08   33.10
  12  -1 -13  291.87   35.80
 -12   1  13  360.46   37.50
  11  -1 -13   -2.40   13.70
 -11  -1  13  -27.30   19.50
 -11   1  13  -12.30   28.00
  11   1 -13    4.80   14.80
 -10  -1  13   49.70   19.60
  10  -1 -13   35.90   17.50
 -10   1  13   25.00   16.30
  10   1 -13   48.50   17.80
   9  -1 -13   49.00   19.80
  -9  -1  13   99.89   23.40
   9   1 -13   36.60   17.60
  -9   1  13   22.10   16.80
   8  -1 -13   40.30   18.40
  -8  -1  13   41.70   18.20
   8   1 -13   15.90   15.50
  -8   1  13   13.70   13.10
   7  -1 -13   90.19   23.10
  -7  -1  13   81.19   20.90
  -7   1  13  117.49   23.80
   7   1 -13  129.19   23.90
  -6  -1  13   30.50   17.00
   6  -1 -13   34.50   16.50
  -6   1  13   43.60   16.30
   6   1 -13   26.50   16.10
   5  -1 -13   -4.00   12.20
  -5  -1  13  -13.60   11.80
   5   1 -13   18.90   15.30
  -5   1  13    0.90   12.00
  -4  -1  13    0.30   12.70
   4  -1 -13   18.60   15.90
   4   1 -13    0.90   13.20
  -4   1  13   -9.20   11.30
  -3  -1  13   80.19   20.60
   3  -1 -13   59.39   18.90
   3   1 -13   34.60   17.10
  -3   1  13   76.79   19.50
   2  -1 -13   63.99   21.30
  -2  -1  13   46.00   16.90
   2   1 -13   55.89   18.50
  -2   1  13   35.10   16.80
  -1  -1  13   -2.20   11.50
   1  -1 -13   12.40   15.80
   1   1 -13  -22.50   14.20
  -1   1  13   -2.50   12.80
   0  -1  13   -8.20   12.70
   0  -1 -13   13.40   16.50
   0   1  13  -11.80   13.20
   0   1 -13   10.20   15.30
  -1  -1 -13   52.99   20.70
   1  -1  13  123.39   23.00
  -1   1 -13   49.40   18.80
   1   1  13   51.69   20.00
   2  -1  13   59.59   20.10
  -2  -1 -13   49.00   21.80
   2   1  13   87.99   22.00
  -2   1 -13   74.69   19.00
   3  -1  13   22.80   17.80
  -3  -1 -13    8.20   18.00
   3   1  13   20.80   19.50
  -3   1 -13   22.10   15.70
   4  -1  13   24.10   17.90
  -4  -1 -13   25.30   19.60
  -4   1 -13   19.10   16.40
   4   1  13   13.40   15.00
   5  -1  13   13.20   15.60
  -5  -1 -13   11.60   17.70
  -5   1 -13   10.90   15.90
   5   1  13    4.00   16.60
   6  -1  13    3.90   15.90
  -6  -1 -13  -16.10   16.70
  -6   1 -13  -14.10   13.90
   6   1  13   -3.30   16.50
  -7  -1 -13   39.90   21.00
   7  -1  13   25.40   19.80
  -7   1 -13    0.10   15.40
   7   1  13    9.80   19.30
  -8  -1 -13   44.80   21.80
   8  -1  13   17.10   31.10
  -8   1 -13   -5.90   14.10
   8   1  13   -4.40   20.30
  -9  -1 -13   10.30   19.40
  -9  -1 -13   10.10   20.10
  -9   1 -13    4.70   14.90
  -9   1 -13   -4.60   23.20
 -10  -1 -13  -14.50   17.60
 -10  -1 -13   18.90   19.80
 -10   1 -13    0.80   12.20
  20  -2 -13   -2.20   19.20
  20   2 -13   16.40   22.90
  19  -2 -13   22.20   21.00
  19   2 -13   50.89   24.30
  18  -2 -13   44.60   21.50
  18   2 -13   75.59   25.50
  17  -2 -13  146.49   29.00
  17   2 -13  152.08   30.80
  16  -2 -13  211.68   32.70
  16   2 -13  151.68   31.30
  15  -2 -13   79.99   23.70
 -15   2  13   60.99   22.10
  15   2 -13  102.79   25.90
  14  -2 -13   21.80   18.10
 -14   2  13   -2.00   15.60
  14   2 -13   19.50   17.40
 -13  -2  13    1.80   17.50
  13  -2 -13    7.80   16.10
 -13   2  13   -2.40   14.00
  13   2 -13    3.00   15.00
 -12  -2  13  -31.90   14.00
  12   2 -13  -26.90   14.60
 -12   2  13   -5.90   15.30
  11  -2 -13   -2.00   15.10
 -11  -2  13    1.70   15.90
 -11   2  13   -3.00   15.50
  10  -2 -13   43.50   17.50
  10   2 -13   59.19   19.80
 -10   2  13   35.60   19.50
   9  -2 -13   15.60   16.10
  -9  -2  13  101.99   23.60
  -9   2  13   29.70   15.50
   9   2 -13   -2.00   13.20
  -8  -2  13  -24.20   10.80
   8  -2 -13  -22.40   12.40
   8   2 -13    1.30   12.30
  -8   2  13   -6.60   10.20
   7  -2 -13  -21.30   11.90
  -7  -2  13   -6.90   13.00
  -7   2  13  -11.40   11.10
   7   2 -13   -1.10   14.20
   6  -2 -13   -6.10   13.60
  -6  -2  13  -14.20   12.50
   6   2 -13   14.60   14.80
  -6   2  13   -8.20   11.90
  -5  -2  13    5.60   15.00
   5  -2 -13  -25.30   11.50
  -5   2  13    1.50   12.30
   5   2 -13    4.80   13.60
   4  -2 -13  -19.70   13.20
  -4  -2  13  -13.70   11.10
  -4   2  13  -15.90   11.30
   4   2 -13    6.40   13.30
  -3  -2  13    9.20   14.90
   3  -2 -13  -20.30   12.60
  -3   2  13   -4.70   13.00
   3   2 -13   -0.60   12.90
   2  -2 -13    0.80   14.60
  -2  -2  13   14.60   13.70
   2   2 -13   -7.70   14.10
  -2   2  13   -5.90   12.40
   1  -2 -13  -15.20   12.50
  -1  -2  13   -8.80   11.90
   1   2 -13  -17.90   11.60
  -1   2  13   10.30   15.10
   0  -2 -13  -20.50   14.40
   0  -2  13   -0.80   13.40
   0   2  13    5.50   16.30
   0   2 -13  -18.50   13.70
   1  -2  13   31.90   17.40
  -1  -2 -13   -5.50   14.60
  -1   2 -13   43.80   18.20
   1   2  13   23.00   18.30
   2  -2  13    1.10   14.30
  -2  -2 -13   -8.80   14.80
  -2   2 -13   -2.00   14.30
   2   2  13   -7.30   16.00
  -3  -2 -13   13.90   20.10
   3  -2  13   46.40   17.20
  -3   2 -13   33.70   16.10
   3   2  13   40.50   18.50
  -4  -2 -13   -1.60   18.20
   4  -2  13   -5.40   14.00
  -4   2 -13   -0.30   13.50
   4   2  13    8.90   17.70
  -5  -2 -13    4.30   18.60
   5  -2  13   35.70   29.20
   5   2  13   24.40   19.50
  -5   2 -13  -14.80   13.30
   6  -2  13    3.90   14.20
  -6  -2 -13   43.40   21.00
  -6   2 -13    5.10   14.10
   6   2  13  -11.80   17.70
  -7  -2 -13   12.40   21.00
   7  -2  13   39.10   17.30
   7   2  13   27.10   22.90
  -7   2 -13   32.80   23.70
  -8  -2 -13   -9.60   20.40
   8   2  13    8.00   26.10
  -8   2 -13  -14.40   11.50
  -9  -2 -13    1.60   18.70
  -9  -2 -13   28.70   20.90
  -9   2 -13   20.90   11.50
  -9   2 -13   -0.50   10.30
 -10  -2 -13   12.30   20.00
 -10  -2 -13    3.40   21.70
  19  -3 -13   30.00   21.20
  19   3 -13   50.39   32.10
  18  -3 -13   -2.40   16.00
  18   3 -13    2.40   18.10
  17  -3 -13   31.60   19.90
  17   3 -13   15.20   20.00
  16  -3 -13   18.80   17.10
  16   3 -13    6.60   17.80
  15  -3 -13  -14.90   15.10
  15   3 -13   49.70   23.10
  14  -3 -13   31.10   19.60
 -14   3  13   -3.70   15.80
  14   3 -13   30.80   20.30
  13  -3 -13   25.50   18.10
 -13   3  13    8.90   17.90
  13   3 -13   17.10   17.40
 -12  -3  13   61.69   23.40
  12  -3 -13   51.49   22.10
 -12   3  13   31.00   18.80
  12   3 -13   16.80   18.20
  11  -3 -13    3.90   23.80
 -11  -3  13    9.00   20.10
  11   3 -13   16.90   17.80
 -11   3  13   15.50   16.70
 -10  -3  13   40.80   20.50
  10  -3 -13   54.69   21.00
 -10   3  13   38.40   18.00
   9  -3 -13   18.20   16.70
  -9   3  13  -16.40   17.70
   9   3 -13   -3.20   16.10
  -8  -3  13   -3.90   16.10
   8  -3 -13    8.30   15.00
   8   3 -13    5.50   15.30
  -8   3  13   11.20   17.60
  -7  -3  13  -16.20   14.70
   7  -3 -13   33.80   17.40
  -7   3  13   20.70   16.60
   7   3 -13   12.60   16.20
  -6  -3  13   -0.50   14.20
   6  -3 -13  -17.60   12.60
   6   3 -13    3.60   14.90
  -6   3  13  -27.90   10.20
   5  -3 -13    1.60   13.80
  -5  -3  13  -15.30   13.30
  -5   3  13   -4.20   13.20
   5   3 -13  -11.60   12.40
   4  -3 -13   -2.50   15.10
  -4  -3  13  -27.40   10.50
  -4   3  13   -1.60   13.10
   4   3 -13  -10.00   13.20
  -3  -3  13    6.60   15.50
   3  -3 -13   28.20   18.30
  -3   3  13   -6.10   12.40
   3   3 -13   11.90   14.50
   2  -3 -13   21.50   16.40
  -2  -3  13   26.00   14.70
   2   3 -13    6.70   14.80
  -2   3  13   14.40   15.70
  -1  -3  13    6.80   14.50
   1  -3 -13  -17.80   15.00
   1   3 -13   -0.20   13.90
  -1   3  13   15.80   16.90
   0  -3  13   14.60   16.30
   0  -3 -13   22.90   18.10
   0   3 -13   17.40   16.90
   0   3  13    3.90   16.00
   1  -3  13  -10.40   14.10
  -1  -3 -13   -0.80   16.70
   1   3  13    6.70   20.00
  -1   3 -13   41.90   16.10
   2  -3  13   20.50   16.50
  -2  -3 -13  -18.50   16.40
   2   3  13  -12.10   14.40
  -2   3 -13    5.00   14.80
   3  -3  13   10.70   14.80
  -3  -3 -13   17.60   20.10
  -3   3 -13  -17.60   12.50
   3   3  13   52.49   37.50
   4  -3  13    5.00   14.50
  -4  -3 -13    1.20   17.10
   4   3  13    8.00   19.00
  -4   3 -13    0.20   12.70
  -5  -3 -13   21.50   38.00
   5  -3  13  -11.30   13.20
   5   3  13  -16.60   15.90
   6  -3  13   25.60   15.40
  -6  -3 -13   27.00   21.90
  -6   3 -13    0.50   12.30
   6   3  13    1.50   19.20
   7  -3  13   18.60   13.60
  -7  -3 -13   23.90   23.20
   7   3  13  -15.60   20.70
  -7   3 -13   18.40   11.00
  -8  -3 -13    2.50   22.20
   8   3  13   49.00   26.60
  -9  -3 -13  -22.70   19.90
 -10  -3 -13   11.50   22.70
  18  -4 -13   21.40   20.70
  17  -4 -13   13.30   18.50
  17   4 -13   52.59   24.40
  16  -4 -13   30.20   20.60
  16   4 -13   30.30   20.50
  15  -4 -13   54.09   21.10
  15   4 -13   71.79   24.90
  14  -4 -13    9.40   17.10
  14   4 -13   -8.20   16.80
  13  -4 -13   36.10   19.50
 -13   4  13  -23.90   14.00
  13   4 -13   11.20   19.40
  12  -4 -13   10.60   16.70
  12   4 -13  -17.50   15.80
 -12   4  13   24.90   18.40
  11  -4 -13   15.20   16.40
 -11  -4  13   16.50   20.00
  11   4 -13   51.39   22.10
 -11   4  13   22.40   18.40
  10  -4 -13   18.40   18.50
 -10  -4  13   23.40   18.50
  10   4 -13   40.30   19.60
 -10   4  13    6.70   14.80
   9  -4 -13   68.29   21.50
  -9  -4  13   37.00   20.80
   9   4 -13   53.79   23.00
  -9   4  13   43.70   19.80
  -8  -4  13   17.50   19.70
   8  -4 -13    6.90   18.30
   8   4 -13   -2.10   16.10
  -8   4  13   15.60   17.60
  -7  -4  13    9.20   19.10
  -7   4  13    7.80   15.10
   7   4 -13   10.50   16.90
  -6  -4  13   -9.50   14.90
  -6   4  13  -22.20   13.60
   6   4 -13    4.70   16.10
  -5  -4  13   32.00   17.80
   5  -4 -13   25.10   31.20
  -5   4  13  -18.90   14.00
   5   4 -13   12.20   16.30
   4  -4 -13   14.70   33.40
  -4  -4  13  -10.00   14.70
  -4   4  13  -13.40   13.00
   4   4 -13   14.10   16.50
  -3  -4  13    1.90   14.80
   3   4 -13   -0.90   14.50
  -3   4  13    6.90   15.30
  -2  -4  13   -7.70   15.00
   2   4 -13   -2.20   15.70
  -2   4  13  -10.70   14.40
  -1  -4  13   38.90   17.40
   1  -4 -13   17.40   22.30
   1   4 -13  -10.30   15.20
  -1   4  13   28.10   19.70
   0  -4 -13  -11.20   17.00
   0  -4  13   -5.90   14.50
   0   4 -13  -16.50   13.90
   0   4  13   20.90   20.80
   1  -4  13   25.30   15.90
  -1  -4 -13   54.69   23.40
   1   4  13    8.90   14.30
  -1   4 -13   -9.20   13.80
  -2  -4 -13   21.20   22.20
   2  -4  13  -12.00   14.00
  -2   4 -13   44.80   17.30
   2   4  13  -11.00   12.90
  -3  -4 -13    6.40   21.60
   3   4  13   27.20   20.50
  -3   4 -13    9.60   15.20
   4  -4  13   15.10   13.20
  -4  -4 -13  -22.90   18.00
   4   4  13  -28.60   14.60
   5  -4  13   -3.60   13.40
  -5  -4 -13   -4.10   19.40
  -5   4 -13   -4.40   12.00
   6  -4  13  -12.70   10.90
  -6  -4 -13  -16.00   17.80
  -6   4 -13    4.30    9.50
  -7  -4 -13   -6.50   20.30
  -8  -4 -13    7.80   21.50
  -9  -4 -13  -21.70   20.00
  17  -5 -13   -7.60   19.90
  17   5 -13  -11.20   17.80
  16  -5 -13   14.60   17.70
  16   5 -13    3.80   20.10
  15  -5 -13   -3.90   16.90
  15   5 -13   27.50   20.20
  14  -5 -13    2.80   16.60
  14   5 -13   12.60   17.20
  13  -5 -13   -7.80   14.50
  13   5 -13   41.80   21.20
  12  -5 -13   47.60   20.40
  12   5 -13   39.30   21.20
  11  -5 -13   37.20   18.00
  11   5 -13   35.90   20.50
  10  -5 -13   25.50   18.40
 -10   5  13   54.59   24.30
  10   5 -13   54.49   21.40
  -9  -5  13   40.40   22.70
   9  -5 -13   19.60   17.40
   9   5 -13   15.20   19.20
  -9   5  13   -4.80   17.20
  -8  -5  13   -7.80   16.90
   8  -5 -13    5.70   15.90
   8   5 -13   -9.10   14.80
  -8   5  13  -10.30   14.60
   7  -5 -13   32.00   19.50
  -7  -5  13   -2.00   18.20
  -7   5  13   -6.30   13.60
   6  -5 -13  -12.00   14.50
  -6   5  13   -8.70   12.70
   6   5 -13  -15.60   14.30
  -5  -5  13    1.90   17.40
   5  -5 -13   -8.80   15.20
   5   5 -13    3.00   16.60
  -5   5  13   16.60   14.70
  -4  -5  13   -1.20   16.60
   4  -5 -13  -10.00   15.60
   4   5 -13    0.90   14.30
  -4   5  13   14.40   17.40
   3  -5 -13  -12.90   17.30
  -3  -5  13   -3.40   15.20
   3   5 -13    1.90   15.20
  -3   5  13    2.40   15.60
   2  -5 -13   -1.20   18.30
  -2  -5  13   24.50   16.20
  -2   5  13   28.70   20.00
   2   5 -13    1.20   18.20
  -1  -5  13   21.00   16.40
   1  -5 -13    1.40   18.10
   1   5 -13   41.50   19.10
  -1   5  13   -2.80   16.20
   0  -5  13   -1.80   16.60
   0  -5 -13    6.00   19.40
   0   5 -13    6.90   15.90
   1  -5  13  -21.50   13.70
  -1  -5 -13   65.59   23.20
  -1   5 -13   -2.90   15.20
  -2  -5 -13   10.80   22.00
   2  -5  13   21.20   17.50
  -2   5 -13   12.20   16.40
  -3  -5 -13  -11.00   18.50
  -3   5 -13  -17.90   12.90
   4  -5  13   29.40   14.90
  -4  -5 -13   -8.30   17.70
  -4   5 -13    9.30   15.30
  -5  -5 -13   20.90   21.20
   5  -5  13   15.10   12.20
  -5   5 -13    3.40   10.60
  -6  -5 -13   36.40   24.00
  -7  -5 -13   11.00   22.90
  -8  -5 -13  -18.10   21.50
  16  -6 -13   20.60   19.40
  16   6 -13   10.10   21.70
  15  -6 -13  -26.30   13.70
  14  -6 -13   36.10   20.20
  14   6 -13   34.20   20.90
  13  -6 -13   -6.90   15.10
  13   6 -13  -27.20   14.60
  12  -6 -13  -15.70   14.00
  12   6 -13    5.40   16.60
  11  -6 -13    3.70   16.30
  11   6 -13   48.20   21.20
  10  -6 -13    4.90   15.90
  10   6 -13   37.20   22.10
   9  -6 -13  -20.80   15.70
   9   6 -13    9.10   18.40
   8  -6 -13   -0.30   16.40
   8   6 -13    2.70   17.10
  -7  -6  13   20.40   19.30
   7  -6 -13  -14.60   15.60
   7   6 -13   13.10   17.70
   6  -6 -13    8.40   21.20
  -6  -6  13   16.20   20.00
   6   6 -13   14.80   17.50
   5  -6 -13  -11.50   16.10
  -5  -6  13   23.40   21.10
   5   6 -13   -0.80   18.40
  -4  -6  13  -10.10   22.20
   4  -6 -13  -20.40   16.50
   4   6 -13  -18.50   15.90
   3  -6 -13  -26.10   14.80
  -3  -6  13   -8.10   19.10
   3   6 -13  -16.80   17.30
   2  -6 -13    5.00   18.10
  -2  -6  13   -1.40   18.30
   2   6 -13   -3.10   16.20
   1  -6 -13    5.80   17.80
  -1  -6  13  -10.80   15.50
   1   6 -13   24.60   18.20
   0  -6 -13  -15.60   17.60
   0  -6  13   12.40   17.20
   0   6 -13   22.10   18.00
  -1  -6 -13    8.80   22.10
   1  -6  13   25.80   16.90
  -1   6 -13   54.79   18.50
   2  -6  13   -8.20   15.90
  -2  -6 -13    1.00   19.20
  -2   6 -13    4.50   13.80
   3  -6  13    9.90   16.90
  -3  -6 -13   47.50   24.20
  -3   6 -13   23.20   14.10
  -4  -6 -13   -8.50   21.90
   4  -6  13   28.40   15.20
  -4   6 -13   19.70   15.80
   5  -6  13   -3.40   11.20
  -5  -6 -13    1.00   21.30
  -6  -6 -13    6.90   20.60
  14  -7 -13   35.70   21.50
  14   7 -13   11.40   22.70
  13  -7 -13   -4.90   15.90
  12  -7 -13   28.10   20.10
  12   7 -13   46.70   26.00
  11  -7 -13    3.20   16.40
  11   7 -13  -12.40   19.00
  10  -7 -13   29.70   21.50
  10   7 -13   -6.70   17.90
   9  -7 -13   24.50   20.80
   9   7 -13  -15.60   17.10
   8  -7 -13   21.70   20.20
   8   7 -13    3.60   19.30
   7  -7 -13  -25.00   15.80
   7   7 -13   36.30   22.20
   6  -7 -13  -13.70   17.30
   6   7 -13   14.90   19.20
  -5  -7  13   29.60   22.70
   5  -7 -13   18.80   20.50
   5   7 -13   -2.40   18.00
  -4  -7  13   25.40   21.20
   4  -7 -13  -13.00   16.70
   4   7 -13   32.80   20.10
  -3  -7  13   19.60   21.30
   3  -7 -13   13.80   20.80
   3   7 -13   21.30   20.70
   2  -7 -13   -5.30   20.00
  -2  -7  13  -19.70   18.80
   2   7 -13   -2.40   18.60
  -1  -7  13  -16.00   16.10
   1  -7 -13   23.10   22.70
   1   7 -13  -14.50   13.90
   0  -7 -13  -21.40   16.20
   0  -7  13   -5.80   17.00
   0   7 -13   17.20   16.30
  -1  -7 -13  -27.30   17.90
   1  -7  13    6.50   17.90
  -1   7 -13    4.80   15.70
  -2  -7 -13   -7.10   19.10
   2  -7  13    4.30   17.20
  -2   7 -13    9.20   14.80
   3  -7  13   11.00   16.40
  -3  -7 -13  -20.70   17.70
   4  -7  13   10.00   16.10
  -4  -7 -13   41.80   42.50
   5  -7  13   10.30   11.30
   5  -7  13   16.20   10.90
  -5  -7 -13   23.50   24.90
  11  -8 -13    2.10   18.80
  11   8 -13  -11.20   36.40
  10  -8 -13   21.60   19.40
  10   8 -13   -8.80   19.10
   9  -8 -13   18.20   18.70
   9   8 -13   19.20   20.90
   8  -8 -13   15.10   21.20
   8   8 -13  -31.60   13.40
   7  -8 -13    2.10   18.70
   7   8 -13   -8.20   16.00
   6  -8 -13    7.30   21.70
   6   8 -13  -18.80   16.70
   5  -8 -13  -13.80   18.60
   5   8 -13    5.60   19.00
   4  -8 -13  -11.40   19.20
   4   8 -13   28.50   21.90
  -3  -8  13   -4.50   21.80
   3  -8 -13    0.30   21.00
   3   8 -13  -10.70   16.90
   2  -8 -13  -22.80   18.60
  -2  -8  13   -1.50   21.80
   2   8 -13    6.70   16.40
  -1  -8  13   -7.50   19.60
   1   8 -13   -5.30   16.20
   0  -8  13   -2.60   18.80
   0  -8 -13    8.30   26.00
   0   8 -13  -13.40   14.80
   1  -8  13    9.30   18.30
  -1  -8 -13   14.90   22.30
  -2  -8 -13   40.00   26.60
   2  -8  13   -6.00   17.90
  20   0 -14  -17.60   17.10
  19   0 -14   36.60   23.00
  18   0 -14   88.09   27.20
  17   0 -14   75.59   24.80
  16   0 -14  227.88   34.00
  15   0 -14   60.49   22.10
  14   0 -14   41.00   20.10
  13   0 -14   -1.50   16.70
 -13   0  14   -7.80   18.00
  12   0 -14  142.89   28.60
 -12   0  14   97.89   26.20
 -11   0  14   64.69   23.10
  11   0 -14  132.59   28.80
 -10   0  14  845.62   51.59
  10   0 -14  762.52   48.60
  -9   0  14  474.65   59.29
   9   0 -14  548.65   41.10
  -8   0  14  122.09   27.20
   8   0 -14  152.88   26.90
  -7   0  14  317.47   33.30
   7   0 -14  316.27   32.90
  -6   0  14   16.10   14.30
   6   0 -14   67.19   21.30
  -5   0  14  189.18   28.50
   5   0 -14  227.48   31.90
  -4   0  14   -3.00   14.40
   4   0 -14  -13.80   13.20
  -3   0  14   69.69   20.80
   3   0 -14   43.80   19.20
  -2   0  14   34.10   18.20
   2   0 -14   33.00   16.80
   1   0 -14  424.16   36.50
  -1   0  14  451.95   37.20
   0   0  14   73.29   20.80
   0   0 -14   42.30   20.50
  -1   0 -14  394.56   36.20
   1   0  14  488.25   39.20
   2   0  14  403.76   37.20
  -2   0 -14  367.06   35.10
   3   0  14   55.79   21.30
  -3   0 -14   40.60   19.70
  -4   0 -14  207.58   30.70
   4   0  14   84.79   23.30
  -5   0 -14   38.30   19.40
   5   0  14   -1.80   17.50
   6   0  14   22.50   20.70
  -6   0 -14   12.60   16.80
   7   0  14   -6.00   19.40
  -7   0 -14   33.10   19.80
   8   0  14   16.20   21.70
  -8   0 -14    4.00   17.40
  -9   0 -14   13.60   17.30
  20  -1 -14   25.90   22.60
  20   1 -14   12.50   22.50
  19  -1 -14   15.60   20.20
  19   1 -14   29.70   20.00
  18  -1 -14   32.50   19.50
  18   1 -14   21.90   22.30
  17  -1 -14   66.59   23.60
  17   1 -14   82.29   25.90
  16  -1 -14   -1.30   16.10
  16   1 -14   -3.30   15.60
  15  -1 -14  156.18   29.10
  15   1 -14   81.89   24.80
  14  -1 -14  179.18   32.20
  14   1 -14  160.78   29.10
  13  -1 -14   37.50   19.50
 -13  -1  14   23.00   20.10
  13   1 -14   38.90   21.50
 -13   1  14  -12.80   17.00
 -12  -1  14  473.35   44.20
  12  -1 -14  662.23   45.90
 -12   1  14  514.15   43.20
  12   1 -14  491.55   41.00
 -11  -1  14   -6.50   16.30
  11  -1 -14  -29.60   12.70
 -11   1  14   11.00   17.20
  11   1 -14    8.50   16.40
  10  -1 -14  -18.60   15.00
 -10  -1  14  -31.40   12.40
  10   1 -14    9.60   18.20
 -10   1  14   -8.40   12.30
   9  -1 -14  134.39   26.70
   9   1 -14   97.89   23.50
  -9   1  14  125.89   41.40
   8  -1 -14   69.79   21.90
  -8  -1  14  178.08   29.00
   8   1 -14   83.09   23.10
  -8   1  14   94.79   22.90
  -7  -1  14  233.78   32.30
   7  -1 -14  190.28   29.70
  -7   1  14  208.28   29.20
   7   1 -14  214.28   30.50
  -6  -1  14   56.09   19.40
   6  -1 -14   72.79   21.70
  -6   1  14   50.89   18.10
   6   1 -14   66.29   21.30
  -5  -1  14  240.68   32.40
   5  -1 -14  190.68   28.90
   5   1 -14  215.28   29.80
  -5   1  14  195.08   28.80
   4  -1 -14  117.79   24.00
  -4  -1  14  101.59   23.90
  -4   1  14  123.69   23.20
   4   1 -14   82.39   22.50
   3  -1 -14  536.65   39.90
  -3  -1  14  457.85   37.10
  -3   1  14  569.74   40.60
   3   1 -14  515.65   38.70
  -2  -1  14   -1.40   14.90
   2  -1 -14   12.80   16.10
  -2   1  14   19.70   17.50
   2   1 -14   -0.40   15.60
  -1  -1  14  122.89   24.10
   1  -1 -14   99.79   23.40
   1   1 -14   99.49   23.40
  -1   1  14   87.49   23.50
   0  -1  14   -8.90   15.50
   0  -1 -14    7.00   19.00
   0   1  14   22.10   20.30
   0   1 -14    3.70   16.80
   1  -1  14  162.18   26.50
  -1  -1 -14   85.79   24.60
   1   1  14  129.29   27.40
  -1   1 -14  127.09   24.70
  -2  -1 -14  -14.00   17.00
   2  -1  14   23.40   17.00
   2   1  14   -3.40   16.40
  -2   1 -14   38.60   20.10
   3  -1  14  389.46   35.90
  -3  -1 -14  391.66   38.10
   3   1  14  341.37   38.90
  -4  -1 -14   37.00   21.20
   4  -1  14   23.20   18.90
   4   1  14    8.80   17.70
  -4   1 -14   39.60   19.50
   5  -1  14  -26.80   15.10
  -5  -1 -14   -0.90   18.00
  -5   1 -14   -6.30   15.50
   5   1  14    9.20   19.70
  -6  -1 -14    3.10   21.00
   6  -1  14   59.79   21.00
  -6   1 -14   87.49   20.40
   6   1  14   41.10   22.40
   7  -1  14   10.30   18.90
  -7  -1 -14   42.20   21.90
  -7   1 -14   50.19   19.10
   7   1  14    0.30   21.20
   8  -1  14    6.80   19.00
  -8  -1 -14   -7.80   19.50
  -8   1 -14    7.20   17.10
   8   1  14   17.80   23.90
  -9  -1 -14  -11.40   18.40
  -9  -1 -14    3.30   20.30
  -9   1 -14   -1.20   15.20
  -9   1 -14   -1.60   16.10
  19  -2 -14  143.79   30.60
  19   2 -14  162.28   33.80
  18  -2 -14  131.29   28.30
  18   2 -14   77.79   25.50
  17  -2 -14   76.39   23.50
  17   2 -14   87.49   26.40
  16  -2 -14  151.38   28.60
  16   2 -14  132.39   30.30
  15  -2 -14   -0.40   18.50
  15   2 -14   50.19   24.70
  14  -2 -14   -7.40   17.30
  14   2 -14   -0.30   15.80
  13  -2 -14   67.09   22.10
  13   2 -14   80.39   23.40
 -13   2  14   57.09   22.80
  12  -2 -14    2.70   16.60
 -12  -2  14    0.30   16.50
  12   2 -14   30.90   18.40
 -12   2  14   50.69   22.30
 -11  -2  14   65.29   24.60
  11  -2 -14   84.19   23.90
  11   2 -14   89.99   24.50
 -11   2  14   77.19   22.90
 -10  -2  14  221.98   34.00
  10  -2 -14  211.98   35.90
 -10   2  14  195.28   30.10
  10   2 -14  224.48   36.30
  -9  -2  14  221.08   33.40
   9  -2 -14  178.98   37.70
   9   2 -14  173.18   29.40
  -9   2  14  128.79   24.80
   8  -2 -14  103.69   23.30
  -8  -2  14   83.79   23.60
   8   2 -14   59.09   20.20
  -8   2  14   69.39   24.40
  -7  -2  14  -13.10   15.90
   7  -2 -14   -8.40   14.10
   7   2 -14    9.70   15.00
  -6  -2  14    7.90   16.20
   6  -2 -14    6.30   15.00
  -6   2  14   -3.40   13.30
   6   2 -14   -6.00   14.10
   5  -2 -14   49.99   20.30
  -5  -2  14   33.50   18.30
   5   2 -14   26.40   17.10
  -5   2  14   52.59   19.90
   4  -2 -14   18.10   16.80
  -4  -2  14  -11.40   14.50
  -4   2  14    5.40   13.40
   4   2 -14   17.00   16.80
  -3  -2  14   96.29   23.70
   3  -2 -14   75.29   21.90
  -3   2  14   81.89   22.90
   3   2 -14   68.29   19.90
   2  -2 -14   16.60   17.70
  -2  -2  14   52.69   19.60
  -2   2  14    3.00   16.90
   2   2 -14   18.50   16.00
  -1  -2  14  138.39   25.60
   1  -2 -14  136.69   27.70
  -1   2  14   72.09   22.30
   1   2 -14   73.89   19.70
   0  -2  14   45.20   19.90
   0  -2 -14   54.69   22.10
   0   2 -14   38.10   18.70
   0   2  14   24.40   19.50
   1  -2  14   95.39   21.70
  -1  -2 -14   44.90   20.30
   1   2  14  105.39   24.80
  -1   2 -14  111.49   22.20
  -2  -2 -14  129.09   28.20
   2  -2  14   58.69   20.50
  -2   2 -14   83.89   22.10
   2   2  14   75.49   24.80
  -3  -2 -14   20.10   20.90
   3  -2  14   11.50   16.60
  -3   2 -14    6.90   16.40
   3   2  14   35.30   18.90
   4  -2  14   37.00   18.70
  -4  -2 -14   44.40   21.40
   4   2  14   22.00   19.80
  -4   2 -14    8.50   15.10
  -5  -2 -14    0.40   19.40
   5  -2  14    0.20   16.60
   5   2  14   -0.80   33.80
  -5   2 -14  -22.60   14.10
  -6  -2 -14   -0.40   20.10
   6  -2  14   21.10   21.10
  -6   2 -14   10.80   15.10
   6   2  14   65.19   28.10
  -7  -2 -14   31.70   30.30
   7  -2  14   -0.50   18.20
  -7   2 -14   -4.30   12.80
   7   2  14  -14.40   20.30
  -8  -2 -14   -3.70   22.60
  -8   2 -14    4.40   14.80
   8   2  14   52.79   28.70
  -9  -2 -14    3.60   22.30
  -9  -2 -14   23.40   21.70
  -9   2 -14    2.80   11.10
  -9   2 -14   16.70   12.30
  19  -3 -14   -3.40   18.10
  19   3 -14  -20.60   15.70
  18  -3 -14   26.40   19.90
  18   3 -14    6.20   20.90
  17  -3 -14   23.20   19.70
  17   3 -14   47.80   23.60
  16  -3 -14   21.60   18.70
  16   3 -14  -21.20   15.50
  15  -3 -14  103.69   27.10
  15   3 -14   51.49   21.40
  14  -3 -14    2.90   18.20
  14   3 -14   44.80   19.80
  13  -3 -14   23.10   18.10
  13   3 -14   38.00   20.60
  12  -3 -14  101.99   24.40
 -12   3  14  147.49   31.30
  12   3 -14  139.49   28.80
 -11  -3  14   26.70   20.40
  11  -3 -14    0.60   16.30
  11   3 -14   10.60   17.30
 -11   3  14   13.40   16.70
  10  -3 -14   23.60   19.40
 -10  -3  14   38.60   22.10
 -10   3  14   81.99   24.30
  10   3 -14   -5.70   14.80
  -9  -3  14   14.10   18.40
   9  -3 -14    3.80   17.20
   9   3 -14  -23.00   13.10
  -9   3  14   -8.50   13.80
  -8  -3  14  -16.10   15.10
   8  -3 -14    8.30   16.80
   8   3 -14   38.90   18.80
  -8   3  14   42.40   19.40
  -7  -3  14   11.90   17.70
   7  -3 -14   -2.40   23.00
   7   3 -14   12.00   16.40
  -7   3  14  -10.20   12.60
  -6  -3  14  107.89   24.60
  -6   3  14   84.59   23.80
   6   3 -14   21.90   16.00
   5  -3 -14   83.89   29.60
  -5  -3  14  128.19   26.80
   5   3 -14  123.19   26.00
  -5   3  14  136.99   28.00
   4  -3 -14  107.89   27.60
  -4  -3  14  195.58   31.00
  -4   3  14  203.08   31.70
   4   3 -14  198.58   29.70
  -3  -3  14  138.29   26.30
   3  -3 -14  142.89   29.90
  -3   3  14  159.98   28.90
   3   3 -14  151.68   25.40
  -2  -3  14   -1.90   15.70
   2  -3 -14   -3.30   17.70
  -2   3  14  -12.70   15.60
   2   3 -14   24.90   18.40
   1  -3 -14   81.69   31.00
  -1  -3  14  100.49   23.40
   1   3 -14   72.79   21.60
  -1   3  14  140.09   28.60
   0  -3  14   11.30   16.40
   0   3 -14    0.80   14.90
   0   3  14   20.40   19.30
   1  -3  14    8.70   17.10
  -1  -3 -14  -32.30   33.60
  -1   3 -14   17.90   16.90
   1   3  14   28.50   22.10
   2  -3  14   -0.70   14.80
  -2  -3 -14  -14.30   18.50
   2   3  14  -20.00   14.20
  -2   3 -14    1.70   15.10
  -3  -3 -14   59.69   22.40
   3  -3  14   44.20   17.30
  -3   3 -14   52.49   17.50
   3   3  14   37.10   19.20
  -4  -3 -14   20.80   20.20
   4  -3  14  -13.10   15.80
   4   3  14    4.60   18.60
  -4   3 -14   14.70   14.90
  -5  -3 -14   15.70   21.00
   5  -3  14   34.50   20.80
  -5   3 -14   49.99   16.10
   5   3  14   -2.10   18.90
  -6  -3 -14    4.70   20.70
   6  -3  14   27.00   16.00
   6   3  14   28.60   20.90
  -6   3 -14   62.69   23.90
  -7  -3 -14    6.70   22.20
   7  -3  14   11.40   14.80
  -7   3 -14    5.10   12.10
  -8  -3 -14   37.30   24.10
  18  -4 -14   20.70   20.20
  18   4 -14    7.10   23.00
  17  -4 -14   22.00   20.20
  17   4 -14   17.90   23.20
  16  -4 -14    9.40   18.30
  16   4 -14   15.50   18.80
  15  -4 -14   21.10   18.70
  15   4 -14   -2.40   17.00
  14  -4 -14   10.90   17.50
  14   4 -14    2.10   17.30
  13  -4 -14   16.60   18.80
  13   4 -14   -2.20   15.20
  12  -4 -14   55.99   22.10
  12   4 -14   59.19   23.80
  11  -4 -14  113.19   26.20
  11   4 -14  107.09   28.70
  10  -4 -14  148.89   27.50
 -10  -4  14  149.69   34.80
 -10   4  14  213.58   39.70
  10   4 -14  203.58   35.30
  -9  -4  14  169.78   31.70
   9  -4 -14  199.78   33.10
   9   4 -14  167.38   30.30
  -9   4  14  134.89   31.50
  -8  -4  14   64.59   22.80
   8  -4 -14   60.79   21.10
  -8   4  14   50.49   22.40
   8   4 -14   17.90   19.80
   7  -4 -14   -5.60   16.80
  -7  -4  14   32.00   20.40
   7   4 -14   -2.40   16.90
  -7   4  14   24.70   17.60
  -6  -4  14  -21.20   19.00
   6  -4 -14  -31.10   13.80
  -6   4  14    7.00   15.40
   6   4 -14  -10.90   15.00
  -5  -4  14    6.60   17.10
   5  -4 -14  -35.90   12.30
   5   4 -14    8.50   15.70
  -5   4  14    2.60   16.70
   4  -4 -14    0.90   16.70
  -4  -4  14   35.30   19.90
   4   4 -14    4.20   17.20
  -4   4  14   25.60   19.50
   3  -4 -14   96.19   24.90
  -3  -4  14   58.69   21.80
  -3   4  14   55.99   21.50
   3   4 -14  130.19   25.70
  -2  -4  14   33.60   19.90
   2  -4 -14   42.80   22.80
   2   4 -14   57.99   21.00
  -2   4  14   43.50   23.50
   1  -4 -14   55.89   23.10
  -1  -4  14   66.99   21.40
  -1   4  14   47.40   24.60
   1   4 -14   48.20   20.30
   0  -4 -14  106.19   27.40
   0  -4  14   87.59   22.90
   0   4 -14   76.39   20.70
   0   4  14   91.09   28.60
  -1  -4 -14   44.90   22.80
   1  -4  14   58.09   19.10
   1   4  14   53.39   21.70
  -1   4 -14   18.10   16.30
   2  -4  14  107.79   22.40
  -2  -4 -14   74.69   25.20
  -2   4 -14   95.49   20.90
  -3  -4 -14   68.29   26.10
   3  -4  14   -2.90   14.80
  -3   4 -14   35.90   18.50
   4  -4  14  -23.00   24.10
  -4  -4 -14   10.20   21.00
  -4   4 -14   25.40   14.90
  -5  -4 -14  -13.10   19.50
   5  -4  14   -4.40   14.90
  -5   4 -14   -5.20   15.40
  -6  -4 -14  -14.00   18.50
   6  -4  14   -5.30   13.50
  -6   4 -14   12.00   11.10
  -7  -4 -14   -6.70   20.80
  -8  -4 -14  -58.49   17.10
  17  -5 -14   -7.80   17.10
  17   5 -14  -13.30   16.40
  16  -5 -14   -3.40   17.80
  15  -5 -14   49.10   22.30
  15   5 -14   20.60   22.80
  14  -5 -14   92.69   27.10
  14   5 -14   70.69   26.30
  13  -5 -14   86.09   26.20
  13   5 -14   92.29   27.10
  12  -5 -14   65.29   22.70
  12   5 -14   84.09   27.30
  11  -5 -14   15.30   18.00
  11   5 -14   80.89   24.70
  10  -5 -14   32.50   20.00
  10   5 -14   53.99   24.90
   9  -5 -14   17.20   18.30
   9   5 -14   50.29   20.60
   8  -5 -14   11.60   17.30
  -8  -5  14   -2.10   18.50
   8   5 -14   14.10   19.90
  -7  -5  14   24.50   22.40
   7  -5 -14   -3.20   14.50
   7   5 -14   -9.30   16.40
  -6  -5  14   -9.90   16.70
   6  -5 -14   -2.60   15.70
   6   5 -14   21.90   29.40
  -5  -5  14   15.60   23.30
   5  -5 -14   29.30   20.50
   5   5 -14   20.40   18.50
  -4  -5  14  137.99   29.00
   4  -5 -14   87.89   25.90
   4   5 -14  162.38   29.20
  -3  -5  14  212.88   32.40
   3  -5 -14  169.88   32.30
   3   5 -14  204.18   32.30
   2  -5 -14   58.69   24.60
  -2  -5  14  118.29   26.90
   2   5 -14  171.98   30.20
  -1  -5  14   47.20   18.70
   1  -5 -14   50.39   26.90
   1   5 -14   36.20   17.80
   0  -5  14    9.20   18.10
   0  -5 -14   31.10   22.00
   0   5 -14   33.50   19.00
   1  -5  14   23.30   17.50
  -1  -5 -14  -37.40   18.20
  -1   5 -14   21.40   16.60
   2  -5  14   53.29   20.50
  -2  -5 -14   24.20   21.50
  -2   5 -14    6.60   15.80
  -3  -5 -14   71.49   24.80
   3  -5  14   34.80   16.80
  -3   5 -14   53.09   17.20
   4  -5  14   42.00   17.10
  -4  -5 -14   51.49   24.40
  -4   5 -14   23.70   16.30
  -5  -5 -14    1.70   21.10
   5  -5  14   -3.70   14.90
  -5   5 -14    8.80   11.30
  -6  -5 -14    6.30   22.00
  -7  -5 -14    5.50   23.60
  15  -6 -14   29.30   22.10
  15   6 -14   18.00   22.00
  14  -6 -14   28.10   20.40
  14   6 -14   38.40   29.80
  13  -6 -14    8.20   17.70
  13   6 -14   -0.40   17.60
  12  -6 -14   35.00   21.90
  12   6 -14   -4.80   18.90
  11  -6 -14   33.90   20.10
  11   6 -14  -12.60   16.20
  10  -6 -14   70.39   25.10
  10   6 -14   80.49   27.30
   9  -6 -14   80.49   26.10
   9   6 -14   80.69   25.50
   8  -6 -14   28.60   17.90
   8   6 -14   42.50   25.00
   7  -6 -14   65.29   23.70
   7   6 -14   49.70   23.00
   6  -6 -14    8.80   18.30
  -6  -6  14   43.90   23.50
   6   6 -14   -0.70   18.70
   5  -6 -14   -9.50   15.50
  -5  -6  14   52.49   24.90
   5   6 -14  -18.90   15.50
  -4  -6  14  -11.20   18.30
   4  -6 -14  -31.00   17.30
   4   6 -14   10.60   25.70
   3  -6 -14   27.80   23.10
  -3  -6  14   68.09   36.70
   3   6 -14   82.89   24.20
  -2  -6  14    9.40   18.60
   2  -6 -14   41.70   23.00
   2   6 -14   -5.10   16.60
   1  -6 -14   54.89   25.80
  -1  -6  14   40.10   21.20
   1   6 -14  100.19   24.20
   0  -6  14   91.69   24.00
   0  -6 -14   32.80   22.70
   0   6 -14   34.00   18.60
  -1  -6 -14   30.00   23.80
   1  -6  14   32.50   18.90
  -1   6 -14   33.90   19.20
   2  -6  14   89.89   23.40
  -2  -6 -14   85.39   29.20
  -2   6 -14   40.90   18.50
  -3  -6 -14    5.10   20.90
   3  -6  14   28.30   17.70
  -3   6 -14   15.50   15.00
  -4  -6 -14   -7.10   21.50
   4  -6  14   45.50   17.90
  -5  -6 -14  -11.00   19.50
   5  -6  14   10.00   13.20
  13  -7 -14   -0.90   17.00
  13   7 -14    0.90   22.40
  12  -7 -14   19.30   18.80
  12   7 -14   55.19   28.10
  11  -7 -14    0.70   17.10
  11   7 -14    3.00   19.40
  10  -7 -14   -0.30   18.00
  10   7 -14  -14.70   18.40
   9  -7 -14   27.30   20.20
   9   7 -14   16.30   19.90
   8  -7 -14   -6.00   19.40
   8   7 -14   -5.90   20.10
   7  -7 -14    7.30   17.80
   7   7 -14   21.90   19.10
   6  -7 -14    5.60   20.90
   6   7 -14   36.00   20.40
   5  -7 -14   38.30   24.10
   5   7 -14   46.60   24.10
   4  -7 -14   69.99   26.20
  -4  -7  14   18.00   22.90
   4   7 -14   23.40   21.50
  -3  -7  14  112.09   30.40
   3  -7 -14   92.79   29.20
   3   7 -14   99.69   26.60
  -2  -7  14   41.00   23.90
   2  -7 -14   -8.90   17.90
   2   7 -14    6.30   16.70
  -1  -7  14   18.30   18.40
   1  -7 -14   18.40   23.20
   1   7 -14   12.60   16.40
   0  -7  14    4.80   17.20
   0  -7 -14   13.20   20.70
   0   7 -14    0.90   16.60
  -1  -7 -14    5.60   24.30
   1  -7  14  -14.70   18.20
  -1   7 -14   34.70   17.50
   2  -7  14   15.20   18.40
  -2   7 -14   10.40   15.60
  -3  -7 -14   21.60   23.90
   3  -7  14   13.50   18.90
   9   8 -14   23.20   20.40
   8   8 -14   -9.30   19.10
   7   8 -14   -5.80   17.70
   6   8 -14   14.20   21.00
   5  -8 -14   -2.40   34.50
   5   8 -14   15.60   20.80
   4  -8 -14   12.70   24.20
   4   8 -14   36.00   20.80
   3  -8 -14    2.60   21.70
   3   8 -14    0.10   19.80
   2  -8 -14   -0.30   20.30
  -2  -8  14    7.40   21.20
   2   8 -14   28.00   21.40
   1  -8 -14   11.80   24.50
  -1  -8  14   48.10   23.40
   1   8 -14   25.90   23.60
   0  -8 -14  -11.10   20.90
  19   0 -15   21.00   22.90
  18   0 -15  190.28   36.10
  17   0 -15   -5.40   16.20
  16   0 -15  103.09   26.20
  15   0 -15   84.99   25.40
  14   0 -15   25.40   18.90
  13   0 -15   38.40   19.00
  12   0 -15  110.69   26.80
 -12   0  15   98.99   33.00
 -11   0  15   10.50   18.10
  11   0 -15   19.70   18.40
  10   0 -15   72.39   22.80
 -10   0  15   78.39   26.10
   9   0 -15  159.98   29.10
  -9   0  15   81.09   26.10
  -8   0  15   14.00   16.70
   8   0 -15   26.00   24.40
   7   0 -15   -7.50   14.90
  -7   0  15   25.30   21.30
   6   0 -15   27.80   19.10
  -6   0  15  -17.40   16.00
  -5   0  15  -11.70   14.40
   5   0 -15  -17.50   14.50
  -4   0  15   16.10   17.40
   4   0 -15  -17.70   15.40
  -3   0  15   32.30   19.00
   3   0 -15    9.90   18.20
  -2   0  15   17.40   18.90
   2   0 -15   25.20   18.90
   1   0 -15   -4.10   17.00
  -1   0  15   11.60   16.90
   0   0 -15   11.50   17.80
   0   0  15   -1.20   17.60
   1   0  15    6.00   18.00
  -1   0 -15   -0.50   18.20
  -2   0 -15  -30.70   16.40
   2   0  15  -12.80   17.70
  -3   0 -15   19.30   19.70
   3   0  15    8.40   20.10
   4   0  15    3.90   19.70
  -4   0 -15    8.60   18.50
  -5   0 -15    0.70   17.30
   5   0  15    2.20   20.40
  -6   0 -15  -10.90   18.40
   6   0  15   31.00   22.60
   7   0  15   26.70   24.40
  -7   0 -15   32.20   20.40
  -8   0 -15    4.90   18.00
   8   0  15    5.20   23.50
  19  -1 -15    0.50   17.20
  19   1 -15   34.30   21.60
  18  -1 -15    8.50   17.90
  18   1 -15   18.80   20.90
  17  -1 -15  -24.90   16.50
  17   1 -15   17.30   18.40
  16  -1 -15   87.99   26.90
  16   1 -15  103.39   26.60
  15  -1 -15   22.00   17.10
  15   1 -15   14.20   17.50
  14  -1 -15   -3.20   16.30
  14   1 -15  -17.60   14.40
  13  -1 -15   29.60   20.10
  13   1 -15   56.69   21.30
  12  -1 -15    4.10   16.90
  12   1 -15  -14.60   13.20
 -12   1  15   10.00   28.10
 -11  -1  15   56.69   24.30
  11  -1 -15   38.20   22.00
 -11   1  15   35.30   18.70
  11   1 -15   32.60   19.00
  10  -1 -15    5.10   16.30
 -10  -1  15   -6.00   17.30
  10   1 -15    9.20   15.00
 -10   1  15   11.30   16.50
   9  -1 -15   11.90   17.70
  -9  -1  15  -10.50   18.00
   9   1 -15  -19.10   12.50
  -9   1  15   10.60   15.40
   8  -1 -15    6.20   19.80
  -8  -1  15   13.10   18.20
   8   1 -15   17.10   20.10
  -8   1  15   32.80   17.90
   7  -1 -15   -3.50   18.00
  -7   1  15    5.20   15.90
   7   1 -15   -2.10   14.80
  -6  -1  15    5.80   18.40
   6  -1 -15   25.40   17.10
   6   1 -15   19.40   17.90
  -6   1  15   34.70   20.30
   5  -1 -15  -22.30   13.80
  -5  -1  15    2.50   16.00
   5   1 -15   12.00   18.00
  -4  -1  15  -12.90   16.70
   4  -1 -15    0.30   16.10
  -4   1  15   -4.40   17.10
   4   1 -15    0.60   17.70
  -3  -1  15   23.20   18.10
   3  -1 -15  -11.10   15.50
  -3   1  15   18.70   18.10
   3   1 -15   27.70   21.00
   2  -1 -15   -0.10   18.20
  -2  -1  15   32.90   20.10
  -2   1  15   34.10   20.00
   2   1 -15   61.39   23.70
  -1  -1  15   30.10   19.90
   1  -1 -15   49.90   19.80
  -1   1  15   20.60   20.90
   1   1 -15   51.49   21.80
   0  -1 -15  -15.30   15.60
   0  -1  15   -2.10   18.90
   0   1  15   25.60   21.50
   0   1 -15   10.20   17.70
  -1  -1 -15   10.50   18.50
   1  -1  15   12.00   17.50
   1   1  15   -2.10   20.90
  -1   1 -15   20.40   18.40
  -2  -1 -15    6.60   18.30
   2  -1  15  -14.30   17.40
   2   1  15  -48.80   17.10
  -2   1 -15    1.60   17.70
  -3  -1 -15   26.30   22.60
   3  -1  15   57.89   22.60
  -3   1 -15   32.40   20.00
   3   1  15   -2.10   22.10
  -4  -1 -15   16.30   20.10
   4  -1  15    3.70   20.00
   4   1  15  -12.60   16.10
  -4   1 -15  -24.40   15.20
  -5  -1 -15  -29.00   17.30
   5  -1  15  -17.70   17.70
   5   1  15   -4.30   21.20
  -5   1 -15   -7.80   17.20
  -6  -1 -15   12.40   20.30
   6  -1  15   35.90   21.30
   6   1  15   19.10   25.00
  -6   1 -15   13.30   18.60
   7  -1  15   40.20   23.50
  -7  -1 -15   17.30   21.90
  -7   1 -15   18.80   17.80
   7   1  15  -19.60   27.20
   8  -1  15   25.90   23.10
  -8  -1 -15    5.90   21.70
  -8   1 -15   13.30   18.00
   8   1  15   43.30   40.80
  19  -2 -15   86.89   26.30
  19   2 -15   87.49   30.90
  18  -2 -15  117.59   29.40
  18   2 -15  118.59   31.00
  17  -2 -15   43.30   23.80
  17   2 -15   28.70   21.40
  16  -2 -15   81.39   25.60
  16   2 -15   87.59   27.80
  15  -2 -15   10.00   17.80
  15   2 -15   45.40   21.10
  14  -2 -15  -15.90   15.00
  14   2 -15  -13.40   13.00
  13  -2 -15  -11.30   15.30
  13   2 -15  -13.90   14.70
  12  -2 -15    5.50   17.70
  12   2 -15   38.90   19.60
  11  -2 -15   -0.90   14.00
 -11  -2  15    1.20   21.00
 -11   2  15   27.90   22.30
  11   2 -15   25.90   19.30
  10  -2 -15   67.79   22.70
 -10  -2  15  110.29   27.80
  10   2 -15  103.49   25.80
 -10   2  15   55.59   19.20
   9  -2 -15   35.90   19.10
  -9  -2  15   20.90   18.70
  -9   2  15   34.20   19.60
   9   2 -15    3.90   16.90
  -8  -2  15   20.70   20.10
   8  -2 -15  -17.00   15.50
  -8   2  15    6.30   15.90
   7  -2 -15   18.60   18.80
  -7  -2  15  -12.60   16.10
   7   2 -15  -10.90   13.10
  -7   2  15   -5.60   15.70
   6  -2 -15  -35.50   12.40
  -6  -2  15  -22.10   14.70
   6   2 -15    5.20   17.50
  -6   2  15   -9.20   15.30
  -5  -2  15  -25.90   14.30
  -5   2  15  -15.70   14.40
   5   2 -15  -13.70   15.00
   4  -2 -15    9.10   30.90
  -4  -2  15   26.30   19.70
   4   2 -15  -13.00   13.70
  -4   2  15  -10.60   15.70
  -3  -2  15   19.20   18.40
   3  -2 -15   -8.90   19.10
   3   2 -15  -27.50   13.60
  -3   2  15  -26.00   15.30
  -2  -2  15   32.20   20.40
   2  -2 -15   24.10   20.60
   2   2 -15  -13.00   15.40
  -2   2  15   21.60   20.80
  -1  -2  15  -15.40   15.70
   1  -2 -15    7.10   17.80
  -1   2  15   -1.50   17.80
   1   2 -15    0.70   16.90
   0  -2 -15  -16.30   19.00
   0  -2  15    6.40   17.80
   0   2 -15   11.70   17.50
   0   2  15  -10.70   18.20
   1  -2  15  -24.30   14.10
  -1  -2 -15    3.30   24.20
  -1   2 -15   -1.50   16.40
   1   2  15  -17.00   19.20
   2  -2  15   -9.30   16.80
   2   2  15   -2.70   22.00
  -2   2 -15    5.30   16.70
  -3  -2 -15   49.00   33.20
   3  -2  15    2.10   18.10
  -3   2 -15   26.80   16.80
   3   2  15   36.80   21.10
   4  -2  15   19.30   20.10
  -4  -2 -15    0.20   19.10
   4   2  15   38.00   23.00
  -4   2 -15   12.50   16.70
   5  -2  15  -26.80   16.90
  -5  -2 -15    8.30   20.60
   5   2  15   23.50   24.10
  -5   2 -15   14.80   16.80
   6  -2  15   -4.50   17.90
  -6  -2 -15   16.80   23.90
   6   2  15   19.90   25.80
  -6   2 -15   11.60   16.70
  -7  -2 -15  -12.80   21.10
   7  -2  15   12.60   21.60
  -7   2 -15   23.40   15.00
   7   2  15    6.40   25.90
  -8  -2 -15   45.50   26.10
  -8   2 -15   -6.40   16.90
   8   2  15   15.40   27.70
  18  -3 -15    2.90   16.70
  18   3 -15  -10.30   19.60
  17  -3 -15    9.00   18.80
  17   3 -15   -0.20   16.90
  16  -3 -15   33.40   21.50
  16   3 -15   17.00   20.60
  15  -3 -15    0.10   16.70
  15   3 -15   46.00   22.40
  14  -3 -15    2.60   18.30
  14   3 -15   -5.50   15.00
  13  -3 -15   10.20   16.50
  13   3 -15    5.50   18.50
  12  -3 -15  -16.10   13.50
  12   3 -15  -20.00   15.00
  11  -3 -15  -10.60   15.00
  11   3 -15   23.80   18.10
  10  -3 -15   -0.30   16.00
 -10  -3  15  -13.60   25.50
  10   3 -15   -8.70   16.20
   9  -3 -15  -14.40   14.30
  -9  -3  15    0.30   18.00
   9   3 -15   13.80   17.90
  -9   3  15    8.70   17.20
   8  -3 -15  -19.80   13.10
  -8  -3  15    0.60   19.30
  -8   3  15  -18.30   15.60
   8   3 -15   -0.20   15.10
  -7  -3  15    3.30   18.30
   7  -3 -15   -1.90   16.80
  -7   3  15    1.40   13.90
   6  -3 -15   -3.90   15.00
  -6  -3  15   10.00   23.30
   6   3 -15  -14.90   15.30
  -6   3  15   62.69   22.10
  -5  -3  15  -14.60   17.60
   5  -3 -15    0.00   15.50
  -5   3  15   26.50   19.00
   5   3 -15  -20.00   14.10
   4  -3 -15    6.20   17.10
  -4  -3  15  -16.50   17.00
  -4   3  15   25.00   20.30
   4   3 -15   19.30   18.80
  -3  -3  15   24.70   19.70
   3  -3 -15  -23.70   15.90
   3   3 -15   25.90   18.70
  -3   3  15   -7.10   18.30
   2  -3 -15   14.70   19.70
  -2  -3  15    7.30   17.30
   2   3 -15    9.40   17.20
  -2   3  15    7.70   21.00
   1  -3 -15    1.80   17.00
  -1  -3  15   18.30   17.30
  -1   3  15   16.80   20.00
   1   3 -15   39.30   18.90
   0  -3  15  -21.70   15.10
   0  -3 -15    2.90   19.40
   0   3 -15  -39.80   13.20
   0   3  15   19.40   24.10
   1  -3  15   21.80   17.90
  -1  -3 -15   -1.90   18.10
   1   3  15   -1.00   20.30
  -1   3 -15   12.60   19.00
  -2  -3 -15    4.50   20.00
   2  -3  15  -22.80   15.80
   2   3  15    7.20   17.40
  -2   3 -15  -15.00   16.00
  -3  -3 -15   18.60   22.00
   3  -3  15   35.30   18.60
  -3   3 -15   26.00   17.20
   3   3  15   16.00   22.30
  -4  -3 -15   -5.00   22.20
   4  -3  15    2.60   18.40
  -4   3 -15  -31.60   14.00
  -5  -3 -15  -26.20   19.10
   5  -3  15   -9.30   18.40
  -5   3 -15    4.60   15.60
  -6  -3 -15   -7.80   21.90
   6  -3  15   20.90   22.00
  -6   3 -15  -22.00   12.80
   7  -3  15    6.50   16.10
  -7  -3 -15   13.90   24.40
  -7   3 -15   18.80   12.80
  17  -4 -15    1.90   18.00
  17   4 -15   14.40   23.70
  16  -4 -15   21.80   20.50
  16   4 -15   34.30   22.30
  15  -4 -15    0.10   17.70
  15   4 -15   24.60   20.10
  14  -4 -15   18.60   19.70
  14   4 -15   34.30   20.80
  13  -4 -15   41.40   21.50
  13   4 -15    2.80   17.30
  12  -4 -15   22.00   19.10
  12   4 -15  -23.90   13.80
  11  -4 -15    3.70   17.40
  11   4 -15    6.90   20.50
  10  -4 -15   27.70   20.90
  10   4 -15    4.60   18.10
   9  -4 -15  -11.20   14.00
   9   4 -15    7.80   16.60
  -8  -4  15   -8.00   18.70
   8  -4 -15    2.90   17.00
   8   4 -15    5.00   17.10
  -7  -4  15   -3.70   17.00
   7  -4 -15  -19.00   14.30
   7   4 -15    3.40   17.10
   6  -4 -15   38.70   20.40
  -6  -4  15  -13.80   18.00
  -5  -4  15    0.40   23.50
   5  -4 -15   -9.50   14.70
   5   4 -15    9.10   17.80
  -4  -4  15  -13.00   17.40
   4  -4 -15  -15.30   14.90
   4   4 -15  -26.30   13.80
  -3  -4  15  -24.10   17.10
   3  -4 -15   19.10   20.60
   3   4 -15    6.80   16.60
  -2  -4  15   11.30   18.30
   2  -4 -15   -1.30   17.50
   2   4 -15   -7.70   16.50
   1  -4 -15   -2.40   17.80
  -1  -4  15   39.90   20.20
   1   4 -15   15.60   16.70
   0  -4  15    8.20   16.90
   0  -4 -15    8.60   20.60
   0   4 -15   -1.60   14.90
  -1  -4 -15    5.90   19.60
   1  -4  15    5.40   17.60
  -1   4 -15    7.40   16.80
  -2  -4 -15  -29.60   18.80
   2  -4  15   -5.90   16.80
  -2   4 -15    7.00   16.20
   3  -4  15   12.30   17.90
  -3  -4 -15    8.00   20.00
  -3   4 -15   24.00   17.60
  -4  -4 -15   21.00   23.80
   4  -4  15   -0.70   16.50
  -4   4 -15    8.80   14.80
  -5  -4 -15    3.30   22.80
   5  -4  15  -23.50   16.30
  -5   4 -15    3.80   15.20
   6  -4  15   -6.50   15.70
  -6  -4 -15  -18.70   20.40
  -6   4 -15    6.90   12.00
  16  -5 -15   24.80   22.00
  16   5 -15   44.90   27.10
  15  -5 -15   19.90   21.10
  14  -5 -15   21.40   20.60
  14   5 -15   17.40   20.20
  13  -5 -15   51.19   22.20
  13   5 -15   19.40   19.60
  12  -5 -15  -15.70   16.70
  12   5 -15  -11.10   15.60
  11  -5 -15   41.80   22.50
  11   5 -15   32.70   20.20
  10  -5 -15   -2.30   18.40
  10   5 -15    4.20   17.80
   9  -5 -15   13.90   19.80
   9   5 -15   -5.50   16.50
   8  -5 -15  -11.90   15.90
   8   5 -15  -15.80   16.30
   7  -5 -15    0.50   17.00
  -7  -5  15  -13.00   18.60
   7   5 -15   10.80   20.00
   6  -5 -15   -3.20   17.20
  -6  -5  15    6.20   18.90
   6   5 -15  -32.10   14.40
   5  -5 -15   21.20   19.00
  -5  -5  15  -17.80   16.90
   5   5 -15   21.20   18.90
   4  -5 -15    1.00   18.60
  -4  -5  15   22.40   19.10
   4   5 -15  -38.20   14.40
   3  -5 -15   13.70   20.20
  -3  -5  15  -11.10   18.30
   3   5 -15    5.50   19.50
  -2  -5  15   39.90   21.20
   2  -5 -15   32.90   23.50
   2   5 -15    6.40   18.30
   1  -5 -15  -11.20   19.20
  -1  -5  15    7.80   18.00
   1   5 -15  -19.50   16.20
   0  -5  15    2.40   17.60
   0  -5 -15   22.50   22.90
   0   5 -15    9.20   17.10
  -1  -5 -15   -7.40   20.10
   1  -5  15  -28.00   17.70
  -1   5 -15  -11.80   15.90
  -2  -5 -15   -6.90   20.00
   2  -5  15   15.10   18.40
  -2   5 -15   30.50   18.20
   3  -5  15   22.50   18.60
  -3  -5 -15  -27.60   17.50
  -3   5 -15   -4.70   14.90
  -4  -5 -15  -11.30   20.80
   4  -5  15   16.20   26.30
  -4   5 -15   12.60   15.40
   5  -5  15   -9.10   14.90
  -5  -5 -15  -25.30   18.80
  -5   5 -15   -8.30   11.50
  15  -6 -15    3.10   18.80
  15   6 -15   16.10   21.10
  14  -6 -15    9.40   20.20
  14   6 -15   11.30   21.50
  13  -6 -15    5.60   19.80
  13   6 -15    3.10   20.40
  12  -6 -15    4.40   18.80
  12   6 -15   25.50   22.10
  11  -6 -15   16.10   19.50
  11   6 -15   18.30   20.90
  10  -6 -15   28.50   21.30
  10   6 -15    5.80   20.50
   9  -6 -15   16.40   18.00
   9   6 -15   41.00   23.50
   8  -6 -15   12.20   17.80
   8   6 -15  -24.20   16.00
   7  -6 -15  -23.90   15.80
   7   6 -15  -23.00   17.30
   6  -6 -15    3.80   16.80
   6   6 -15    5.40   20.40
   5  -6 -15  -15.90   17.50
  -5  -6  15    9.00   21.80
   5   6 -15  -16.50   16.00
  -4  -6  15  -22.80   18.40
   4  -6 -15  -11.00   16.20
   4   6 -15   -4.70   18.70
  -3  -6  15   -0.30   18.90
   3  -6 -15  -10.30   19.20
   3   6 -15   43.60   37.70
   2  -6 -15   25.10   23.50
   2   6 -15  -11.30   19.60
  -1  -6  15    1.80   19.50
   1  -6 -15  -31.60   16.50
   1   6 -15  -25.00   14.10
   0  -6  15  -18.20   18.30
   0  -6 -15    0.20   20.90
   0   6 -15   -9.60   16.70
  -1  -6 -15   -9.60   19.70
   1  -6  15   23.10   20.50
  -1   6 -15  -13.80   15.70
  -2  -6 -15  -27.40   20.20
   2  -6  15   -3.70   18.90
  -2   6 -15  -18.90   14.10
  -3  -6 -15   -3.60   24.30
   3  -6  15   26.60   18.70
  -3   6 -15   -7.10   13.50
  12  -7 -15   -5.90   19.40
  12   7 -15    3.80   19.50
  11  -7 -15   -2.40   20.30
  11   7 -15    4.20   19.60
  10  -7 -15   -3.80   18.40
  10   7 -15    8.20   22.10
   9  -7 -15  -20.40   16.40
   9   7 -15   24.10   20.10
   8  -7 -15    9.20   18.20
   8   7 -15   14.40   20.90
   7  -7 -15    7.10   18.20
   7   7 -15   29.50   22.10
   6  -7 -15  -11.80   16.00
   6   7 -15    9.70   18.90
   5  -7 -15   -8.10   19.70
   5   7 -15   20.40   20.30
   4  -7 -15   34.20   24.00
   4   7 -15    0.30   19.00
   3  -7 -15  -26.40   17.10
  -3  -7  15   20.90   23.30
   3   7 -15  -21.70   15.80
  -2  -7  15    3.40   19.80
   2  -7 -15   -1.50   28.10
   2   7 -15   -5.20   18.40
  -1  -7  15   10.30   21.70
   1  -7 -15   14.50   37.00
   1   7 -15   -2.70   17.10
   0  -7  15   64.59   24.50
   0  -7 -15  -24.30   19.10
   0   7 -15    1.10   15.00
   1  -7  15    5.30   20.20
  -1  -7 -15    8.60   23.30
  -1   7 -15   19.20   17.30
   7  -8 -15  -20.60   16.80
   6  -8 -15   -3.80   21.30
   6   8 -15  -23.80   17.10
   5  -8 -15   -3.80   21.90
   5   8 -15   34.30   21.60
   4  -8 -15   40.10   27.20
  19   0 -16   25.70   36.40
  18   0 -16   84.69   27.00
  17   0 -16   10.70   21.10
  16   0 -16   -4.70   15.30
  15   0 -16   15.50   17.50
  14   0 -16  232.58   34.50
  13   0 -16   71.09   21.50
  12   0 -16  147.99   29.90
  11   0 -16  275.17   35.10
 -10   0  16  140.19   42.30
  10   0 -16  205.48   32.80
  -9   0  16  272.57   35.90
   9   0 -16  237.38   34.00
  -8   0  16  -41.30   12.90
   8   0 -16   12.60   18.10
  -7   0  16   -3.10   15.50
   7   0 -16   21.50   17.70
  -6   0  16   19.80   18.60
   6   0 -16   44.10   24.10
  -5   0  16   98.49   23.90
  -4   0  16  201.68   32.60
   4   0 -16  147.59   30.90
  -3   0  16  584.64   52.99
   3   0 -16  586.94   45.40
   2   0 -16  155.88   29.20
   1   0 -16  101.59   24.40
  -1   0  16   55.59   26.70
   0   0  16   44.50   22.60
   0   0 -16  116.49   27.70
   1   0  16   30.70   22.60
  -1   0 -16  -14.80   16.40
  -2   0 -16   -3.40   18.20
   2   0  16   12.30   21.60
   3   0  16   10.10   21.90
  -3   0 -16    3.20   19.90
  -4   0 -16   14.40   18.70
   4   0  16   51.99   25.30
  -5   0 -16   21.10   19.70
   5   0  16   55.39   25.90
  -6   0 -16   20.50   21.40
   6   0  16   66.59   27.20
  -7   0 -16   23.40   21.20
   7   0  16   27.30   27.30
  19   1 -16   10.60   21.20
  18  -1 -16   67.29   24.70
  18   1 -16   38.90   22.10
  17  -1 -16   -8.20   15.70
  17   1 -16   -2.50   17.50
  16  -1 -16  171.58   33.40
  16   1 -16  154.88   32.60
  15  -1 -16   18.50   17.60
  15   1 -16   40.90   22.40
  14  -1 -16   11.30   18.20
  14   1 -16  -15.30   15.70
  13  -1 -16  111.79   28.00
  13   1 -16   87.19   25.10
  12  -1 -16   39.60   20.60
  12   1 -16   20.60   17.30
  11  -1 -16    2.80   18.90
  11   1 -16   20.50   17.80
  10  -1 -16  134.89   29.60
  10   1 -16  107.39   25.30
   9  -1 -16  107.99   25.00
  -9  -1  16  161.98   31.80
   9   1 -16  111.29   25.70
  -9   1  16  136.69   28.60
  -8  -1  16    0.10   17.30
   8  -1 -16  -16.50   14.40
  -8   1  16  -34.90   11.30
   8   1 -16   35.50   18.90
   7  -1 -16   70.29   23.30
  -7  -1  16   18.80   19.80
  -7   1  16   82.09   25.10
   7   1 -16   57.19   24.30
   6  -1 -16  -21.40   12.80
  -6  -1  16  -23.50   15.10
  -6   1  16   -5.90   15.20
   6   1 -16  -46.40   29.90
   5  -1 -16  232.08   34.00
  -5  -1  16  195.98   31.50
   5   1 -16  258.37   35.70
  -5   1  16  190.98   32.80
   4  -1 -16   88.59   25.50
   4   1 -16  106.19   27.20
  -4   1  16  108.49   27.20
   3  -1 -16   20.20   29.60
  -3  -1  16   42.10   22.20
  -3   1  16   60.49   23.50
   3   1 -16   28.70   21.30
  -2  -1  16  113.89   25.90
   2   1 -16   97.89   25.20
  -2   1  16  153.08   31.90
  -1  -1  16  -18.20   17.40
   1   1 -16   42.60   22.30
  -1   1  16    9.30   22.00
   0  -1  16   -5.30   16.70
   0  -1 -16   -9.40   31.20
   0   1 -16  -10.60   17.00
   0   1  16   -8.90   18.70
   1  -1  16  -23.90   18.00
  -1  -1 -16   -8.70   22.30
  -1   1 -16  -18.90   16.30
   1   1  16    8.60   21.40
  -2  -1 -16   47.30   30.40
   2  -1  16  133.79   29.60
   2   1  16  177.88   34.10
  -2   1 -16   99.29   24.80
   3  -1  16    4.20   21.20
  -3  -1 -16   -8.20   36.30
  -3   1 -16    3.70   19.00
   3   1  16   -0.50   21.70
   4  -1  16    7.20   21.70
   4   1  16   18.30   24.30
  -4   1 -16   67.99   22.00
  -5  -1 -16   23.70   35.80
   5  -1  16    3.80   20.20
   5   1  16   11.00   23.40
  -5   1 -16   -1.10   17.90
   6  -1  16    1.10   22.50
  -6  -1 -16  -37.70   21.80
  -6   1 -16   -1.00   19.60
   6   1  16  -12.20   23.20
   7  -1  16   43.80   24.60
  -7  -1 -16    3.90   28.40
   7   1  16   37.10   29.30
  -7   1 -16   11.40   19.10
  18  -2 -16    9.00   17.30
  18   2 -16   37.40   23.00
  17  -2 -16    5.20   19.60
  17   2 -16  -13.30   17.50
  16  -2 -16  -13.60   15.50
  16   2 -16   11.50   17.90
  15  -2 -16    3.70   19.60
  15   2 -16   13.80   17.40
  14  -2 -16   34.10   19.70
  14   2 -16   59.79   22.00
  13  -2 -16   31.20   19.70
  13   2 -16   22.70   19.10
  12  -2 -16  187.88   32.00
  12   2 -16  133.49   29.40
  11  -2 -16  110.09   28.70
  11   2 -16  128.59   27.80
  10  -2 -16  275.27   37.70
  10   2 -16  218.78   34.40
   9  -2 -16  181.28   31.80
  -9  -2  16  174.78   33.70
   9   2 -16  186.78   31.10
  -8  -2  16   18.60   22.20
   8  -2 -16   23.20   17.80
   8   2 -16   47.80   19.50
  -7  -2  16    4.40   19.80
   7  -2 -16   -4.50   15.30
  -7   2  16   -6.40   15.90
   7   2 -16  -20.40   15.60
   6  -2 -16  -16.20   16.30
  -6  -2  16   -3.70   17.00
   6   2 -16  -17.00   21.90
  -6   2  16    4.40   16.90
   5  -2 -16    4.90   16.70
  -5  -2  16    6.30   19.60
   5   2 -16  -20.90   14.10
  -5   2  16   -2.50   16.90
   4  -2 -16   38.10   21.30
   4   2 -16   42.00   19.30
  -4   2  16   23.70   19.80
  -3  -2  16  182.58   32.20
   3  -2 -16  123.89   26.90
   3   2 -16  118.99   26.20
  -3   2  16  131.79   28.90
  -2  -2  16  -28.10   16.60
   2  -2 -16   -6.20   18.60
   2   2 -16   -2.40   18.10
  -2   2  16  -49.50   15.80
  -1  -2  16   32.40   21.20
   1  -2 -16   -0.90   17.10
  -1   2  16   42.50   26.10
   1   2 -16   44.60   18.90
   0  -2 -16   -3.30   18.00
   0  -2  16   15.20   19.50
   0   2  16   10.20   22.20
   0   2 -16   22.50   21.00
  -1  -2 -16    7.80   18.00
   1  -2  16  -18.20   16.90
   1   2  16   -6.80   21.30
  -1   2 -16  -10.00   18.10
   2  -2  16   46.50   22.70
  -2  -2 -16    0.80   20.80
   2   2  16   29.60   25.80
  -2   2 -16    2.70   17.80
   3  -2  16  -26.00   18.60
  -3  -2 -16   -9.10   19.60
  -3   2 -16    3.90   17.30
   3   2  16   -8.50   20.00
   4  -2  16    5.90   19.70
  -4  -2 -16   10.60   20.70
  -4   2 -16   -6.90   16.60
   4   2  16    2.60   21.70
  -5  -2 -16  -17.80   19.70
   5  -2  16  -17.60   18.90
   5   2  16   -2.30   32.10
  -5   2 -16    6.20   18.00
   6  -2  16    3.30   21.30
  -6  -2 -16   -5.10   21.40
  -6   2 -16   26.50   17.80
  18  -3 -16   15.30   19.60
  18   3 -16   15.80   19.30
  17  -3 -16    4.40   18.40
  17   3 -16   31.60   24.90
  16  -3 -16   65.89   23.20
  16   3 -16    5.50   18.90
  15  -3 -16   26.50   19.80
  15   3 -16   -0.30   16.70
  14  -3 -16   -0.10   18.20
  14   3 -16   18.10   19.30
  13  -3 -16    0.70   16.30
  13   3 -16   -3.20   15.80
  12  -3 -16   14.90   17.90
  12   3 -16    2.50   18.80
  11  -3 -16   22.00   21.10
  11   3 -16   64.59   24.80
  10  -3 -16  147.19   27.90
  10   3 -16  271.67   36.40
   9  -3 -16   78.29   25.50
   9   3 -16   96.99   25.30
  -8  -3  16   38.90   24.50
   8  -3 -16   37.80   20.00
   8   3 -16   52.79   21.50
   7  -3 -16   17.10   16.50
  -7  -3  16   51.69   23.00
   7   3 -16   24.40   19.30
  -6  -3  16   15.40   20.30
   6  -3 -16   32.10   20.00
   6   3 -16   13.30   18.80
   5  -3 -16   50.39   22.80
  -5  -3  16   37.20   23.10
  -4  -3  16   16.10   24.20
   4  -3 -16   21.90   20.00
   4   3 -16   50.49   21.40
   3  -3 -16  -18.80   15.10
  -3  -3  16    2.90   20.30
   3   3 -16    8.60   16.10
  -2  -3  16   25.80   19.80
   2  -3 -16   42.90   24.00
   2   3 -16   36.30   20.20
   1  -3 -16   15.10   20.90
  -1  -3  16  -15.30   16.50
   1   3 -16   -4.30   17.10
   0  -3  16    7.00   19.70
   0  -3 -16  -32.30   19.10
   0   3 -16  -12.80   15.70
  -1  -3 -16   12.80   20.60
   1  -3  16  -27.30   16.70
  -1   3 -16   18.10   18.00
   2  -3  16   97.89   23.80
  -2  -3 -16   81.89   27.70
  -2   3 -16  117.39   22.80
   3  -3  16   37.10   20.60
  -3  -3 -16   31.30   23.60
  -3   3 -16   18.90   18.30
  -4  -3 -16    4.00   23.60
   4  -3  16   19.30   21.50
  -4   3 -16   37.40   18.50
   5  -3  16   -6.00   19.80
  -5  -3 -16   22.80   24.60
  -5   3 -16    3.70   17.10
  -6  -3 -16   18.90   23.90
   6  -3  16   -1.90   22.60
  -6   3 -16   16.30   16.50
  17  -4 -16   -1.40   18.70
  17   4 -16   42.90   23.50
  16  -4 -16   13.50   22.60
  16   4 -16   -5.20   17.30
  15  -4 -16  -15.90   15.20
  15   4 -16  -20.50   16.30
  14  -4 -16   31.30   21.50
  14   4 -16   -5.10   18.00
  13  -4 -16   27.20   21.30
  13   4 -16  -22.10   15.70
  12  -4 -16   34.50   21.30
  12   4 -16   35.00   19.30
  11  -4 -16   53.09   22.00
  11   4 -16   40.80   20.10
  10  -4 -16   98.69   27.60
  10   4 -16   62.29   23.40
   9  -4 -16   45.10   22.90
   9   4 -16   87.69   25.80
   8  -4 -16   21.00   20.30
   8   4 -16   29.00   19.30
  -7  -4  16  -18.50   18.40
   7  -4 -16   -5.10   18.80
   7   4 -16   -5.70   16.70
  -6  -4  16  -18.60   17.30
   6  -4 -16   -0.60   16.20
   6   4 -16  -10.10   15.40
  -5  -4  16   -3.70   18.50
   5  -4 -16    3.40   17.30
   5   4 -16   37.10   19.50
  -4  -4  16  107.69   27.70
   4  -4 -16   45.00   24.20
   4   4 -16   49.99   28.60
   3  -4 -16   87.69   24.40
  -3  -4  16   58.99   41.00
   3   4 -16   55.29   22.70
  -2  -4  16   86.99   25.00
   2  -4 -16   50.69   24.80
   2   4 -16   46.40   21.40
   1  -4 -16   22.80   20.10
  -1  -4  16   44.20   23.50
   1   4 -16   41.20   20.20
   0  -4  16   10.20   19.40
   0  -4 -16   15.20   20.30
   0   4 -16   35.50   18.50
  -1  -4 -16  -16.80   17.30
   1  -4  16   14.30   18.70
  -1   4 -16   14.00   16.50
  -2  -4 -16    7.10   21.30
   2  -4  16  -10.10   19.40
  -2   4 -16   26.80   18.00
   3  -4  16   -6.60   17.10
  -3  -4 -16   32.50   24.50
  -3   4 -16   27.80   17.00
   4  -4  16   -3.30   20.20
  -4  -4 -16  -30.30   17.80
  -4   4 -16    8.20   16.90
  -5  -4 -16  -15.10   21.10
   5  -4  16   31.00   30.50
  -5   4 -16   -0.80   14.80
  15  -5 -16   41.80   22.00
  15   5 -16   56.69   25.90
  14  -5 -16   27.50   22.30
  13  -5 -16  -16.50   15.10
  13   5 -16  -11.50   18.00
  12  -5 -16   -4.00   16.70
  12   5 -16  -36.70   14.40
  11  -5 -16    5.50   17.90
  11   5 -16   18.80   19.30
  10  -5 -16   14.70   20.20
  10   5 -16   50.69   24.10
   9  -5 -16   44.50   22.00
   9   5 -16  -15.20   17.60
   8  -5 -16   27.20   20.80
   8   5 -16   -0.60   18.00
   7  -5 -16   80.49   25.00
   7   5 -16  113.49   30.00
   6  -5 -16   58.69   23.60
   6   5 -16   34.10   21.50
   5  -5 -16   41.80   21.90
  -5  -5  16   25.80   23.40
   5   5 -16   67.09   26.70
   4  -5 -16   46.60   22.60
  -4  -5  16   96.79   29.90
   4   5 -16   34.70   21.40
   3  -5 -16  -12.50   18.40
  -3  -5  16   31.40   23.30
   3   5 -16   -1.60   31.00
  -2  -5  16  -42.50   28.50
   2  -5 -16  -25.80   14.90
   2   5 -16  -15.40   16.70
  -1  -5  16   10.70   20.70
   1  -5 -16   31.30   25.20
   1   5 -16    7.30   19.60
   0  -5 -16   -3.30   21.50
   0  -5  16   12.90   21.40
   0   5 -16   16.50   18.40
   1  -5  16  -22.50   17.70
  -1  -5 -16  -10.10   20.10
  -1   5 -16  -19.50   15.90
  -2  -5 -16   27.70   25.50
   2  -5  16   -3.10   18.00
  -2   5 -16   56.29   20.10
   3  -5  16   -8.70   17.40
  -3  -5 -16   65.29   28.00
  -3   5 -16    2.50   16.20
   4  -5  16    9.30   17.30
  -4  -5 -16    7.00   23.90
  13  -6 -16   27.30   25.10
  13   6 -16   30.00   24.20
  12  -6 -16   63.79   24.70
  12   6 -16   84.39   33.10
  11  -6 -16  105.29   27.50
  11   6 -16  119.59   32.30
  10  -6 -16   55.59   26.10
  10   6 -16   42.80   24.80
   9  -6 -16   -1.30   18.50
   9   6 -16   67.79   26.30
   8  -6 -16    8.70   18.50
   8   6 -16    1.40   17.70
   7  -6 -16   -4.40   17.40
   7   6 -16    0.30   18.90
   6  -6 -16  -12.70   17.40
   6   6 -16  -18.90   15.90
   5  -6 -16   -6.30   18.40
   5   6 -16   -2.00   18.40
   4  -6 -16   37.90   22.30
  -4  -6  16    8.70   23.90
   4   6 -16   14.80   21.20
   3  -6 -16   11.60   20.90
  -3  -6  16   64.49   26.40
   3   6 -16   28.00   22.80
  -2  -6  16   65.39   26.40
   2  -6 -16   75.99   28.00
   2   6 -16   25.10   40.60
   1  -6 -16   87.39   30.20
  -1  -6  16  -15.80   34.90
   1   6 -16   27.00   21.50
   0  -6 -16  -11.50   20.20
   0  -6  16   10.50   19.80
   0   6 -16   45.30   21.00
   1  -6  16   32.80   22.30
  -1   6 -16    6.90   16.80
  -2  -6 -16  -14.90   21.40
   2  -6  16    4.50   19.30
  -2   6 -16   12.10   17.50
  10  -7 -16   68.29   27.40
  10   7 -16   -2.50   20.30
   9  -7 -16   33.30   22.20
   9   7 -16   30.30   23.90
   8  -7 -16   26.70   23.20
   8   7 -16    0.70   19.50
   7  -7 -16   25.40   21.90
   7   7 -16    7.20   21.90
   6  -7 -16   -2.50   18.20
   6   7 -16   30.30   22.30
   5  -7 -16   26.60   20.90
   5   7 -16   13.40   21.20
   4  -7 -16   35.50   24.60
   4   7 -16   57.29   26.30
   3  -7 -16   -5.10   22.60
   3   7 -16   -4.30   18.20
  -2  -7  16    7.30   24.00
   2  -7 -16    5.50   20.20
   2   7 -16   16.30   19.80
  18   0 -17  -12.50   17.10
  17   0 -17   49.30   21.40
  16   0 -17   58.29   25.00
  15   0 -17    2.80   16.90
  14   0 -17    5.00   16.90
  13   0 -17  114.79   28.50
  12   0 -17   10.30   18.10
  11   0 -17  119.49   30.80
  10   0 -17   -9.10   17.50
   9   0 -17  -10.90   17.50
   8   0 -17   14.10   21.00
  -7   0  17   10.60   27.40
   7   0 -17   37.00   22.60
   6   0 -17   33.90   20.50
  -6   0  17   30.70   22.30
  -5   0  17   -6.00   18.60
   5   0 -17   -8.30   18.50
  -4   0  17   -8.60   16.90
   4   0 -17    9.00   19.80
  -3   0  17   15.60   20.90
   3   0 -17   14.80   22.10
   2   0 -17   66.29   24.80
  -2   0  17   11.80   20.50
  -1   0  17   36.90   22.60
   1   0 -17   10.30   21.00
   0   0 -17   -8.40   21.40
   0   0  17   30.80   24.30
   1   0  17    2.20   22.60
  -1   0 -17   -3.10   35.10
   2   0  17   11.50   23.10
  -2   0 -17   27.30   43.40
  -3   0 -17    4.30   39.40
   3   0  17   -2.80   24.00
   4   0  17  -18.50   23.40
  -4   0 -17  -12.30   23.60
   5   0  17   19.00   25.90
  -5   0 -17   -2.10   21.10
  18  -1 -17    0.30   18.80
  18   1 -17   16.80   21.40
  17  -1 -17   38.80   20.30
  16  -1 -17   30.40   22.60
  16   1 -17   13.10   17.40
  15  -1 -17   33.80   22.40
  15   1 -17   89.19   26.90
  14  -1 -17   29.70   19.80
  14   1 -17    3.10   18.70
  13  -1 -17   44.90   22.60
  13   1 -17   -1.80   16.30
  12  -1 -17    3.70   16.00
  12   1 -17   -9.80   15.50
  11  -1 -17   16.10   20.60
  11   1 -17    4.90   15.90
  10  -1 -17   -0.80   18.20
  10   1 -17   -4.10   16.10
   9  -1 -17   -1.50   18.00
   9   1 -17   17.40   17.00
   8  -1 -17  -11.50   16.70
   8   1 -17   14.90   19.10
   7  -1 -17  -14.40   16.00
  -7  -1  17   15.10   22.00
   7   1 -17   -2.50   16.40
   6  -1 -17  -24.10   15.90
  -6  -1  17    7.60   21.50
   6   1 -17  -14.90   16.30
  -5  -1  17    7.40   20.50
   5  -1 -17  -10.10   16.00
  -5   1  17   -8.50   19.40
   5   1 -17  -10.20   17.90
   4  -1 -17   34.90   20.60
  -4  -1  17  -10.70   19.00
  -4   1  17   -4.00   17.90
   4   1 -17   -8.50   21.80
  -3  -1  17    2.90   19.20
   3  -1 -17   16.80   19.30
   3   1 -17    5.30   21.60
  -3   1  17   -9.70   18.10
  -2  -1  17  -29.20   17.00
   2  -1 -17    5.80   19.20
  -2   1  17   12.20   21.40
  -1  -1  17   -8.40   19.80
   1  -1 -17  -11.70   17.70
   1   1 -17    9.60   20.50
  -1   1  17  -17.70   21.80
   0  -1 -17  -26.00   16.00
   0  -1  17   31.20   25.60
   0   1  17   -8.60   22.60
   0   1 -17   -9.30   17.60
  -1  -1 -17    7.70   18.60
   1  -1  17   36.60   40.40
  -1   1 -17   50.09   21.70
   1   1  17   -5.80   24.40
  -2  -1 -17    8.50   21.50
   2  -1  17   15.90   23.70
  -2   1 -17   24.20   20.60
   2   1  17   16.80   25.30
   3  -1  17   11.30   23.20
  -3  -1 -17    3.70   21.40
   3   1  17   26.70   26.00
  -3   1 -17   -0.40   20.50
   4  -1  17   22.90   24.30
  -4  -1 -17   -7.30   19.20
  -4   1 -17   20.40   20.40
   4   1  17    6.90   26.30
  -5  -1 -17   17.00   23.60
   5  -1  17   -9.90   22.30
  -5   1 -17   38.90   23.00
   5   1  17    9.80   27.10
  17  -2 -17  -14.70   16.80
  17   2 -17   33.60   24.50
  16  -2 -17   32.50   22.30
  16   2 -17   45.40   24.30
  15  -2 -17  -20.50   17.50
  15   2 -17   19.20   19.20
  14  -2 -17   11.10   21.50
  14   2 -17   28.60   21.00
  13  -2 -17   91.09   26.30
  13   2 -17    4.80   18.60
  12  -2 -17   32.40   20.30
  12   2 -17  -16.20   13.60
  11  -2 -17  112.29   28.30
  11   2 -17   95.99   27.00
  10  -2 -17   14.40   20.70
  10   2 -17    5.20   16.10
   9  -2 -17  -12.40   18.80
   9   2 -17   -1.30   14.70
   8  -2 -17   -5.80   18.50
   8   2 -17  -10.20   16.80
  -7  -2  17   18.90   24.20
   7  -2 -17  -18.70   14.70
   7   2 -17   34.40   22.30
  -6  -2  17    0.40   20.70
   6  -2 -17   -9.90   15.80
   6   2 -17  -19.50   15.80
  -5  -2  17   -1.80   19.00
   5  -2 -17   -5.10   17.00
   5   2 -17   -0.70   16.80
   4  -2 -17   10.90   20.00
  -4  -2  17    2.50   18.60
   4   2 -17   14.30   20.50
   3  -2 -17   54.99   22.40
  -3  -2  17   10.80   21.80
   2  -2 -17    2.00   17.30
  -2  -2  17   28.70   21.80
   2   2 -17    8.90   17.90
   1  -2 -17  -19.70   17.00
   1   2 -17  -22.60   16.20
   0  -2  17    5.90   20.30
   0  -2 -17   -6.70   18.80
   0   2 -17  -47.40   14.90
   1  -2  17   20.90   21.30
  -1  -2 -17   21.70   22.60
  -1   2 -17    4.50   17.50
  -2  -2 -17   32.40   25.10
   2  -2  17   16.90   22.50
  -2   2 -17   23.10   19.70
   3  -2  17   -2.30   22.70
  -3  -2 -17  -15.00   19.00
  -3   2 -17   14.90   20.40
   4  -2  17  -30.90   21.40
  -4  -2 -17   34.20   23.80
  -4   2 -17   -8.40   18.30
  -5  -2 -17   -0.20   23.70
   5  -2  17   41.80   25.90
  -5   2 -17   12.30   18.70
  17   3 -17   46.90   23.60
  16  -3 -17   29.40   23.80
  16   3 -17   37.80   22.70
  15  -3 -17   10.10   21.30
  15   3 -17   10.30   19.80
  14  -3 -17    6.60   20.50
  14   3 -17   18.70   21.20
  13  -3 -17   33.10   24.20
  13   3 -17   38.70   21.20
  12  -3 -17   13.60   18.90
  12   3 -17   14.90   21.20
  11  -3 -17   -3.50   17.20
  11   3 -17    1.40   18.80
  10  -3 -17   22.40   20.00
  10   3 -17    5.80   17.70
   9  -3 -17  -26.30   15.70
   9   3 -17   17.60   18.40
   8  -3 -17   -7.60   15.50
   8   3 -17   -6.30   17.60
   7  -3 -17   41.00   22.30
   7   3 -17   24.90   19.60
  -6  -3  17   15.10   22.00
   6  -3 -17    5.70   18.80
   6   3 -17   -2.70   16.50
   5  -3 -17  -20.70   16.50
  -5  -3  17   -3.70   19.30
   5   3 -17   25.60   18.70
  -4  -3  17   -3.20   21.00
   4  -3 -17   16.50   19.10
   4   3 -17  -19.70   15.00
  -3  -3  17  -17.20   18.20
   3  -3 -17  -27.10   17.30
   2  -3 -17   25.60   20.00
  -2  -3  17  -14.70   20.50
   2   3 -17    2.50   18.70
  -1  -3  17   -1.70   30.70
   1  -3 -17  -11.10   18.70
   1   3 -17   -3.00   17.90
   0  -3  17  -20.70   18.30
   0  -3 -17   -1.40   21.90
   0   3 -17  -24.50   15.10
  -1  -3 -17  -37.70   18.90
   1  -3  17   11.90   20.60
  -1   3 -17   18.20   18.10
   2  -3  17   -1.80   19.70
  -2  -3 -17  -15.40   20.60
  -2   3 -17   33.20   19.20
  -3  -3 -17   -8.00   22.20
   3  -3  17    4.90   21.70
  -3   3 -17   24.80   19.80
  -4  -3 -17   11.20   24.70
   4  -3  17   14.80   23.20
  -4   3 -17   -5.70   17.40
  16   4 -17   21.90   22.70
  15  -4 -17   24.50   21.00
  15   4 -17  -16.40   17.00
  14  -4 -17  -17.90   17.10
  14   4 -17   31.80   25.80
  13  -4 -17  -15.60   16.60
  13   4 -17   47.00   21.90
  12  -4 -17    8.20   20.70
  12   4 -17   13.60   20.80
  11  -4 -17   30.30   20.50
  11   4 -17   10.00   20.90
  10  -4 -17    0.20   17.80
  10   4 -17   21.40   18.70
   9  -4 -17   10.90   18.20
   9   4 -17  -12.60   17.00
   8  -4 -17   -2.70   17.00
   8   4 -17  -27.30   14.10
   7  -4 -17  -17.70   15.90
   7   4 -17  -14.30   16.50
   6  -4 -17    6.30   15.80
   6   4 -17  -11.40   16.10
  -5  -4  17  -10.90   20.90
   5  -4 -17   12.40   20.00
   5   4 -17   -0.90   18.00
  -4  -4  17   24.20   23.40
   4  -4 -17  -21.90   13.90
   4   4 -17    7.90   20.00
  -3  -4  17   34.60   22.50
   3  -4 -17   29.50   21.60
   3   4 -17  -19.70   17.20
  -2  -4  17    5.20   20.50
   2  -4 -17  -22.40   17.30
   2   4 -17   27.30   25.30
   1  -4 -17    8.60   21.20
   1   4 -17   11.00   21.50
   0  -4  17  -27.20   19.30
   0  -4 -17  -17.00   20.30
   0   4 -17   -0.40   16.00
   1  -4  17   -8.20   18.90
  -1  -4 -17   14.60   21.10
  -1   4 -17   31.60   20.10
  -2  -4 -17  -33.40   19.30
   2  -4  17  -21.60   19.30
  -2   4 -17  -31.90   15.10
  -3  -4 -17   33.80   26.00
   3  -4  17    2.60   19.90
  -3   4 -17    5.50   17.90
  14  -5 -17  -36.20   24.30
  14   5 -17   -2.80   20.00
  13  -5 -17   12.20   23.10
  12  -5 -17    5.00   18.40
  12   5 -17   23.80   21.60
  11  -5 -17    3.10   17.80
  11   5 -17    2.70   20.10
  10  -5 -17   58.39   24.70
  10   5 -17  -18.50   17.90
   9  -5 -17   -6.10   16.80
   9   5 -17   -1.20   20.50
   8  -5 -17   45.20   21.80
   8   5 -17   15.10   19.90
   7  -5 -17   -2.90   17.30
   7   5 -17   54.79   25.50
   6  -5 -17   14.70   21.20
   6   5 -17    9.40   20.60
   5  -5 -17   -1.80   17.70
   5   5 -17   10.20   20.30
   4  -5 -17    2.80   19.10
  -4  -5  17  -13.10   22.20
   4   5 -17  -24.90   17.80
  -3  -5  17  -22.20   21.40
   3  -5 -17  -13.70   19.40
   3   5 -17  -13.70   16.80
   2  -5 -17  -33.70   14.80
  -2  -5  17   17.90   22.90
   2   5 -17   23.10   23.00
   1  -5 -17  -13.20   19.70
  -1  -5  17   -4.10   21.90
   1   5 -17   16.10   21.90
   0  -5 -17   11.20   22.60
   0  -5  17    3.40   21.70
   0   5 -17   15.20   17.50
  -1  -5 -17   -2.90   22.50
   1  -5  17   32.20   22.80
  -1   5 -17    7.50   18.10
   2  -5  17    7.10   20.50
  -2  -5 -17   -9.10   29.00
  -2   5 -17   19.10   17.90
  12  -6 -17  -12.10   17.60
  12   6 -17   -1.70   21.10
  11  -6 -17   25.90   23.70
  11   6 -17   91.39   37.90
  10  -6 -17    9.20   22.40
  10   6 -17   20.20   23.60
   9  -6 -17   -9.90   26.50
   9   6 -17   -7.40   19.50
   8   6 -17   -8.50   18.80
   7   6 -17  -17.00   17.20
   6   6 -17  -11.50   17.50
   5   6 -17   20.90   20.90
   4   6 -17   -0.80   18.60
   3  -6 -17   -5.60   24.30
   3   6 -17   -7.30   18.60
  -2  -6  17    4.30   23.70
   2  -6 -17    3.10   20.80
   2   6 -17    6.60   19.70
  -1  -6  17   30.40   24.40
   1  -6 -17   27.40   27.20
   1   6 -17    2.30   24.30
  17   0 -18    2.30   19.40
  15   0 -18    2.90   17.10
  14   0 -18   -2.90   17.90
  13   0 -18  118.59   28.90
  12   0 -18   -6.50   16.20
  11   0 -18   86.19   25.60
  10   0 -18   -2.90   16.30
   9   0 -18   -9.10   20.40
   8   0 -18   -3.70   20.00
   7   0 -18  203.08   37.20
   6   0 -18   12.80   19.60
   5   0 -18    7.40   19.50
   4   0 -18  123.19   29.50
   3   0 -18    0.30   20.50
  -2   0  18   24.20   31.30
   2   0 -18    1.50   20.40
   1   0 -18   34.00   21.80
  -1   0  18   44.80   26.60
   0   0 -18    9.40   20.30
   0   0  18  -21.60   22.50
  -1   0 -18   -1.30   20.80
   1   0  18  -10.50   22.70
  -2   0 -18   75.19   25.90
   2   0  18   32.90   27.60
  -3   0 -18  -19.20   21.60
   3   0  18   -9.60   24.90
  -4   0 -18   22.40   23.50
   4   0  18   42.20   30.80
  17  -1 -18  116.59   31.10
  17   1 -18   61.49   24.90
  16   1 -18   18.30   21.00
  15  -1 -18  -13.80   16.20
  15   1 -18   20.30   19.90
  14  -1 -18   -4.30   15.90
  14   1 -18   -4.20   16.70
  13  -1 -18   -1.80   16.80
  13   1 -18   -1.90   16.20
  12  -1 -18  -24.00   15.20
  12   1 -18   18.70   20.20
  11  -1 -18  261.07   39.20
  11   1 -18  247.08   37.90
  10  -1 -18  126.79   30.60
  10   1 -18   89.79   25.70
   9  -1 -18   82.89   25.60
   9   1 -18  143.69   30.70
   8  -1 -18  102.59   31.00
   8   1 -18   27.90   23.00
   7  -1 -18  -20.50   16.70
   7   1 -18  -19.20   14.60
   6  -1 -18   20.40   22.40
   6   1 -18    4.50   19.10
   5  -1 -18  -15.50   18.70
   5   1 -18    6.20   20.30
  -4  -1  18   48.00   34.50
   4  -1 -18   43.10   22.50
   4   1 -18  -15.70   18.20
   3  -1 -18   -6.00   18.20
  -3  -1  18   14.60   22.00
   3   1 -18    3.10   20.60
  -2  -1  18   18.90   22.00
   2  -1 -18   54.79   25.50
   2   1 -18   17.30   22.90
   1  -1 -18   -2.70   20.20
  -1  -1  18   18.50   22.00
   1   1 -18    5.90   21.30
   0  -1  18   22.00   24.00
   0  -1 -18   33.70   23.50
   0   1 -18   69.49   27.00
  -1  -1 -18    3.70   23.40
   1  -1  18  -15.90   23.50
  -1   1 -18   32.70   23.10
   2  -1  18  -21.40   22.50
  -2  -1 -18   37.10   25.90
  -2   1 -18   27.20   23.00
   3  -1  18  -17.30   24.90
  -3  -1 -18   48.10   25.10
  -4  -1 -18   -6.60   22.70
   4  -1  18   45.60   30.60
  -4   1 -18    8.60   26.80
  17  -2 -18  -21.00   15.20
  16  -2 -18  134.79   49.00
  16   2 -18   97.49   30.00
  15  -2 -18   23.40   21.90
  14  -2 -18   94.69   28.70
  14   2 -18   17.50   20.70
  13  -2 -18  117.79   32.70
  13   2 -18   70.39   25.00
  12  -2 -18    8.50   18.60
  12   2 -18   22.80   18.40
  11  -2 -18   96.29   28.50
  11   2 -18   92.89   27.00
  10  -2 -18   19.60   19.40
  10   2 -18   -0.70   17.30
   9  -2 -18  -28.50   14.50
   9   2 -18  -29.60   14.30
   8  -2 -18   40.10   24.10
   8   2 -18  -25.40   14.30
   7  -2 -18   68.19   25.60
   7   2 -18   70.59   25.70
   6  -2 -18  -17.40   14.90
   6   2 -18    3.50   18.60
   5  -2 -18   57.09   25.70
   5   2 -18   44.40   20.40
  -4  -2  18   63.49   27.90
   4  -2 -18  103.49   27.60
   4   2 -18  117.89   26.50
  -3  -2  18   66.89   26.90
   3  -2 -18   -8.30   18.30
   3   2 -18   28.00   22.20
  -2  -2  18  128.39   29.80
   2  -2 -18   43.60   23.20
   2   2 -18  127.99   29.00
  -1  -2  18  -28.40   18.50
   1  -2 -18   -5.00   19.70
   1   2 -18   -1.70   20.50
   0  -2 -18    9.90   21.60
   0  -2  18   -3.00   21.20
   0   2 -18   20.60   24.50
  -1  -2 -18  -26.70   16.70
   1  -2  18   15.80   23.80
  -1   2 -18  -12.40   22.90
  -2  -2 -18  -10.20   24.20
   2  -2  18  -25.00   28.00
  -2   2 -18   23.60   21.30
  -3  -2 -18   -6.50   22.20
   3  -2  18    0.00   26.80
  -3   2 -18   25.60   20.40
  16  -3 -18   -5.40   17.00
  16   3 -18  -10.90   16.30
  15   3 -18  -12.30   18.00
  14  -3 -18  -24.90   15.70
  14   3 -18   23.60   26.90
  13  -3 -18  -18.90   17.30
  13   3 -18    5.60   17.20
  12  -3 -18   29.20   22.00
  12   3 -18    3.80   20.00
  11  -3 -18   78.89   27.90
  11   3 -18   32.50   21.90
  10  -3 -18   36.20   22.80
  10   3 -18   15.10   19.20
   9  -3 -18   57.49   23.60
   9   3 -18    6.00   21.70
   8  -3 -18   -6.10   17.80
   8   3 -18   -0.30   19.20
   7  -3 -18  -29.90   13.90
   7   3 -18  -13.60   17.60
   6  -3 -18   15.50   18.90
   6   3 -18   10.40   18.30
   5  -3 -18   -2.40   18.50
   5   3 -18    1.60   19.00
   4  -3 -18  -24.60   15.80
  -4  -3  18   -0.70   28.00
   4   3 -18   17.50   20.10
  -3  -3  18   18.20   24.90
   3  -3 -18   60.39   26.30
   3   3 -18   10.90   21.70
  -2  -3  18   28.80   24.90
   2  -3 -18   31.50   24.40
   2   3 -18   44.60   23.00
  -1  -3  18    2.30   22.40
   1  -3 -18    6.00   21.30
   1   3 -18    0.70   21.30
   0  -3  18   14.60   22.60
   0  -3 -18    7.00   20.80
   0   3 -18   -0.40   24.10
   1  -3  18  -10.00   34.10
  -1  -3 -18    1.20   21.90
  -1   3 -18    7.80   21.20
  -2  -3 -18   -0.50   20.80
   2  -3  18  -11.80   22.30
  -2   3 -18   -3.00   18.30
  14  -4 -18   -8.80   19.70
  14   4 -18   36.50   24.60
  12  -4 -18    9.40   19.20
  12   4 -18   25.50   22.20
  11  -4 -18    8.70   19.70
  11   4 -18   64.19   25.60
  10  -4 -18  -17.40   15.30
  10   4 -18   24.10   20.80
   9  -4 -18   17.10   20.60
   9   4 -18  -13.10   18.20
   8  -4 -18   -0.30   17.40
   8   4 -18   17.50   21.30
   7  -4 -18   -2.20   18.90
   7   4 -18   31.00   20.70
   6  -4 -18   -8.20   17.60
   6   4 -18   62.19   23.30
   5  -4 -18  -29.20   17.00
   5   4 -18   58.89   24.40
   4  -4 -18   59.59   26.40
   4   4 -18   76.79   25.80
   3  -4 -18   26.70   23.10
  -3  -4  18   53.59   27.60
   3   4 -18   45.40   23.50
   2  -4 -18    4.20   21.30
  -2  -4  18   17.50   23.60
   2   4 -18   22.80   21.80
  -1  -4  18   23.80   24.20
   1  -4 -18   58.49   27.10
   1   4 -18   36.40   22.10
   0  -4  18   24.80   23.20
   0  -4 -18    1.60   23.10
   0   4 -18   38.90   21.10
   1  -4  18   43.60   35.60
  -1  -4 -18   14.90   24.80
  -1   4 -18   24.50   22.10
  13  -5 -18  -23.00   15.40
  13   5 -18   -1.30   18.80
  12  -5 -18   -5.30   17.30
  12   5 -18  -18.00   23.50
  11  -5 -18   36.20   24.10
  11   5 -18   99.29   30.80
  10  -5 -18   69.19   38.70
  10   5 -18   34.40   25.70
   9   5 -18   33.60   22.40
   8  -5 -18   21.00   27.30
   8   5 -18   12.10   20.30
   7  -5 -18    5.90   22.00
   7   5 -18  -24.20   15.90
   6  -5 -18    4.50   19.80
   6   5 -18  -16.50   16.00
   5  -5 -18   -4.60   19.40
   5   5 -18  -25.50   18.20
   4  -5 -18  -28.50   19.10
   4   5 -18   17.20   20.90
   3  -5 -18   41.20   37.00
   3   5 -18    8.20   17.90
  -2  -5  18   47.40   26.20
   2   5 -18    5.80   20.50
   1  -5 -18   -9.20   24.80
  -1  -5  18  -27.50   21.10
   1   5 -18   29.60   21.20
   9  -6 -18   -2.20   20.80
   9   6 -18    8.80   21.90
   8  -6 -18   32.10   21.20
   8   6 -18   16.90   22.00
   7  -6 -18    8.10   20.70
   7   6 -18   22.40   22.80
   6  -6 -18   18.10   22.20
   6   6 -18   43.90   24.70
   5  -6 -18   20.40   23.40
   5   6 -18   35.30   24.10
  16   0 -19   -5.20   16.90
  15   0 -19   35.90   19.90
  14   0 -19   12.70   21.90
  13   0 -19   22.80   21.50
  12   0 -19   70.49   27.70
  11   0 -19    4.00   18.60
  10   0 -19   -0.70   20.40
   9   0 -19  -13.30   17.40
   8   0 -19   -6.30   19.10
   7   0 -19   -4.00   20.90
   6   0 -19  -17.50   17.90
   5   0 -19    4.20   20.20
   4   0 -19  -15.80   18.30
   3   0 -19   -8.60   20.80
   2   0 -19   -1.10   20.60
   1   0 -19   27.40   25.90
   0   0 -19  -15.30   21.50
  -1   0 -19   -5.20   24.50
  -2   0 -19  -21.40   22.30
  16  -1 -19   -9.50   16.80
  16   1 -19   20.30   20.60
  15  -1 -19    1.50   18.20
  15   1 -19   -2.40   16.90
  13  -1 -19   41.60   22.10
  13   1 -19    4.10   19.20
  12  -1 -19   -3.90   18.40
  12   1 -19    4.80   19.50
  11  -1 -19   51.19   27.00
  11   1 -19   57.89   22.00
  10  -1 -19   30.10   23.00
  10   1 -19   -3.90   18.70
   9  -1 -19   10.50   20.10
   9   1 -19  -10.00   17.50
   8  -1 -19   18.90   20.30
   8   1 -19   27.50   20.40
   7  -1 -19    7.40   20.20
   7   1 -19   -9.40   17.10
   6  -1 -19    4.20   19.90
   6   1 -19   -1.20   19.30
   5  -1 -19  -15.60   17.90
   5   1 -19    1.80   20.60
   4  -1 -19   13.30   24.70
   4   1 -19    1.70   22.10
   3  -1 -19   27.70   23.30
   3   1 -19   -6.10   20.80
   2  -1 -19  -30.50   16.90
   2   1 -19    3.30   21.40
   1  -1 -19    0.30   20.30
   1   1 -19   22.80   23.10
   0  -1 -19  -19.30   19.90
   0   1 -19   -5.10   23.60
  -1  -1 -19   -8.10   23.00
  -1   1 -19  -15.50   23.40
  -2  -1 -19    1.00   22.90
   2  -1  19  -35.90   30.10
  -2   1 -19  -11.50   23.70
  15  -2 -19   59.79   26.10
  15   2 -19    7.80   20.40
  14  -2 -19   -2.20   22.00
  14   2 -19   14.40   22.80
  13  -2 -19  -11.40   18.50
  13   2 -19    2.90   19.50
  12  -2 -19   31.30   22.40
  12   2 -19    8.40   20.40
  11  -2 -19  -12.70   17.60
  11   2 -19   -7.30   17.40
  10  -2 -19   -9.70   18.70
  10   2 -19    7.60   19.50
   9  -2 -19   29.90   21.10
   9   2 -19   -0.80   17.50
   8  -2 -19    0.40   19.80
   8   2 -19  -17.00   19.00
   7  -2 -19   -4.20   17.90
   7   2 -19   -3.30   18.70
   6  -2 -19   29.70   23.10
   6   2 -19    9.70   19.20
   5  -2 -19    9.10   20.70
   5   2 -19   -4.30   19.60
   4  -2 -19   29.50   21.40
   4   2 -19   33.40   22.30
   3  -2 -19    9.90   22.10
   3   2 -19   21.70   21.30
   2  -2 -19   12.80   23.20
   2   2 -19    9.40   19.30
   1  -2 -19   51.29   25.60
   1   2 -19    1.20   21.30
   0  -2  19  -36.10   23.00
   0  -2 -19   18.10   22.70
   0   2 -19   38.30   22.70
   1  -2  19  -29.40   23.20
  -1  -2 -19    2.10   23.60
  -1   2 -19   12.30   21.50
  14  -3 -19    9.60   21.00
  14   3 -19   -7.20   16.50
  13  -3 -19  -11.30   19.80
  13   3 -19   -1.00   22.20
  12   3 -19  -27.30   15.00
  11  -3 -19    1.20   18.00
  11   3 -19   19.60   21.30
  10  -3 -19   -6.10   20.00
  10   3 -19    4.30   19.90
   9  -3 -19   24.30   22.00
   9   3 -19   -5.00   18.30
   8  -3 -19   -9.90   16.70
   8   3 -19   -8.30   18.30
   7  -3 -19   -6.40   17.80
   7   3 -19  -25.70   16.60
   6  -3 -19   28.70   22.00
   6   3 -19   12.20   20.30
   5  -3 -19   -5.80   19.20
   5   3 -19    3.30   20.30
   4  -3 -19  -37.00   18.40
   4   3 -19   -3.20   19.10
   3  -3 -19   -4.80   20.80
   3   3 -19   -6.70   19.10
   2  -3 -19  -25.60   17.80
   2   3 -19   11.20   20.10
  -1  -3  19  -21.00   27.70
   1  -3 -19    0.20   22.00
   1   3 -19   -5.00   18.50
   0  -3 -19   14.30   23.20
   0  -3  19   -8.80   23.80
   0   3 -19   23.90   20.40
  13  -4 -19   15.00   20.90
  13   4 -19   -2.60   18.30
  12  -4 -19   35.50   22.70
  12   4 -19   11.00   23.70
  11  -4 -19  -12.40   17.90
  11   4 -19    4.10   19.90
  10  -4 -19  -14.60   18.40
  10   4 -19   -5.00   20.90
   9   4 -19    5.30   19.80
   8   4 -19   30.20   22.70
   7  -4 -19  -20.40   20.40
   7   4 -19    1.80   20.00
   6  -4 -19    5.50   21.10
   6   4 -19   37.00   24.60
   5  -4 -19  -14.90   18.60
   5   4 -19    3.20   20.30
   4  -4 -19   -1.00   23.90
   4   4 -19   -7.50   18.00
   3  -4 -19  -32.30   21.90
   3   4 -19   -8.00   19.30
   2  -4 -19   30.10   43.60
   2   4 -19    9.00   19.70
   1   4 -19    6.30   20.20
  10  -5 -19   33.90   23.80
  10   5 -19   44.70   45.70
   9  -5 -19   11.30   18.80
   9   5 -19   17.40   23.50
   8  -5 -19    6.00   20.70
   8   5 -19    6.50   21.80
   7  -5 -19   37.80   26.30
   7   5 -19    2.10   20.10
   6  -5 -19   13.80   22.00
   6   5 -19   17.70   22.40
   5  -5 -19  -11.80   19.50
   5   5 -19   34.40   22.40
   4  -5 -19  -28.30   18.80
  14   0 -20   45.00   24.10
  13   0 -20    1.80   22.00
  11   0 -20   79.09   27.70
  10   0 -20   22.90   23.80
   9   0 -20  -15.20   17.90
   8   0 -20   47.50   24.70
   7   0 -20   27.00   24.50
   6   0 -20   19.60   24.90
   5   0 -20  -28.30   19.60
   4   0 -20    5.80   23.00
   3   0 -20    7.80   21.50
   2   0 -20   -0.80   23.70
   1   0 -20  -28.30   21.50
  14  -1 -20   22.00   19.70
  14   1 -20   25.20   23.60
  13  -1 -20   -4.60   17.90
  13   1 -20   47.10   25.20
  12  -1 -20   31.40   39.90
  11  -1 -20   46.50   29.70
  11   1 -20   69.29   24.10
  10  -1 -20   44.50   26.00
  10   1 -20   53.99   24.60
   9  -1 -20   34.50   25.50
   9   1 -20   11.00   21.80
   8  -1 -20    6.60   21.60
   8   1 -20   -6.70   19.80
   7  -1 -20   31.50   25.90
   7   1 -20   19.50   22.90
   6  -1 -20   19.70   24.00
   6   1 -20   15.70   20.30
   5  -1 -20   11.20   23.40
   5   1 -20   -7.80   21.50
   4  -1 -20   40.60   23.80
   4   1 -20    4.70   22.50
   3  -1 -20   18.40   24.20
   3   1 -20   45.40   27.00
   2  -1 -20   17.60   25.10
   2   1 -20    8.70   24.60
   1  -1 -20   36.00   27.40
   1   1 -20   33.50   26.40
  13  -2 -20   29.90   22.90
  13   2 -20   29.10   23.30
  12  -2 -20   16.50   22.40
  12   2 -20   -7.50   22.40
  11  -2 -20   26.90   26.90
  11   2 -20   14.50   23.80
  10  -2 -20    0.10   29.30
  10   2 -20    1.00   20.50
   9  -2 -20   -6.10   20.80
   9   2 -20   74.99   28.00
   8  -2 -20   33.30   23.50
   8   2 -20   65.89   25.10
   7  -2 -20    9.10   21.00
   7   2 -20   48.30   23.80
   6  -2 -20   48.40   25.90
   6   2 -20   90.19   28.20
   5  -2 -20   10.00   22.10
   5   2 -20  -23.10   17.20
   4  -2 -20   44.50   25.40
   4   2 -20   18.70   22.50
   3  -2 -20    3.00   19.40
   3   2 -20   13.60   22.80
   2  -2 -20  -54.89   18.20
   2   2 -20    7.70   20.50
   1  -2 -20   27.00   26.60
   1   2 -20   23.50   22.40
  12  -3 -20    2.30   20.50
  12   3 -20   55.49   27.50
  11  -3 -20   52.79   25.10
  10  -3 -20   51.59   26.90
  10   3 -20   86.79   28.10
   9  -3 -20    8.30   20.30
   9   3 -20   20.20   21.00
   8  -3 -20   15.00   32.50
   8   3 -20   -4.90   19.80
   7   3 -20  -11.60   17.70
   6   3 -20   26.10   22.00
   5  -3 -20  -14.40   25.20
   5   3 -20   -7.40   22.20
   4  -3 -20  -10.30   26.70
   4   3 -20   11.00   21.50
   3  -3 -20   32.40   33.70
   3   3 -20   24.10   23.00
   9  -4 -20   14.40   22.40
   9   4 -20   15.90   21.50
   8  -4 -20   58.39   25.90
   8   4 -20   26.00   24.30
   7  -4 -20   -5.00   20.80
   7   4 -20   14.90   19.70
   6  -4 -20   36.50   23.90
   6   4 -20   28.50   21.50
  12   0 -21   11.00   20.80
  11   0 -21  -12.90   20.80
  10   0 -21   -0.40   19.40
   9   0 -21  -42.10   36.40
   8   0 -21    8.20   26.00
   7   0 -21  -37.60   16.80
   6   0 -21   24.80   26.30
   5   0 -21   11.00   23.10
   4   0 -21    7.10   23.20
  11  -1 -21  -21.90   19.20
  11   1 -21   21.30   23.40
  10  -1 -21  -19.10   20.90
  10   1 -21   31.80   28.50
   9  -1 -21   24.90   25.20
   9   1 -21   45.20   40.90
   8   1 -21   14.80   24.80
   7  -1 -21   24.90   42.80
   7   1 -21  -10.20   21.00
   6  -1 -21    8.40   22.40
   6   1 -21   18.30   22.00
   5  -1 -21  -22.90   21.00
   5   1 -21   18.30   22.80
   4  -1 -21   24.60   27.30
   4   1 -21   38.10   25.90
  10  -2 -21  -14.90   20.40
  10   2 -21   -6.90   19.90
   9  -2 -21   23.60   24.70
   8  -2 -21   29.10   24.20
   8   2 -21   20.40   23.80
   7  -2 -21    6.00   24.60
   7   2 -21  -19.70   19.50
   6  -2 -21    0.70   22.60
   6   2 -21    4.60   19.80
   0   0   0    0.00    0.00

_computing_structure_solution     'SHELXT 2018/2 (Sheldrick, 2018)'
;
_shelx_hkl_checksum    8694

