 
data_Er-1832_a
 
_audit_creation_method            'SHELXL-2019/3'
_shelx_SHELXL_version_number      '2019/3'
_chemical_name_systematic         ?
_chemical_name_common             ?
_chemical_melting_point           ?
_chemical_formula_moiety          ?
_chemical_formula_sum
 'C H N O Se Zn' 
_chemical_formula_weight          187.36

loop_
 _atom_type_symbol
 _atom_type_description
 _atom_type_scat_dispersion_real
 _atom_type_scat_dispersion_imag
 _atom_type_scat_source
 'C'  'C'   0.0033   0.0016
 'International Tables Vol C Tables 4.2.6.8 and 6.1.1.4'
 'H'  'H'   0.0000   0.0000
 'International Tables Vol C Tables 4.2.6.8 and 6.1.1.4'
 'N'  'N'   0.0061   0.0033
 'International Tables Vol C Tables 4.2.6.8 and 6.1.1.4'
 'O'  'O'   0.0106   0.0060
 'International Tables Vol C Tables 4.2.6.8 and 6.1.1.4'
 'Zn'  'Zn'   0.2839   1.4301
 'International Tables Vol C Tables 4.2.6.8 and 6.1.1.4'
 'Se'  'Se'  -0.0929   2.2259
 'International Tables Vol C Tables 4.2.6.8 and 6.1.1.4'
 
_space_group_crystal_system       triclinic
_space_group_IT_number            2
_space_group_name_H-M_alt         'P -1'
_space_group_name_Hall            '-P 1'
 
_shelx_space_group_comment
;
The symmetry employed for this shelxl refinement is uniquely defined
by the following loop, which should always be used as a source of
symmetry information in preference to the above space-group names.
They are only intended as comments.
;
 
loop_
 _space_group_symop_operation_xyz
 'x, y, z'
 '-x, -y, -z'
 
_cell_length_a                    6.8208(8)
_cell_length_b                    8.8366(9)
_cell_length_c                    13.8408(16)
_cell_angle_alpha                 81.937(3)
_cell_angle_beta                  82.478(4)
_cell_angle_gamma                 74.027(3)
_cell_volume                      790.34(15)
_cell_formula_units_Z             8
_cell_measurement_temperature     150(2)
_cell_measurement_reflns_used     ?
_cell_measurement_theta_min       ?
_cell_measurement_theta_max       ?
 
_exptl_crystal_description        ?
_exptl_crystal_colour             ?
_exptl_crystal_density_meas       ?
_exptl_crystal_density_method     ?
_exptl_crystal_density_diffrn     3.149          
_exptl_crystal_F_000              688
_exptl_transmission_factor_min    ?
_exptl_transmission_factor_max    ?
_exptl_crystal_size_max           ?
_exptl_crystal_size_mid           ?
_exptl_crystal_size_min           ?
_exptl_absorpt_coefficient_mu     15.218
_shelx_estimated_absorpt_T_min    ?
_shelx_estimated_absorpt_T_max    ?
_exptl_absorpt_correction_type    ?
_exptl_absorpt_correction_T_min   ?
_exptl_absorpt_correction_T_max   ?
_exptl_absorpt_process_details    ?
_exptl_absorpt_special_details    ?
_diffrn_ambient_temperature       150(2)
_diffrn_radiation_wavelength      0.71073
_diffrn_radiation_type            MoK\a
_diffrn_source                    ?
_diffrn_measurement_device_type   ?
_diffrn_measurement_method        ?
_diffrn_detector_area_resol_mean  ?
_diffrn_reflns_number             6761
_diffrn_reflns_av_unetI/netI      0.1054
_diffrn_reflns_av_R_equivalents   0.0602
_diffrn_reflns_limit_h_min        -9
_diffrn_reflns_limit_h_max        9
_diffrn_reflns_limit_k_min        -11
_diffrn_reflns_limit_k_max        11
_diffrn_reflns_limit_l_min        -18
_diffrn_reflns_limit_l_max        18
_diffrn_reflns_theta_min          2.412
_diffrn_reflns_theta_max          28.368
_diffrn_reflns_theta_full         25.242
_diffrn_measured_fraction_theta_max   0.991
_diffrn_measured_fraction_theta_full  0.999
_diffrn_reflns_Laue_measured_fraction_max    0.991
_diffrn_reflns_Laue_measured_fraction_full   0.999
_diffrn_reflns_point_group_measured_fraction_max   0.991
_diffrn_reflns_point_group_measured_fraction_full  0.999
_reflns_number_total              3909
_reflns_number_gt                 2403
_reflns_threshold_expression      'I > 2\s(I)'
_reflns_Friedel_coverage          0.000
_reflns_Friedel_fraction_max      .
_reflns_Friedel_fraction_full     .
 
_reflns_special_details
;
 Reflections were merged by SHELXL according to the crystal
 class for the calculation of statistics and refinement.
 
 _reflns_Friedel_fraction is defined as the number of unique
 Friedel pairs measured divided by the number that would be
 possible theoretically, ignoring centric projections and
 systematic absences.
;
 
_computing_data_collection        ?
_computing_cell_refinement        ?
_computing_data_reduction         ?
_computing_structure_solution     ?
_computing_structure_refinement 'SHELXL-2019/2 (Sheldrick, 2019)'
_computing_molecular_graphics     ?
_computing_publication_material   ?
_refine_special_details           ?
_refine_ls_structure_factor_coef  Fsqd
_refine_ls_matrix_type            full
_refine_ls_weighting_scheme       calc
_refine_ls_weighting_details
'w=1/[\s^2^(Fo^2^)+(0.1096P)^2^] where P=(Fo^2^+2Fc^2^)/3'
_atom_sites_solution_primary      ?
_atom_sites_solution_secondary    ?
_atom_sites_solution_hydrogens    geom
_refine_ls_hydrogen_treatment     mixed
_refine_ls_extinction_method      none
_refine_ls_extinction_coef        .
_refine_ls_number_reflns          3909
_refine_ls_number_parameters      257
_refine_ls_number_restraints      0
_refine_ls_R_factor_all           0.1202
_refine_ls_R_factor_gt            0.0702
_refine_ls_wR_factor_ref          0.1976
_refine_ls_wR_factor_gt           0.1702
_refine_ls_goodness_of_fit_ref    1.015
_refine_ls_restrained_S_all       1.015
_refine_ls_shift/su_max           0.000
_refine_ls_shift/su_mean          0.000
 
loop_
 _atom_site_label
 _atom_site_type_symbol
 _atom_site_fract_x
 _atom_site_fract_y
 _atom_site_fract_z
 _atom_site_U_iso_or_equiv
 _atom_site_adp_type
 _atom_site_occupancy
 _atom_site_site_symmetry_order  
 _atom_site_calc_flag
 _atom_site_refinement_flags_posn
 _atom_site_refinement_flags_adp
 _atom_site_refinement_flags_occupancy
 _atom_site_disorder_assembly
 _atom_site_disorder_group
Se2 Se 0.65318(12) 0.84704(7) 0.40131(5) 0.0319(2) Uani 1 1 d . . . . .
Zn1 Zn 0.15237(13) 1.15407(8) 0.92841(6) 0.0269(3) Uani 1 1 d . . . . .
O1 O 0.9089(8) 0.3786(5) 0.0539(3) 0.0273(11) Uani 1 1 d . . . . .
O2 O 0.3413(8) 0.9925(5) 0.8569(4) 0.0308(11) Uani 1 1 d . . . . .
O3 O 1.0826(8) 0.1257(5) 0.0688(3) 0.0286(11) Uani 1 1 d . . . . .
O4 O -0.0941(8) 1.1902(6) 0.8569(4) 0.0286(11) Uani 1 1 d . . . . .
H4 H -0.179(11) 1.170(10) 0.891(4) 0.043 Uiso 1 1 calc R U . . .
O5 O 0.2844(8) 1.3314(5) 0.8952(4) 0.0315(13) Uani 1 1 d . . . . .
H5A H 0.240(12) 1.383(9) 0.916(7) 0.047 Uiso 1 1 calc R U . . .
O6 O 0.4153(7) 0.8342(5) 0.9958(4) 0.0284(11) Uani 1 1 d . . . . .
N2 N 0.7377(10) 0.6529(6) 0.3657(4) 0.0290(13) Uani 1 1 d . . . . .
N3 N 0.6316(10) 0.7829(6) 0.5296(4) 0.0285(13) Uani 1 1 d . . . . .
N4 N 0.6550(9) 0.5896(6) 0.7211(4) 0.0251(12) Uani 1 1 d . . . . .
N5 N 0.8749(9) 0.3068(6) 0.3636(4) 0.0247(12) Uani 1 1 d . . . . .
N6 N 0.9480(11) 0.1437(7) 0.3731(5) 0.0351(15) Uani 1 1 d . . . . .
N7 N 0.7092(9) 0.4906(6) 0.8038(4) 0.0267(13) Uani 1 1 d . . . . .
C1 C 0.8736(11) 0.3688(8) 0.2692(5) 0.0261(15) Uani 1 1 d . . . . .
H1 H 0.827373 0.477656 0.245589 0.031 Uiso 1 1 calc R U . . .
C2 C 0.9520(11) 0.2447(8) 0.2131(5) 0.0277(15) Uani 1 1 d . . . . .
C3 C 0.9960(12) 0.1123(8) 0.2812(6) 0.0327(17) Uani 1 1 d . . . . .
H3 H 1.055395 0.008281 0.263316 0.039 Uiso 1 1 calc R U . . .
C4 C 0.8121(10) 0.3825(7) 0.4510(5) 0.0234(14) Uani 1 1 d . . . . .
C5 C 0.8148(11) 0.2940(7) 0.5400(5) 0.0265(15) Uani 1 1 d . . . . .
H5 H 0.855578 0.181754 0.542728 0.032 Uiso 1 1 calc R U . . .
C6 C 0.7586(10) 0.3648(7) 0.6278(5) 0.0241(14) Uani 1 1 d . . . . .
H6 H 0.760908 0.298459 0.688102 0.029 Uiso 1 1 calc R U . . .
C7 C 0.7005(10) 0.5258(7) 0.6299(5) 0.0225(14) Uani 1 1 d . . . . .
C8 C 0.6908(10) 0.6263(7) 0.5390(5) 0.0221(14) Uani 1 1 d . . . . .
C9 C 0.7490(10) 0.5528(8) 0.4478(5) 0.0248(15) Uani 1 1 d . . . . .
C10 C 0.9812(11) 0.2533(7) 0.1054(5) 0.0276(15) Uani 1 1 d . . . . .
C11 C 0.4260(10) 0.8606(8) 0.9057(5) 0.0251(15) Uani 1 1 d . . . . .
C12 C 0.5385(10) 0.7339(7) 0.8439(5) 0.0232(14) Uani 1 1 d . . . . .
C13 C 0.5523(11) 0.7358(8) 0.7446(5) 0.0265(15) Uani 1 1 d . . . . .
H13 H 0.498841 0.824626 0.699537 0.032 Uiso 1 1 calc R U . . .
C14 C 0.6389(11) 0.5784(7) 0.8770(5) 0.0256(15) Uani 1 1 d . . . . .
H14 H 0.654688 0.540417 0.944007 0.031 Uiso 1 1 calc R U . . .
 
loop_
 _atom_site_aniso_label
 _atom_site_aniso_U_11
 _atom_site_aniso_U_22
 _atom_site_aniso_U_33
 _atom_site_aniso_U_23
 _atom_site_aniso_U_13
 _atom_site_aniso_U_12
Se2 0.0397(5) 0.0240(3) 0.0299(4) -0.0031(3) 0.0010(3) -0.0065(3)
Zn1 0.0265(5) 0.0253(4) 0.0255(5) -0.0053(3) 0.0005(4) -0.0015(3)
O1 0.030(3) 0.024(2) 0.027(3) -0.0054(19) 0.002(2) -0.005(2)
O2 0.029(3) 0.025(2) 0.032(3) -0.002(2) -0.003(2) 0.002(2)
O3 0.031(3) 0.025(2) 0.025(3) -0.0032(19) 0.000(2) -0.001(2)
O4 0.025(3) 0.033(2) 0.028(3) -0.004(2) 0.001(2) -0.008(2)
O5 0.031(3) 0.025(2) 0.036(3) -0.010(2) 0.002(2) -0.002(2)
O6 0.024(3) 0.032(2) 0.027(3) -0.007(2) 0.003(2) -0.004(2)
N2 0.034(4) 0.027(3) 0.025(3) -0.001(2) -0.004(3) -0.008(3)
N3 0.032(3) 0.029(3) 0.023(3) 0.000(2) -0.001(3) -0.007(3)
N4 0.020(3) 0.027(3) 0.028(3) -0.008(2) 0.001(2) -0.004(2)
N5 0.025(3) 0.025(3) 0.023(3) -0.006(2) 0.003(3) -0.007(2)
N6 0.047(4) 0.029(3) 0.028(3) -0.007(2) 0.001(3) -0.006(3)
N7 0.029(3) 0.022(2) 0.028(3) -0.006(2) -0.007(3) -0.001(2)
C1 0.024(4) 0.027(3) 0.028(4) -0.001(3) -0.001(3) -0.009(3)
C2 0.024(4) 0.029(3) 0.032(4) -0.006(3) -0.003(3) -0.008(3)
C3 0.037(4) 0.026(3) 0.037(4) -0.013(3) 0.004(4) -0.009(3)
C4 0.020(3) 0.028(3) 0.023(4) -0.008(3) -0.001(3) -0.005(3)
C5 0.026(4) 0.021(3) 0.031(4) -0.004(3) 0.004(3) -0.006(3)
C6 0.022(3) 0.027(3) 0.022(4) 0.001(3) -0.005(3) -0.006(3)
C7 0.014(3) 0.029(3) 0.022(3) -0.004(3) 0.000(3) -0.001(3)
C8 0.020(3) 0.021(3) 0.024(4) -0.005(2) 0.002(3) -0.004(3)
C9 0.016(3) 0.032(3) 0.027(4) -0.008(3) 0.001(3) -0.006(3)
C10 0.022(4) 0.025(3) 0.033(4) -0.005(3) -0.002(3) -0.003(3)
C11 0.016(3) 0.029(3) 0.029(4) -0.008(3) 0.001(3) -0.002(3)
C12 0.018(3) 0.021(3) 0.029(4) -0.008(3) 0.005(3) -0.004(3)
C13 0.022(4) 0.027(3) 0.029(4) -0.005(3) -0.002(3) -0.004(3)
C14 0.025(4) 0.025(3) 0.025(4) -0.006(3) 0.002(3) -0.004(3)
 
_geom_special_details
;
 All esds (except the esd in the dihedral angle between two l.s. planes)
 are estimated using the full covariance matrix.  The cell esds are taken
 into account individually in the estimation of esds in distances, angles
 and torsion angles; correlations between esds in cell parameters are only
 used when they are defined by crystal symmetry.  An approximate (isotropic)
 treatment of cell esds is used for estimating esds involving l.s. planes.
;
 
loop_
 _geom_bond_atom_site_label_1
 _geom_bond_atom_site_label_2
 _geom_bond_distance
 _geom_bond_site_symmetry_2
 _geom_bond_publ_flag
Se2 N2 1.771(6) . ?
Se2 N3 1.787(6) . ?
Zn1 O2 1.931(5) . ?
Zn1 O3 1.937(5) 1_466 ?
Zn1 O5 1.986(5) . ?
Zn1 O4 1.989(5) . ?
O1 C10 1.244(8) . ?
O2 C11 1.288(8) . ?
O3 C10 1.284(7) . ?
O6 C11 1.234(8) . ?
N2 C9 1.335(9) . ?
N3 C8 1.323(8) . ?
N4 C13 1.351(8) . ?
N4 N7 1.366(8) . ?
N4 C7 1.417(9) . ?
N5 C1 1.344(9) . ?
N5 N6 1.383(7) . ?
N5 C4 1.424(8) . ?
N6 C3 1.320(9) . ?
N7 C14 1.321(8) . ?
C1 C2 1.378(9) . ?
C2 C3 1.385(10) . ?
C2 C10 1.471(10) . ?
C4 C5 1.363(9) . ?
C4 C9 1.442(9) . ?
C5 C6 1.405(9) . ?
C6 C7 1.371(9) . ?
C7 C8 1.433(9) . ?
C8 C9 1.460(9) . ?
C11 C12 1.482(8) . ?
C12 C13 1.364(9) . ?
C12 C14 1.399(9) . ?
 
loop_
 _geom_angle_atom_site_label_1
 _geom_angle_atom_site_label_2
 _geom_angle_atom_site_label_3
 _geom_angle
 _geom_angle_site_symmetry_1
 _geom_angle_site_symmetry_3
 _geom_angle_publ_flag
N2 Se2 N3 94.6(3) . . ?
O2 Zn1 O3 123.1(2) . 1_466 ?
O2 Zn1 O5 101.1(2) . . ?
O3 Zn1 O5 109.5(2) 1_466 . ?
O2 Zn1 O4 100.0(2) . . ?
O3 Zn1 O4 110.9(2) 1_466 . ?
O5 Zn1 O4 111.6(2) . . ?
C11 O2 Zn1 118.0(5) . . ?
C10 O3 Zn1 114.0(4) . 1_644 ?
C9 N2 Se2 107.1(5) . . ?
C8 N3 Se2 106.8(5) . . ?
C13 N4 N7 110.3(5) . . ?
C13 N4 C7 131.2(6) . . ?
N7 N4 C7 118.4(5) . . ?
C1 N5 N6 112.1(5) . . ?
C1 N5 C4 130.1(6) . . ?
N6 N5 C4 117.8(6) . . ?
C3 N6 N5 102.8(6) . . ?
C14 N7 N4 105.3(5) . . ?
N5 C1 C2 107.0(6) . . ?
C1 C2 C3 104.2(6) . . ?
C1 C2 C10 127.2(6) . . ?
C3 C2 C10 128.5(6) . . ?
N6 C3 C2 113.9(6) . . ?
C5 C4 N5 120.0(6) . . ?
C5 C4 C9 118.7(6) . . ?
N5 C4 C9 121.3(6) . . ?
C4 C5 C6 121.5(6) . . ?
C7 C6 C5 122.7(6) . . ?
C6 C7 N4 119.9(6) . . ?
C6 C7 C8 118.8(6) . . ?
N4 C7 C8 121.3(6) . . ?
N3 C8 C7 125.6(6) . . ?
N3 C8 C9 116.0(6) . . ?
C7 C8 C9 118.5(6) . . ?
N2 C9 C4 124.7(6) . . ?
N2 C9 C8 115.5(6) . . ?
C4 C9 C8 119.8(6) . . ?
O1 C10 O3 122.7(7) . . ?
O1 C10 C2 120.8(6) . . ?
O3 C10 C2 116.5(6) . . ?
O6 C11 O2 125.4(6) . . ?
O6 C11 C12 120.3(6) . . ?
O2 C11 C12 114.2(6) . . ?
C13 C12 C14 104.3(6) . . ?
C13 C12 C11 128.9(6) . . ?
C14 C12 C11 126.5(6) . . ?
N4 C13 C12 108.3(6) . . ?
N7 C14 C12 111.8(6) . . ?
 
_refine_diff_density_max    1.845
_refine_diff_density_min   -0.909
_refine_diff_density_rms    0.192

_shelx_res_file
;
TITL Er-1832_a.res in P-1
    Er-1832_a.res
    created by SHELXL-2019/3 at 17:15:46 on 27-Oct-2023
REM Old TITL Er-1832 in P-1
REM SHELXT solution in P-1: R1 0.114, Rweak 0.012, Alpha 0.068
REM <I/s>   0.000 for    0 systematic absences,  Orientation as input
REM Formula found by SHELXT:  C18 N4 O4 Zn2
CELL  0.71073   6.8208   8.8366  13.8408   81.937   82.478   74.027
ZERR    8.000   0.0008   0.0009   0.0016    0.003    0.004    0.003
LATT  1
SFAC C H N O ZN SE
UNIT 8 8 8 8 8 8
ACTA
TEMP -123.150
L.S. 10
BOND
LIST 4
FMAP 2
PLAN 20
WGHT    0.109600
FVAR       0.38139
SE2   6    0.653179    0.847044    0.401306    11.00000    0.03969    0.02401 =
         0.02986   -0.00314    0.00098   -0.00647
ZN1   5    0.152373    1.154071    0.928409    11.00000    0.02650    0.02533 =
         0.02551   -0.00533    0.00045   -0.00152
O1    4    0.908914    0.378597    0.053881    11.00000    0.02975    0.02391 =
         0.02696   -0.00544    0.00165   -0.00546
O2    4    0.341325    0.992510    0.856902    11.00000    0.02942    0.02464 =
         0.03241   -0.00249   -0.00282    0.00247
O3    4    1.082625    0.125654    0.068834    11.00000    0.03101    0.02505 =
         0.02504   -0.00323   -0.00002   -0.00052
O4    4   -0.094060    1.190207    0.856923    11.00000    0.02484    0.03287 =
         0.02756   -0.00432    0.00128   -0.00816
AFIX 148
H4    2   -0.179080    1.169636    0.891347    11.00000   -1.50000
AFIX   0
O5    4    0.284359    1.331429    0.895158    11.00000    0.03076    0.02452 =
         0.03648   -0.01031    0.00218   -0.00186
AFIX 148
H5A   2    0.240144    1.382540    0.915872    11.00000   -1.50000
AFIX   0
O6    4    0.415334    0.834244    0.995839    11.00000    0.02396    0.03222 =
         0.02678   -0.00734    0.00273   -0.00405
N2    3    0.737677    0.652865    0.365702    11.00000    0.03441    0.02750 =
         0.02497   -0.00069   -0.00437   -0.00820
N3    3    0.631609    0.782906    0.529613    11.00000    0.03212    0.02859 =
         0.02314    0.00041   -0.00092   -0.00744
N4    3    0.655022    0.589597    0.721125    11.00000    0.01989    0.02691 =
         0.02787   -0.00807    0.00120   -0.00425
N5    3    0.874888    0.306823    0.363569    11.00000    0.02534    0.02543 =
         0.02334   -0.00614    0.00302   -0.00725
N6    3    0.948024    0.143714    0.373055    11.00000    0.04675    0.02864 =
         0.02767   -0.00703    0.00070   -0.00635
N7    3    0.709245    0.490620    0.803848    11.00000    0.02868    0.02207 =
         0.02792   -0.00588   -0.00661   -0.00078
C1    1    0.873584    0.368847    0.269177    11.00000    0.02401    0.02659 =
         0.02808   -0.00091   -0.00144   -0.00875
AFIX  43
H1    2    0.827373    0.477656    0.245589    11.00000   -1.20000
AFIX   0
C2    1    0.951952    0.244744    0.213118    11.00000    0.02435    0.02867 =
         0.03182   -0.00645   -0.00328   -0.00824
C3    1    0.996017    0.112295    0.281167    11.00000    0.03650    0.02561 =
         0.03740   -0.01341    0.00385   -0.00912
AFIX  43
H3    2    1.055395    0.008281    0.263316    11.00000   -1.20000
AFIX   0
C4    1    0.812145    0.382537    0.450993    11.00000    0.02021    0.02762 =
         0.02290   -0.00773   -0.00082   -0.00509
C5    1    0.814793    0.293970    0.539983    11.00000    0.02614    0.02053 =
         0.03149   -0.00354    0.00352   -0.00624
AFIX  43
H5    2    0.855578    0.181754    0.542728    11.00000   -1.20000
AFIX   0
C6    1    0.758582    0.364825    0.627767    11.00000    0.02168    0.02745 =
         0.02209    0.00141   -0.00463   -0.00560
AFIX  43
H6    2    0.760908    0.298459    0.688102    11.00000   -1.20000
AFIX   0
C7    1    0.700530    0.525758    0.629931    11.00000    0.01360    0.02857 =
         0.02218   -0.00366    0.00016   -0.00092
C8    1    0.690813    0.626342    0.538971    11.00000    0.01977    0.02135 =
         0.02429   -0.00537    0.00157   -0.00413
C9    1    0.748993    0.552760    0.447771    11.00000    0.01616    0.03177 =
         0.02726   -0.00757    0.00050   -0.00642
C10   1    0.981174    0.253338    0.105448    11.00000    0.02247    0.02544 =
         0.03334   -0.00503   -0.00208   -0.00310
C11   1    0.426046    0.860613    0.905650    11.00000    0.01635    0.02892 =
         0.02854   -0.00787    0.00088   -0.00241
C12   1    0.538456    0.733931    0.843877    11.00000    0.01818    0.02083 =
         0.02947   -0.00792    0.00473   -0.00379
C13   1    0.552303    0.735753    0.744551    11.00000    0.02206    0.02688 =
         0.02938   -0.00528   -0.00196   -0.00375
AFIX  43
H13   2    0.498841    0.824626    0.699537    11.00000   -1.20000
AFIX   0
C14   1    0.638932    0.578360    0.877026    11.00000    0.02543    0.02480 =
         0.02515   -0.00594    0.00151   -0.00430
AFIX  43
H14   2    0.654688    0.540417    0.944007    11.00000   -1.20000
AFIX   0
HKLF 4




REM  Er-1832_a.res in P-1
REM wR2 = 0.1976, GooF = S = 1.015, Restrained GooF = 1.015 for all data
REM R1 = 0.0702 for 2403 Fo > 4sig(Fo) and 0.1202 for all 3909 data
REM 257 parameters refined using 0 restraints

END

WGHT      0.1103      0.0000

REM Highest difference peak  1.845,  deepest hole -0.909,  1-sigma level  0.192
Q1    1   0.8935  0.8452  0.4019  11.00000  0.05    1.84
Q2    1   0.3544  0.8463  1.0765  11.00000  0.05    1.74
Q3    1   0.8587  0.1530  0.5984  11.00000  0.05    1.71
Q4    1   0.4156  0.8500  0.4030  11.00000  0.05    1.68
Q5    1  -0.0823  1.1593  0.9236  11.00000  0.05    1.58
Q6    1   0.6449  0.8191  0.4626  11.00000  0.05    1.46
Q7    1   0.3996  1.1532  0.9278  11.00000  0.05    1.42
Q8    1   0.1375  1.1405  0.9972  11.00000  0.05    1.32
Q9    1   0.1552  1.1815  0.8642  11.00000  0.05    1.15
Q10   1   0.7148  0.7534  0.3959  11.00000  0.05    1.04
Q11   1   0.6722  0.8616  0.3383  11.00000  0.05    1.04
Q12   1   0.6083  0.9463  0.4054  11.00000  0.05    0.87
Q13   1   0.8516  0.4605  0.1229  11.00000  0.05    0.86
Q14   1   0.1038  1.2487  0.9341  11.00000  0.05    0.82
Q15   1   0.1961  1.0661  0.9214  11.00000  0.05    0.77
Q16   1   0.2505  1.0601  0.9382  11.00000  0.05    0.77
Q17   1   0.8063  0.6173  0.4018  11.00000  0.05    0.65
Q18   1   0.7242  0.3902  0.5800  11.00000  0.05    0.63
Q19   1   0.5820  0.8751  0.5457  11.00000  0.05    0.63
Q20   1   0.9009  0.1267  0.0777  11.00000  0.05    0.59
;
_shelx_res_checksum   74205

_shelx_hkl_file
;
  -1   0   0 46.3844 2.54279   1
   1   0   0 41.2499 2.46669   1
  -2   0   0 375.504 14.6941   1
   2   0   0 373.599 14.6735   1
  -3   0   0 174.118 9.93062   1
   3   0   0 175.767 8.35364   1
  -4   0   0 549.618 38.1117   1
   4   0   0 551.987 27.3550   1
  -5   0   0 36.5909 8.83551   1
   5   0   0 31.6264 5.61014   1
  -6   0   0 89.3619 15.4386   1
   6   0   0 113.396 10.4540   1
  -7   0   0 -2.7477 9.24523   1
   7   0   0 12.0163 6.37573   1
   8   0   0 4.27797 7.15674   1
   8  -1   0 8.82937 7.85447   1
   7  -1   0 22.7704 7.29661   1
  -7   1   0 22.5939 11.9650   1
   6  -1   0 15.7653 5.90357   1
   5  -1   0 145.406 10.7287   1
  -5   1   0 134.000 15.4301   1
   4  -1   0 129.574 7.58451   1
  -4   1   0 126.713 13.2578   1
   3  -1   0 23.7291 3.20317   1
  -3   1   0 24.4624 5.86129   1
   2  -1   0 78.1612 4.65611   1
  -2   1   0 80.7334 4.54186   1
   1  -1   0 812.398 29.5412   1
  -1   1   0 813.166 36.3070   1
   0   1   0 26.4329 2.62911  -2
   0  -1   0 26.4329 2.62911   1
   0  -1   0 21.5537 2.75103  -2
   0   1   0 21.5537 2.75103   1
  -1  -1   0 595.815 21.8247   1
   1   1   0 603.117 26.9242   1
  -2  -1   0 2847.04 102.115   1
   2   1   0 2843.69 102.093   1
  -3  -1   0 45.6820 4.79556   1
   3   1   0 48.2836 5.16093   1
  -4  -1   0 386.349 19.8227   1
   4   1   0 384.051 20.0093   1
  -5  -1   0 554.902 39.8668   1
   5   1   0 559.207 28.4295   1
  -6  -1   0 109.129 15.5030   1
   6   1   0 144.502 11.0471   1
  -7  -1   0 40.0130 11.7636   1
   7   1   0 33.5130 8.87902   1
  -8  -1   0 7.76913 11.8094   1
   8   1   0 7.12844 6.44559   1
   8  -2   0 17.7310 8.48705   1
   7  -2   0 1.74526 6.23117   1
   6  -2   0 11.2397 5.79399   1
  -6   2   0 10.7208 9.16446   1
   5  -2   0 534.031 27.8381   1
  -5   2   0 542.934 39.4785   1
   4  -2   0 6.25493 3.23915   1
  -4   2   0 17.6227 6.64296   1
   3  -2   0 312.178 13.3321   1
   2  -2   0 107.779 5.62741   1
   1  -2   0 229.131 9.15287   1
  -1   2   0 228.378 9.24600   1
   0   2   0 1243.60 38.8636  -2
   0  -2   0 1243.60 38.8636   1
   0  -2   0 1223.83 79.2383  -2
   0   2   0 1223.83 79.2383   1
  -1  -2   0 939.146 33.8814   1
   1   2   0 938.994 33.8499   1
  -2  -2   0 1680.45 59.9597   1
   2   2   0 1624.78 73.8930   1
  -3  -2   0 4.64344 2.29689   1
   3   2   0 1.67148 3.07805   1
  -4  -2   0 114.931 8.64632   1
   4   2   0 122.150 8.59038   1
  -5  -2   0 458.410 33.7476   1
   5   2   0 454.950 24.0606   1
  -6  -2   0 16.9336 8.64579   1
   6   2   0 8.77045 4.71525   1
  -7  -2   0 11.8053 9.68378   1
   7   2   0 31.5380 6.65335   1
  -8  -2   0 5.11679 10.6454   1
   8   2   0 21.2447 12.7929   1
   7  -3   0 -1.3879 8.97004   1
   6  -3   0 20.2208 6.44326   1
   5  -3   0 52.3259 7.50278   1
  -5   3   0 55.2240 11.4154   1
   4  -3   0 569.749 23.3016   1
   3  -3   0 28.5315 3.59939   1
   2  -3   0 2.15432 2.15897   1
  -2   3   0 -1.6162 3.54521   1
   1  -3   0 168.689 7.21501   1
  -1   3   0 174.605 8.85129   1
   0   3   0 1575.05 49.2576  -2
   0  -3   0 1575.05 49.2576   1
  -1  -3   0 141.961 5.75472   1
   1   3   0 145.813 11.7429   1
  -2  -3   0 23.7436 2.50795   1
   2   3   0 21.8465 2.79132   1
  -3  -3   0 25.5572 3.44961   1
   3   3   0 27.5317 3.54613   1
  -4  -3   0 124.918 8.26580   1
   4   3   0 124.239 14.2330   1
  -5  -3   0 15.7205 4.26061   1
   5   3   0 21.7395 4.85215   1
  -6  -3   0 153.868 17.2588   1
   6   3   0 156.364 11.8675   1
  -7  -3   0 10.8224 8.27724   1
   7   3   0 6.65922 5.54527   1
  -8  -3   0 12.4735 10.4145   1
   8   3   0 12.6945 12.9291   1
  -9  -3   0 -2.3939 12.1819   1
   9   3   0 0.25679 12.9144   1
   7   9   4 8.90815 12.5180  -2
   7  -4   0 8.90815 12.5180   1
   6  -4   0 36.5188 9.91685   1
   5  -4   0 271.468 15.7100   1
  -5   4   0 173.338 21.1301   1
   4  -4   0 144.323 8.87543   1
  -4   4   0 125.762 15.1756   1
   3  -4   0 1.74556 2.70183   1
  -3   4   0 10.0694 5.57681   1
   2  -4   0 94.3198 5.41407   1
  -2   4   0 81.8335 8.76252   1
   1  -4   0 716.870 26.6471   1
   0   4   0 1487.48 46.7334  -2
   0  -4   0 1487.48 46.7334   1
  -1  -4   0 138.402 5.74604   1
   1   4   0 149.349 12.4902   1
  -2  -4   0 52.6256 3.84333   1
   2   4   0 55.3526 8.75377   1
  -3  -4   0 6.60053 2.27680   1
   3   4   0 5.91758 2.96044   1
  -4  -4   0 328.180 16.9446   1
   4   4   0 338.175 17.5770   1
  -5  -4   0 382.939 27.8056   1
   5   4   0 370.450 31.8053   1
  -6  -4   0 13.4434 5.26074   1
   6   4   0 13.9447 10.1451   1
  -7  -4   0 25.2361 10.4875   1
   7   4   0 35.2789 18.2138   1
  -8  -4   0 1.87274 9.60188   1
   8   4   0 15.9719 12.4122   1
   9   4   0 17.5544 14.9751   1
   6  -5   0 -11.240 5.80110   1
   5  -5   0 198.801 14.3468   1
   4  -5   0 140.270 8.99629   1
  -4   5   0 121.854 16.4259   1
   3  -5   0 6.07419 3.32083   1
   2  -5   0 11.2403 3.31196   1
   1  -5   0 392.281 15.4011   1
   0   5   0 47.8240 3.08069  -2
   0  -5   0 47.8240 3.08069   1
  -1  -5   0 232.880 10.7030   1
   1   5   0 225.592 18.5003   1
  -2  -5   0 3.24501 1.72905   1
   2   5   0 1.20056 4.36059   1
  -3  -5   0 3.10668 2.20003   1
   3   5   0 -1.8891 5.10233   1
  -4  -5   0 5.08271 3.12990   1
   4   5   0 7.75235 3.10710   1
  -5  -5   0 342.404 18.0157   1
   5   5   0 312.104 28.6296   1
  -6  -5   0 7.64488 4.81255   1
   6   5   0 11.7884 5.02944   1
  -7  -5   0 -2.0222 8.15200   1
   7   5   0 5.34701 11.1054   1
  -8  -5   0 26.4685 11.4306   1
   8   5   0 1.53948 11.7166   1
   6  -6   0 22.8742 7.87010   1
   5  -6   0 0.20839 5.43308   1
   4  -6   0 123.830 10.7268   1
   3  -6   0 8.01107 3.60502   1
   2  -6   0 259.504 11.8648   1
   1  -6   0 138.681 7.00212   1
   0   6   0 940.897 34.4737  -2
   0  -6   0 940.897 34.4737   1
  -1  -6   0 105.945 5.83746   1
   1   6   0 127.742 13.1618   1
  -2  -6   0 87.7447 5.32019   1
   2   6   0 92.6805 11.3651   1
  -3  -6   0 38.7836 4.28648   1
   3   6   0 33.6669 8.36862   1
  -4  -6   0 126.086 8.25837   1
   4   6   0 121.225 15.5990   1
  -5  -6   0 91.9576 7.88945   1
   5   6   0 86.4432 14.5498   1
  -6  -6   0 33.7448 9.10237   1
   6   6   0 17.0831 10.2696   1
  -7  -6   0 5.87981 8.14449   1
   7   6   0 14.5244 11.6914   1
  -8  -6   0 -4.4193 9.19739   1
   8   6   0 5.95828 11.7411   1
   5  -7   0 14.3681 6.09773   1
   4  10   2 111.276 12.2037  -2
   4  -7   0 111.276 12.2037   1
   3  -7   0 1.87228 5.62380   1
   2  -7   0 5.96586 3.25552   1
   1  -7   0 17.1349 2.99215   1
   0   7   0 567.608 21.2878  -2
   0  -7   0 567.608 21.2878   1
  -1  -7   0 103.578 5.38791   1
  -2  -7   0 1.73379 2.22287   1
   2   7   0 11.7143 7.06931   1
  -3  -7   0 19.3527 3.35927   1
   3   7   0 24.2247 8.64805   1
  -4  -7   0 273.531 14.4329   1
  -5  -7   0 56.3655 6.42204   1
   5   7   0 55.1981 12.3483   1
  -6  -7   0 84.3653 15.1430   1
   6   7   0 75.9943 15.1485   1
  -7  -7   0 14.1713 8.33062   1
   7   7   0 4.47106 11.3300   1
  -8  -7   0 20.8677 10.5058   1
   8   7   0 -7.8397 12.5670   1
   4  -8   0 -1.2041 4.99686   1
   3  -8   0 32.3722 6.09490   1
   2  -8   0 1.94345 3.45237   1
   1  -8   0 119.527 7.02106   1
   0   8   0 114.754 5.99111  -2
   0  -8   0 114.754 5.99111   1
  -1  -8   0 64.5161 4.63884   1
  -2  -8   0 11.7038 2.93253   1
   2   8   0 17.8619 8.99887   1
  -3  -8   0 0.91884 2.80669   1
   3   8   0 6.85101 7.95267   1
  -4  -8   0 3.19337 3.38147   1
   4  -5   2 -9.5238 13.5891  -2
   4   8   0 -9.5238 13.5891   1
  -5  -8   0 144.726 10.2974   1
   5   8   0 160.802 19.8583   1
  -6  -8   0 16.3126 7.43827   1
   6   8   0 2.39721 10.2693   1
  -7  -8   0 22.8968 9.08391   1
   7   8   0 7.67299 11.6581   1
   3  -9   0 12.6140 4.95889   1
   2  -9   0 8.57091 4.56221   1
   1  -9   0 49.4910 5.34173   1
   0   9   0 143.101 9.91575  -2
   0  -9   0 143.101 9.91575   1
  -1  -9   0 35.4732 3.99633   1
  -2  -9   0 6.17301 2.93277   1
  -3  -9   0 3.54349 3.13660   1
   3   9   0 -1.3020 9.60316   1
  -4   6  -2 108.211 12.5343  -2
  -4  -9   0 108.211 12.5343   1
   4  -6   2 58.5958 17.5663  -2
   4   9   0 58.5958 17.5663   1
  -5  -9   0 37.7321 8.25784   1
   5   9   0 51.4331 13.0584   1
  -6  -9   0 4.74381 6.69938   1
   6   9   0 30.4020 14.8349   1
  -7  -9   0 -2.4111 9.79061   1
   7   9   0 -5.1977 11.4864   1
   2 -10   0 -2.9281 8.44141   1
   1 -10   0 9.74625 4.05115   1
   0  10   0 174.657 8.80808  -2
   0 -10   0 174.657 8.80808   1
  -1 -10   0 -2.7285 3.52188   1
  -2 -10   0 11.3658 3.25125   1
  -3 -10   0 8.10280 3.75389   1
   3  10   0 -9.1327 10.3236   1
  -4 -10   0 10.0099 5.84124   1
  -5 -10   0 4.65823 6.27917   1
   5  10   0 19.0715 12.0143   1
  -6 -10   0 53.3572 14.8153   1
   6  10   0 28.6389 13.8464   1
   0  11   0 9.08125 4.16797  -2
   0 -11   0 9.08125 4.16797   1
  -1 -11   0 106.904 8.08815   1
  -2 -11   0 0.85802 3.46874   1
  -3 -11   0 3.06492 3.76368   1
  -4 -11   0 5.92718 5.74264   1
  -5 -11   0 77.2727 11.4058   1
   5  11   0 17.4670 18.5985   1
  -4   8  -3 76.8161 13.1361  -2
  -4 -11   1 76.8161 13.1361   1
  -3 -11   1 20.1893 5.12909   1
  -2 -11   1 20.1367 5.12911   1
  -1 -11   1 2.30116 4.81672   1
   6  10  -1 -0.2241 11.6081   1
  -6 -10   1 13.3343 8.35500   1
   5  10  -1 18.1624 12.6305   1
  -5 -10   1 32.0522 8.04180   1
  -4 -10   1 3.32665 5.85373   1
   3  10  -1 121.336 18.6057   1
  -3 -10   1 117.983 9.54765   1
  -2 -10   1 -1.9190 3.54458   1
  -1 -10   1 -2.9411 3.45147   1
   0  10  -1 2.20757 5.18124  -2
   0 -10   1 2.20757 5.18124   1
   1 -10   1 52.0204 8.31051   1
   2 -10   1 3.49167 7.40029   1
   7   9  -1 5.15000 12.2369   1
  -7  -9   1 13.2398 12.4709   1
   6   9  -1 7.04309 14.1784   1
  -6  -9   1 12.2890 8.01298   1
   5   9  -1 63.8254 13.9713   1
  -5  -9   1 70.4497 10.8886   1
   4  -6   3 41.6277 15.8441  -2
   4   9  -1 41.6277 15.8441   1
  -4   6  -3 47.5144 11.6417  -2
  -4  -9   1 47.5144 11.6417   1
   3   9  -1 45.7895 11.5004   1
  -3  -9   1 61.6571 8.91507   1
  -2  -9   1 20.1721 3.79139   1
  -1  -9   1 14.5268 3.36996   1
   0   9  -1 15.2120 3.89793  -2
   0  -9   1 15.2120 3.89793   1
   1  -9   1 23.1048 4.03555   1
   2  -9   1 73.0833 7.70509   1
   3  -9   1 1.74219 5.46269   1
   7   8  -1 3.43615 11.2124   1
  -7  -8   1 1.84158 8.50806   1
   6   8  -1 39.0593 13.0387   1
  -6  -8   1 41.4038 10.3250   1
   5   8  -1 10.7895 9.38046   1
  -5  -8   1 4.81663 4.27591   1
  -4  -8   1 110.275 8.27633   1
   3   8  -1 60.0297 11.2122   1
  -3  -8   1 41.3370 4.79333   1
   2   8  -1 93.3894 13.8502   1
  -2  -8   1 100.233 7.04231   1
  -1  -8   1 4.63038 2.84167   1
   0   8  -1 9.47496 3.15139  -2
   0  -8   1 9.47496 3.15139   1
   1  -8   1 13.4988 3.24845   1
   2  -8   1 291.012 13.2836   1
   3  -8   1 1.95932 4.58592   1
   4  11   1 11.1292 11.7415  -2
   4  -8   1 11.1292 11.7415   1
   8   7  -1 13.1807 12.8044   1
  -8  -7   1 -5.9741 10.4550   1
   7   7  -1 21.4200 11.8327   1
  -7  -7   1 28.6694 9.94625   1
   6   7  -1 2.41361 8.78910   1
  -6  -7   1 6.79906 7.25949   1
   5   7  -1 94.8014 15.5482   1
  -5  -7   1 85.5675 8.05337   1
   4   7  -1 -4.6602 7.09387   1
  -4  -7   1 -3.1026 3.17306   1
   3   7  -1 192.411 19.4401   1
  -3  -7   1 222.058 11.8122   1
   2   7  -1 42.8649 8.99022   1
  -2  -7   1 44.3667 4.61459   1
  -1  -7   1 22.9400 3.03389   1
   0   7  -1 98.3289 5.32770  -2
   0  -7   1 98.3289 5.32770   1
   1  -7   1 70.2911 5.18101   1
   2  -7   1 12.1640 3.49165   1
   3  -7   1 103.798 8.49298   1
   4  -7   1 0.80386 4.91727   1
   5  -7   1 16.3679 6.46159   1
   8   6  -1 3.76014 13.1792   1
  -8  -6   1 14.3699 10.6011   1
   7   6  -1 16.2745 11.8568   1
  -7  -6   1 16.4889 9.36646   1
   6   6  -1 -10.852 7.77130   1
  -6  -6   1 3.96094 7.02543   1
   5   6  -1 87.6160 14.0707   1
  -5  -6   1 78.3868 8.12794   1
   4   6  -1 47.5888 10.4060   1
  -4  -6   1 54.8737 5.74924   1
   3   6  -1 131.540 14.6502   1
  -3  -6   1 128.847 7.92687   1
   2   6  -1 149.682 14.1188   1
  -2  -6   1 145.655 8.03663   1
   1   6  -1 25.5380 8.17507   1
  -1  -6   1 25.3748 4.04045   1
   0   6  -1 13.4227 2.67722  -2
   0  -6   1 13.4227 2.67722   1
   1  -6   1 152.568 7.39466   1
   2  -6   1 490.534 19.7533   1
   3  -6   1 155.381 8.95883   1
   4   9   1 43.7580 15.6000  -2
   4  -6   1 43.7580 15.6000   1
   5  -6   1 13.6655 6.07986   1
   6  -6   1 3.84582 6.00840   1
   8   5  -1 48.3441 16.2404   1
  -8  -5   1 33.0690 12.3932   1
   7   5  -1 16.9877 12.2604   1
  -7  -5   1 -7.1891 6.95407   1
   6   5  -1 6.30714 4.81609   1
  -6  -5   1 3.90602 5.15151   1
   5   5  -1 -1.3608 3.83458   1
  -5  -5   1 -1.0256 3.62347   1
   4   5  -1 213.608 12.4506   1
  -4  -5   1 223.586 12.4480   1
   3   5  -1 4.03765 5.10466   1
  -3  -5   1 2.73229 2.42984   1
   2   5  -1 558.082 37.0484   1
  -2  -5   1 514.877 23.9341   1
   1   5  -1 2.84521 4.38926   1
  -1  -5   1 0.52878 1.49222   1
   0   5  -1 500.083 18.9993  -2
   0  -5   1 500.083 18.9993   1
   1  -5   1 5.51645 1.89534   1
   2  -5   1 756.353 28.8164   1
   3  -5   1 3.44403 3.38456   1
  -4   5  -1 13.3717 9.07626   1
   4  -5   1 1.28487 3.70676   1
   5  -5   1 2.27346 4.91230   1
   6  -5   1 41.7873 8.24907   1
   8   4  -1 28.0137 14.4250   1
  -8  -4   1 19.1793 11.3825   1
  -7  -4   1 9.26674 8.84454   1
   6   4  -1 8.65273 4.13046   1
  -6  -4   1 0.02426 6.85523   1
   5   4  -1 62.6777 12.3804   1
  -5  -4   1 62.6157 6.94574   1
   4   4  -1 118.128 8.55401   1
  -4  -4   1 123.548 8.08343   1
   3   4  -1 323.645 16.0397   1
  -3  -4   1 303.342 15.4140   1
   2   4  -1 199.004 10.3389   1
  -2  -4   1 200.764 9.96127   1
   1   4  -1 9.07947 4.26567   1
  -1  -4   1 9.31191 1.67303   1
   0   4  -1 96.3952 5.47306  -2
   0  -4   1 96.3952 5.47306   1
  -1   4  -1 107.536 6.47312   1
   1  -4   1 100.637 4.74147   1
   2  -4   1 224.277 9.88553   1
  -3   4  -1 105.164 12.4135   1
   3  -4   1 132.044 7.38499   1
  -4   4  -1 34.4766 9.31153   1
   4  -4   1 47.4351 5.26684   1
   5  -4   1 20.5446 6.09317   1
   6  -4   1 96.4709 10.4518   1
   7   9   3 65.3525 14.0871  -2
   7  -4   1 65.3525 14.0871   1
   8   3  -1 4.22834 11.9679   1
  -8  -3   1 6.33563 10.2430   1
   7   3  -1 53.0524 10.2103   1
  -7  -3   1 47.3353 12.1994   1
   6   3  -1 22.5629 5.62133   1
  -6  -3   1 17.2969 8.73334   1
   5   3  -1 105.998 8.98576   1
  -5  -3   1 94.5593 8.38916   1
   4   3  -1 32.9116 4.65710   1
  -4  -3   1 29.7728 4.54122   1
   3   3  -1 1322.41 88.2025   1
  -3  -3   1 1342.74 59.3538   1
   2   3  -1 225.818 11.3899   1
  -2  -3   1 220.950 9.24073   1
   1   3  -1 116.623 6.00896   1
  -1  -3   1 107.418 4.89331   1
   0   3  -1 76.5797 3.62255  -2
   0  -3   1 76.5797 3.62255   1
  -1   3  -1 273.775 13.2724   1
   1  -3   1 271.408 10.8028   1
  -2   3  -1 65.1130 7.84011   1
   2  -3   1 77.9215 4.74741   1
   3  -3   1 829.163 31.5471   1
   4  -3   1 1.53881 3.19073   1
  -5   3  -1 4.04328 7.97265   1
   5  -3   1 -2.4580 4.28726   1
   6  -3   1 5.17681 5.51491   1
   7  -3   1 136.297 14.0910   1
   8   2  -1 22.8331 14.6873   1
  -8  -2   1 27.1724 12.1182   1
   7   2  -1 11.1463 6.24985   1
  -7  -2   1 2.54503 9.13501   1
   6   2  -1 5.07820 4.82068   1
  -6  -2   1 6.32768 7.57672   1
   5   2  -1 0.95802 3.54038   1
  -5  -2   1 2.72306 5.52925   1
   4   2  -1 664.632 32.5508   1
  -4  -2   1 684.905 31.9199   1
   3   2  -1 79.3529 6.41901   1
  -3  -2   1 87.6652 6.09857   1
   2   2  -1 1454.96 93.7404   1
  -2  -2   1 1445.27 52.4953   1
   1   2  -1 117.896 5.07877   1
  -1  -2   1 119.358 5.16236   1
   0  -2   1 414.454 17.9743  -2
   0   2  -1 414.454 17.9743   1
   0   2  -1 399.894 15.0072  -2
   0  -2   1 399.894 15.0072   1
  -1   2  -1 357.553 13.2175   1
   1  -2   1 339.454 13.2800   1
  -2   2  -1 1041.94 65.9258   1
   2  -2   1 991.484 37.0508   1
  -3   2  -1 116.447 11.9500   1
   3  -2   1 135.461 7.11814   1
  -4   2  -1 6.36287 5.44745   1
   4  -2   1 8.46620 3.20245   1
  -5   2  -1 20.9361 8.43143   1
   5  -2   1 54.5146 7.07392   1
  -6   2  -1 143.168 18.8609   1
   6  -2   1 173.135 13.1820   1
   7  -2   1 4.31076 6.96525   1
   8  -2   1 -3.7101 7.89709   1
   8   1  -1 50.4603 9.80479   1
  -8  -1   1 58.4380 15.0235   1
   7   1  -1 -3.3274 5.57523   1
  -7  -1   1 -1.7990 8.76893   1
   6   1  -1 1.95408 4.55017   1
  -6  -1   1 0.55765 7.88338   1
   5   1  -1 149.467 10.7300   1
  -5  -1   1 136.347 15.4693   1
   4   1  -1 229.848 13.3885   1
  -4  -1   1 241.788 19.0514   1
   3   1  -1 139.253 8.59990   1
  -3  -1   1 132.561 8.93649   1
   2   1  -1 4.31124 1.88313   1
  -2  -1   1 -0.4899 1.73293   1
   1   1  -1 41.1414 3.27989   1
  -1  -1   1 32.4493 2.41268   1
   0  -1   1 470.663 28.9691  -2
   0   1  -1 470.663 28.9691   1
   0   1  -1 462.892 28.9831  -2
   0  -1   1 462.892 28.9831   1
  -1   1  -1 834.123 30.9101   1
   1  -1   1 860.279 30.7736   1
  -2   1  -1 1053.01 38.0588   1
   2  -1   1 1019.10 38.0386   1
  -3   1  -1 499.278 33.1470   1
   3  -1   1 473.954 19.2869   1
  -4   1  -1 10.5721 5.70881   1
   4  -1   1 15.8131 3.42864   1
  -5   1  -1 15.9521 8.13982   1
   5  -1   1 51.4369 6.64444   1
  -6   1  -1 59.9392 12.5525   1
   6  -1   1 66.0639 8.34490   1
  -7   1  -1 133.148 19.3313   1
   7  -1   1 157.346 13.7759   1
   8  -1   1 1.33805 7.01538   1
   8   0  -1 11.9884 7.56705   1
   7   0  -1 67.9770 8.38898   1
  -7   0   1 53.0435 13.0027   1
   6   0  -1 4.71278 5.37914   1
  -6   0   1 17.7264 9.09826   1
   5   0  -1 71.7411 7.58183   1
  -5   0   1 70.6312 11.3521   1
   4   0  -1 72.0369 6.76623   1
  -4   0   1 75.8053 9.88485   1
   3   0  -1 844.637 31.6955   1
  -3   0   1 821.876 39.3544   1
   2   0  -1 131.840 6.41346   1
  -2   0   1 143.490 6.63287   1
   1   0  -1 8.08841 1.56642   1
  -1   0   1 5.50766 1.41171   1
  -1   0  -1 1402.24 50.6132   1
   1   0   1 1415.27 50.6117   1
  -2   0  -1 941.833 34.8812   1
   2   0   1 954.209 34.8814   1
  -3   0  -1 346.265 16.7547   1
   3   0   1 328.388 13.8754   1
  -4   0  -1 17.1552 6.02563   1
   4   0   1 13.4179 3.82557   1
  -5   0  -1 112.936 13.8033   1
   5   0   1 124.416 9.54824   1
  -6   0  -1 -4.5886 7.39178   1
   6   0   1 -2.3318 4.64710   1
  -7   0  -1 108.431 17.3937   1
   7   0   1 98.5487 11.4333   1
  -8   0  -1 -21.359 12.4643   1
   8   0   1 -6.8611 6.37873   1
   8  -1  -1 37.6770 9.49855   1
   7  -1  -1 8.18981 6.66397   1
  -7   1   1 5.81812 10.3878   1
   6  -1  -1 7.71028 5.55320   1
  -6   1   1 18.1998 9.61656   1
   5  -1  -1 25.5990 5.39917   1
  -5   1   1 20.6678 8.07794   1
   4  -1  -1 544.567 21.7585   1
  -4   1   1 499.532 37.0158   1
   3  -1  -1 464.570 18.9769   1
  -3   1   1 508.442 32.9392   1
   2  -1  -1 539.778 20.3456   1
  -2   1   1 523.480 24.4262   1
   1  -1  -1 194.632 7.96556   1
  -1   1   1 198.480 9.71496   1
   0   1   1 175.102 11.2248  -2
   0  -1  -1 175.102 11.2248   1
  -1  -1  -1 572.386 20.8122   1
   1   1   1 563.451 25.7263   1
  -2  -1  -1 9999.99 355.640   1
   2   1   1 9987.33 355.589   1
  -3  -1  -1 92.3186 6.65691   1
   3   1   1 105.823 7.20378   1
  -4  -1  -1 229.910 12.8327   1
   4   1   1 226.940 13.2644   1
  -5  -1  -1 39.7996 9.02204   1
   5   1   1 48.9451 6.64062   1
  -6  -1  -1 111.850 14.6502   1
   6   1   1 86.4065 8.91718   1
  -7  -1  -1 26.9350 11.5570   1
   7   1   1 67.1853 9.36480   1
  -8  -1  -1 18.8762 12.7918   1
   8   1   1 16.4123 7.61346   1
   8  -2  -1 78.2724 12.1180   1
   7  -2  -1 19.9458 7.53141   1
   6  -2  -1 20.8835 6.43138   1
  -6   2   1 0.67461 9.05034   1
   5  -2  -1 21.5663 5.75268   1
  -5   2   1 6.44295 7.73627   1
   4  -2  -1 349.657 15.2561   1
  -4   2   1 318.012 25.7705   1
   3  -2  -1 31.2226 3.71291   1
  -3   2   1 20.7414 5.77901   1
   2  -2  -1 573.666 21.9934   1
   1  -2  -1 49.1076 3.31675   1
  -1   2   1 50.8583 3.05384   1
   0   2   1 354.249 13.4989  -2
   0  -2  -1 354.249 13.4989   1
   0  -2  -1 334.196 24.0910  -2
   0   2   1 334.196 24.0910   1
  -1  -2  -1 357.326 13.2703   1
   1   2   1 357.655 13.1240   1
  -2  -2  -1 2721.82 97.8866   1
   2   2   1 2733.63 98.0894   1
  -3  -2  -1 117.094 7.54798   1
   3   2   1 131.685 7.92224   1
  -4  -2  -1 1175.32 53.3181   1
   4   2   1 1178.94 54.3120   1
  -5  -2  -1 4.61593 6.08913   1
   5   2   1 -4.5026 3.25647   1
  -6  -2  -1 338.675 28.1824   1
   6   2   1 348.944 19.8503   1
  -7  -2  -1 76.2832 14.2323   1
   7   2   1 73.7239 8.79325   1
  -8  -2  -1 75.4109 15.2147   1
   8   2   1 40.1005 14.6742   1
  -9  -2  -1 -12.140 13.5700   1
   9   2   1 5.37070 13.8306   1
   7   8   5 20.1774 20.7704  -2
   7  -3  -1 20.1774 20.7704   1
   6  -3  -1 46.2513 8.26603   1
   5  -3  -1 68.0265 8.22796   1
  -5   3   1 52.1533 16.5850   1
   4  -3  -1 2.25243 3.56314   1
   3  -3  -1 915.156 35.4527   1
  -3   3   1 987.530 60.7921   1
   2  -3  -1 22.2755 2.93490   1
  -2   3   1 20.7945 4.91254   1
   1  -3  -1 446.972 17.2773   1
  -1   3   1 488.892 29.2756   1
   0   3   1 59.0070 2.50729  -2
   0  -3  -1 59.0070 2.50729   1
  -1  -3  -1 489.765 18.1388   1
   1   3   1 523.554 34.0328   1
  -2  -3  -1 2.09247 1.51417   1
   2   3   1 4.28864 1.56240   1
  -3  -3  -1 423.286 20.2120   1
   3   3   1 429.082 20.9238   1
  -4  -3  -1 276.984 14.5475   1
   4   3   1 267.356 23.5353   1
  -5  -3  -1 24.3927 5.83054   1
   5   3   1 22.4657 4.59797   1
  -6  -3  -1 35.8882 9.65683   1
   6   3   1 37.4285 5.62708   1
  -7  -3  -1 187.236 20.6879   1
   7   3   1 189.683 13.6029   1
  -8  -3  -1 -7.1217 8.70034   1
   8   3   1 -12.937 10.0924   1
  -9  -3  -1 -3.0513 11.3790   1
   9   3   1 8.01039 13.3318   1
   7   9   5 48.9112 23.8860  -2
   7  -4  -1 48.9112 23.8860   1
   6  -4  -1 1.58866 6.94660   1
   5  -4  -1 -7.3628 4.36059   1
  -5   4   1 -6.8997 8.21464   1
   4  -4  -1 208.024 11.0247   1
  -4   4   1 191.136 18.6974   1
   3  -4  -1 551.567 22.0604   1
  -3   4   1 526.065 37.0879   1
   2  -4  -1 414.259 16.6221   1
  -2   4   1 413.983 27.6967   1
   1  -4  -1 43.8510 3.27286   1
   0   4   1 86.0714 3.79576  -2
   0  -4  -1 86.0714 3.79576   1
  -1  -4  -1 1519.23 97.4081   1
   1   4   1 1709.58 103.877   1
  -2  -4  -1 174.769 8.58769   1
   2   4   1 172.527 16.1717   1
  -3  -4  -1 403.002 19.2413   1
   3   4   1 410.234 19.8901   1
  -4  -4  -1 87.0433 6.53257   1
   4   4   1 95.1252 6.96074   1
  -5  -4  -1 13.0395 4.20021   1
   5   4   1 10.6115 3.88935   1
  -6  -4  -1 16.1139 5.07410   1
   6   4   1 22.2676 11.3547   1
  -7  -4  -1 39.1931 10.8787   1
   7   4   1 64.5824 11.2983   1
  -8  -4  -1 -3.3371 9.25980   1
   8   4   1 -4.9978 11.9808   1
  -9  -4  -1 -0.4152 11.1432   1
   9   4   1 16.4632 14.9108   1
   6  -5  -1 -3.9193 5.99024   1
   5  -5  -1 -2.0426 5.21436   1
   4  -5  -1 46.6744 5.76633   1
   3  -5  -1 8.20244 3.41564   1
   2  -5  -1 217.512 10.4060   1
   1  -5  -1 35.4943 3.36184   1
   0   5   1 411.546 19.2402  -2
   0  -5  -1 411.546 19.2402   1
  -1  -5  -1 236.376 10.6448   1
   1   5   1 278.370 20.0298   1
  -2  -5  -1 1246.35 54.9584   1
   2   5   1 1298.65 83.4959   1
  -3  -5  -1 261.118 12.8852   1
   3   5   1 253.019 21.7327   1
  -4  -5  -1 60.3522 5.42984   1
   4   5   1 45.9290 6.61645   1
  -5  -5  -1 1.24111 3.32968   1
   5   5   1 8.69148 3.69572   1
  -6  -5  -1 179.145 12.3436   1
   6   5   1 170.477 12.3218   1
  -7  -5  -1 -1.2418 7.33043   1
   7   5   1 24.6860 12.2326   1
  -8  -5  -1 40.0610 12.0430   1
   8   5   1 60.4914 16.8010   1
   6  -6  -1 -1.9849 6.92457   1
   5  -6  -1 67.1686 9.16553   1
   4  -6  -1 -0.3256 4.49829   1
   3  -6  -1 457.484 19.3959   1
   2  -6  -1 1.14483 2.86151   1
   1  -6  -1 49.3554 4.03531   1
   0   6   1 0.62681 1.99512  -2
   0  -6  -1 0.62681 1.99512   1
  -1  -6  -1 604.538 26.3216   1
   1   6   1 590.901 42.9284   1
  -2  -6  -1 69.0237 4.15832   1
   2   6   1 74.7469 11.1275   1
  -3  -6  -1 27.3420 3.43553   1
   3   6   1 49.8292 9.55071   1
  -4  -6  -1 8.04901 3.18169   1
   4   6   1 8.98336 7.91215   1
  -5  -6  -1 106.846 8.20015   1
   5   6   1 66.1335 13.6448   1
  -6  -6  -1 94.1441 8.79543   1
   6   6   1 73.2087 15.0592   1
  -7  -6  -1 125.827 16.6372   1
   7   6   1 116.961 19.6075   1
  -8  -6  -1 -5.7180 8.43042   1
   8   6   1 -5.5512 11.6625   1
   5  -7  -1 21.2314 7.06482   1
   4  -7  -1 41.4442 6.97534   1
   3  -7  -1 56.4657 6.88824   1
   2  -7  -1 107.292 7.06858   1
   1  -7  -1 11.3862 2.60318   1
   0   7   1 325.906 12.9180  -2
   0  -7  -1 325.906 12.9180   1
  -1  -7  -1 226.565 9.68777   1
  -2  -7  -1 95.2571 5.34348   1
   2   7   1 81.7092 13.4899   1
  -3  -7  -1 48.1645 4.43318   1
   3   7   1 46.9707 10.5902   1
  -4  -7  -1 9.10118 3.29187   1
   4   7   1 7.68138 8.37521   1
  -5  -7  -1 2.87175 3.63074   1
   5   7   1 1.25622 9.11098   1
   6   7   1 16.3364 10.1365   1
  -7  -7  -1 16.2757 8.99594   1
   7   7   1 34.1995 13.1439   1
  -8  -7  -1 17.6250 9.41451   1
   8   7   1 -4.0429 11.3424   1
   4  11   3 129.684 16.4401  -2
   4  -8  -1 129.684 16.4401   1
   3  -8  -1 21.5851 5.55772   1
   2  -8  -1 140.523 8.50386   1
   1  -8  -1 18.8966 3.35583   1
   0   8   1 40.6650 3.82943  -2
   0  -8  -1 40.6650 3.82943   1
  -1  -8  -1 15.1830 2.49330   1
  -2  -8  -1 165.220 8.34679   1
   2   8   1 150.636 18.7820   1
  -3  -8  -1 5.14651 2.75988   1
   3   8   1 9.93493 9.28829   1
  -4  -8  -1 3.93969 3.27304   1
   4  -5   1 6.13271 14.5747  -2
   4   8   1 6.13271 14.5747   1
  -5  -8  -1 -2.2695 7.94533   1
   5   8   1 2.86189 9.10923   1
  -6  -8  -1 124.313 13.7110   1
   6   8   1 84.2737 16.5846   1
  -7  -8  -1 -8.8969 6.56086   1
   7   8   1 -3.9991 12.1061   1
   8   8   1 12.5635 15.2596   1
   3  -9  -1 119.027 10.5977   1
   2  -9  -1 5.27122 4.52081   1
   1  -9  -1 40.6957 4.51225   1
   0   9   1 9.64014 4.29958  -2
   0  -9  -1 9.64014 4.29958   1
  -1  -9  -1 36.2984 3.81246   1
  -2  -9  -1 316.645 13.4392   1
  -3  -9  -1 45.2128 4.63363   1
   3   9   1 41.8190 11.8684   1
  -4   6  -1 -0.3619 8.16455  -2
  -4  -9  -1 -0.3619 8.16455   1
   4  -6   1 3.44222 14.9787  -2
   4   9   1 3.44222 14.9787   1
  -5  -9  -1 10.1025 4.13291   1
   5   9   1 -2.9216 10.3109   1
  -6  -9  -1 31.8644 8.65457   1
   6   9   1 30.9151 13.3465   1
  -7  -9  -1 32.8537 10.0981   1
   7   9   1 26.1618 14.7744   1
   2 -10  -1 18.8538 5.96123   1
   1 -10  -1 -2.4936 3.46706   1
   0  10   1 3.55706 3.27299  -2
   0 -10  -1 3.55706 3.27299   1
  -1 -10  -1 188.243 8.91811   1
  -2 -10  -1 -1.3116 2.48632   1
  -3 -10  -1 22.6053 3.74765   1
   3  10   1 26.7608 13.0448   1
  -4 -10  -1 37.9882 7.07120   1
  -5 -10  -1 -1.0748 5.53822   1
   5  10   1 -6.4586 11.0821   1
  -6 -10  -1 7.00765 6.91228   1
   6  10   1 2.27559 12.6302   1
   0  11   1 32.7583 4.85563  -2
   0 -11  -1 32.7583 4.85563   1
  -1 -11  -1 7.59313 3.21083   1
  -2 -11  -1 102.942 6.55001   1
  -3 -11  -1 -0.1606 3.28107   1
  -4   8  -1 -1.4862 10.1617  -2
  -4 -11  -1 -1.4862 10.1617   1
  -5 -11  -1 -1.9366 10.7440   1
   5  11   1 -13.628 11.9255   1
  -4 -11   2 9.87916 7.60172   1
  -3 -11   2 24.9119 7.30431   1
  -2 -11   2 19.8292 7.06368   1
  -1 -11   2 26.0650 7.52242   1
   6  10  -2 34.9147 14.6580   1
  -6 -10   2 50.1647 10.8841   1
   5  10  -2 15.9958 12.1662   1
  -5 -10   2 0.12251 6.66064   1
  -4 -10   2 7.17315 6.44574   1
   3  10  -2 8.39713 10.8988   1
  -3 -10   2 9.40159 5.85130   1
  -2 -10   2 129.571 9.17516   1
  -1 -10   2 5.68152 5.00595   1
   0  10  -2 23.1034 6.99672  -2
   0 -10   2 23.1034 6.99672   1
   1 -10   2 2.50202 5.29561   1
   2 -10   2 37.5528 7.81454   1
   7   9  -2 54.7504 16.3176   1
  -7  -9   2 53.1631 12.4875   1
   6   9  -2 45.9468 14.0842   1
  -6  -9   2 35.6684 9.80251   1
   5   9  -2 8.24930 10.0031   1
  -5  -9   2 10.8986 7.25245   1
   4  -6   4 16.5897 14.6689  -2
   4   9  -2 16.5897 14.6689   1
  -4  -9   2 13.2170 4.81457   1
   3   9  -2 37.9712 10.4371   1
  -3  -9   2 33.5688 5.12301   1
  -2  -9   2 70.5317 6.74909   1
  -1  -9   2 136.162 7.98961   1
   0   9  -2 -2.4865 3.82623  -2
   0  -9   2 -2.4865 3.82623   1
   1  -9   2 0.65669 3.48375   1
   2  -9   2 14.5444 5.41326   1
   3  -9   2 30.4511 7.57685   1
   7   8  -2 0.53628 11.4939   1
  -7  -8   2 25.6357 10.2495   1
   6   8  -2 2.16035 9.95253   1
  -6  -8   2 27.3063 9.41507   1
   5   8  -2 -6.9542 8.43672   1
  -5  -8   2 0.11625 6.27375   1
  -4   5  -4 26.8228 11.2550  -2
  -4  -8   2 26.8228 11.2550   1
   3   8  -2 112.868 15.2220   1
  -3  -8   2 131.018 8.71346   1
   2   8  -2 36.4225 9.45234   1
  -2  -8   2 42.2772 5.27462   1
  -1  -8   2 169.637 8.56856   1
   0   8  -2 18.2348 3.81437  -2
   0  -8   2 18.2348 3.81437   1
   1  -8   2 21.8792 3.77445   1
   2  -8   2 6.67982 3.74057   1
   3  -8   2 148.764 11.9938   1
   4  11   0 23.3662 12.9004  -2
   4  -8   2 23.3662 12.9004   1
   8   7  -2 14.2619 12.2963   1
  -8  -7   2 31.0269 12.4448   1
   7   7  -2 4.60200 11.1540   1
  -7  -7   2 10.0280 9.15759   1
   6   7  -2 80.0446 14.8896   1
  -6  -7   2 83.4707 13.1683   1
   5   7  -2 28.4547 9.84995   1
  -5  -7   2 23.7314 5.40093   1
   4   7  -2 46.8630 10.2106   1
  -4  -7   2 41.8088 5.48059   1
   3   7  -2 16.7972 7.78404   1
  -3  -7   2 19.5262 3.82720   1
   2   7  -2 329.463 26.1527   1
  -2  -7   2 349.561 17.8402   1
  -1  -7   2 30.2586 3.79742   1
   0   7  -2 15.6669 4.06706  -2
   0  -7   2 15.6669 4.06706   1
   1  -7   2 4.50804 2.66064   1
   2  -7   2 38.0768 4.51142   1
   3  -7   2 -2.4961 3.59767   1
   4  -7   2 146.373 11.5546   1
   5  -7   2 -0.7167 5.51808   1
   8   6  -2 4.07066 14.0881   1
  -8  -6   2 13.1382 11.1987   1
   7   6  -2 22.5077 13.3023   1
  -7  -6   2 21.8766 10.2383   1
   6   6  -2 73.6131 14.4209   1
  -6  -6   2 82.1988 13.1831   1
   5   6  -2 -8.4676 7.35339   1
  -5  -6   2 -1.2514 4.00280   1
   4   6  -2 66.7336 11.6853   1
  -4   3  -4 79.5036 12.2944  -2
  -4  -6   2 79.5036 12.2944   1
   3   6  -2 36.3937 8.02681   1
  -3  -6   2 16.7956 3.60138   1
   2   6  -2 29.2604 6.91069   1
  -2  -6   2 25.9903 4.99248   1
   1   6  -2 117.265 11.2259   1
  -1  -6   2 97.4831 6.66458   1
   0   6  -2 109.989 5.61632  -2
   0  -6   2 109.989 5.61632   1
   1  -6   2 4.40664 2.38698   1
   2  -6   2 25.8153 3.74382   1
   3  -6   2 76.5137 6.48465   1
   4  -6   2 144.720 11.7306   1
   5  -6   2 -2.7542 5.06785   1
   6  -6   2 0.05068 6.14792   1
   8   5  -2 2.29108 12.7566   1
  -8  -5   2 -6.4436 10.0442   1
   7   5  -2 204.451 23.8872   1
  -7  -5   2 147.537 19.6053   1
   6   5  -2 0.61745 4.59145   1
  -6  -5   2 0.23856 6.93470   1
   5   5  -2 30.6911 5.42111   1
  -5  -5   2 38.9856 5.90002   1
   4   5  -2 -1.3399 3.76696   1
  -4  -5   2 -2.0233 3.97307   1
   3   5  -2 268.592 13.8056   1
  -3  -5   2 256.782 13.5408   1
   2   5  -2 61.2870 8.34124   1
  -2  -5   2 53.9851 4.57991   1
   1   5  -2 434.623 30.2006   1
  -1  -5   2 442.956 16.8929   1
   0   5  -2 29.4419 2.97651  -2
   0  -5   2 29.4419 2.97651   1
   1  -5   2 54.9025 3.54127   1
   2  -5   2 -1.6269 2.31939   1
  -3   5  -2 158.710 16.9570   1
   3  -5   2 207.595 10.0684   1
  -4   5  -2 -1.9059 8.65622   1
   4  -5   2 16.4236 4.58353   1
   5  -5   2 70.8381 8.75310   1
   6  -5   2 17.9738 8.68535   1
   8   4  -2 83.3679 19.0926   1
  -8  -4   2 44.7996 14.6131   1
   7   4  -2 4.71281 11.3814   1
  -7  -4   2 -1.8648 8.33632   1
   6   4  -2 111.833 10.3706   1
  -6  -4   2 135.148 15.4886   1
   5   4  -2 3.41781 7.74729   1
  -5  -4   2 10.2497 4.56546   1
   4   4  -2 61.6195 6.00933   1
  -4   1  -4 61.8879 10.7055  -2
  -4  -4   2 61.8879 10.7055   1
   3   4  -2 231.367 12.4211   1
  -3  -4   2 224.523 12.0555   1
   2   4  -2 609.715 28.5643   1
  -2  -4   2 597.685 22.7536   1
   1   4  -2 230.426 11.0179   1
  -1  -4   2 222.220 9.17455   1
   0  -4   2 516.349 29.8199  -2
   0   4  -2 516.349 29.8199   1
   0   4  -2 454.804 17.5913  -2
   0  -4   2 454.804 17.5913   1
   1  -4   2 47.5829 3.08202   1
  -2   4  -2 176.361 15.3347   1
   2  -4   2 210.425 11.4908   1
  -3   4  -2 21.9422 7.27322   1
   3  -4   2 39.1132 4.39379   1
  -4   4  -2 270.633 24.6955   1
   4  -4   2 314.256 14.2911   1
   5  -4   2 14.6794 5.59590   1
   6  -4   2 54.3787 8.72528   1
   7   9   2 29.9775 20.6527  -2
   7  -4   2 29.9775 20.6527   1
   8   3  -2 63.1087 16.6190   1
  -8  -3   2 40.8558 13.4798   1
   7   3  -2 51.4839 8.00551   1
  -7  -3   2 32.6349 11.9026   1
   6   3  -2 126.345 11.1742   1
  -6  -3   2 140.768 16.2594   1
   5   3  -2 23.1871 5.12888   1
  -5  -3   2 29.9987 5.59826   1
   4   3  -2 128.395 9.51502   1
  -4  -3   2 138.175 8.98110   1
   3   3  -2 113.032 12.0734   1
  -3  -3   2 99.2291 6.92246   1
   2   3  -2 337.438 16.1377   1
  -2  -3   2 323.942 13.0507   1
   1   3  -2 304.078 14.0339   1
  -1  -3   2 291.365 11.4953   1
   0  -3   2 290.873 17.6262  -2
   0   3  -2 290.873 17.6262   1
   0   3  -2 257.071 10.0383  -2
   0  -3   2 257.071 10.0383   1
  -1   3  -2 150.192 8.20134   1
   1  -3   2 152.023 6.66512   1
  -2   3  -2 489.664 24.5542   1
   2  -3   2 498.793 19.3073   1
   3  -3   2 58.6157 4.81167   1
  -4   3  -2 398.542 31.0462   1
   4  -3   2 420.888 17.8952   1
  -5   3  -2 10.2113 8.82808   1
   5  -3   2 6.95883 5.06077   1
   6  -3   2 10.8773 5.85194   1
   7   8   2 8.21807 19.9650  -2
   7  -3   2 8.21807 19.9650   1
   8   2  -2 -6.9022 12.0531   1
  -8  -2   2 13.2745 11.5962   1
   7   2  -2 87.6169 10.3499   1
  -7  -2   2 83.6575 15.0211   1
   6   2  -2 3.30739 4.49933   1
  -6  -2   2 10.4780 8.40903   1
   5   2  -2 59.2209 7.20711   1
  -5  -2   2 48.8173 9.71422   1
   4   2  -2 40.9534 5.48467   1
  -4  -2   2 31.7504 4.62084   1
   3   2  -2 53.0604 5.20969   1
  -3  -2   2 51.2477 4.98497   1
   2   2  -2 2.33503 2.27812   1
  -2  -2   2 0.30030 1.86331   1
   1   2  -2 1557.22 69.1612   1
  -1  -2   2 1566.75 56.2224   1
   0  -2   2 137.466 9.50861  -2
   0   2  -2 137.466 9.50861   1
   0   2  -2 135.784 5.36450  -2
   0  -2   2 135.784 5.36450   1
  -1   2  -2 7.58125 2.59369   1
   1  -2   2 13.4834 1.84057   1
  -2   2  -2 38.7901 4.48068   1
   2  -2   2 38.6305 3.41427   1
  -3   2  -2 824.304 50.1076   1
   3  -2   2 735.802 28.7955   1
  -4   2  -2 60.8585 10.2366   1
   4  -2   2 56.1698 5.24692   1
  -5   2  -2 244.877 22.8942   1
   5  -2   2 257.562 15.8730   1
  -6   2  -2 -0.3769 8.84678   1
   6  -2   2 -1.1033 5.06817   1
   7   7   2 41.5968 21.2571  -2
   7  -2   2 41.5968 21.2571   1
   8  -2   2 13.1152 12.9811   1
   8   1  -2 22.2913 7.72189   1
  -8  -1   2 24.2142 13.3628   1
   7   1  -2 26.4021 7.34291   1
  -7  -1   2 49.6020 12.5361   1
   6   1  -2 41.4455 7.34967   1
  -6  -1   2 43.9085 10.7772   1
   5   1  -2 159.432 11.2065   1
  -5  -1   2 133.132 15.4294   1
   4   1  -2 -4.1973 3.04874   1
  -4  -1   2 2.17104 4.62418   1
   3   1  -2 419.781 21.0585   1
  -3  -1   2 426.851 20.5458   1
   2   1  -2 244.867 10.0943   1
  -2  -1   2 239.313 10.0858   1
   1   1  -2 1815.97 65.3045   1
  -1  -1   2 1819.77 65.2741   1
   0  -1   2 398.862 18.6174  -2
   0   1  -2 398.862 18.6174   1
   0   1  -2 440.856 26.1119  -2
   0  -1   2 440.856 26.1119   1
  -1   1  -2 194.321 10.3423   1
   1  -1   2 187.720 7.77554   1
  -2   1  -2 209.072 9.21616   1
   2  -1   2 224.747 9.28256   1
  -3   1  -2 331.643 23.2610   1
   3  -1   2 300.533 13.7208   1
  -4   1  -2 107.916 12.0963   1
   4  -1   2 99.2576 8.05699   1
  -5   1  -2 96.1300 13.1234   1
   5  -1   2 98.1440 8.96161   1
  -6   1  -2 -10.068 6.81189   1
   6  -1   2 4.70852 5.25423   1
  -7   1  -2 30.3980 12.5535   1
   7  -1   2 34.6192 7.64948   1
   8  -1   2 26.5222 8.10609   1
   8   0  -2 80.2583 11.3339   1
   7   0  -2 -4.2920 6.18655   1
  -7   0   2 -1.2158 8.96930   1
   6   0  -2 65.3605 8.43191   1
  -6   0   2 60.7251 12.1896   1
   5   0  -2 13.0380 4.66257   1
  -5   0   2 2.06629 6.35572   1
   4   0  -2 9.61027 3.17948   1
  -4   0   2 -3.3265 4.65190   1
   3   0  -2 2.02708 2.32957   1
  -3   0   2 -1.8646 4.15483   1
   2   0  -2 696.768 25.9945   1
  -2   0   2 685.848 31.3386   1
   1   0  -2 10.6446 2.01271   1
  -1   0   2 8.56699 1.92448   1
   0   0   2 899.178 32.5365  -2
   0   0  -2 899.178 32.5365   1
   0   0  -2 913.808 55.6545  -2
   0   0   2 913.808 55.6545   1
  -1   0  -2 4.71176 1.54552   1
   1   0   2 4.94003 1.48406   1
  -2   0  -2 2.79715 1.87183   1
   2   0   2 6.86990 1.90136   1
  -3   0  -2 221.857 12.1028   1
   3   0   2 229.664 10.1474   1
  -4   0  -2 709.740 47.6137   1
   4   0   2 696.910 33.7867   1
  -5   0  -2 14.5927 7.38380   1
   5   0   2 7.76376 4.18227   1
  -6   0  -2 -3.7942 7.32863   1
   6   0   2 4.95452 4.91682   1
  -7   0  -2 2.08036 9.23873   1
   7   0   2 5.26637 6.26234   1
  -8   0  -2 78.1822 18.0933   1
   8   0   2 66.6862 10.1737   1
   8  -1  -2 3.57075 8.27896   1
   7  -1  -2 100.835 11.6591   1
  -7   1   2 97.3463 16.5573   1
   6  -1  -2 34.0503 8.68580   1
  -6   1   2 33.4516 10.8464   1
   5  -1  -2 109.402 9.57856   1
  -5   1   2 111.047 13.7539   1
   4  -1  -2 30.3048 4.23079   1
  -4   1   2 38.0457 7.78350   1
   3  -1  -2 378.255 15.5975   1
  -3   1   2 359.456 26.5830   1
   2  -1  -2 23.8477 2.69024   1
  -2   1   2 16.2306 4.10158   1
   1  -1  -2 835.083 30.6475   1
  -1   1   2 841.041 37.6456   1
   0   1   2 48.1559 2.66433  -2
   0  -1  -2 48.1559 2.66433   1
  -1  -1  -2 10.7554 1.59702   1
   1   1   2 8.73151 2.09158   1
  -2  -1  -2 43.7607 3.28293   1
   2   1   2 44.2925 3.35606   1
  -3  -1  -2 775.097 35.1101   1
   3   1   2 758.513 35.7193   1
  -4  -1  -2 1355.75 60.8833   1
   4   1   2 1352.50 62.0362   1
  -5  -1  -2 12.4550 7.02966   1
   5   1   2 23.6494 5.86045   1
  -6  -1  -2 8.03564 7.97894   1
   6   1   2 2.26165 4.57237   1
  -7  -1  -2 99.1605 16.2976   1
   7   1   2 70.3789 9.29050   1
  -8  -1  -2 7.28957 11.4786   1
   8   1   2 8.23342 7.01018   1
   8  -2  -2 26.2019 9.12691   1
   7  -2  -2 35.1764 8.21630   1
   6  -2  -2 -2.7403 5.70140   1
  -6   2   2 15.4232 9.71014   1
   5  -2  -2 30.5224 7.62091   1
  -5   2   2 25.7664 8.92561   1
   4  -2  -2 15.1588 3.79115   1
  -4   2   2 23.6676 6.53858   1
   3  -2  -2 488.962 20.0747   1
  -3   2   2 540.577 34.6585   1
   2  -2  -2 841.586 31.5295   1
   1  -2  -2 1315.20 47.9326   1
  -1   2   2 1339.09 59.1212   1
   0   2   2 196.702 7.42127  -2
   0  -2  -2 196.702 7.42127   1
   0  -2  -2 165.943 11.8805  -2
   0   2   2 165.943 11.8805   1
  -1  -2  -2 292.815 10.9510   1
   1   2   2 277.886 10.8503   1
  -2  -2  -2 50.5362 3.76684   1
   2   2   2 49.1949 3.83351   1
  -3  -2  -2 955.774 41.9466   1
   3   2   2 906.899 42.8268   1
  -4  -2  -2 356.836 18.0590   1
   4   2   2 350.312 18.5680   1
  -5  -2  -2 78.8242 7.65280   1
   5   2   2 55.3701 7.26840   1
  -6  -2  -2 128.589 15.7832   1
   6   2   2 115.647 10.4063   1
  -7  -2  -2 11.7232 9.53205   1
   7   2   2 5.80996 7.42152   1
  -8  -2  -2 4.38044 10.8403   1
   8   2   2 9.45879 12.0580   1
  -9  -2  -2 7.83571 14.7520   1
   9   2   2 30.1184 15.4734   1
   7  -3  -2 -1.7044 6.60943   1
   6  -3  -2 91.5130 10.8421   1
   5  -3  -2 -0.2742 4.93224   1
  -5   3   2 -5.5729 6.93462   1
   4  -3  -2 25.2796 6.11792   1
   3  -3  -2 2.34125 2.63057   1
  -3   3   2 3.20120 4.82994   1
   2  -3  -2 782.290 29.5412   1
  -2   3   2 778.298 50.0704   1
   1  -3  -2 0.32555 1.66243   1
   0   3   2 654.674 24.0392  -2
   0  -3  -2 654.674 24.0392   1
  -1  -3  -2 410.689 15.2544   1
   1   3   2 409.190 28.9941   1
  -2  -3  -2 552.547 24.9271   1
   2   3   2 567.640 26.9327   1
  -3  -3  -2 17.2679 3.02256   1
   3   3   2 21.4583 3.22445   1
  -4  -3  -2 2530.19 112.555   1
   4   3   2 2630.42 166.955   1
  -5  -3  -2 -3.6728 3.06773   1
   5   3   2 7.27690 3.55358   1
  -6  -3  -2 141.516 17.9805   1
   6   3   2 195.157 12.8657   1
  -7  -3  -2 18.2578 9.87923   1
   7   3   2 -3.4080 4.69288   1
  -8  -3  -2 171.325 22.7644   1
   8   3   2 171.713 25.2617   1
  -9  -3  -2 11.8233 13.1357   1
   9   3   2 11.0151 13.2908   1
   7  -4  -2 54.0556 10.3422   1
   6  -4  -2 41.3570 9.12847   1
   5  -4  -2 72.9497 9.02636   1
   4  -4  -2 27.9367 4.81164   1
  -4   4   2 31.4987 8.27155   1
   3  -4  -2 171.504 9.67796   1
  -3   4   2 179.639 15.9095   1
   2  -4  -2 92.1213 5.49529   1
  -2   4   2 86.1108 8.86688   1
   1  -4  -2 605.936 22.7378   1
   0   4   2 575.961 21.2491  -2
   0  -4  -2 575.961 21.2491   1
   1   4   2 0.56464 4.87956   1
  -2  -4  -2 128.629 6.60470   1
   2   4   2 120.603 13.2994   1
  -3  -4  -2 535.551 24.4865   1
   3   4   2 520.698 25.2028   1
  -4  -4  -2 312.715 15.8236   1
   4   4   2 300.855 16.3214   1
  -5  -4  -2 40.1966 7.05735   1
   5   4   2 19.1294 4.61895   1
  -6  -4  -2 77.7410 8.42697   1
   6   4   2 88.7906 16.7299   1
  -7  -4  -2 12.3301 8.54967   1
   7   4   2 19.6339 13.6575   1
  -8  -4  -2 1.93892 9.46803   1
   8   4   2 -5.9101 11.2347   1
  -9  -4  -2 22.7709 13.1098   1
   9   4   2 23.1809 15.0112   1
   6  -5  -2 -3.8090 6.07931   1
   5  -5  -2 33.3211 12.4205   1
   4  -5  -2 -1.4825 3.97870   1
   3  -5  -2 132.663 7.97182   1
   2  -5  -2 84.5168 5.72588   1
   1  -5  -2 788.314 29.3948   1
   0   5   2 25.4298 2.20770  -2
   0  -5  -2 25.4298 2.20770   1
   1   5   2 55.8973 9.26400   1
  -2  -5  -2 2.61089 1.31940   1
   2   5   2 5.44664 5.62688   1
  -3  -5  -2 678.715 30.6395   1
   3   5   2 668.540 47.9307   1
  -4  -5  -2 -1.1731 2.45298   1
   4   5   2 1.04209 6.59511   1
  -5  -5  -2 161.765 10.2371   1
   5   5   2 142.201 10.2482   1
  -6  -5  -2 59.0976 7.12937   1
   6   5   2 54.0631 7.31006   1
  -7  -5  -2 18.7912 8.71509   1
   7   5   2 7.92342 10.9424   1
  -8  -5  -2 -1.9059 9.13604   1
   8   5   2 -17.408 10.5511   1
   6  -6  -2 44.7753 8.59600   1
   5  -6  -2 3.40445 6.08942   1
   4  -6  -2 -15.923 8.93326   1
   3  -6  -2 30.0982 4.64556   1
   2  -6  -2 119.824 7.20289   1
   1  -6  -2 129.844 8.28682   1
   0   6   2 302.663 11.9246  -2
   0  -6  -2 302.663 11.9246   1
   1   6   2 38.7524 9.48705   1
  -2  -6  -2 317.108 14.1940   1
   2   6   2 292.442 25.2718   1
  -3  -6  -2 7.74665 2.36609   1
   3   6   2 11.0115 7.54420   1
  -4  -6  -2 466.270 22.1128   1
   4   6   2 426.433 37.6551   1
  -5  -6  -2 2.15461 3.37079   1
   5   6   2 2.29714 8.36211   1
  -6  -6  -2 -2.6686 3.70470   1
   6   6   2 -2.9642 8.70650   1
  -7  -6  -2 15.4757 7.93600   1
   7   6   2 5.44233 11.1682   1
  -8  -6  -2 3.63358 9.25696   1
   8   6   2 4.83748 12.0596   1
   5  -7  -2 2.90621 6.21443   1
   4  10   4 3.13427 11.0487  -2
   4  -7  -2 3.13427 11.0487   1
   3  -7  -2 50.3557 6.25480   1
   2  -7  -2 120.384 8.29315   1
   1  -7  -2 304.785 13.0474   1
   0   7   2 233.859 9.89428  -2
   0  -7  -2 233.859 9.89428   1
  -1  -7  -2 7.42053 1.31736   1
  -2  -7  -2 131.912 9.34570   1
   2   7   2 161.277 17.0802   1
  -3  -7  -2 173.387 9.09513   1
   3   7   2 159.791 18.6913   1
  -4  -7  -2 198.232 12.2919   1
   4   7   2 180.512 20.4743   1
  -5  -7  -2 4.80151 3.67998   1
  -6  -7  -2 26.7361 12.2334   1
   6   7   2 8.05970 10.4722   1
  -7  -7  -2 38.5783 10.1094   1
   7   7   2 28.0915 12.7715   1
  -8  -7  -2 59.3124 13.4677   1
   8   7   2 55.6655 16.4270   1
   4  11   4 -20.943 11.0107  -2
   4  -8  -2 -20.943 11.0107   1
   3  -8  -2 188.484 13.1101   1
   2  -8  -2 2.64160 3.38654   1
   1  -8  -2 150.202 7.96620   1
   0   8   2 40.2489 3.71309  -2
   0  -8  -2 40.2489 3.71309   1
  -1  -8  -2 136.780 6.08880   1
  -2  -8  -2 1.47811 1.63060   1
   2   8   2 3.72484 8.42401   1
  -3  -8  -2 200.822 10.0675   1
   3   8   2 163.519 20.3522   1
  -4  -8  -2 -0.5614 2.85793   1
   4  -5   0 17.0450 14.7219  -2
   4   8   2 17.0450 14.7219   1
  -5  -8  -2 39.5578 5.55878   1
   5   8   2 29.5255 11.9937   1
  -6  -8  -2 9.28031 6.55292   1
   6   8   2 -1.7670 10.7603   1
  -7  -8  -2 4.61119 7.52969   1
   7   8   2 -6.3919 10.9251   1
   8   8   2 6.34341 14.6310   1
   3  -9  -2 17.7132 5.63876   1
   2  -9  -2 91.9782 8.70725   1
   1  -9  -2 13.4962 3.63177   1
   0   9   2 131.568 6.74944  -2
   0  -9  -2 131.568 6.74944   1
  -1  -9  -2 2.25157 2.08446   1
  -2  -9  -2 137.291 9.33556   1
   2   9   2 105.161 18.8657   1
  -3  -9  -2 37.4147 5.50726   1
   3   9   2 8.92485 10.6293   1
  -4   6   0 73.4488 9.91711  -2
  -4  -9  -2 73.4488 9.91711   1
  -5  -9  -2 2.01718 3.83688   1
   5   9   2 4.13916 10.8172   1
  -6  -9  -2 -0.0805 6.34491   1
   6   9   2 3.26801 11.6800   1
  -7  -9  -2 24.0050 8.84602   1
   7   9   2 20.0498 13.5359   1
   2 -10  -2 130.027 10.8092   1
   1 -10  -2 4.95263 3.56647   1
   0  10   2 40.2472 4.26832  -2
   0 -10  -2 40.2472 4.26832   1
  -1 -10  -2 -4.1621 2.21915   1
  -2 -10  -2 53.2432 3.76011   1
  -3 -10  -2 4.81028 2.84513   1
   3  10   2 -7.0613 11.4113   1
  -4   7   0 138.575 13.4352  -2
  -4 -10  -2 138.575 13.4352   1
  -5 -10  -2 5.70972 5.09035   1
   5  10   2 20.5509 21.7628   1
  -6 -10  -2 -5.5187 6.24645   1
   6  10   2 -1.4131 11.6741   1
   0  11   2 7.22033 4.74520  -2
   0 -11  -2 7.22033 4.74520   1
  -1 -11  -2 2.50428 2.17985   1
  -2 -11  -2 -5.7713 9.03309   1
  -3 -11  -2 95.3108 7.48449   1
  -4   8   0 7.36465 8.91676  -2
  -4 -11  -2 7.36465 8.91676   1
  -5 -11  -2 24.0553 8.71739   1
   5  11   2 9.23592 14.1519   1
  -3 -11   3 15.3443 9.24824   1
  -2 -11   3 33.3553 12.9603   1
  -1 -11   3 11.2843 9.50407   1
   5  10  -3 45.1049 13.5262   1
  -5 -10   3 40.3220 10.0253   1
  -4   7  -5 -7.6970 12.0428  -2
  -4 -10   3 -7.6970 12.0428   1
  -3 -10   3 -4.4410 5.81245   1
  -2 -10   3 6.77515 5.11113   1
  -1 -10   3 111.477 10.1467   1
   0  10  -3 0.18434 6.94127  -2
   0 -10   3 0.18434 6.94127   1
   1 -10   3 35.3878 7.66648   1
   2 -10   3 8.95774 6.14395   1
   6   9  -3 8.64278 11.8847   1
  -6  -9   3 20.0006 9.30958   1
   5   9  -3 25.1809 11.3287   1
  -5  -9   3 24.3809 8.37796   1
  -4  -9   3 47.0249 9.27545   1
   3   9  -3 6.69526 8.57511   1
  -3  -9   3 7.86302 4.59115   1
  -2  -9   3 23.0567 4.19841   1
  -1  -9   3 55.9913 6.76985   1
   0   9  -3 111.671 8.66013  -2
   0  -9   3 111.671 8.66013   1
   1  -9   3 -2.5896 4.52052   1
   2  -9   3 -4.3603 4.81182   1
   3  -9   3 31.0098 12.4110   1
   7   8  -3 -10.337 10.8160   1
  -7  -8   3 4.67514 9.63622   1
   6   8  -3 215.855 23.4237   1
  -6  -8   3 188.834 20.0524   1
   5   8  -3 39.8868 12.0162   1
  -5  -8   3 48.1475 10.0069   1
   4  -5   5 162.979 19.9469  -2
   4   8  -3 162.979 19.9469   1
  -4  -8   3 127.262 13.6796   1
   3   8  -3 17.8796 8.11876   1
  -3  -8   3 6.78926 4.56508   1
   2   8  -3 42.3373 9.02542   1
  -2  -8   3 35.7738 7.78037   1
  -1  -8   3 0.12548 2.86604   1
   0   8  -3 177.677 8.44826  -2
   0  -8   3 177.677 8.44826   1
   1  -8   3 72.8791 9.08658   1
   2  -8   3 5.99422 3.90591   1
   3  -8   3 2.05354 4.95128   1
   4  -8   3 38.4045 8.98461   1
   7   7  -3 0.97978 10.6805   1
  -7  -7   3 1.83213 9.30261   1
   6   7  -3 1.37590 9.00546   1
  -6  -7   3 -5.6258 7.37601   1
   5   7  -3 132.135 17.6394   1
  -5  -7   3 172.958 16.4872   1
   4  -4   5 16.1531 13.6350  -2
   4   7  -3 16.1531 13.6350   1
  -4   4  -5 6.39739 10.5660  -2
  -4  -7   3 6.39739 10.5660   1
   3   7  -3 14.1726 7.07849   1
  -3  -7   3 -5.7842 3.26599   1
   2   7  -3 56.5299 9.83740   1
  -2  -7   3 61.8264 6.09555   1
  -1  -7   3 291.234 10.7578   1
   0   7  -3 34.8938 3.11963  -2
   0  -7   3 34.8938 3.11963   1
   1  -7   3 184.660 8.83691   1
   2  -7   3 2.20501 3.14790   1
   3  -7   3 51.1463 6.31945   1
   4  -7   3 0.29223 4.87995   1
   5  -7   3 71.2900 9.09827   1
   8   6  -3 -3.5241 13.3750   1
  -8  -6   3 -12.613 9.41181   1
   7   6  -3 21.1398 12.5270   1
  -7  -6   3 -2.7462 8.76878   1
   6   6  -3 55.6262 13.8915   1
  -6  -6   3 51.8601 11.0711   1
   5   6  -3 161.096 18.5151   1
  -5  -6   3 163.605 11.5987   1
   4   6  -3 45.9858 9.34169   1
  -4  -6   3 44.7887 5.90992   1
   3   6  -3 -3.1488 6.25448   1
  -3  -6   3 14.2270 3.68793   1
   2   6  -3 13.3571 5.58423   1
  -2  -6   3 16.7335 3.44136   1
  -1  -6   3 239.799 8.80132   1
   0   6  -3 288.845 14.1253  -2
   0  -6   3 288.845 14.1253   1
   1  -6   3 88.8069 4.74406   1
   2  -6   3 7.62074 3.13056   1
   3  -6   3 10.5875 3.84193   1
   4  -6   3 3.46946 9.88782   1
   5  -6   3 11.1178 5.81700   1
   6  -6   3 25.2761 7.57819   1
   8   5  -3 -15.391 11.5083   1
  -8  -5   3 -7.4674 10.0476   1
   7   5  -3 -2.9095 10.2441   1
  -7  -5   3 2.72617 9.16859   1
   6   5  -3 120.998 19.0766   1
  -6  -5   3 126.495 15.6197   1
   5   5  -3 -3.4035 3.90296   1
  -5  -5   3 0.72145 4.27589   1
   4   5  -3 157.700 10.0566   1
  -4  -5   3 135.328 9.64575   1
   3   5  -3 -3.4140 2.64236   1
  -3  -5   3 2.36528 2.90732   1
   2   5  -3 308.870 14.9657   1
  -2  -5   3 283.436 12.8133   1
   1   5  -3 14.6617 4.13492   1
  -1  -5   3 10.9144 2.27435   1
   0   5  -3 431.566 16.3842  -2
   0  -5   3 431.566 16.3842   1
   1  -5   3 19.3776 2.47193   1
  -2   5  -3 53.0150 9.21387   1
   2  -5   3 74.6582 5.33507   1
  -3   5  -3 -1.1271 6.75507   1
   3  -5   3 5.10585 3.23213   1
  -4   5  -3 7.02070 9.88990   1
   4  -5   3 41.8287 5.80137   1
   5  -5   3 -4.3714 5.05823   1
   6  -5   3 81.7498 10.0689   1
   8   4  -3 12.6021 13.6003   1
  -8  -4   3 -13.772 18.2118   1
   7   4  -3 30.8293 12.5936   1
  -7  -4   3 39.0692 12.0566   1
   6   4  -3 25.9413 5.81647   1
  -6  -4   3 31.9394 9.99108   1
   5   4  -3 261.623 17.0050   1
  -5  -4   3 290.794 16.4307   1
   4   4  -3 18.5888 7.48835   1
  -4  -4   3 37.8376 5.04556   1
   3   4  -3 1.16020 2.80015   1
  -3  -4   3 4.16245 2.92662   1
   2   4  -3 3.63315 2.49060   1
  -2  -4   3 7.11925 2.19575   1
   1   4  -3 536.195 24.3277   1
  -1  -4   3 518.393 19.8157   1
   0   4  -3 46.3784 2.58984  -2
   0  -4   3 46.3784 2.58984   1
  -1   4  -3 386.629 26.6020   1
   1  -4   3 393.620 13.2587   1
  -2   4  -3 58.5753 6.24174   1
   2  -4   3 66.5730 4.58884   1
  -3   4  -3 68.6054 10.6939   1
   3  -4   3 97.8919 6.77295   1
  -4   4  -3 70.5625 11.7323   1
   4  -4   3 78.7684 6.53019   1
   5  -4   3 140.025 11.5086   1
   6  -4   3 58.7783 8.56074   1
   7   9   1 -4.8453 21.2974  -2
   7  -4   3 -4.8453 21.2974   1
   8   3  -3 -4.2257 12.1608   1
  -8  -3   3 -2.0515 10.4052   1
   7   3  -3 1.52634 5.72624   1
  -7  -3   3 -4.3834 8.38313   1
   6   3  -3 90.0044 9.60108   1
  -6  -3   3 89.7810 14.0031   1
   5   3  -3 322.386 18.6303   1
  -5  -3   3 333.711 26.4607   1
   4   3  -3 5.77558 3.42566   1
  -4  -3   3 14.9486 4.08818   1
   3   3  -3 9.84984 5.64615   1
  -3  -3   3 11.0217 3.27273   1
   2   3  -3 72.3919 8.50189   1
  -2  -3   3 72.6064 4.60604   1
   1   3  -3 700.062 30.9835   1
  -1  -3   3 670.389 25.2851   1
   0  -3   3 181.186 13.3367  -2
   0   3  -3 181.186 13.3367   1
   0   3  -3 183.188 12.9891  -2
   0  -3   3 183.188 12.9891   1
  -1   3  -3 80.2522 5.57680   1
   1  -3   3 90.5182 4.62180   1
  -2   3  -3 -5.6711 3.03338   1
   2  -3   3 -1.9134 1.92570   1
   3  -3   3 104.712 6.43055   1
  -4   3  -3 28.0836 9.27180   1
   4  -3   3 43.6015 5.00560   1
  -5   3  -3 22.6759 10.1162   1
   5  -3   3 54.2452 7.43571   1
   6  -3   3 96.3399 10.3228   1
   7   8   1 27.1611 21.4063  -2
   7  -3   3 27.1611 21.4063   1
   8   2  -3 6.90002 12.9956   1
  -8  -2   3 8.39470 11.1816   1
   7   2  -3 4.00372 5.96557   1
  -7  -2   3 1.64990 9.22023   1
   6   2  -3 217.627 16.0055   1
  -6  -2   3 224.776 22.0904   1
   5   2  -3 5.97809 4.46036   1
  -5  -2   3 5.40143 6.69319   1
   4   2  -3 217.090 12.8595   1
  -4  -2   3 212.142 12.4581   1
   3   2  -3 -0.9707 2.78433   1
  -3  -2   3 2.21744 2.84567   1
   2   2  -3 36.4015 3.98661   1
  -2  -2   3 41.6567 3.44675   1
   1   2  -3 5.22481 2.85327   1
  -1  -2   3 4.87490 1.71245   1
   0   2  -3 853.758 53.3441  -2
   0  -2   3 853.758 53.3441   1
  -1   2  -3 8.12490 2.56189   1
   1  -2   3 9.72160 1.76199   1
  -2   2  -3 357.612 25.2782   1
   2  -2   3 361.292 14.4617   1
  -3   2  -3 1.29083 4.75761   1
   3  -2   3 3.12906 2.38258   1
  -4   2  -3 598.123 43.2389   1
   4  -2   3 631.270 24.9945   1
  -5   2  -3 19.9184 8.35005   1
   5  -2   3 -3.9230 4.26987   1
  -6   2  -3 200.250 21.6431   1
   6  -2   3 180.130 13.6356   1
   7  -2   3 6.46012 6.09204   1
   8  -2   3 19.2762 13.6919   1
   8   1  -3 10.7538 9.43415   1
  -8  -1   3 4.22298 11.5671   1
   7   1  -3 36.7439 7.75283   1
  -7  -1   3 15.2665 11.5162   1
   6   1  -3 100.244 9.79415   1
  -6  -1   3 87.4186 14.1205   1
   5   1  -3 434.238 23.7845   1
  -5  -1   3 474.695 34.0400   1
   4   1  -3 125.999 9.44938   1
  -4  -1   3 153.685 14.0003   1
   3   1  -3 4.41162 3.00015   1
  -3  -1   3 -1.3718 2.85188   1
   2   1  -3 291.418 11.9368   1
  -2  -1   3 299.398 14.4838   1
   1   1  -3 149.185 6.47908   1
  -1  -1   3 146.553 6.51323   1
   0  -1   3 1012.31 36.9388  -2
   0   1  -3 1012.31 36.9388   1
   0   1  -3 1052.80 63.3159  -2
   0  -1   3 1052.80 63.3159   1
  -1   1  -3 327.052 12.3657   1
   1  -1   3 313.962 12.3060   1
  -2   1  -3 355.832 13.7066   1
   2  -1   3 322.867 13.3588   1
  -3   1  -3 26.6095 6.40433   1
   3  -1   3 21.5213 3.17058   1
  -4   1  -3 141.182 13.5794   1
   4  -1   3 114.069 8.64415   1
  -5   1  -3 147.763 16.5887   1
   5  -1   3 154.322 11.2418   1
  -6   1  -3 52.6687 11.9709   1
   6  -1   3 43.4395 7.23073   1
  -7   1  -3 28.6284 12.7477   1
   7  -1   3 36.8695 7.78253   1
   8  -1   3 -6.7753 6.24900   1
   8   0  -3 -2.8543 7.04186   1
   7   0  -3 14.9556 6.90234   1
  -7   0   3 13.7925 11.2840   1
   6   0  -3 -0.3517 5.23531   1
  -6   0   3 -5.5402 7.71696   1
   5   0  -3 237.058 14.9710   1
  -5   0   3 215.450 20.6244   1
   4   0  -3 7.64900 3.72908   1
  -4   0   3 7.06319 5.78928   1
   3   0  -3 52.9380 4.62375   1
  -3   0   3 50.4538 7.97120   1
   2   0  -3 88.0817 5.17659   1
  -2   0   3 90.1917 6.05059   1
   1   0  -3 1136.58 40.4872   1
  -1   0   3 1087.53 40.4084   1
   0   0   3 17.9280 2.64855  -2
   0   0  -3 17.9280 2.64855   1
   0   0  -3 18.1109 4.35242  -2
   0   0   3 18.1109 4.35242   1
  -1   0  -3 2109.22 75.1181   1
   1   0   3 2076.88 75.1011   1
  -2   0  -3 30.7286 3.01797   1
   2   0   3 36.0826 3.10199   1
  -3   0  -3 7.38106 2.89508   1
   3   0   3 6.23978 2.48531   1
  -4   0  -3 44.1305 8.00247   1
   4   0   3 30.2356 4.77770   1
  -5   0  -3 219.761 20.9606   1
   5   0   3 249.336 19.2031   1
  -6   0  -3 8.63754 8.68201   1
   6   0   3 18.0821 5.37253   1
  -7   0  -3 30.1976 12.2519   1
   7   0   3 43.9686 7.96374   1
  -8   0  -3 -0.2982 12.7233   1
   8   0   3 9.88832 7.31992   1
   8  -1  -3 -13.223 7.82134   1
   7  -1  -3 -6.6933 5.83201   1
   6  -1  -3 151.145 13.1819   1
  -6   1   3 206.693 20.3277   1
   5  -1  -3 94.1675 9.15494   1
  -5   1   3 82.8430 12.8112   1
   4  -1  -3 33.0414 5.21947   1
  -4   1   3 21.7238 6.70323   1
   3  -1  -3 78.4712 5.82481   1
  -3   1   3 76.6407 9.52515   1
   2  -1  -3 3.89055 2.21894   1
  -2   1   3 9.61147 3.95313   1
   1  -1  -3 196.266 8.41136   1
  -1   1   3 204.231 8.43594   1
   0   1   3 2119.17 75.9236  -2
   0  -1  -3 2119.17 75.9236   1
  -1  -1  -3 38.3493 3.06270   1
   1   1   3 41.1293 4.01770   1
  -2  -1  -3 1240.26 44.4590   1
   2   1   3 1191.98 44.3218   1
  -3  -1  -3 53.6809 4.91823   1
   3   1   3 53.6668 5.12096   1
  -4  -1  -3 197.929 10.8980   1
   4   1   3 158.031 10.6983   1
  -5  -1  -3 42.4238 9.30534   1
   5   1   3 56.5342 8.07543   1
  -6  -1  -3 90.5355 14.3255   1
   6   1   3 107.079 9.12794   1
  -7  -1  -3 27.5954 10.6556   1
   7   1   3 18.0297 6.52781   1
  -8  -1  -3 28.5532 13.4453   1
   8   1   3 8.28449 6.93217   1
   7  -2  -3 -4.8750 6.23251   1
   6  -2  -3 61.8742 8.83775   1
  -6   2   3 54.3573 12.7001   1
   5  -2  -3 49.6890 7.26072   1
  -5   2   3 64.0225 10.6787   1
   4  -2  -3 111.571 7.53831   1
  -4   2   3 126.163 13.1545   1
   3  -2  -3 16.4238 3.25059   1
  -3   2   3 8.95204 4.72949   1
   2  -2  -3 23.3306 3.11519   1
   1  -2  -3 598.795 22.3100   1
  -1   2   3 581.668 37.8566   1
   0   2   3 639.396 22.8095  -2
   0  -2  -3 639.396 22.8095   1
   0  -2  -3 562.580 38.2890  -2
   0   2   3 562.580 38.2890   1
  -1  -2  -3 87.1995 4.31338   1
   1   2   3 88.7123 4.24878   1
  -2  -2  -3 6.63972 1.96199   1
   2   2   3 7.76238 2.23751   1
  -3  -2  -3 90.6505 6.46562   1
   3   2   3 98.8782 7.11326   1
  -4  -2  -3 475.668 22.5693   1
   4   2   3 437.302 22.9815   1
  -5  -2  -3 115.967 9.12575   1
   5   2   3 130.963 9.52694   1
  -6  -2  -3 530.798 38.0329   1
   6   2   3 473.846 26.1745   1
  -7  -2  -3 10.7934 9.64569   1
   7   2   3 6.33787 5.37965   1
  -8  -2  -3 -0.3750 10.8535   1
   8   2   3 -2.4439 11.6726   1
  -9  -2  -3 2.82490 14.3363   1
   9   2   3 11.8307 15.1337   1
   7  -3  -3 29.1659 8.54038   1
   6  -3  -3 2.01471 5.93312   1
   5  -3  -3 281.657 17.3174   1
  -5   3   3 270.042 24.0123   1
   4  -3  -3 13.3658 4.09660   1
   3  -3  -3 9.77705 3.10736   1
  -3   3   3 4.25842 4.83979   1
   2  -3  -3 163.422 7.80338   1
  -2   3   3 146.391 12.6763   1
   1  -3  -3 709.702 26.5556   1
  -1   3   3 723.498 44.7999   1
   0   3   3 51.7805 4.70104  -2
   0  -3  -3 51.7805 4.70104   1
  -1  -3  -3 194.380 9.13706   1
   1   3   3 210.964 16.5420   1
  -2  -3  -3 9.09233 1.95285   1
   2   3   3 10.8524 1.96719   1
  -3  -3  -3 35.2742 4.00900   1
   3   3   3 45.4242 4.24738   1
  -4  -3  -3 129.866 8.54918   1
   4   3   3 142.823 15.0574   1
  -5  -3  -3 417.589 21.6590   1
   5   3   3 433.579 23.0146   1
  -6  -3  -3 -0.6649 7.14659   1
   6   3   3 2.17427 4.21238   1
  -7  -3  -3 22.4246 9.84291   1
   7   3   3 21.0183 6.21998   1
  -8  -3  -3 50.4790 14.0651   1
   8   3   3 36.3099 14.5148   1
  -9  -3  -3 13.4690 13.2696   1
   9   3   3 10.0741 13.6265   1
   7  -4  -3 8.63653 9.11778   1
   6  -4  -3 14.4690 7.21674   1
   5  -4  -3 43.4667 7.16792   1
   4  -4  -3 79.3689 6.71625   1
  -4   4   3 71.8976 11.3998   1
   3  -4  -3 -1.1896 2.90822   1
   2  -4  -3 1.34992 2.15765   1
  -2   4   3 14.4945 4.52470   1
   1  -4  -3 107.302 5.57993   1
   0   4   3 1762.16 63.5609  -2
   0  -4  -3 1762.16 63.5609   1
  -1  -4  -3 445.374 19.7287   1
   1   4   3 469.153 33.0147   1
  -2  -4  -3 115.834 6.07677   1
   2   4   3 110.404 13.1729   1
  -3  -4  -3 43.4343 4.04229   1
   3   4   3 48.0186 4.01676   1
  -4  -4  -3 451.172 21.9142   1
   4   4   3 457.339 22.6798   1
  -5  -4  -3 142.973 9.58761   1
   5   4   3 139.171 9.89504   1
  -6  -4  -3 224.342 21.4656   1
   6   4   3 237.956 24.8497   1
  -7  -4  -3 -5.1662 7.38833   1
  -8  -4  -3 26.2398 11.5659   1
   8   4   3 22.2792 13.0254   1
  -9  -4  -3 -2.5840 11.6375   1
   9   4   3 3.07055 12.9379   1
   6  -5  -3 162.548 14.4081   1
   5  -5  -3 60.3068 8.97203   1
   4  -5  -3 258.105 13.3423   1
   3  -5  -3 37.3033 4.57375   1
   2  -5  -3 89.1538 5.93135   1
   1  -5  -3 34.6696 3.34541   1
   0   5   3 1014.88 46.0933  -2
   0  -5  -3 1014.88 46.0933   1
  -1  -5  -3 12.2640 1.09223   1
   1   5   3 26.6134 7.76890   1
  -2  -5  -3 279.829 12.8513   1
   2   5   3 274.218 22.9259   1
  -3  -5  -3 51.1649 4.39964   1
   3   5   3 64.2818 10.6837   1
  -4  -5  -3 209.488 12.0824   1
   4   5   3 241.537 21.9669   1
  -5  -5  -3 36.6346 4.91036   1
   5   5   3 37.9324 5.11830   1
  -6  -5  -3 162.677 11.7241   1
   6   5   3 191.379 13.5424   1
  -7  -5  -3 -8.4228 7.25659   1
   7   5   3 -4.7311 9.15124   1
  -8  -5  -3 39.3869 12.7552   1
   8   5   3 70.8435 17.5425   1
   6  -6  -3 11.6148 7.23389   1
   5  -6  -3 107.082 11.2418   1
   4  -6  -3 0.10797 5.04043   1
   3  -6  -3 9.27454 3.89722   1
   2  -6  -3 92.8423 6.45162   1
   1  -6  -3 413.201 16.8178   1
   0   6   3 3.57292 1.92568  -2
   0  -6  -3 3.57292 1.92568   1
   1   6   3 525.880 39.3464   1
  -2  -6  -3 1.50492 1.26615   1
   2   6   3 -4.4050 6.16474   1
  -3  -6  -3 0.27794 2.33138   1
   3   6   3 0.67963 7.04415   1
  -4  -6  -3 52.8162 5.22492   1
   4   6   3 84.3242 13.6137   1
  -5  -6  -3 295.649 15.7697   1
   5   6   3 256.025 27.7979   1
  -6  -6  -3 54.8641 7.06068   1
   6   6   3 58.0950 13.9171   1
  -7  -6  -3 10.6595 8.06137   1
   7   6   3 27.6699 13.6136   1
  -8  -6  -3 8.69957 9.28337   1
   8   6   3 -3.6614 11.3029   1
   5  -7  -3 31.0108 7.29157   1
   4  -7  -3 17.7563 7.26934   1
   3  -7  -3 20.1642 4.49836   1
   2  -7  -3 -2.1382 3.11505   1
   1  -7  -3 75.8478 5.22979   1
   0   7   3 316.694 12.7154  -2
   0  -7  -3 316.694 12.7154   1
  -1  -7  -3 191.299 7.09928   1
  -2  -7  -3 39.0710 2.87010   1
   2   7   3 82.5610 12.9412   1
  -3  -7  -3 82.1121 5.54204   1
   3   7   3 102.899 20.1242   1
  -4  -7  -3 145.699 8.86603   1
   4  -4  -1 180.281 21.6079  -2
   4   7   3 180.281 21.6079   1
  -5  -7  -3 151.647 9.75243   1
   5   7   3 107.425 18.4366   1
  -6  -7  -3 48.2747 15.7460   1
   6   7   3 53.8930 14.8905   1
  -7  -7  -3 16.7283 8.32814   1
   7   7   3 0.60062 10.3819   1
  -8  -7  -3 -7.6480 8.06477   1
   8   7   3 -10.052 11.0242   1
   4  11   5 64.8681 13.4170  -2
   4  -8  -3 64.8681 13.4170   1
   3  -8  -3 2.89501 5.06654   1
   2  -8  -3 14.7457 4.03565   1
   1  -8  -3 2.55600 2.77422   1
   0   8   3 248.043 10.4081  -2
   0  -8  -3 248.043 10.4081   1
  -1  -8  -3 -0.2276 1.15058   1
  -2  -8  -3 44.8574 2.86019   1
   2   8   3 32.3037 11.6880   1
  -3  -8  -3 9.30968 2.47526   1
   3   8   3 11.8216 9.20868   1
  -4  -8  -3 225.169 12.0593   1
   4  -5  -1 226.187 25.9543  -2
   4   8   3 226.187 25.9543   1
  -5  -8  -3 6.59961 3.80803   1
   5   8   3 22.7025 11.1425   1
  -6  -8  -3 58.4888 9.83070   1
   6   8   3 24.0464 12.8574   1
  -7  -8  -3 12.2300 7.91614   1
   7   8   3 8.25127 12.4109   1
   8   8   3 -11.356 13.1997   1
   3  -9  -3 -2.9544 5.28869   1
   2  -9  -3 6.45244 4.74375   1
   1  -9  -3 90.3525 6.52659   1
   0   9   3 13.4314 3.09406  -2
   0  -9  -3 13.4314 3.09406   1
  -1  -9  -3 87.7073 4.11055   1
  -2  -9  -3 5.79291 8.80966   1
   2   9   3 -9.1544 10.2463   1
  -3  -9  -3 73.7343 5.05869   1
   3   9   3 82.8960 15.3865   1
  -4   6   1 5.92038 7.04135  -2
  -4  -9  -3 5.92038 7.04135   1
  -5  -9  -3 87.5334 7.25951   1
   5   9   3 73.5365 16.0109   1
  -6  -9  -3 8.35413 6.67142   1
   6   9   3 9.61629 11.8226   1
  -7  -9  -3 10.5341 7.89836   1
   7   9   3 5.24365 12.9292   1
   2 -10  -3 5.71135 5.88761   1
   1 -10  -3 68.2862 5.97752   1
   0  10   3 57.8228 4.45371  -2
   0 -10  -3 57.8228 4.45371   1
  -1 -10  -3 44.7566 2.64206   1
  -2 -10  -3 0.94867 8.81909   1
  -3 -10  -3 1.31340 2.34475   1
   3  10   3 8.31302 12.7583   1
  -4   7   1 55.3334 8.94365  -2
  -4 -10  -3 55.3334 8.94365   1
  -5 -10  -3 18.2567 4.72310   1
   5  10   3 30.9400 13.5328   1
  -6 -10  -3 2.30916 6.17633   1
   6  10   3 2.55023 13.1853   1
   0  11   3 151.614 11.7821  -2
   0 -11  -3 151.614 11.7821   1
  -1 -11  -3 7.52103 10.5119   1
  -2 -11  -3 31.3130 12.0359   1
  -3 -11  -3 -0.7495 11.9204   1
  -4   8   1 89.6129 10.6047  -2
  -4 -11  -3 89.6129 10.6047   1
  -5 -11  -3 31.3939 7.80728   1
   5  11   3 29.5326 15.7637   1
  -2 -11   4 37.1063 9.49012   1
  -5 -10   4 10.5352 9.13848   1
  -4 -10   4 23.7140 8.46204   1
  -3 -10   4 -6.2879 6.71128   1
  -2 -10   4 9.92042 7.19342   1
  -1 -10   4 18.8110 7.40234   1
   0  10  -4 41.7329 8.97010  -2
   0 -10   4 41.7329 8.97010   1
   1 -10   4 5.63943 9.00615   1
   6   9  -4 -0.8509 11.1374   1
  -6  -9   4 17.3336 10.5471   1
   5   9  -4 22.7176 10.9710   1
  -5  -9   4 17.6081 9.18176   1
   4  -6   6 4.43453 14.2587  -2
   4   9  -4 4.43453 14.2587   1
  -4   6  -6 12.1370 13.1631  -2
  -4  -9   4 12.1370 13.1631   1
   3   9  -4 99.1622 14.4463   1
  -3  -9   4 134.099 13.8370   1
  -2  -9   4 45.1759 6.83883   1
  -1  -9   4 17.3822 5.60441   1
   0   9  -4 15.3644 6.53312  -2
   0  -9   4 15.3644 6.53312   1
   1  -9   4 54.8283 8.84036   1
   2  -9   4 7.87051 5.91110   1
   3  -9   4 12.7803 6.93316   1
   7   8  -4 5.32605 11.6717   1
  -7  -8   4 1.35047 10.2632   1
   6   8  -4 6.26298 10.3002   1
  -6  -8   4 7.70330 9.49528   1
   5   8  -4 112.065 16.6886   1
  -5  -8   4 104.422 15.1709   1
   4  -5   6 15.6289 13.2114  -2
   4   8  -4 15.6289 13.2114   1
   3   8  -4 142.517 15.3137   1
  -3  -8   4 146.104 10.5089   1
  -2  -8   4 14.5666 5.32065   1
  -1  -8   4 -2.8356 2.57631   1
   0   8  -4 -8.7918 5.19632  -2
   0  -8   4 -8.7918 5.19632   1
   1  -8   4 58.2903 6.57172   1
   2  -8   4 12.7796 5.54045   1
   3  -8   4 8.57531 5.95859   1
   7   7  -4 -3.6290 10.6341   1
  -7  -7   4 -1.7055 8.89966   1
   6   7  -4 11.6274 9.95680   1
  -6  -7   4 9.81824 9.13309   1
   5   7  -4 1.90269 7.97619   1
  -5  -7   4 9.17024 10.0417   1
   4   7  -4 565.212 38.9317   1
  -4  -7   4 500.200 26.1291   1
   3   7  -4 27.4681 7.91322   1
  -3  -7   4 21.1932 4.93572   1
   2   7  -4 410.292 27.3261   1
  -2  -7   4 359.756 19.4108   1
  -1  -7   4 18.4936 2.45064   1
   0   7  -4 138.999 5.63439  -2
   0  -7   4 138.999 5.63439   1
   1  -7   4 60.2550 3.85395   1
   2  -7   4 233.616 11.3708   1
   3  -7   4 -2.6630 4.13391   1
   4  10  -2 -2.5196 11.3622  -2
   4  -7   4 -2.5196 11.3622   1
   5  -7   4 0.44788 6.89943   1
   8   6  -4 13.0499 14.5315   1
  -8  -6   4 4.95420 11.4045   1
   7   6  -4 -26.353 10.0120   1
  -7  -6   4 10.7029 10.3606   1
   6   6  -4 -3.3125 9.52178   1
  -6  -6   4 -1.8036 7.90092   1
   5   6  -4 59.3648 12.0063   1
  -5  -6   4 40.5466 8.06932   1
   4   6  -4 10.6594 7.15664   1
  -4  -6   4 23.0424 5.00611   1
   3   6  -4 187.122 16.9583   1
  -3  -6   4 197.589 11.8364   1
   2   6  -4 0.50928 4.89942   1
  -2  -6   4 5.55585 2.78244   1
  -1  -6   4 20.9356 2.21520   1
   0   6  -4 462.262 21.3933  -2
   0  -6   4 462.262 21.3933   1
   1  -6   4 264.828 11.4536   1
   2  -6   4 167.353 8.69887   1
   3  -6   4 161.650 9.26316   1
   4  -6   4 7.15467 4.95724   1
   5  -6   4 10.3299 6.18690   1
   6  -6   4 18.2678 8.11084   1
   8   5  -4 -0.9713 12.5773   1
  -8  -5   4 -15.990 10.3673   1
   7   5  -4 139.728 22.1214   1
  -7  -5   4 116.959 21.4889   1
   6   5  -4 -8.5220 9.43632   1
  -6  -5   4 19.5629 8.97744   1
   5   5  -4 60.9070 7.51708   1
  -5  -5   4 63.5403 7.76007   1
   4   5  -4 5.53020 4.09996   1
  -4  -5   4 14.9746 4.62009   1
   3   5  -4 517.350 24.3213   1
  -3  -5   4 439.459 23.4256   1
   2   5  -4 16.1144 3.22805   1
  -2  -5   4 15.1481 2.80332   1
   1   5  -4 6.98258 2.35302   1
  -1  -5   4 7.74793 2.13035   1
   0  -5   4 2.99490 4.50765  -2
   0   5  -4 2.99490 4.50765   1
   0   5  -4 4.83635 4.44698  -2
   0  -5   4 4.83635 4.44698   1
  -1   5  -4 236.413 18.5597   1
   1  -5   4 257.579 9.17570   1
  -2   5  -4 68.5448 6.97343   1
   2  -5   4 94.2274 5.72061   1
  -3   5  -4 36.4616 9.67440   1
   3  -5   4 47.2090 4.95414   1
   4  -5   4 12.3612 4.94595   1
   5  -5   4 32.3762 10.6271   1
   6  -5   4 0.64150 6.05790   1
   8   4  -4 29.3825 14.5585   1
  -8  -4   4 39.3714 13.9576   1
   7   4  -4 -13.033 10.5329   1
  -7  -4   4 -0.6638 9.23465   1
   6   4  -4 -2.3545 4.97341   1
  -6  -4   4 24.8056 9.57668   1
   5   4  -4 103.940 11.4138   1
  -5  -4   4 120.544 10.1647   1
   4   4  -4 110.444 14.3219   1
  -4  -4   4 122.932 9.03292   1
   3   4  -4 160.600 9.48167   1
  -3  -4   4 144.863 9.48261   1
   2   4  -4 266.235 13.5881   1
  -2  -4   4 264.409 11.2720   1
   1   4  -4 4.74398 2.07940   1
  -1  -4   4 12.3624 2.20904   1
   0  -4   4 96.4308 9.21409  -2
   0   4  -4 96.4308 9.21409   1
   0   4  -4 104.205 8.95082  -2
   0  -4   4 104.205 8.95082   1
  -1   4  -4 91.7193 9.31575   1
   1  -4   4 76.7178 3.59741   1
  -2   4  -4 443.450 22.9704   1
   2  -4   4 496.416 18.8738   1
  -3   4  -4 52.2311 9.76144   1
   3  -4   4 53.6338 5.03812   1
   4  -4   4 -2.8324 3.42135   1
   5  -4   4 0.96260 4.48360   1
   6  -4   4 55.3862 8.70345   1
   7   9   0 9.99276 20.6357  -2
   7  -4   4 9.99276 20.6357   1
   8   3  -4 29.4896 15.9002   1
  -8  -3   4 0.41720 11.7210   1
   7   3  -4 31.9381 8.07584   1
  -7  -3   4 26.4405 11.1026   1
   6   3  -4 -3.7937 4.91795   1
  -6  -3   4 -5.4664 7.81352   1
   5   3  -4 161.228 11.6022   1
  -5  -3   4 157.246 16.2035   1
   4   3  -4 550.318 27.1566   1
  -4  -3   4 540.068 26.6675   1
   3   3  -4 343.818 26.9294   1
  -3  -3   4 367.692 18.2478   1
   2   3  -4 426.837 30.4193   1
  -2  -3   4 439.906 17.2037   1
   1   3  -4 40.4730 5.74231   1
  -1  -3   4 49.4737 3.52644   1
   0   3  -4 494.490 32.2049  -2
   0  -3   4 494.490 32.2049   1
  -1   3  -4 41.3345 4.14189   1
   1  -3   4 39.7662 3.05950   1
  -2   3  -4 56.6891 6.58795   1
   2  -3   4 55.3227 4.19982   1
  -3   3  -4 35.7389 7.84468   1
   3  -3   4 46.0418 4.34913   1
  -4   3  -4 -8.2142 6.52971   1
   4  -3   4 -0.5678 3.06496   1
  -5   3  -4 10.9009 8.85571   1
   5  -3   4 9.72162 5.10547   1
   6  -3   4 33.7635 7.36174   1
   7   8   0 26.0573 20.7374  -2
   7  -3   4 26.0573 20.7374   1
   8   2  -4 -1.6204 14.1005   1
  -8  -2   4 -0.1672 11.3971   1
   7   2  -4 14.6929 6.89804   1
  -7  -2   4 9.30040 10.0752   1
   6   2  -4 2.30860 5.17342   1
  -6  -2   4 6.82636 8.40281   1
   5   2  -4 211.281 14.3092   1
  -5  -2   4 245.588 20.7659   1
   4   2  -4 2.47082 3.56964   1
  -4  -2   4 -0.5656 5.22007   1
   3   2  -4 608.103 29.2487   1
  -3  -2   4 609.019 28.7058   1
   2   2  -4 11.8387 3.35703   1
  -2  -2   4 16.7407 3.45043   1
   1   2  -4 125.461 7.62223   1
  -1  -2   4 127.222 7.14247   1
   0  -2   4 40.1877 2.83881  -2
   0   2  -4 40.1877 2.83881   1
   0   2  -4 45.6806 5.41865  -2
   0  -2   4 45.6806 5.41865   1
  -1   2  -4 393.623 19.1525   1
   1  -2   4 409.194 15.7704   1
  -2   2  -4 52.4977 5.65974   1
   2  -2   4 59.4389 4.20133   1
  -3   2  -4 157.594 15.0501   1
   3  -2   4 179.454 8.59914   1
  -4   2  -4 81.5403 12.4086   1
   4  -2   4 101.725 8.21192   1
  -5   2  -4 53.1982 12.0192   1
   5  -2   4 65.9737 7.50350   1
  -6   2  -4 24.3809 11.3450   1
   6  -2   4 -3.8263 4.86551   1
   7  -2   4 48.7561 8.48909   1
   8  -2   4 17.8959 13.4588   1
   8   1  -4 15.0957 14.6403   1
   7   1  -4 -4.2630 6.11906   1
  -7  -1   4 9.21658 11.0373   1
   6   1  -4 41.8477 7.64105   1
  -6  -1   4 35.9913 10.8020   1
   5   1  -4 26.7812 6.25309   1
  -5  -1   4 35.5455 9.80317   1
   4   1  -4 520.954 27.1958   1
  -4  -1   4 589.766 38.4002   1
   3   1  -4 123.818 8.34939   1
  -3  -1   4 110.073 11.5465   1
   2   1  -4 196.962 9.20070   1
  -2  -1   4 196.977 10.7223   1
   1   1  -4 167.253 7.25613   1
  -1  -1   4 158.904 7.18043   1
   0  -1   4 132.897 6.05204  -2
   0   1  -4 132.897 6.05204   1
   0   1  -4 150.833 10.8613  -2
   0  -1   4 150.833 10.8613   1
  -1   1  -4 346.235 13.1600   1
   1  -1   4 332.920 13.0909   1
  -2   1  -4 763.627 34.3434   1
   2  -1   4 722.989 27.7139   1
  -3   1  -4 182.158 14.1470   1
   3  -1   4 130.643 7.12076   1
  -4   1  -4 13.9899 6.81527   1
   4  -1   4 18.7153 4.17631   1
  -5   1  -4 25.4017 9.01513   1
   5  -1   4 14.8363 4.85105   1
  -6   1  -4 95.5485 15.2769   1
   6  -1   4 84.3865 9.21195   1
  -7   1  -4 29.8933 12.6255   1
   7  -1   4 13.4457 7.94013   1
   8  -1   4 18.1177 7.69924   1
   8   0  -4 56.4713 10.8174   1
   7   0  -4 4.76590 6.50653   1
  -7   0   4 7.55623 10.9424   1
   6   0  -4 36.3335 7.24445   1
  -6   0   4 24.5905 10.4213   1
   5   0  -4 86.4551 8.76576   1
  -5   0   4 41.5335 10.4212   1
   4   0  -4 334.492 18.3238   1
  -4   0   4 327.952 25.5376   1
   3   0  -4 266.297 12.0636   1
  -3   0   4 240.045 19.7130   1
   2   0  -4 150.583 7.40231   1
  -2   0   4 140.950 8.68522   1
   1   0  -4 109.063 5.55635   1
  -1   0   4 111.668 5.49959   1
   0   0   4 1539.35 55.5881  -2
   0   0  -4 1539.35 55.5881   1
   0   0  -4 1542.22 95.0628  -2
   0   0   4 1542.22 95.0628   1
  -1   0  -4 164.827 7.02180   1
   1   0   4 154.799 7.13363   1
  -2   0  -4 1354.24 49.0344   1
   2   0   4 1329.05 48.9295   1
  -3   0  -4 70.0174 6.35163   1
   3   0   4 78.7315 6.23589   1
  -4   0  -4 43.6518 10.2621   1
   4   0   4 44.7459 5.56032   1
  -5   0  -4 7.68199 7.28452   1
   5   0   4 15.5719 5.57289   1
  -6   0  -4 210.282 21.7311   1
   6   0   4 212.428 14.2770   1
  -7   0  -4 15.5337 11.0538   1
   7   0   4 7.78592 5.90875   1
   8   0   4 26.6220 8.18023   1
   8  -1  -4 4.18183 8.37182   1
   7  -1  -4 25.6902 7.91557   1
   6  -1  -4 10.1070 6.48218   1
  -6   1   4 -7.5462 7.58907   1
   5  -1  -4 128.169 10.9896   1
  -5   1   4 141.458 15.7168   1
   4  -1  -4 369.492 21.3472   1
  -4   1   4 421.302 29.3845   1
   3  -1  -4 241.194 10.8506   1
  -3   1   4 208.886 18.0630   1
   2  -1  -4 33.2755 3.53851   1
  -2   1   4 30.8965 5.69298   1
   1  -1  -4 66.4843 4.15470   1
  -1   1   4 57.8382 5.42830   1
   0   1   4 293.406 11.6562  -2
   0  -1  -4 293.406 11.6562   1
  -1  -1  -4 250.177 9.97789   1
   1   1   4 240.477 9.90334   1
  -2  -1  -4 56.5504 4.58639   1
   2   1   4 59.0117 4.66357   1
  -3  -1  -4 600.612 39.8274   1
   3   1   4 618.726 29.1187   1
  -4  -1  -4 -0.4854 2.76517   1
   4   1   4 2.61992 2.90028   1
  -5  -1  -4 38.9205 9.15088   1
   5   1   4 28.4696 5.28495   1
  -6  -1  -4 8.90426 8.33862   1
   6   1   4 8.11890 4.33415   1
  -7  -1  -4 166.352 20.0538   1
   7   1   4 141.638 12.6110   1
  -8  -1  -4 26.0892 13.9914   1
   8   1   4 35.7189 14.5007   1
   7  -2  -4 18.6441 7.91748   1
   6  -2  -4 4.78706 5.98497   1
  -6   2   4 -20.391 7.69527   1
   5  -2  -4 12.0018 5.88193   1
  -5   2   4 22.0850 8.59916   1
   4  -2  -4 136.099 8.43146   1
  -4   2   4 96.7855 12.8817   1
   3  -2  -4 404.282 16.7817   1
  -3   2   4 373.427 28.9093   1
   2  -2  -4 194.822 9.13877   1
   1  -2  -4 587.299 21.2801   1
  -1   2   4 478.961 35.6742   1
   0   2   4 46.0328 3.41428  -2
   0  -2  -4 46.0328 3.41428   1
   0  -2  -4 46.2982 4.93540  -2
   0   2   4 46.2982 4.93540   1
  -1  -2  -4 512.401 22.4800   1
   1   2   4 479.773 23.1924   1
  -2  -2  -4 596.678 27.1956   1
   2   2   4 599.323 41.1954   1
  -3  -2  -4 561.858 26.1664   1
   3   2   4 553.799 26.7639   1
  -4  -2  -4 3.64736 2.87571   1
   4   2   4 7.07712 2.78757   1
  -5  -2  -4 86.3643 7.94508   1
   5   2   4 94.0777 8.22065   1
  -6  -2  -4 53.6655 11.9593   1
   6   2   4 66.3146 7.79840   1
  -7  -2  -4 73.6489 14.2070   1
   7   2   4 63.8325 9.10534   1
  -8  -2  -4 10.5393 11.7336   1
   8   2   4 -0.5588 11.6661   1
  -9  -2  -4 7.20630 15.1365   1
   9   2   4 21.2708 15.2722   1
   7  -3  -4 7.58608 7.55950   1
   6  -3  -4 12.3609 6.61279   1
   5  -3  -4 2.50727 5.26529   1
  -5   3   4 -6.4711 8.06223   1
   4  -3  -4 447.941 19.5871   1
   3  -3  -4 31.9352 4.18122   1
  -3   3   4 34.5284 6.62715   1
   2  -3  -4 133.524 6.81365   1
  -2   3   4 96.2101 10.4776   1
   1  -3  -4 0.31804 1.92540   1
  -1   3   4 4.79180 3.13602   1
   0   3   4 3.33309 2.20688  -2
   0  -3  -4 3.33309 2.20688   1
   0  -3  -4 1.01479 2.65420  -2
   0   3   4 1.01479 2.65420   1
  -1  -3  -4 115.933 6.01204   1
   1   3   4 118.128 6.47686   1
  -2  -3  -4 398.794 18.5409   1
   2   3   4 400.824 19.3290   1
  -3  -3  -4 0.07662 2.24563   1
   3   3   4 4.26373 2.24601   1
  -4  -3  -4 17.5027 3.70678   1
   4   3   4 18.5302 7.15735   1
  -5  -3  -4 -0.5324 3.28492   1
   5   3   4 -1.8236 3.38122   1
  -6  -3  -4 208.643 20.8708   1
   6   3   4 221.212 14.3045   1
  -7  -3  -4 8.92004 9.47722   1
   7   3   4 5.71488 5.39717   1
  -8  -3  -4 101.817 17.8383   1
   8   3   4 110.820 20.5362   1
  -9  -3  -4 -4.5663 11.9154   1
   9   3   4 -12.979 12.4555   1
   7  -4  -4 20.2461 10.2810   1
   6  -4  -4 43.5961 8.91320   1
   5  -4  -4 75.9337 9.05437   1
   4  -4  -4 19.5215 4.72117   1
  -4   4   4 28.0506 8.67441   1
   3  -4  -4 472.349 19.0028   1
  -3   4   4 330.155 34.9636   1
   2  -4  -4 5.02784 2.65178   1
  -2   4   4 5.94393 4.34219   1
   1  -4  -4 48.6909 3.73704   1
   0   4   4 230.202 9.55261  -2
   0  -4  -4 230.202 9.55261   1
  -1  -4  -4 628.031 27.5585   1
   1   4   4 598.043 43.9861   1
  -2  -4  -4 245.380 11.7891   1
   2   4   4 251.280 21.0791   1
  -3  -4  -4 146.702 8.38702   1
   3   4   4 152.199 8.84818   1
  -4  -4  -4 54.4652 5.32406   1
   4   4   4 57.1321 5.36876   1
  -5  -4  -4 27.4709 4.65470   1
   5   4   4 19.4331 4.48993   1
  -6  -4  -4 -2.2837 4.35121   1
   6   4   4 9.49405 9.12737   1
  -7  -4  -4 90.1115 14.9594   1
   7   4   4 90.1462 18.8039   1
  -8  -4  -4 14.2504 12.7606   1
   8   4   4 21.0308 13.4647   1
  -9  -4  -4 -0.4700 12.1846   1
   9   4   4 -0.5659 13.0964   1
   6  -5  -4 12.8373 7.93967   1
   5  -5  -4 85.8648 9.93845   1
   4  -5  -4 3.85278 4.35664   1
   3  -5  -4 113.694 7.63680   1
   2  -5  -4 33.6196 3.84845   1
   1  -5  -4 18.2784 2.72123   1
   0   5   4 -0.4702 1.98342  -2
   0  -5  -4 -0.4702 1.98342   1
  -1  -5  -4 728.609 31.2719   1
   1   5   4 647.730 50.1513   1
  -2  -5  -4 694.233 30.6782   1
   2   5   4 681.427 48.9354   1
  -3  -5  -4 342.973 16.4299   1
   3   5   4 339.276 28.1427   1
  -4  -5  -4 13.0777 3.35608   1
   4   5   4 9.41879 11.1992   1
  -5  -5  -4 36.2936 4.93301   1
   5   5   4 40.2257 4.79039   1
  -6  -5  -4 38.6211 5.96553   1
   6   5   4 49.8951 8.33365   1
  -7  -5  -4 97.5278 15.9869   1
   7   5   4 138.852 20.8719   1
  -8  -5  -4 7.90861 9.84243   1
   8   5   4 5.00932 12.1691   1
   6  -6  -4 9.46589 14.5389   1
   5  -6  -4 6.57284 6.22760   1
   4  -6  -4 188.011 13.6089   1
   3  -6  -4 -1.6222 3.76413   1
   2  -6  -4 215.706 10.5046   1
   1  -6  -4 6.54182 2.70468   1
   0   6   4 188.653 8.27097  -2
   0  -6  -4 188.653 8.27097   1
  -1  -6  -4 9.60362 1.64650   1
   1   6   4 6.15547 7.85885   1
  -2  -6  -4 789.319 33.9291   1
   2   6   4 697.990 54.5425   1
  -3  -6  -4 4.99916 2.50266   1
   3   6   4 1.82372 7.09431   1
  -4  -6  -4 7.75418 2.90686   1
   4   6   4 -3.0882 7.47741   1
  -5  -6  -4 107.679 8.30234   1
   5   6   4 100.263 16.9899   1
  -6  -6  -4 118.199 10.0271   1
   6   6   4 169.585 20.8516   1
  -7  -6  -4 4.05176 7.91371   1
   7   6   4 -4.4742 10.0540   1
  -8  -6  -4 43.9888 12.6887   1
   8   6   4 52.2526 16.2054   1
   5  -7  -4 1.10737 6.62777   1
   4  -7  -4 203.373 15.0699   1
   3  -7  -4 46.1869 5.76745   1
   2  -7  -4 12.3072 3.53976   1
   1  -7  -4 19.5701 3.14718   1
   0   7   4 120.997 6.72187  -2
   0  -7  -4 120.997 6.72187   1
  -1  -7  -4 128.639 5.92713   1
  -2  -7  -4 47.0843 3.31195   1
   2   7   4 38.3088 12.1424   1
  -3  -7  -4 172.152 9.27778   1
   3   7   4 188.570 19.9960   1
  -4  -7  -4 11.9295 3.33417   1
   4   7   4 3.62128 9.18433   1
  -5  -7  -4 3.75451 3.54450   1
   5   7   4 0.83851 9.25354   1
  -6  -7  -4 52.5023 13.6877   1
   6   7   4 64.2203 15.4052   1
  -7  -7  -4 88.6923 14.1321   1
   7   7   4 96.2668 19.7484   1
  -8  -7  -4 70.9515 14.1183   1
   8   7   4 52.6366 17.4678   1
   4  -8  -4 2.00750 12.8032   1
   3  -8  -4 163.704 13.2863   1
   2  -8  -4 26.5777 4.42726   1
   1  -8  -4 15.5440 3.43845   1
   0   8   4 0.13493 2.53548  -2
   0  -8  -4 0.13493 2.53548   1
  -1  -8  -4 265.976 13.4197   1
  -2  -8  -4 24.7046 2.84977   1
   2   8   4 19.5276 11.3794   1
  -3  -8  -4 163.362 8.78665   1
   3   8   4 180.540 20.9960   1
  -4  -8  -4 6.69843 3.06734   1
   4  -5  -2 33.3970 16.9170  -2
   4   8   4 33.3970 16.9170   1
  -5  -8  -4 77.9313 8.29857   1
   5   8   4 63.2467 15.3948   1
  -6  -8  -4 9.77227 6.77238   1
   6   8   4 2.21720 11.8403   1
  -7  -8  -4 72.2032 12.4037   1
   7   8   4 50.1027 16.5361   1
   3  -9  -4 22.8566 5.87312   1
   2  -9  -4 48.2848 6.74523   1
   1  -9  -4 -1.4024 2.95933   1
   0   9   4 14.2742 3.18827  -2
   0  -9  -4 14.2742 3.18827   1
  -1  -9  -4 23.3903 1.70718   1
  -2  -9  -4 95.1683 16.4197   1
   2   9   4 84.7600 17.3474   1
  -3  -9  -4 11.6854 2.56971   1
   3   9   4 -7.7941 10.3856   1
  -4  -9  -4 11.9664 4.45687   1
  -5  -9  -4 24.7254 4.58114   1
   5   9   4 16.3165 14.1302   1
  -6  -9  -4 53.9412 10.0616   1
   6   9   4 67.1840 17.0753   1
  -7  -9  -4 8.18575 7.78228   1
   7   9   4 -2.0665 14.0280   1
   2 -10  -4 13.3739 13.1942   1
   1 -10  -4 4.71842 3.55820   1
   0  10   4 44.7619 4.08583  -2
   0 -10  -4 44.7619 4.08583   1
  -1 -10  -4 35.9597 11.5715   1
  -2 -10  -4 59.5746 13.2785   1
  -3 -10  -4 20.7815 2.82005   1
   3  10   4 20.6576 14.3840   1
  -4   7   2 13.4931 7.28711  -2
  -4 -10  -4 13.4931 7.28711   1
  -5 -10  -4 17.6096 4.54177   1
   5  10   4 15.5698 13.3038   1
  -6 -10  -4 30.1656 8.58362   1
   6  10   4 40.5734 16.1975   1
   0  11   4 3.67634 4.10120  -2
   0 -11  -4 3.67634 4.10120   1
  -1 -11  -4 165.845 21.2974   1
  -2 -11  -4 26.9416 12.5325   1
  -3 -11  -4 50.7158 14.6381   1
  -4 -11  -4 -6.0921 2.98017   1
  -5 -11  -4 26.1656 7.65401   1
   5  11   4 13.9332 14.9861   1
  -4 -10   5 4.79696 10.6178   1
  -3 -10   5 43.5369 10.2532   1
  -2 -10   5 2.61621 7.68762   1
  -1 -10   5 61.5708 10.4378   1
   0  10  -5 5.89967 8.77241  -2
   0 -10   5 5.89967 8.77241   1
   1 -10   5 -2.5997 5.74440   1
   6   9  -5 13.1894 12.5970   1
  -6  -9   5 11.7131 10.8885   1
   5   9  -5 -10.988 9.96095   1
  -5  -9   5 11.1453 9.48384   1
  -4  -9   5 2.87563 7.68940   1
  -3  -9   5 26.6209 9.07401   1
  -2  -9   5 94.3251 13.5284   1
  -1  -9   5 23.4025 7.45258   1
   0   9  -5 19.6402 7.70072  -2
   0  -9   5 19.6402 7.70072   1
   1  -9   5 -0.6514 5.24657   1
   2  -9   5 49.0883 9.00191   1
   6   8  -5 22.5813 11.7659   1
  -6  -8   5 23.0268 11.4810   1
   5   8  -5 2.15787 9.32930   1
  -5  -8   5 -6.0125 7.66929   1
   4  -5   7 6.96997 12.8778  -2
   4   8  -5 6.96997 12.8778   1
  -4   5  -7 25.0532 12.5622  -2
  -4  -8   5 25.0532 12.5622   1
   3   8  -5 28.0983 7.97934   1
  -3  -8   5 28.8118 5.92954   1
  -2  -8   5 27.5261 3.48868   1
  -1  -8   5 73.1276 8.15844   1
   0   8  -5 59.2617 13.2735  -2
   0  -8   5 59.2617 13.2735   1
   1  -8   5 0.12163 4.78513   1
   2  -8   5 40.2940 8.04236   1
   3  -8   5 15.1550 6.86050   1
   7   7  -5 25.4911 13.5671   1
  -7  -7   5 24.6877 12.6942   1
   6   7  -5 7.45434 10.3786   1
  -6  -7   5 -0.4136 8.72094   1
   5   7  -5 18.8633 9.22863   1
  -5  -7   5 22.6258 9.48480   1
   4   7  -5 3.80745 7.43929   1
  -4  -7   5 10.6819 6.05562   1
   3   7  -5 165.103 15.0207   1
  -3  -7   5 142.351 10.5348   1
   2   7  -5 51.3404 8.09616   1
  -2  -7   5 54.1008 5.04405   1
  -1  -7   5 131.907 9.93640   1
   0   7  -5 35.0352 5.87468  -2
   0  -7   5 35.0352 5.87468   1
   1  -7   5 22.5884 4.95562   1
   2  -7   5 7.64660 5.26052   1
   3  -7   5 56.9582 9.12981   1
   4  -7   5 -0.0830 6.01424   1
   5  -7   5 23.1023 9.06878   1
   7   6  -5 16.6481 12.9197   1
  -7  -6   5 -0.5208 9.70752   1
   6   6  -5 71.0021 15.0389   1
  -6  -6   5 63.9655 13.5214   1
   5   6  -5 11.3613 9.08484   1
  -5  -6   5 6.50945 8.61715   1
   4   6  -5 -2.9124 4.09850   1
  -4  -6   5 -0.7856 4.47985   1
   3   6  -5 67.2877 9.57763   1
  -3  -6   5 45.0348 6.96992   1
   2   6  -5 454.952 29.3885   1
  -2  -6   5 402.168 17.1411   1
  -1  -6   5 27.6601 5.19690   1
   0   6  -5 456.618 31.1737  -2
   0  -6   5 456.618 31.1737   1
   1  -6   5 9.70906 3.81725   1
   2  -6   5 50.5672 4.74697   1
   3  -6   5 135.063 9.32658   1
   4   9  -3 124.493 17.4496  -2
   4  -6   5 124.493 17.4496   1
   5  -6   5 14.0300 6.30300   1
   8   5  -5 38.8274 16.9582   1
  -8  -5   5 57.3170 16.6286   1
   7   5  -5 36.3977 14.0759   1
  -7  -5   5 5.33037 10.2405   1
   6   5  -5 117.890 18.1582   1
  -6  -5   5 81.8132 14.5270   1
   5   5  -5 -2.6511 5.45248   1
  -5  -5   5 -4.8970 7.39636   1
   4   5  -5 38.7798 5.80604   1
  -4  -5   5 48.9925 6.64920   1
   3   5  -5 69.1031 6.55421   1
  -3  -5   5 59.1173 6.33704   1
   2   5  -5 650.980 28.1207   1
  -2  -5   5 518.317 22.2726   1
   1   5  -5 19.2023 4.72721   1
  -1  -5   5 18.4560 2.04827   1
   0  -5   5 7.72699 5.65448  -2
   0   5  -5 7.72699 5.65448   1
   0   5  -5 10.5020 5.07705  -2
   0  -5   5 10.5020 5.07705   1
  -1   5  -5 5.71976 4.90018   1
   1  -5   5 14.8532 3.87840   1
  -2   5  -5 569.376 47.5838   1
   2  -5   5 729.449 27.0704   1
  -3   5  -5 20.8957 9.49674   1
   3  -5   5 16.5647 3.77853   1
   4   8  -3 182.895 18.8614  -2
   4  -5   5 182.895 18.8614   1
   5  -5   5 68.2671 8.32552   1
   6  -5   5 0.45750 5.79015   1
   8   4  -5 4.82020 12.9929   1
  -8  -4   5 -10.789 12.1207   1
   7   4  -5 96.2416 19.5019   1
  -7  -4   5 113.365 17.8384   1
   6   4  -5 0.47183 5.52944   1
  -6  -4   5 5.82979 8.89024   1
   5   4  -5 115.329 10.1621   1
  -5  -4   5 113.024 14.3435   1
   4   4  -5 11.8353 4.94967   1
  -4  -4   5 12.4656 6.85189   1
   3   4  -5 146.493 13.7908   1
  -3  -4   5 132.068 9.30087   1
   2   4  -5 33.1502 3.99877   1
  -2  -4   5 27.5026 3.43153   1
   1   4  -5 436.100 20.4608   1
  -1  -4   5 434.450 16.9958   1
   0  -4   5 14.9191 5.61120  -2
   0   4  -5 14.9191 5.61120   1
   0   4  -5 11.7090 5.02484  -2
   0  -4   5 11.7090 5.02484   1
  -1   4  -5 -4.5389 4.53467   1
   1  -4   5 5.35258 2.88771   1
  -2   4  -5 4.94046 3.52064   1
   2  -4   5 0.95873 2.21693   1
   3  -4   5 177.966 9.20513   1
   4  -4   5 0.10580 3.72778   1
   5  -4   5 34.5383 6.59661   1
   6  -4   5 6.35537 9.48751   1
   7   9  -1 55.5987 21.1627  -2
   7  -4   5 55.5987 21.1627   1
   8   3  -5 0.47927 14.1615   1
  -8  -3   5 12.3894 13.0274   1
   7   3  -5 53.1742 15.7443   1
  -7  -3   5 40.7010 12.9185   1
   6   3  -5 78.1850 9.27953   1
  -6  -3   5 45.9677 12.5337   1
   5   3  -5 30.4031 6.10026   1
  -5  -3   5 24.0873 8.89692   1
   4   3  -5 5.06234 4.06120   1
  -4  -3   5 8.10112 4.39765   1
   3   3  -5 758.735 35.6837   1
  -3  -3   5 754.058 35.3306   1
   2   3  -5 213.547 11.6822   1
  -2  -3   5 210.713 10.0481   1
   1   3  -5 1180.75 79.1347   1
  -1  -3   5 1256.03 45.3122   1
   0   3  -5 76.6266 7.89664  -2
   0  -3   5 76.6266 7.89664   1
   1  -3   5 9.38313 1.80735   1
  -2   3  -5 3.57228 2.93759   1
   2  -3   5 2.86172 2.19617   1
  -3   3  -5 310.965 25.8211   1
   3  -3   5 344.637 14.4613   1
  -4   3  -5 20.9230 9.06346   1
   4  -3   5 33.1001 5.22752   1
  -5   3  -5 45.6494 12.7731   1
   5  -3   5 73.2473 8.18737   1
   6  -3   5 5.76728 5.57872   1
   7  -3   5 -7.6262 10.2273   1
   8   2  -5 3.71267 14.3839   1
  -8  -2   5 26.2695 14.2213   1
   7   2  -5 2.67126 6.69013   1
  -7  -2   5 -7.0483 10.0052   1
   6   2  -5 95.6627 10.7122   1
  -6  -2   5 103.118 15.4645   1
   5   2  -5 4.95015 4.96804   1
  -5  -2   5 -0.8994 7.07498   1
   4   2  -5 7.69346 4.36731   1
  -4  -2   5 4.56127 6.18277   1
   3   2  -5 100.574 7.60657   1
  -3  -2   5 91.2953 7.28567   1
   2   2  -5 1298.95 58.3624   1
  -2  -2   5 1273.26 57.5440   1
   1   2  -5 134.583 8.02908   1
  -1  -2   5 130.996 6.43486   1
   0  -2   5 306.519 11.7700  -2
   0   2  -5 306.519 11.7700   1
  -1   2  -5 62.6875 4.84387   1
   1  -2   5 63.5501 3.95847   1
  -2   2  -5 461.796 23.1974   1
   2  -2   5 497.314 18.8906   1
  -3   2  -5 22.8879 6.87000   1
   3  -2   5 19.2642 3.18811   1
  -4   2  -5 319.389 26.0219   1
   4  -2   5 328.504 17.7319   1
  -5   2  -5 -0.0936 8.28934   1
   5  -2   5 3.29018 4.33811   1
  -6   2  -5 12.7963 10.7164   1
   6  -2   5 2.37615 5.15392   1
   7  -2   5 -3.1480 5.24666   1
   8  -2   5 10.9910 9.11415   1
   8   1  -5 7.07524 14.2661   1
   7   1  -5 113.993 12.2945   1
  -7  -1   5 113.311 18.4320   1
   6   1  -5 29.1488 7.24723   1
  -6  -1   5 -3.2698 8.43613   1
   5   1  -5 25.8720 5.91068   1
  -5  -1   5 18.4566 8.98278   1
   4   1  -5 11.1450 4.47034   1
  -4  -1   5 3.05232 6.11233   1
   3   1  -5 579.413 28.2146   1
   2   1  -5 208.023 11.3231   1
  -2  -1   5 185.502 10.8631   1
   1   1  -5 76.3487 4.60272   1
  -1  -1   5 70.4535 4.66394   1
   0  -1   5 38.2555 3.24285  -2
   0   1  -5 38.2555 3.24285   1
   0   1  -5 25.3696 5.74915  -2
   0  -1   5 25.3696 5.74915   1
  -1   1  -5 414.488 15.9781   1
   1  -1   5 408.844 15.9459   1
  -2   1  -5 70.3656 5.97776   1
   2  -1   5 70.6010 4.58829   1
  -3   1  -5 470.540 32.0430   1
   3  -1   5 434.024 18.6094   1
  -4   1  -5 6.85275 6.58864   1
   4  -1   5 1.76683 3.41998   1
  -5   1  -5 61.3186 13.7838   1
   5  -1   5 83.7810 10.4892   1
  -6   1  -5 2.20323 9.42535   1
   6  -1   5 12.1093 5.35701   1
  -7   1  -5 35.1708 14.2887   1
   7  -1   5 41.8059 10.1000   1
   8  -1   5 5.46699 7.26608   1
   8   0  -5 2.51089 8.56626   1
   7   0  -5 27.2631 8.07333   1
  -7   0   5 39.0661 14.4655   1
   6   0  -5 6.06048 6.01002   1
  -6   0   5 13.7718 9.79395   1
   5   0  -5 -0.7123 4.65644   1
  -5   0   5 4.68660 7.60722   1
   4   0  -5 66.1634 9.30387   1
  -4   0   5 53.8689 9.96453   1
   3   0  -5 224.161 13.3451   1
  -3   0   5 258.078 19.0115   1
   2   0  -5 549.300 21.7564   1
  -2   0   5 592.334 37.4317   1
   1   0  -5 699.456 26.3183   1
  -1   0   5 702.498 31.8414   1
   0   0   5 8.02873 2.75590  -2
   0   0  -5 8.02873 2.75590   1
   0   0  -5 0.92567 3.79104  -2
   0   0   5 0.92567 3.79104   1
  -1   0  -5 58.8448 4.00872   1
   1   0   5 67.8358 4.18926   1
  -2   0  -5 223.864 10.1376   1
   2   0   5 225.846 9.78933   1
  -3   0  -5 446.717 30.7399   1
   3   0   5 426.348 21.2814   1
  -4   0  -5 61.1628 10.3312   1
   4   0   5 64.2191 6.71779   1
  -5   0  -5 24.2025 8.97753   1
   5   0   5 37.8153 5.81748   1
  -6   0  -5 24.0998 10.5202   1
   6   0   5 17.7504 5.76233   1
  -7   0  -5 51.4663 14.2953   1
   7   0   5 47.9096 7.99834   1
  -8   0  -5 -1.5208 18.8320   1
   8   0   5 11.2529 7.42406   1
   7  -1  -5 -6.4774 6.37291   1
   6  -1  -5 173.264 14.8576   1
  -6   1   5 198.492 21.7074   1
   5  -1  -5 16.0579 6.06571   1
  -5   1   5 25.2349 8.77049   1
   4  -1  -5 14.1195 5.08662   1
  -4   1   5 1.62390 6.08635   1
   3  -1  -5 5.49023 2.83582   1
  -3   1   5 -7.0815 4.54037   1
   2  -1  -5 444.684 17.7325   1
  -2   1   5 424.696 30.0557   1
   1  -1  -5 76.6297 4.78758   1
  -1   1   5 72.1680 7.66608   1
   0   1   5 0.55552 2.89613  -2
   0  -1  -5 0.55552 2.89613   1
  -1  -1  -5 107.722 5.59884   1
   1   1   5 109.306 7.26646   1
  -2  -1  -5 290.624 14.4058   1
   2   1   5 284.332 19.7044   1
  -3  -1  -5 -1.9590 2.85518   1
   3   1   5 5.37252 2.63325   1
  -4  -1  -5 495.513 36.6214   1
   4   1   5 524.983 25.7584   1
  -5  -1  -5 9.35118 7.32467   1
   5   1   5 4.69462 3.77448   1
  -6  -1  -5 16.7297 9.69169   1
   6   1   5 12.1720 5.13064   1
  -7  -1  -5 -4.9942 13.1999   1
   7   1   5 0.41466 5.16509   1
  -8  -1  -5 87.3369 19.5794   1
   8   1   5 114.228 20.6721   1
   7  -2  -5 71.2276 10.9559   1
   6  -2  -5 65.6842 9.60759   1
   5  -2  -5 62.9177 8.64228   1
  -5   2   5 47.4564 10.3454   1
   4  -2  -5 94.3557 7.30840   1
  -4   2   5 79.7037 12.0459   1
   3  -2  -5 144.627 8.05483   1
  -3   2   5 110.499 16.5000   1
   2  -2  -5 1232.37 45.8131   1
   1  -2  -5 354.252 14.3920   1
   0   2   5 424.010 16.0409  -2
   0  -2  -5 424.010 16.0409   1
   0  -2  -5 385.711 26.5711  -2
   0   2   5 385.711 26.5711   1
  -1  -2  -5 9.71105 2.34988   1
   1   2   5 11.5266 2.57628   1
  -2  -2  -5 136.586 7.71825   1
   2   2   5 124.683 13.2854   1
  -3  -2  -5 255.392 13.4463   1
   3   2   5 258.569 13.8751   1
  -4  -2  -5 188.619 11.3177   1
   4   2   5 193.703 11.5613   1
  -5  -2  -5 41.0174 9.07373   1
   5   2   5 26.0630 4.89275   1
  -6  -2  -5 0.92957 8.49030   1
   6   2   5 0.21656 4.11851   1
  -7  -2  -5 40.0228 11.8912   1
   7   2   5 26.3860 6.65220   1
  -8  -2  -5 43.3182 14.3928   1
   8   2   5 39.3857 15.2819   1
   7  -3  -5 40.7504 9.27777   1
   6  -3  -5 45.1981 8.67401   1
   5  -3  -5 16.9000 6.03220   1
  -5   3   5 19.4803 13.8908   1
   4  -3  -5 7.02873 3.81899   1
   3  -3  -5 359.821 15.8982   1
  -3   3   5 369.730 26.6449   1
   2  -3  -5 22.9311 3.30159   1
  -2   3   5 17.8021 4.95051   1
   1  -3  -5 743.100 28.6832   1
  -1   3   5 799.976 48.5007   1
   0   3   5 375.805 14.8202  -2
   0  -3  -5 375.805 14.8202   1
  -1  -3  -5 11.5308 2.41824   1
   1   3   5 20.9778 6.30846   1
  -2  -3  -5 41.3375 3.90880   1
   2   3   5 43.1288 4.21182   1
  -3  -3  -5 572.016 26.8227   1
   3   3   5 576.252 27.5627   1
  -4  -3  -5 10.4288 3.36880   1
   4   3   5 6.66417 6.31079   1
  -5  -3  -5 204.404 12.1269   1
   5   3   5 181.494 12.0337   1
  -6  -3  -5 7.50763 7.67306   1
   6   3   5 -0.5392 4.28503   1
  -7  -3  -5 5.42192 9.13827   1
   7   3   5 23.0742 7.10382   1
  -8  -3  -5 0.25939 10.8140   1
   8   3   5 2.46597 11.8137   1
  -9  -3  -5 9.26896 13.9797   1
   9   3   5 14.0308 14.6338   1
   6  -4  -5 -1.1146 6.68494   1
   5  -4  -5 88.7281 10.8040   1
   4  -4  -5 167.992 10.2310   1
  -4   4   5 170.844 17.3879   1
   3  -4  -5 8.03438 3.74149   1
  -3   4   5 8.95751 8.78475   1
   2  -4  -5 414.341 17.1346   1
  -2   4   5 405.586 28.3358   1
   1  -4  -5 235.409 10.3056   1
   0   4   5 10.9415 2.66040  -2
   0  -4  -5 10.9415 2.66040   1
  -1  -4  -5 2.12624 2.01967   1
   1   4   5 13.6457 7.12113   1
  -2  -4  -5 132.989 7.36452   1
   2   4   5 145.692 14.8160   1
  -3  -4  -5 356.437 17.0577   1
   3   4   5 338.173 17.6612   1
  -4  -4  -5 286.645 14.9712   1
   4   4   5 281.359 15.4956   1
  -5  -4  -5 11.0878 3.93915   1
   5   4   5 16.1217 4.21277   1
  -6  -4  -5 1.22287 5.51527   1
   6   4   5 -3.2085 8.54487   1
  -7  -4  -5 18.0852 10.0240   1
   7   4   5 16.2401 11.1906   1
  -8  -4  -5 40.0309 18.6890   1
   8   4   5 28.0619 14.0585   1
   9   4   5 -0.5263 13.3371   1
   6  -5  -5 94.0889 11.6548   1
   5  -5  -5 5.60991 5.93500   1
   4  -5  -5 15.6301 5.64935   1
   3  -5  -5 -7.6698 3.27463   1
   2  -5  -5 47.1666 4.67605   1
   1  -5  -5 74.1093 4.90100   1
   0   5   5 9.70499 2.57538  -2
   0  -5  -5 9.70499 2.57538   1
  -1  -5  -5 18.4172 2.58606   1
   1   5   5 16.2042 8.47457   1
  -2  -5  -5 14.5989 2.37448   1
   2   5   5 7.41133 6.62982   1
  -3  -5  -5 211.321 11.0243   1
   3   5   5 210.961 20.4261   1
  -4  -5  -5 334.211 17.2079   1
   4   5   5 352.301 29.5912   1
  -5  -5  -5 22.9803 4.30092   1
   5   5   5 23.1255 4.44537   1
  -6  -5  -5 6.20928 4.47854   1
   6   5   5 10.0964 4.80105   1
  -7  -5  -5 5.51406 8.28262   1
   7   5   5 25.4712 12.4111   1
  -8  -5  -5 53.4501 13.6156   1
   8   5   5 47.4964 15.9270   1
   5  -6  -5 40.3183 8.63236   1
   4  -6  -5 5.61161 5.54410   1
   3  -6  -5 246.200 12.5589   1
   2  -6  -5 79.7118 6.26117   1
   1  -6  -5 404.040 16.6318   1
   0   6   5 40.7471 5.01471  -2
   0  -6  -5 40.7471 5.01471   1
  -1  -6  -5 66.7193 5.06287   1
   1   6   5 70.2334 13.2453   1
  -2  -6  -5 3.18419 1.89911   1
   2   6   5 -12.567 6.02696   1
  -3  -6  -5 663.595 41.2094   1
   3   6   5 566.368 47.0414   1
  -4  -6  -5 1.35662 2.73824   1
   4  -3  -3 -7.8848 13.4458  -2
   4   6   5 -7.8848 13.4458   1
  -5  -6  -5 17.9530 4.35935   1
   5   6   5 11.3006 9.79406   1
  -6  -6  -5 4.44272 4.39045   1
   6   6   5 0.65149 10.5454   1
  -7  -6  -5 5.67847 8.75430   1
   7   6   5 19.9736 12.8507   1
  -8  -6  -5 -4.9345 8.85542   1
   8   6   5 -0.5594 12.0351   1
   5  -7  -5 -1.9560 8.46195   1
   4  -7  -5 12.5543 6.24161   1
   3  -7  -5 67.1610 8.18156   1
   2  -7  -5 46.0526 4.86236   1
   1  -7  -5 27.9406 3.68306   1
   0   7   5 184.392 8.59936  -2
   0  -7  -5 184.392 8.59936   1
  -1  -7  -5 -0.6562 1.76631   1
  -2  -7  -5 6.06647 2.05033   1
   2   7   5 0.28717 8.83013   1
  -3  -7  -5 43.1388 4.21919   1
   3   7   5 36.9188 11.3936   1
  -4  -7  -5 340.300 17.1921   1
   4  -4  -3 333.131 31.5129  -2
   4   7   5 333.131 31.5129   1
  -5  -7  -5 4.88899 3.83528   1
   5   7   5 17.3751 10.3181   1
  -6  -7  -5 -9.5022 5.85603   1
  -7  -7  -5 2.44226 7.91607   1
   7   7   5 17.0437 13.1059   1
  -8  -7  -5 29.9196 11.0786   1
   8   7   5 27.9289 15.5756   1
   4  -8  -5 39.7445 15.2734   1
   3  -8  -5 2.77553 5.16816   1
   2  -8  -5 319.583 14.9591   1
   1  -8  -5 6.92478 3.18423   1
   0   8   5 115.946 6.34027  -2
   0  -8  -5 115.946 6.34027   1
  -1  -8  -5 1.35294 1.74834   1
  -2  -8  -5 98.7536 5.51741   1
   2   8   5 56.8601 15.2060   1
  -3  -8  -5 0.33926 2.49621   1
   3   8   5 9.36253 10.0861   1
  -4  -8  -5 216.098 11.9539   1
   4  -5  -3 276.258 29.1410  -2
   4   8   5 276.258 29.1410   1
  -5  -8  -5 0.41792 3.69803   1
   5   8   5 -2.7375 9.49235   1
  -6  -8  -5 -1.2314 6.42997   1
   6   8   5 -12.863 10.5638   1
  -7  -8  -5 6.90495 7.78060   1
   7   8   5 32.3524 15.0118   1
  -8  -8  -5 31.7172 12.4130   1
   8   8   5 39.0043 18.0670   1
   3  -9  -5 21.5955 14.7074   1
   2  -9  -5 10.9496 4.95180   1
   1  -9  -5 186.293 9.97358   1
   0   9   5 26.2552 4.93782  -2
   0  -9  -5 26.2552 4.93782   1
  -1  -9  -5 7.12736 1.50878   1
  -2  -9  -5 25.3333 11.4722   1
   2   9   5 55.0602 15.8796   1
  -3  -9  -5 208.287 10.6401   1
   3   9   5 196.492 24.4289   1
  -4  -9  -5 4.85997 3.20311   1
  -5  -9  -5 78.4487 7.35677   1
   5   9   5 39.4461 15.8301   1
  -6  -9  -5 9.54287 6.98291   1
   6   9   5 -9.6266 12.6835   1
  -7  -9  -5 13.9058 8.75150   1
   7   9   5 22.5472 16.1429   1
   2 -10  -5 7.25922 5.32309   1
   1 -10  -5 63.8727 5.87604   1
   0  10   5 13.5977 3.53852  -2
   0 -10  -5 13.5977 3.53852   1
  -1 -10  -5 3.94859 10.8552   1
  -2 -10  -5 5.87867 10.8269   1
  -3 -10  -5 64.3517 4.52525   1
   3  10   5 57.9368 17.3438   1
  -4   7   3 48.9015 8.26506  -2
  -4 -10  -5 48.9015 8.26506   1
  -5 -10  -5 5.52835 4.27796   1
   5  10   5 -12.391 12.4508   1
  -6 -10  -5 -1.2794 6.96276   1
   6  10   5 12.0354 14.1356   1
   0  11   5 23.5538 3.58764  -2
   0 -11  -5 23.5538 3.58764   1
  -1 -11  -5 1.47942 11.6667   1
  -2 -11  -5 26.3975 12.8367   1
  -3 -11  -5 -7.8780 11.5124   1
  -4 -11  -5 54.5209 8.23369   1
  -5 -11  -5 3.91746 7.01863   1
   5  11   5 21.4508 16.2554   1
  -4 -10   6 -3.2668 8.59224   1
  -3 -10   6 0.02456 13.3596   1
  -2 -10   6 14.3987 8.58580   1
  -1 -10   6 2.81536 7.02200   1
  -5  -9   6 32.5610 11.6887   1
  -4  -9   6 -10.295 7.90539   1
  -3  -9   6 22.2435 9.15491   1
  -2  -9   6 2.28058 7.52916   1
  -1  -9   6 47.0326 9.70570   1
   0   9  -6 9.39690 9.18112  -2
   0  -9   6 9.39690 9.18112   1
   1  -9   6 57.6023 9.82561   1
   2  -9   6 12.6398 7.51558   1
   6   8  -6 -3.6036 10.6488   1
  -6  -8   6 4.86343 10.6029   1
   5   8  -6 81.0815 14.1825   1
  -5  -8   6 72.1365 14.0739   1
   4  -5   8 64.2378 14.5144  -2
   4   8  -6 64.2378 14.5144   1
  -4   5  -8 43.5359 15.0693  -2
  -4  -8   6 43.5359 15.0693   1
   3   8  -6 2.50422 10.0092   1
  -3  -8   6 4.48272 7.74430   1
  -2  -8   6 -4.0934 6.74504   1
  -1  -8   6 121.726 11.5230   1
   0   8  -6 101.667 12.2020  -2
   0  -8   6 101.667 12.2020   1
   1  -8   6 86.8379 10.9031   1
   2  -8   6 9.96148 6.23631   1
   3  -8   6 18.3516 7.30661   1
   7   7  -6 -13.141 11.6449   1
  -7  -7   6 3.05677 11.5678   1
   6   7  -6 15.4163 11.0390   1
  -6  -7   6 55.9632 13.4933   1
   5   7  -6 21.3338 9.35704   1
  -5  -7   6 -0.3901 8.65799   1
   4  -4   8 145.155 17.4619  -2
   4   7  -6 145.155 17.4619   1
  -4  -7   6 85.9624 14.1248   1
   3   7  -6 0.76514 5.69802   1
  -3  -7   6 0.66566 4.53943   1
  -2  -7   6 8.65562 2.98380   1
  -1  -7   6 3.36177 4.72741   1
   0   7  -6 129.923 10.1876  -2
   0  -7   6 129.923 10.1876   1
   1  -7   6 -7.1701 3.76447   1
   2  -7   6 4.84744 5.07634   1
   3  -7   6 -0.4215 5.57605   1
   4  10  -4 33.7871 13.4089  -2
   4  -7   6 33.7871 13.4089   1
   7   6  -6 1.55475 12.3266   1
  -7  -6   6 -8.4024 10.2414   1
   6   6  -6 48.7274 13.3123   1
  -6  -6   6 24.5846 11.6410   1
   5   6  -6 95.4976 16.1798   1
  -5  -6   6 120.609 16.0293   1
   4  -3   8 52.1465 13.5899  -2
   4   6  -6 52.1465 13.5899   1
  -4  -6   6 21.0245 5.98699   1
   3   6  -6 2.69754 3.92732   1
  -3  -6   6 9.63513 4.68432   1
   2   6  -6 12.1401 4.59836   1
  -2  -6   6 11.4140 5.33250   1
  -1  -6   6 107.453 8.85836   1
   0   6  -6 152.115 13.5779  -2
   0  -6   6 152.115 13.5779   1
   1  -6   6 83.9339 7.95804   1
   2  -6   6 147.943 10.9030   1
   3  -6   6 37.3972 5.19454   1
   4   9  -4 4.32643 11.4222  -2
   4  -6   6 4.32643 11.4222   1
   5  -6   6 35.9692 9.60026   1
   7   5  -6 -8.7964 11.1202   1
  -7  -5   6 -3.9376 10.9612   1
   6   5  -6 6.54846 10.6701   1
  -6  -5   6 11.7896 10.1144   1
   5   5  -6 173.670 19.1245   1
  -5  -5   6 169.249 19.1129   1
   4   5  -6 87.8406 8.29219   1
  -4  -5   6 78.2337 8.46209   1
   3   5  -6 32.0135 5.04875   1
  -3  -5   6 26.1210 5.56780   1
   2   5  -6 1.47451 3.09526   1
  -2  -5   6 0.01262 2.70750   1
   1   5  -6 445.309 29.0919   1
  -1  -5   6 403.036 21.2318   1
   0   5  -6 92.5564 9.63065  -2
   0  -5   6 92.5564 9.63065   1
  -1   5  -6 175.019 15.7257   1
   1  -5   6 169.331 10.7798   1
  -2   5  -6 52.3719 9.64001   1
   2  -5   6 54.8836 3.40056   1
  -3   5  -6 32.9930 10.7601   1
   3  -5   6 46.0568 5.04691   1
   4  -5   6 20.7760 5.48836   1
   5  -5   6 58.5838 8.00842   1
   6  -5   6 -1.7212 6.16255   1
   8   4  -6 -16.345 13.4533   1
  -8  -4   6 2.75564 12.4539   1
   7   4  -6 2.58692 12.4456   1
  -7  -4   6 9.97538 11.4377   1
   6   4  -6 133.808 19.7932   1
  -6  -4   6 99.7664 15.9292   1
   5   4  -6 6.56446 4.94561   1
  -5  -4   6 0.85209 7.81238   1
   4   4  -6 161.241 11.6165   1
  -4  -4   6 162.018 11.5741   1
   3   4  -6 0.01079 5.54439   1
  -3  -4   6 4.11946 4.09679   1
   2   4  -6 252.516 18.8982   1
  -2  -4   6 255.744 11.2736   1
   1   4  -6 19.2906 2.87540   1
  -1  -4   6 16.7751 2.13520   1
   0  -4   6 1047.34 70.8666  -2
   0   4  -6 1047.34 70.8666   1
   0   4  -6 1175.21 70.7294  -2
   0  -4   6 1175.21 70.7294   1
  -1   4  -6 -2.7090 5.11401   1
   1  -4   6 0.65046 2.95528   1
  -2   4  -6 9.44392 3.39558   1
   2  -4   6 9.79707 2.55818   1
   3  -4   6 20.5121 4.53739   1
   4  -4   6 563.701 28.2387   1
   5  -4   6 4.57589 5.32564   1
   6  -4   6 128.037 12.2116   1
   8   3  -6 8.55219 15.0972   1
  -8  -3   6 10.4888 13.8996   1
   7   3  -6 18.6647 14.6014   1
  -7  -3   6 13.3194 11.9772   1
   6   3  -6 126.500 12.2487   1
  -6  -3   6 141.683 18.0869   1
   5   3  -6 154.211 11.7244   1
  -5  -3   6 159.634 19.9113   1
   4   3  -6 30.5451 5.58057   1
  -4  -3   6 19.6766 8.00840   1
   3   3  -6 17.6055 4.45366   1
  -3  -3   6 26.7855 4.88916   1
   2   3  -6 45.8010 5.22204   1
  -2  -3   6 54.5826 5.51885   1
   1   3  -6 174.809 10.3942   1
  -1  -3   6 185.977 8.23592   1
   0  -3   6 132.407 13.2496  -2
   0   3  -6 132.407 13.2496   1
   0   3  -6 168.421 12.8157  -2
   0  -3   6 168.421 12.8157   1
  -1   3  -6 131.672 13.0978   1
   1  -3   6 132.488 8.60969   1
  -2   3  -6 -0.8906 5.64080   1
   2  -3   6 1.53729 2.30078   1
  -3   3  -6 50.8071 9.71106   1
   3  -3   6 41.2437 4.58502   1
  -4  -6   4 91.2043 18.0477  -2
  -4   3  -6 91.2043 18.0477   1
   4  -3   6 97.1190 8.38945   1
  -5   3  -6 69.2870 14.7934   1
   5  -3   6 86.4798 8.94882   1
   6  -3   6 1.84290 5.44292   1
   7  -3   6 3.11308 11.7480   1
   8   2  -6 9.53329 25.7007   1
  -8  -2   6 -12.157 13.9449   1
   7   2  -6 6.12050 7.73051   1
  -7  -2   6 9.32814 11.7298   1
   6   2  -6 6.87611 6.02959   1
  -6  -2   6 12.4238 10.1651   1
   5   2  -6 254.688 16.2878   1
  -5  -2   6 260.451 22.9889   1
   4   2  -6 56.7789 6.96913   1
  -4  -2   6 38.1193 9.22097   1
   3   2  -6 219.270 13.3359   1
  -3  -2   6 264.899 19.6137   1
   2   2  -6 7.08746 3.45065   1
  -2  -2   6 7.23877 3.41962   1
   1   2  -6 1445.05 65.8266   1
  -1  -2   6 1476.96 53.5220   1
   0  -2   6 3.78967 2.50762  -2
   0   2  -6 3.78967 2.50762   1
   0   2  -6 -6.6006 5.16802  -2
   0  -2   6 -6.6006 5.16802   1
  -1   2  -6 1172.67 52.8668   1
   1  -2   6 1159.66 42.9417   1
  -2   2  -6 55.6504 5.48472   1
   2  -2   6 60.1541 4.42953   1
  -3   2  -6 54.5553 9.99252   1
   3  -2   6 65.9260 5.12395   1
  -4   2  -6 2.70211 7.68865   1
   4  -2   6 -2.2424 3.59568   1
  -5   2  -6 167.487 19.1654   1
   5  -2   6 176.882 14.1040   1
   6  -2   6 10.7668 5.73807   1
   7  -2   6 9.95787 6.41131   1
   8   1  -6 14.8786 15.0442   1
   7   1  -6 -1.1308 7.12774   1
  -7  -1   6 7.74009 12.5407   1
   6   1  -6 141.336 12.6438   1
  -6  -1   6 133.831 17.9998   1
   5   1  -6 172.532 12.9048   1
  -5  -1   6 170.952 18.3467   1
   4   1  -6 121.093 11.5809   1
  -4  -1   6 109.121 13.2472   1
   3   1  -6 38.3233 5.43071   1
  -3  -1   6 20.4301 6.69967   1
   2   1  -6 50.9334 5.70041   1
  -2  -1   6 62.8184 8.02811   1
   1   1  -6 619.560 28.5918   1
  -1  -1   6 590.710 23.0986   1
   0  -1   6 747.902 35.0990  -2
   0   1  -6 747.902 35.0990   1
   0   1  -6 786.909 49.1624  -2
   0  -1   6 786.909 49.1624   1
  -1   1  -6 2.63862 3.16973   1
   1  -1   6 5.07348 2.49826   1
  -2   1  -6 137.705 8.72386   1
   2  -1   6 135.147 6.86020   1
  -3   1  -6 212.111 18.2558   1
   3  -1   6 214.052 11.9963   1
  -4   1  -6 56.5787 11.0765   1
   4  -1   6 67.6632 6.77991   1
  -5   1  -6 46.1409 11.1387   1
   5  -1   6 42.5706 7.36639   1
  -6   1  -6 147.355 19.1778   1
   6  -1   6 134.218 11.6632   1
  -7   1  -6 22.4473 14.1526   1
   7  -1   6 11.5604 8.25296   1
   8  -1   6 -7.4051 6.62220   1
   7   0  -6 9.41838 7.27467   1
   6   0  -6 98.8577 13.4364   1
  -6   0   6 114.990 16.5632   1
   5   0  -6 104.358 10.4479   1
  -5   0   6 85.3551 13.7910   1
   4   0  -6 97.8066 8.78236   1
  -4   0   6 83.2074 11.7638   1
   3   0  -6 196.891 12.0106   1
  -3   0   6 193.175 16.9544   1
   2   0  -6 26.4634 4.43943   1
  -2   0   6 32.4128 6.40266   1
   1   0  -6 527.093 20.3130   1
  -1   0   6 485.173 34.0833   1
   0   0   6 1521.63 66.5503  -2
   0   0  -6 1521.63 66.5503   1
   0   0  -6 1390.93 91.9478  -2
   0   0   6 1390.93 91.9478   1
  -1   0  -6 50.0482 4.01684   1
   1   0   6 45.3306 4.13107   1
  -2   0  -6 77.3855 6.09360   1
   2   0   6 78.2874 6.11493   1
  -3   0  -6 281.331 22.4093   1
   3   0   6 285.181 15.1039   1
  -4   0  -6 272.070 21.7652   1
   4   0   6 235.181 21.5700   1
  -5   0  -6 118.995 16.1996   1
   5   0   6 125.744 10.3633   1
  -6   0  -6 49.2272 13.1660   1
   6   0   6 55.9616 7.39940   1
  -7   0  -6 -7.5474 10.5974   1
   7   0   6 -0.1414 5.27165   1
   8   0   6 4.22505 11.9329   1
   7  -1  -6 16.2681 8.24898   1
   6  -1  -6 29.8771 8.08828   1
   5  -1  -6 223.485 17.2188   1
  -5   1   6 241.180 21.7458   1
   4  -1  -6 0.72204 4.57261   1
  -4   1   6 1.98961 6.74079   1
   3  -1  -6 18.0962 3.57797   1
  -3   1   6 19.2954 6.60937   1
   2  -1  -6 35.9235 3.96041   1
  -2   1   6 34.8229 6.43637   1
   1  -1  -6 2210.81 80.8357   1
  -1   1   6 2281.69 138.137   1
   0   1   6 4.39158 4.95877  -2
   0  -1  -6 4.39158 4.95877   1
  -1  -1  -6 242.705 13.0524   1
   1   1   6 243.416 13.1507   1
  -2  -1  -6 2.71999 2.74341   1
   2   1   6 0.80275 2.70394   1
  -3  -1  -6 74.5393 6.22296   1
   3   1   6 73.4805 6.15399   1
  -4  -1  -6 -2.7663 5.08203   1
   4   1   6 2.73934 3.28486   1
  -5  -1  -6 85.3792 13.8006   1
   5   1   6 73.1908 7.62590   1
  -6  -1  -6 -10.130 7.82716   1
   6   1   6 -3.6405 4.42309   1
  -7  -1  -6 21.3166 11.4967   1
   7   1   6 -1.4700 5.43822   1
  -8  -1  -6 6.94150 13.0311   1
   8   1   6 14.8258 12.2940   1
   7  -2  -6 2.45111 7.35618   1
   6  -2  -6 59.6579 9.69770   1
   5  -2  -6 100.992 10.5528   1
  -5   2   6 112.106 15.2896   1
   4  -2  -6 45.9375 7.57381   1
  -4   2   6 46.8069 9.61063   1
   3  -2  -6 25.1078 4.54560   1
  -3   2   6 17.6772 6.48885   1
   2  -2  -6 111.208 6.53230   1
   1  -2  -6 44.3858 4.19136   1
   0   2   6 308.205 12.8106  -2
   0  -2  -6 308.205 12.8106   1
  -1  -2  -6 10.0943 2.83687   1
   1   2   6 15.4744 5.77281   1
  -2  -2  -6 1.30941 2.51097   1
   2   2   6 0.51949 5.33090   1
  -3  -2  -6 197.372 10.8099   1
   3   2   6 189.483 11.1258   1
  -4  -2  -6 130.518 9.29626   1
   4   2   6 148.924 9.53654   1
  -5  -2  -6 117.519 14.9772   1
   5   2   6 128.026 9.82999   1
  -6  -2  -6 136.364 17.9755   1
   6   2   6 123.888 10.7372   1
  -7  -2  -6 26.4815 11.8651   1
   7   2   6 10.6570 7.06340   1
  -8  -2  -6 6.67150 12.7541   1
   8   2   6 -3.4206 10.9454   1
   7  -3  -6 -4.2670 7.59883   1
   6  -3  -6 158.176 15.3364   1
   5  -3  -6 10.0139 6.53986   1
   4  -3  -6 233.072 13.0034   1
   3  -3  -6 18.9633 4.33779   1
  -3   3   6 8.71357 7.32463   1
   2  -3  -6 133.725 7.25866   1
  -2   3   6 113.912 11.7813   1
   1  -3  -6 22.5881 3.17054   1
  -1   3   6 17.4505 4.57420   1
   0   3   6 1327.89 48.9163  -2
   0  -3  -6 1327.89 48.9163   1
   0  -3  -6 1346.98 82.7738  -2
   0   3   6 1346.98 82.7738   1
  -1  -3  -6 4.23806 2.43914   1
   1   3   6 3.44601 2.58046   1
  -2  -3  -6 188.864 10.7118   1
   2   3   6 222.399 11.5981   1
  -3  -3  -6 25.1899 3.73865   1
   3   3   6 15.5193 3.46917   1
  -4  -3  -6 238.820 13.3035   1
   4   3   6 228.981 22.1471   1
  -5  -3  -6 84.6627 12.3646   1
   5   3   6 47.0603 5.92752   1
  -6  -3  -6 225.538 21.1378   1
   6   3   6 183.012 13.1925   1
  -7  -3  -6 -3.9774 9.64139   1
   7   3   6 -2.2038 6.13387   1
  -8  -3  -6 19.5875 13.4364   1
   8   3   6 30.9209 13.5262   1
   6  -4  -6 5.83376 7.03879   1
   5  -4  -6 248.916 17.4178   1
   4  -4  -6 8.66857 4.57679   1
  -4   4   6 10.7366 7.49196   1
   3  -4  -6 22.3437 4.40211   1
  -3   4   6 22.4515 10.7857   1
   2  -4  -6 46.1496 4.60942   1
  -2   4   6 43.0679 7.27482   1
   1  -4  -6 719.726 34.8310   1
  -1   4   6 875.495 50.0475   1
   0   4   6 320.970 13.2358  -2
   0  -4  -6 320.970 13.2358   1
  -1  -4  -6 354.520 17.0902   1
   1   4   6 367.022 28.9498   1
  -2  -4  -6 25.9440 3.32715   1
   2   4   6 25.2213 7.68678   1
  -3  -4  -6 30.5500 4.00636   1
   3   4   6 48.1575 4.40238   1
  -4  -4  -6 177.128 10.4756   1
   4   4   6 168.394 10.7712   1
  -5  -4  -6 130.147 9.24426   1
   5   4   6 123.354 9.29272   1
  -6  -4  -6 3.11333 4.59569   1
   6   4   6 6.06679 9.56822   1
  -7  -4  -6 -0.2208 8.37364   1
   7   4   6 16.3302 11.5119   1
  -8  -4  -6 -0.5556 10.4886   1
   8   4   6 -3.5381 11.6723   1
   6  -5  -6 13.8508 8.02399   1
   5  -5  -6 80.6028 10.2125   1
   4  -5  -6 -0.4745 5.65180   1
   3  -5  -6 32.7209 5.11553   1
   2  -5  -6 184.059 9.63506   1
   1  -5  -6 158.265 8.17620   1
   0   5   6 126.945 6.55944  -2
   0  -5  -6 126.945 6.55944   1
  -1  -5  -6 149.648 8.35903   1
   1   5   6 143.450 17.7243   1
  -2  -5  -6 65.5585 4.99446   1
   2   5   6 55.8496 11.0148   1
  -3  -5  -6 -2.5482 2.31813   1
   3   5   6 -5.0776 6.79883   1
  -4  -5  -6 81.0941 6.73958   1
   4   5   6 94.7191 14.9856   1
  -5  -5  -6 174.023 11.0033   1
   5   5   6 161.513 12.2148   1
  -6  -5  -6 67.4150 7.67101   1
   6   5   6 47.3957 7.40670   1
  -7  -5  -6 28.0897 10.4635   1
   7   5   6 47.8515 14.3886   1
  -8  -5  -6 -20.943 8.19386   1
   8   5   6 6.19713 11.9950   1
   5  -6  -6 -5.4074 6.13665   1
   4  -6  -6 139.237 12.4003   1
   3  -6  -6 5.82872 4.01560   1
   2  -6  -6 1.50019 3.23194   1
   1  -6  -6 28.2616 3.46415   1
   0   6   6 98.9349 5.77015  -2
   0  -6  -6 98.9349 5.77015   1
  -1  -6  -6 36.4093 3.68440   1
   1   6   6 29.0092 15.0543   1
  -2  -6  -6 15.7752 2.79616   1
   2   6   6 13.1255 9.12270   1
  -3  -6  -6 -1.0499 2.54514   1
   3   6   6 -4.9437 7.68954   1
  -4  -6  -6 78.2387 6.39399   1
   4   6   6 73.6371 14.3805   1
  -5  -6  -6 18.0017 4.53865   1
   5   6   6 -2.4225 8.84379   1
  -6  -6  -6 62.2657 11.2311   1
   6   6   6 47.1758 13.9982   1
  -7  -6  -6 -2.2764 8.16357   1
   7   6   6 5.13802 12.2563   1
  -8  -6  -6 7.78395 9.53537   1
   8   6   6 11.4209 13.6215   1
   5  -7  -6 34.5337 17.6420   1
   4  -7  -6 22.8493 6.67719   1
   3  -7  -6 24.2223 6.11924   1
   2  -7  -6 23.2548 5.11994   1
   1  -7  -6 227.878 10.9235   1
   0   7   6 405.776 16.7095  -2
   0  -7  -6 405.776 16.7095   1
  -1  -7  -6 300.376 12.8890   1
  -2  -7  -6 33.2538 3.78423   1
   2   7   6 39.1992 12.8125   1
  -3  -7  -6 2.78067 2.76879   1
   3   7   6 5.04989 9.75807   1
  -4  -7  -6 19.3798 3.97408   1
   4  -4  -4 2.12509 14.9936  -2
   4   7   6 2.12509 14.9936   1
  -5  -7  -6 126.332 9.35274   1
   5   7   6 136.806 21.3086   1
  -6  -7  -6 46.9438 10.1863   1
   6   7   6 29.1989 12.5257   1
  -7  -7  -6 5.92422 8.07521   1
   7   7   6 15.0869 13.9769   1
  -8  -7  -6 6.89650 9.65072   1
   8   7   6 -5.0870 13.3252   1
   4  -8  -6 -2.6510 5.67788   1
   3  -8  -6 3.03018 4.92328   1
   2  -8  -6 13.1302 4.03635   1
   1  -8  -6 206.105 10.9653   1
   0   8   6 11.5446 3.25587  -2
   0  -8  -6 11.5446 3.25587   1
  -1  -8  -6 16.0968 2.38196   1
  -2  -8  -6 94.9127 5.99018   1
   2   8   6 100.892 17.7948   1
  -3  -8  -6 68.4122 5.59811   1
   3   8   6 68.4083 15.3556   1
  -4  -8  -6 -1.4447 3.37870   1
  -5  -8  -6 122.152 9.04005   1
   5   8   6 103.704 19.5496   1
  -6  -8  -6 34.1642 8.89008   1
   6   8   6 27.5486 13.5468   1
  -7  -8  -6 17.9988 8.57444   1
   7   8   6 20.3661 14.2555   1
   3  -9  -6 -2.0479 5.38863   1
   2  -9  -6 17.1012 5.60792   1
   1  -9  -6 -2.1052 3.24887   1
   0   9   6 221.695 10.5163  -2
   0  -9  -6 221.695 10.5163   1
  -1  -9  -6 0.59019 1.94418   1
  -2  -9  -6 52.8943 3.63096   1
  -3  -9  -6 10.2928 3.11850   1
   3   9   6 16.9823 13.6461   1
  -4  -9  -6 119.192 8.27016   1
  -5  -9  -6 12.4441 4.45250   1
   5   9   6 26.7286 13.7308   1
  -6  -9  -6 94.0010 12.6938   1
   6   9   6 86.7743 20.0557   1
   7   9   6 1.83930 14.0012   1
   1 -10  -6 10.8973 3.67477   1
   0  10   6 128.464 7.14590  -2
   0 -10  -6 128.464 7.14590   1
  -1 -10  -6 20.7876 2.21551   1
  -2 -10  -6 -9.8900 10.1407   1
  -3 -10  -6 -1.6076 2.06711   1
   3  10   6 3.58356 14.2469   1
  -4   7   4 117.041 11.4383  -2
  -4 -10  -6 117.041 11.4383   1
  -5 -10  -6 17.5402 4.80334   1
   5  10   6 5.31442 15.2494   1
  -6 -10  -6 9.03367 9.84211   1
   6  10   6 -15.078 13.0695   1
   0  11   6 -4.3775 3.51494  -2
   0 -11  -6 -4.3775 3.51494   1
  -1 -11  -6 124.075 21.4668   1
  -2 -11  -6 2.70598 11.6303   1
  -3 -11  -6 -7.9885 12.4433   1
  -4 -11  -6 -1.3908 3.90867   1
   5  11   6 78.7906 20.2649   1
  -3 -10   7 25.8613 10.2899   1
  -2 -10   7 3.28797 8.82553   1
  -1 -10   7 -5.4182 7.64075   1
  -5  -9   7 -1.9936 11.2133   1
  -4   6  -9 37.8755 17.6652  -2
  -4  -9   7 37.8755 17.6652   1
  -3  -9   7 2.87177 8.65954   1
  -2  -9   7 4.80101 7.82595   1
  -1  -9   7 2.78121 7.07887   1
   0   9  -7 36.2837 10.3661  -2
   0  -9   7 36.2837 10.3661   1
   1  -9   7 -3.0768 5.94116   1
   2  -9   7 56.9995 10.7282   1
   6   8  -7 14.2027 12.0568   1
  -6  -8   7 26.5596 12.9416   1
   5   8  -7 13.9439 10.4698   1
  -5  -8   7 19.2780 10.9998   1
  -4   5  -9 34.5708 17.1312  -2
  -4  -8   7 34.5708 17.1312   1
  -3  -8   7 8.19066 8.40378   1
  -2  -8   7 10.5054 8.32484   1
  -1  -8   7 12.4860 7.13311   1
   0   8  -7 7.08900 8.93324  -2
   0  -8   7 7.08900 8.93324   1
   1  -8   7 34.8175 8.16786   1
   2  -8   7 27.8609 7.74280   1
   3  -8   7 18.2534 7.53257   1
   6   7  -7 -5.3294 10.7756   1
  -6  -7   7 11.9752 11.4847   1
   5   7  -7 11.1109 8.71746   1
  -5  -7   7 14.6267 10.4199   1
   4  -4   9 7.03539 11.6479  -2
   4   7  -7 7.03539 11.6479   1
  -3  -7   7 251.052 22.7022   1
  -2  -7   7 -3.3832 5.18665   1
  -1  -7   7 4.58642 5.14530   1
   0   7  -7 -4.1850 7.68138  -2
   0  -7   7 -4.1850 7.68138   1
   1  -7   7 238.531 23.0113   1
   2  -7   7 -0.5853 5.62723   1
   3  -7   7 51.1671 9.43429   1
   4  10  -5 17.6912 12.7345  -2
   4  -7   7 17.6912 12.7345   1
   7   6  -7 3.44689 13.3956   1
  -7  -6   7 7.08411 11.7134   1
   6   6  -7 24.1796 12.4196   1
  -6  -6   7 5.45147 11.3277   1
   5   6  -7 -1.1315 8.65609   1
  -5  -6   7 -3.7351 9.62786   1
   4  -3   9 82.0467 14.6279  -2
   4   6  -7 82.0467 14.6279   1
  -4  -6   7 67.1263 12.7975   1
   3   6  -7 41.3616 5.57510   1
  -3  -6   7 37.4879 6.64556   1
   2   6  -7 75.0758 5.82147   1
  -2  -6   7 69.9197 5.10730   1
   1   6  -7 59.8485 12.7103   1
  -1  -6   7 38.6817 6.52049   1
   0   6  -7 23.0858 8.14172  -2
   0  -6   7 23.0858 8.14172   1
   1  -6   7 99.2474 8.89228   1
   2  -6   7 142.587 13.8258   1
   3  -6   7 6.02353 8.23693   1
   4   9  -5 -5.5447 11.6519  -2
   4  -6   7 -5.5447 11.6519   1
   5  -6   7 14.7859 8.27317   1
   7   5  -7 -9.9575 11.2109   1
  -7  -5   7 1.44254 11.4842   1
   6   5  -7 2.04694 10.8011   1
  -6  -5   7 -2.1127 9.80700   1
   5   5  -7 -10.740 8.65133   1
  -5  -5   7 -1.1835 8.18158   1
   4   5  -7 39.0961 9.43437   1
  -4  -5   7 54.4909 8.57772   1
   3   5  -7 84.6521 7.44802   1
  -3  -5   7 62.9348 7.87201   1
   2   5  -7 77.7856 6.32670   1
  -2  -5   7 70.6057 5.43407   1
   1   5  -7 27.9075 6.79486   1
  -1  -5   7 18.2033 5.00046   1
   0  -5   7 79.5305 10.7418  -2
   0   5  -7 79.5305 10.7418   1
   0   5  -7 88.1474 10.2989  -2
   0  -5   7 88.1474 10.2989   1
  -1   5  -7 139.805 14.4375   1
   1  -5   7 134.932 9.90072   1
  -2   5  -7 251.961 22.0500   1
   2  -5   7 245.204 14.9397   1
  -3   5  -7 1.47991 9.66939   1
   3  -5   7 15.1016 4.02441   1
   4   8  -5 46.4681 12.9574  -2
   4  -5   7 46.4681 12.9574   1
   5  -5   7 5.32305 6.14318   1
   6  -5   7 30.6117 10.0741   1
   7   4  -7 1.92974 13.1852   1
  -7  -4   7 29.2274 12.9974   1
   6   4  -7 0.50203 10.6926   1
  -6  -4   7 4.90930 10.2658   1
   5   4  -7 21.8271 6.58795   1
  -5  -4   7 15.6258 9.54450   1
   4   4  -7 17.1432 5.45765   1
  -4  -4   7 35.2363 9.80577   1
   3   4  -7 458.840 23.4802   1
  -3  -4   7 419.029 23.7844   1
   2   4  -7 7.22292 4.89299   1
  -2  -4   7 7.69248 3.46092   1
   1   4  -7 2.81294 1.69467   1
  -1  -4   7 0.38293 3.74675   1
   0   4  -7 -3.0242 5.90475  -2
   0  -4   7 -3.0242 5.90475   1
   1  -4   7 286.672 15.8657   1
  -2   4  -7 -0.3475 2.35264   1
   2  -4   7 0.62802 2.05761   1
   3  -4   7 32.3792 4.31001   1
   4  -4   7 0.35161 4.35976   1
   5  -4   7 57.3078 8.73379   1
   6  -4   7 67.6174 9.47947   1
   7   3  -7 9.15724 14.3568   1
  -7  -3   7 24.9319 13.4062   1
   6   3  -7 3.60307 7.34728   1
  -6  -3   7 11.6056 9.73134   1
   5   3  -7 37.1656 7.17301   1
  -5  -3   7 39.7010 11.2269   1
   4   3  -7 136.225 10.5602   1
  -4  -3   7 150.419 15.6203   1
   3   3  -7 200.356 12.5352   1
  -3  -3   7 221.664 13.7474   1
   2   3  -7 175.504 11.8034   1
  -2  -3   7 187.338 11.3500   1
   1   3  -7 3.41083 2.72277   1
  -1  -3   7 5.56422 2.78825   1
   0  -3   7 132.703 13.8526  -2
   0   3  -7 132.703 13.8526   1
   0   3  -7 172.187 13.8280  -2
   0  -3   7 172.187 13.8280   1
  -1   3  -7 249.703 20.4849   1
   1  -3   7 249.538 14.0961   1
  -2   3  -7 305.809 16.3762   1
   2  -3   7 318.883 13.3999   1
  -3   3  -7 23.5729 8.80232   1
   3  -3   7 18.9703 4.11584   1
   4  -3   7 1.80874 4.10656   1
  -5   3  -7 45.3815 13.0356   1
   5  -3   7 15.7717 6.70479   1
   6  -3   7 179.978 13.9889   1
   7   8  -3 3.93766 16.6531  -2
   7  -3   7 3.93766 16.6531   1
   7   2  -7 42.8088 16.0936   1
  -7  -2   7 4.82460 11.5688   1
   6   2  -7 0.65562 6.52688   1
  -6  -2   7 8.24334 9.83457   1
   5   2  -7 11.9619 5.98799   1
  -5  -2   7 -3.0520 8.08611   1
   4   2  -7 445.104 33.9927   1
  -4  -2   7 508.441 35.5816   1
   3   2  -7 173.971 11.9314   1
  -3  -2   7 235.495 17.8531   1
   2   2  -7 187.248 11.2965   1
  -2  -2   7 187.168 12.0715   1
   1   2  -7 -2.5324 2.83749   1
  -1  -2   7 2.14245 2.27243   1
   0  -2   7 211.124 9.17317  -2
   0   2  -7 211.124 9.17317   1
   0   2  -7 266.328 17.5354  -2
   0  -2   7 266.328 17.5354   1
  -1   2  -7 18.2354 2.33911   1
   1  -2   7 11.1542 3.54402   1
  -2   2  -7 488.255 24.3312   1
   2  -2   7 502.679 19.7588   1
  -3   2  -7 -0.0641 6.49968   1
   3  -2   7 4.46650 3.30660   1
  -4  -5   5 8.28542 15.0676  -2
  -4   2  -7 8.28542 15.0676   1
   4  -2   7 17.7130 4.66225   1
  -5   2  -7 3.65743 9.51125   1
   5  -2   7 16.2383 10.1550   1
  -6   2  -7 196.560 23.5195   1
   6  -2   7 158.778 13.2736   1
   7  -2   7 7.78751 8.92680   1
   7   1  -7 21.6802 8.60104   1
  -7  -1   7 37.8032 22.7810   1
   6   1  -7 -3.1234 6.44660   1
  -6  -1   7 2.10560 9.67650   1
   5   1  -7 173.614 13.5885   1
  -5  -1   7 201.951 19.4995   1
   4   1  -7 36.3463 6.78818   1
  -4  -1   7 51.1973 10.0096   1
   3   1  -7 815.935 39.4874   1
  -3  -1   7 840.949 55.0695   1
   2   1  -7 5.66162 3.74593   1
   1   1  -7 6.01224 3.28867   1
  -1  -1   7 7.18143 4.91732   1
   0  -1   7 207.714 11.8116  -2
   0   1  -7 207.714 11.8116   1
   0   1  -7 214.175 16.6435  -2
   0  -1   7 214.175 16.6435   1
  -1   1  -7 986.896 46.4869   1
   1  -1   7 1025.52 37.7814   1
  -2   1  -7 299.895 22.6389   1
   2  -1   7 286.222 14.8750   1
  -3   1  -7 290.801 23.5346   1
   3  -1   7 294.196 15.7860   1
   4  -1   7 14.1121 4.20758   1
  -5   1  -7 -4.8245 8.95702   1
   5  -1   7 16.4080 5.36297   1
  -6   1  -7 19.4008 11.3749   1
   6  -1   7 -2.5281 5.10761   1
  -7   1  -7 6.46669 14.7452   1
   7  -1   7 29.2591 9.62507   1
   8  -1   7 -4.9815 11.5149   1
   7   0  -7 -0.5959 8.02666   1
   6   0  -7 -3.7410 6.18133   1
  -6   0   7 8.31145 9.86531   1
   5   0  -7 1.65760 6.15093   1
  -5   0   7 15.1542 9.21014   1
   4   0  -7 101.979 9.30781   1
  -4   0   7 78.9202 16.4019   1
   3   0  -7 343.241 18.1914   1
  -3   0   7 295.299 24.6259   1
   2   0  -7 61.6806 6.58860   1
  -2   0   7 57.5650 8.26145   1
   1   0  -7 10.2812 2.93719   1
  -1   0   7 21.8363 5.60375   1
   0   0   7 94.9382 5.56857  -2
   0   0  -7 94.9382 5.56857   1
   0   0  -7 74.8587 9.25065  -2
   0   0   7 74.8587 9.25065   1
  -1   0  -7 1711.11 74.4187   1
   1   0   7 1649.87 75.3566   1
  -2   0  -7 334.836 25.0748   1
   2   0   7 339.199 17.1066   1
  -3   0  -7 161.053 15.7384   1
   3   0   7 168.435 10.3778   1
  -4   0  -7 45.5616 9.75616   1
   4   0   7 57.6290 6.40891   1
  -5   0  -7 117.844 16.2354   1
   5   0   7 121.009 10.0478   1
  -6   0  -7 6.35504 9.64062   1
   6   0   7 -6.2779 4.53229   1
  -7   0  -7 92.0990 17.9447   1
   7   0   7 97.1274 14.3724   1
   8   0   7 5.92802 12.8663   1
   7  -1  -7 15.1661 8.36445   1
   6  -1  -7 -8.4160 6.14796   1
  -6   1   7 16.0439 12.9949   1
   5  -1  -7 13.6926 6.70441   1
  -5   1   7 16.0947 9.61844   1
   4  -1  -7 389.009 21.6495   1
  -4   1   7 375.574 29.4563   1
   3  -1  -7 5.68057 4.11646   1
  -3   1   7 7.23757 6.06652   1
   2  -1  -7 151.789 8.19480   1
  -2   1   7 171.333 14.2697   1
   1  -1  -7 13.2086 2.85146   1
  -1   1   7 11.5597 4.41315   1
   0   1   7 192.232 9.10866  -2
   0  -1  -7 192.232 9.10866   1
   0  -1  -7 197.783 15.2010  -2
   0   1   7 197.783 15.2010   1
  -1  -1  -7 0.75618 2.91941   1
   1   1   7 11.6943 3.56404   1
  -2  -1  -7 1024.78 46.2450   1
   2   1   7 1016.65 46.9392   1
  -3  -1  -7 5.53937 3.10691   1
   3   1   7 3.26699 3.16343   1
  -4  -1  -7 6.40553 6.72551   1
   4   1   7 -1.5165 3.47872   1
  -5  -1  -7 7.18235 8.21385   1
   5   1   7 2.91588 4.05086   1
  -6  -1  -7 185.430 21.5904   1
   6   1   7 198.811 13.8799   1
  -7  -1  -7 7.71280 12.2374   1
   7   1   7 16.5600 6.57386   1
  -8  -1  -7 30.6422 15.8572   1
   8   1   7 50.5987 14.7450   1
   7  -2  -7 29.1724 10.2523   1
   6  -2  -7 5.05987 7.51437   1
   5  -2  -7 84.9022 9.95861   1
  -5   2   7 62.9322 12.3656   1
   4  -2  -7 84.2313 9.06689   1
  -4   2   7 53.7977 10.9860   1
   3  -2  -7 308.365 14.5977   1
  -3   2   7 344.783 24.9421   1
   2  -2  -7 89.9704 6.19870   1
  -2   2   7 90.1821 10.1264   1
   1  -2  -7 28.6689 3.58093   1
   0   2   7 9.69611 3.53381  -2
   0  -2  -7 9.69611 3.53381   1
  -1  -2  -7 1493.85 67.6588   1
   1   2   7 1609.48 100.962   1
  -2  -2  -7 155.231 9.27978   1
   2   2   7 176.234 15.6732   1
  -3  -2  -7 3.44213 2.83707   1
   3   2   7 3.94842 3.21564   1
  -4  -2  -7 34.8418 5.08643   1
   4   2   7 36.3267 5.35231   1
  -5  -2  -7 61.0275 11.5044   1
   5   2   7 60.3582 7.17353   1
  -6  -2  -7 23.3003 10.4781   1
   6   2   7 28.0740 5.85681   1
  -7  -2  -7 5.47081 10.2443   1
   7   2   7 19.6275 6.16543   1
  -8  -2  -7 -1.1538 12.1328   1
   8   2   7 -10.242 9.71329   1
   6  -3  -7 11.4008 7.17126   1
   5  -3  -7 17.6205 6.30125   1
   4  -3  -7 23.3515 5.29978   1
   3  -3  -7 272.439 13.5676   1
  -3   3   7 332.520 27.0134   1
   2  -3  -7 -0.1793 3.01640   1
  -2   3   7 -3.0101 4.73000   1
   1  -3  -7 -2.4353 2.35196   1
  -1   3   7 6.26422 4.10310   1
   0   3   7 20.7280 4.90584  -2
   0  -3  -7 20.7280 4.90584   1
   0  -3  -7 7.86504 4.57159  -2
   0   3   7 7.86504 4.57159   1
  -1  -3  -7 188.902 10.4565   1
   1   3   7 183.961 10.9121   1
  -2  -3  -7 26.2950 3.73478   1
   2   3   7 28.3858 4.34215   1
  -3  -3  -7 -0.2010 2.59339   1
   3   3   7 2.92461 2.96210   1
  -4  -3  -7 15.4946 3.91971   1
   4   3   7 16.3414 8.53528   1
  -5  -3  -7 33.6851 5.57455   1
   5   3   7 40.9910 5.76462   1
  -6  -3  -7 78.8141 13.4532   1
   6   3   7 53.8441 7.05024   1
  -7  -3  -7 80.8755 15.2404   1
   7   3   7 94.5168 17.8453   1
  -8  -3  -7 5.81688 11.7090   1
   8   3   7 -5.4411 11.1358   1
   6  -4  -7 10.9278 7.52038   1
   5  -4  -7 10.9078 6.34582   1
   4  -4  -7 312.311 19.5043   1
   3  -4  -7 34.8182 5.11051   1
  -3   4   7 19.4110 11.3813   1
   2  -4  -7 357.096 16.0306   1
  -2   4   7 403.137 26.8838   1
   1  -4  -7 -1.8541 2.41321   1
  -1   4   7 -0.6211 3.85444   1
   0   4   7 200.937 9.37009  -2
   0  -4  -7 200.937 9.37009   1
  -1  -4  -7 53.1243 4.88784   1
   1   4   7 45.9561 10.2914   1
  -2  -4  -7 593.937 27.6127   1
   2   4   7 584.524 28.5156   1
  -3  -4  -7 184.818 11.1021   1
   3   4   7 219.379 12.0202   1
  -4  -4  -7 11.6695 3.58762   1
   4   4   7 5.54234 3.59805   1
  -5  -4  -7 -4.5271 3.64023   1
   5   4   7 -4.3073 3.70012   1
  -6  -4  -7 34.4470 10.2669   1
   6   4   7 32.3994 12.2689   1
  -7  -4  -7 -3.5430 8.93799   1
   7   4   7 2.81396 10.6030   1
  -8  -4  -7 3.50560 11.9946   1
   8   4   7 23.8751 14.0632   1
   6  -5  -7 -0.3682 7.56705   1
   5  -5  -7 30.1493 8.49733   1
   4  -5  -7 116.403 14.4610   1
   3  -5  -7 235.698 12.5659   1
   2  -5  -7 0.32883 2.91756   1
   1  -5  -7 8.22269 2.88025   1
   0   5   7 796.596 50.7553  -2
   0  -5  -7 796.596 50.7553   1
  -1  -5  -7 163.473 10.1616   1
   1   5   7 127.954 18.5000   1
  -2  -5  -7 462.464 22.0888   1
   2   5   7 468.433 36.7694   1
  -3  -5  -7 117.684 7.86789   1
   3   5   7 132.884 16.4850   1
  -4  -5  -7 -0.9393 3.35939   1
   4   5   7 -7.8318 7.53786   1
  -5  -5  -7 1.80413 3.89633   1
   5   5   7 6.46914 9.73938   1
  -6  -5  -7 61.4745 12.2558   1
   6   5   7 84.3348 16.3879   1
  -7  -5  -7 25.9211 12.9087   1
   7   5   7 8.09025 11.6781   1
  -8  -5  -7 41.7957 14.0036   1
   8   5   7 8.87307 13.1678   1
   5  -6  -7 21.5827 8.08088   1
   4  -6  -7 -3.2818 5.49381   1
   3  -6  -7 120.812 12.9641   1
   2  -6  -7 2.33375 3.39311   1
   1  -6  -7 8.46810 3.11738   1
   0   6   7 150.856 10.2296  -2
   0  -6  -7 150.856 10.2296   1
  -1  -6  -7 431.848 17.6585   1
  -2  -6  -7 85.0436 6.38618   1
   2   6   7 77.4703 14.3545   1
  -3  -6  -7 154.917 9.13073   1
   3   6   7 113.867 17.9495   1
  -4  -6  -7 45.3475 5.48059   1
   4   6   7 44.5551 12.0594   1
  -5  -6  -7 29.4800 5.09531   1
   5   6   7 21.1794 11.1302   1
  -6  -6  -7 -2.8974 7.20479   1
   6   6   7 -0.4589 15.2856   1
  -7  -6  -7 86.0964 14.6731   1
   7   6   7 103.533 20.5621   1
  -8  -6  -7 -20.906 8.82722   1
   8   6   7 -15.892 12.7099   1
   4  -7  -7 47.5726 9.25715   1
   3  -7  -7 50.3071 8.11136   1
   2  -7  -7 43.7094 5.18374   1
   1  -7  -7 35.0619 4.30096   1
   0   7   7 15.1659 3.85664  -2
   0  -7  -7 15.1659 3.85664   1
  -1  -7  -7 58.5004 4.77219   1
  -2  -7  -7 5.11641 3.01602   1
   2   7   7 -11.036 8.88893   1
  -3  -7  -7 50.4634 5.18614   1
   3   7   7 36.0469 12.9931   1
  -4  -7  -7 10.2464 3.71270   1
   4   7   7 -0.7387 10.1885   1
  -5  -7  -7 1.75281 4.09808   1
   5   7   7 35.5811 12.4032   1
  -6  -7  -7 53.2696 10.7820   1
   6   7   7 80.2951 17.2918   1
  -7  -7  -7 18.7549 9.87891   1
   7   7   7 58.9285 16.1634   1
  -8  -7  -7 9.22047 10.5773   1
   8   7   7 7.95944 18.4858   1
   3  -8  -7 9.51328 6.15935   1
   2  -8  -7 91.8170 9.30265   1
   1  -8  -7 -1.3562 3.03289   1
   0   8   7 72.2920 5.32430  -2
   0  -8  -7 72.2920 5.32430   1
  -1  -8  -7 -1.9630 2.51549   1
  -2  -8  -7 232.512 15.8427   1
   2   8   7 184.921 26.2616   1
  -3  -8  -7 46.5028 4.99899   1
   3   8   7 36.3032 13.8334   1
  -4  -8  -7 34.3455 4.88735   1
  -5  -8  -7 8.40397 4.23889   1
   5   8   7 1.25536 11.3126   1
  -6  -8  -7 0.62918 7.22052   1
   6   8   7 17.8715 13.3655   1
  -7  -8  -7 15.0178 9.39090   1
   7   8   7 8.61413 13.9013   1
   2  -9  -7 4.43110 5.11541   1
   1  -9  -7 0.80421 3.49091   1
   0   9   7 10.6535 3.98980  -2
   0  -9  -7 10.6535 3.98980   1
  -1  -9  -7 192.001 9.51598   1
  -2  -9  -7 7.64390 2.50409   1
  -3  -9  -7 54.3488 6.01969   1
   3   9   7 35.8157 15.4614   1
  -4  -9  -7 14.8338 4.18140   1
  -5  -9  -7 61.8868 7.26789   1
   5   9   7 74.3321 17.6423   1
  -6  -9  -7 -1.9542 7.24177   1
   6   9   7 -3.6058 12.0944   1
  -7  -9  -7 86.5107 13.9118   1
   7   9   7 43.8725 25.0876   1
   1 -10  -7 3.81083 4.50411   1
   0  10   7 51.4813 5.00962  -2
   0 -10  -7 51.4813 5.00962   1
  -1 -10  -7 50.7118 3.98419   1
  -2 -10  -7 42.0926 2.99503   1
  -3 -10  -7 4.20080 3.41239   1
   3  10   7 9.63202 15.0322   1
  -4   7   5 11.0983 8.35021  -2
  -4 -10  -7 11.0983 8.35021   1
  -5 -10  -7 -1.2156 6.96444   1
   5  10   7 -19.785 13.3969   1
  -6 -10  -7 24.5368 10.2813   1
   6  10   7 1.32589 14.2447   1
  -1 -11  -7 -17.304 12.4559   1
  -2 -11  -7 63.4748 17.5412   1
  -3 -11  -7 -19.301 12.4374   1
  -4 -11  -7 2.55539 3.76557   1
  -3  -9   8 34.6790 12.1497   1
  -2  -9   8 11.4545 9.78320   1
  -1  -9   8 61.7408 11.9331   1
   0   9  -8 -0.1124 10.6978  -2
   0  -9   8 -0.1124 10.6978   1
  -5  -8   8 22.8223 12.5078   1
  -4   5 -10 -8.7093 15.7603  -2
  -4  -8   8 -8.7093 15.7603   1
  -3  -8   8 12.7228 9.73291   1
  -2  -8   8 36.8142 10.8810   1
  -1  -8   8 15.1038 7.98444   1
   0   8  -8 48.8329 11.4195  -2
   0  -8   8 48.8329 11.4195   1
   1  -8   8 -2.1415 5.90693   1
   2  -8   8 3.29457 6.91206   1
   3  -8   8 31.0487 14.3724   1
   6   7  -8 25.9131 12.6042   1
  -6  -7   8 36.8448 14.8198   1
   5   7  -8 -13.099 8.33955   1
  -5  -7   8 16.9137 11.7799   1
   4  -4  10 20.5557 12.7248  -2
   4   7  -8 20.5557 12.7248   1
  -4  -7   8 7.66828 10.2840   1
   3   7  -8 60.0315 10.1680   1
  -3  -7   8 48.2444 11.7133   1
  -2  -7   8 130.771 20.0211   1
  -1  -7   8 15.9929 7.36723   1
   1  -7   8 -2.4295 5.62582   1
   2  -7   8 48.7110 9.12374   1
   3  -7   8 2.60327 6.69058   1
   4  10  -6 45.7583 15.0410  -2
   4  -7   8 45.7583 15.0410   1
   6   6  -8 78.3763 16.4921   1
  -6  -6   8 43.6919 14.6448   1
   5   6  -8 -1.9585 9.32738   1
  -5  -6   8 8.65314 10.5892   1
   4  -3  10 12.7443 12.8163  -2
   4   6  -8 12.7443 12.8163   1
  -4  -6   8 25.5049 10.2930   1
   3   6  -8 26.2896 6.77074   1
  -3  -6   8 30.2099 9.50385   1
   2   6  -8 12.3161 7.24129   1
  -2  -6   8 11.8714 5.91283   1
   1   6  -8 110.463 12.9956   1
  -1  -6   8 113.533 9.93706   1
   0  -6   8 0.90770 9.47619  -2
   0   6  -8 0.90770 9.47619   1
   0   6  -8 11.6033 8.03018  -2
   0  -6   8 11.6033 8.03018   1
   1  -6   8 6.33593 5.45762   1
   2  -6   8 -0.0022 5.48551   1
   3  -6   8 148.830 15.0784   1
   4   9  -6 17.2271 13.5654  -2
   4  -6   8 17.2271 13.5654   1
   5  -6   8 8.21029 8.51888   1
   7   5  -8 54.9974 16.8879   1
  -7  -5   8 55.8928 16.7769   1
   6   5  -8 -2.9258 10.6770   1
  -6  -5   8 54.1975 17.4294   1
   5   5  -8 9.12320 9.87960   1
  -5  -5   8 3.39848 9.90944   1
   4   5  -8 -6.5616 7.52683   1
  -4  -5   8 -4.1563 8.65905   1
   3   5  -8 21.6732 7.13200   1
  -3  -5   8 21.8047 6.57469   1
   2   5  -8 34.6906 4.61720   1
  -2  -5   8 31.7710 3.93781   1
   1   5  -8 289.922 22.8749   1
  -1  -5   8 295.308 16.9574   1
   0  -5   8 39.2244 10.0869  -2
   0   5  -8 39.2244 10.0869   1
   0   5  -8 59.6564 9.78712  -2
   0  -5   8 59.6564 9.78712   1
  -1   5  -8 14.8698 7.60484   1
   1  -5   8 19.7473 5.28726   1
  -2   5  -8 -1.5754 7.91094   1
   2  -5   8 7.25668 5.11803   1
   3  -5   8 204.696 11.6875   1
   4  -5   8 44.5033 9.60257   1
   5  -5   8 34.6292 9.59555   1
   7   4  -8 -0.0662 13.6225   1
  -7  -4   8 3.40419 14.0365   1
   6   4  -8 42.5000 14.8526   1
  -6  -4   8 53.0477 14.5872   1
   5   4  -8 9.64957 6.26582   1
  -5  -4   8 2.88928 9.70778   1
   4   4  -8 14.1168 5.68242   1
  -4  -4   8 30.5985 9.74820   1
   3   4  -8 14.3891 4.94249   1
  -3  -4   8 8.76334 5.52006   1
   2   4  -8 131.485 12.0035   1
  -2  -4   8 107.766 13.7933   1
   1   4  -8 0.96385 1.84782   1
  -1  -4   8 -4.4456 4.04289   1
   0   4  -8 214.051 18.1610  -2
   0  -4   8 214.051 18.1610   1
   1  -4   8 7.24824 4.94118   1
  -2   4  -8 102.515 14.1454   1
   2  -4   8 93.0972 8.62092   1
  -3   4  -8 -1.6788 4.42141   1
   3  -4   8 -3.2632 3.41345   1
   4   7  -6 284.996 24.1292  -2
   4  -4   8 284.996 24.1292   1
   5  -4   8 3.60578 5.35033   1
   6  -4   8 -3.4603 6.01102   1
   7   3  -8 34.6248 16.6458   1
  -7  -3   8 38.0143 14.5694   1
   6   3  -8 12.2963 10.1538   1
  -6  -3   8 24.0859 11.4712   1
   5   3  -8 -3.5335 5.47737   1
  -5  -3   8 -6.1842 8.37945   1
   4   3  -8 -0.8197 5.58633   1
  -4  -3   8 11.7461 8.25458   1
   3   3  -8 73.6953 8.23964   1
  -3  -3   8 85.2684 11.8571   1
   2   3  -8 296.926 16.3591   1
  -2  -3   8 312.088 17.0313   1
   1   3  -8 416.217 20.3442   1
  -1  -3   8 388.265 21.1809   1
   0  -3   8 141.413 6.20863  -2
   0   3  -8 141.413 6.20863   1
   0   3  -8 182.288 14.2968  -2
   0  -3   8 182.288 14.2968   1
  -1   3  -8 30.8235 7.79880   1
   1  -3   8 30.0213 5.14649   1
  -2   3  -8 39.9704 5.11637   1
   2  -3   8 46.6191 4.50555   1
  -3   3  -8 42.0533 10.4185   1
   3  -3   8 30.8773 7.49715   1
   4  -3   8 24.9663 5.32375   1
  -5   3  -8 -14.325 9.96820   1
   5  -3   8 -0.2409 4.91012   1
   6  -3   8 2.74861 5.95246   1
   7   8  -4 6.89999 12.9993  -2
   7  -3   8 6.89999 12.9993   1
   7   2  -8 47.2313 17.0977   1
  -7  -2   8 12.7113 13.7082   1
   6   2  -8 7.97935 7.39781   1
  -6  -2   8 58.7503 14.1387   1
   5   2  -8 -1.0716 5.85068   1
  -5  -2   8 4.95926 9.20948   1
   4   1  10 4.85860 14.2828  -2
   4   2  -8 4.85860 14.2828   1
  -4  -2   8 -3.5542 7.39095   1
   3   2  -8 109.398 9.38614   1
  -3  -2   8 111.362 13.2858   1
   2   2  -8 37.4458 5.50042   1
  -2  -2   8 65.0556 9.95272   1
   1   2  -8 526.091 26.6434   1
  -1  -2   8 601.848 37.9903   1
   0  -2   8 317.660 13.3439  -2
   0   2  -8 317.660 13.3439   1
   0   2  -8 375.264 24.2239  -2
   0  -2   8 375.264 24.2239   1
  -1   2  -8 -1.0563 2.84877   1
   1  -2   8 7.45885 3.72954   1
  -2   2  -8 10.6840 3.84170   1
   2  -2   8 21.4243 3.86487   1
  -3   2  -8 337.191 28.8794   1
   3  -2   8 380.597 19.2198   1
   4  -2   8 20.9901 5.07987   1
   5  -2   8 107.471 11.5013   1
  -6   2  -8 15.8664 13.0209   1
   6  -2   8 6.94821 5.75823   1
   7  -2   8 25.2971 10.9130   1
   7   1  -8 -4.9051 7.91203   1
   6   1  -8 88.5010 11.2408   1
  -6  -1   8 91.5122 16.5456   1
   5   1  -8 -2.4978 5.50314   1
  -5  -1   8 7.67020 10.0875   1
   4   1  -8 6.75759 5.25752   1
  -4  -1   8 -6.2158 7.65501   1
   3   1  -8 6.83989 4.76113   1
  -3  -1   8 7.12790 6.97928   1
   2   1  -8 809.106 55.0062   1
  -2  -1   8 795.124 53.1969   1
   1   1  -8 0.45816 3.39275   1
   0  -1   8 116.889 8.17439  -2
   0   1  -8 116.889 8.17439   1
  -1   1  -8 -0.4001 2.46618   1
   1  -1   8 -0.3800 3.17712   1
  -2   1  -8 668.447 44.4892   1
   2  -1   8 630.104 30.6545   1
  -3   1  -8 186.023 18.1423   1
   3  -1   8 194.426 11.6531   1
  -4   1  -8 283.226 25.3309   1
   4  -1   8 300.924 16.8398   1
  -5   1  -8 -2.8633 9.70164   1
   5  -1   8 -0.2103 4.94694   1
  -6   1  -8 7.65948 11.3762   1
   6  -1   8 15.0347 5.90536   1
   7  -1   8 14.0447 7.12469   1
   7   0  -8 -4.6337 7.75898   1
   6   0  -8 55.2228 9.67234   1
  -6   0   8 58.6404 14.1414   1
   5   0  -8 66.4130 9.06087   1
  -5   0   8 82.8708 13.9517   1
   4   3  10 29.0185 16.9890  -2
   4   0  -8 29.0185 16.9890   1
  -4   0   8 32.6230 9.44030   1
   3   0  -8 203.298 13.3910   1
  -3   0   8 200.654 18.1670   1
   2   0  -8 503.792 25.6001   1
  -2   0   8 499.649 35.2145   1
   1   0  -8 385.687 19.2650   1
  -1   0   8 322.319 25.6719   1
   0   0   8 0.08004 3.31146  -2
   0   0  -8 0.08004 3.31146   1
   0   0  -8 1.63006 6.12640  -2
   0   0   8 1.63006 6.12640   1
  -1   0  -8 77.0405 10.3106   1
   1   0   8 61.5263 6.38726   1
  -2   0  -8 230.732 19.2032   1
   2   0   8 225.210 12.6552   1
  -3   0  -8 268.844 21.1370   1
   3   0   8 236.171 13.6220   1
  -4  -3   6 160.614 20.5577  -2
  -4   0  -8 160.614 20.5577   1
   4   0   8 175.062 11.8218   1
  -5   0  -8 82.0416 14.6808   1
   5   0   8 78.6818 8.31304   1
  -6   0  -8 2.58206 10.7929   1
   6   0   8 -5.8360 4.93675   1
   7   0   8 -2.4829 6.16652   1
   8   0   8 28.8480 14.5029   1
   7  -1  -8 25.9417 10.4195   1
   6  -1  -8 4.12785 7.04102   1
   5  -1  -8 40.7211 8.28954   1
  -5   1   8 56.6940 12.1287   1
   4  -1  -8 8.21895 5.55413   1
  -4   1   8 21.5370 8.72692   1
   3  -1  -8 235.846 14.7360   1
  -3   1   8 207.973 19.1147   1
   2  -1  -8 1.41421 3.05167   1
  -2   1   8 6.84717 5.24426   1
   1  -1  -8 508.192 20.3028   1
  -1   1   8 485.555 34.1742   1
   0   1   8 29.1590 4.11020  -2
   0  -1  -8 29.1590 4.11020   1
   0  -1  -8 23.0129 6.36880  -2
   0   1   8 23.0129 6.36880   1
  -1  -1  -8 6.82313 2.95038   1
   1   1   8 4.48037 3.47611   1
  -2  -1  -8 27.8520 4.15411   1
   2   1   8 28.1575 4.37255   1
  -3  -1  -8 908.805 42.4510   1
   3   1   8 919.743 42.8206   1
  -4  -2   6 5.79285 12.5574  -2
  -4  -1  -8 5.79285 12.5574   1
   4   1   8 3.54447 3.84793   1
  -5  -1  -8 36.5174 10.3919   1
   5   1   8 41.5767 6.57733   1
  -6  -1  -8 -5.9306 9.69007   1
   6   1   8 -4.7233 4.85847   1
  -7  -1  -8 51.3695 15.5642   1
   7   1   8 61.0104 8.69635   1
  -8  -1  -8 -12.797 13.0840   1
   8   1   8 4.32431 12.5636   1
   7  -2  -8 49.1985 11.0963   1
   6  -2  -8 47.3968 9.15030   1
   5  -2  -8 1.09573 6.59796   1
  -5   2   8 10.7148 10.2501   1
   4  -2  -8 11.0464 6.10573   1
  -4   2   8 10.6111 8.13430   1
   3  -2  -8 -0.4022 3.84613   1
  -3   2   8 5.76444 6.27322   1
   2  -2  -8 529.028 21.6459   1
  -2   2   8 508.888 39.4623   1
   1  -2  -8 473.439 19.1911   1
   0   2   8 164.510 8.46142  -2
   0  -2  -8 164.510 8.46142   1
  -1  -2  -8 15.5112 3.32444   1
   1   2   8 17.1323 7.32715   1
  -2  -2  -8 197.742 11.4566   1
   2   2   8 205.180 11.8737   1
  -3  -2  -8 476.639 23.9557   1
   3   2   8 491.975 24.4525   1
  -4  -2  -8 169.446 11.0844   1
   4   2   8 169.355 11.0421   1
  -5  -2  -8 10.0132 8.23865   1
   5   2   8 -3.7624 3.73422   1
  -6  -2  -8 9.98324 10.0120   1
   6   2   8 3.43768 4.91177   1
  -7  -2  -8 8.31332 11.5108   1
   7   2   8 14.3245 10.9878   1
  -8  -2  -8 22.2162 16.1818   1
   8   2   8 32.0473 14.9312   1
   6  -3  -8 30.4967 8.77936   1
   5  -3  -8 17.7838 7.08910   1
   4  -3  -8 59.0973 8.65068   1
   3  -3  -8 124.475 8.44911   1
   2  -3  -8 695.769 29.3453   1
  -2   3   8 830.617 49.1661   1
   1  -3  -8 15.7030 3.33446   1
  -1   3   8 16.6954 5.39794   1
   0   3   8 55.3214 4.82821  -2
   0  -3  -8 55.3214 4.82821   1
   0  -3  -8 41.0160 7.09402  -2
   0   3   8 41.0160 7.09402   1
  -1  -3  -8 32.0063 4.21446   1
   1   3   8 20.9669 4.25288   1
  -2  -3  -8 85.3598 6.79318   1
   2   3   8 98.4771 7.50235   1
  -3  -3  -8 125.413 8.64774   1
   3   3   8 121.356 8.82805   1
  -4  -3  -8 160.321 10.7293   1
   4   3   8 162.379 18.3562   1
  -5  -3  -8 3.53846 4.34299   1
   5   3   8 8.91517 4.43780   1
  -6  -3  -8 -12.068 8.06789   1
   6   3   8 -0.0621 4.56561   1
  -7  -3  -8 9.88463 11.1529   1
   7   3   8 32.8379 13.1108   1
  -8  -3  -8 39.9802 22.7441   1
   8   3   8 22.2192 14.5503   1
   6  -4  -8 5.87240 7.80910   1
   5  -4  -8 0.79935 6.35237   1
   4  -4  -8 0.32991 6.14544   1
   3  -4  -8 95.8581 7.54093   1
  -3   4   8 71.1374 15.1153   1
   2  -4  -8 12.0720 3.69348   1
  -2   4   8 12.4786 6.26877   1
   1  -4  -8 347.600 15.4105   1
  -1   4   8 378.434 25.0977   1
   0   4   8 -1.5722 3.59141  -2
   0  -4  -8 -1.5722 3.59141   1
   0  -4  -8 4.21743 4.92503  -2
   0   4   8 4.21743 4.92503   1
  -1  -4  -8 39.6810 4.62443   1
   1   4   8 37.6602 4.91037   1
  -2  -4  -8 1.52388 2.63993   1
   2   4   8 2.53597 2.95116   1
  -3  -4  -8 504.511 45.3093   1
   3   4   8 653.303 30.8931   1
  -4  -4  -8 32.4093 5.03518   1
   4   4   8 35.7181 5.43312   1
  -5  -4  -8 5.68949 4.28260   1
   5   4   8 2.05708 4.13675   1
  -6  -4  -8 19.5347 10.1077   1
   6   4   8 7.02044 6.20680   1
  -7  -4  -8 16.8506 11.1893   1
   7   4   8 13.2377 12.7424   1
  -8  -4  -8 -6.5616 10.9710   1
   8   4   8 0.85121 12.3921   1
   5  -5  -8 5.87455 6.67366   1
   4  -5  -8 9.07917 6.51967   1
   3  -5  -8 -3.3117 5.03008   1
   2  -5  -8 184.187 10.2998   1
   1  -5  -8 186.227 9.67303   1
   0   5   8 23.6025 4.21305  -2
   0  -5  -8 23.6025 4.21305   1
  -1  -5  -8 19.2402 3.46732   1
   1   5   8 12.6393 9.82655   1
  -2  -5  -8 136.967 8.79404   1
   2   5   8 134.774 18.1344   1
  -3  -5  -8 148.055 9.29610   1
   3   5   8 112.979 17.2756   1
  -4  -5  -8 101.399 8.12275   1
   4   5   8 91.1615 15.9752   1
  -5  -5  -8 14.3086 4.52705   1
   5   5   8 34.8765 11.9735   1
  -6  -5  -8 7.08016 8.42032   1
   6   5   8 9.68641 11.7539   1
  -7  -5  -8 -11.499 8.84473   1
   7   5   8 14.1128 12.5743   1
  -8  -5  -8 3.85259 11.2071   1
   8   5   8 -6.3187 12.5446   1
   5  -6  -8 8.23173 7.34101   1
   4  -6  -8 17.3285 6.33040   1
   3  -6  -8 18.9881 6.13460   1
   2  -6  -8 310.775 14.5577   1
   1  -6  -8 5.09236 3.29235   1
   0   6   8 3.31963 3.85249  -2
   0  -6  -8 3.31963 3.85249   1
  -1  -6  -8 7.99974 3.57770   1
  -2  -6  -8 431.647 20.7566   1
   2   6   8 383.271 35.8924   1
  -3  -6  -8 10.9569 3.74604   1
   3   6   8 9.24005 9.95588   1
  -4  -6  -8 242.429 13.7148   1
   4   6   8 227.275 25.8822   1
  -5  -6  -8 3.54315 4.11741   1
   5   6   8 -17.858 8.35331   1
  -6  -6  -8 6.41326 8.41425   1
   6   6   8 3.18906 11.0871   1
  -7  -6  -8 6.91140 8.64803   1
   7   6   8 -1.8239 12.2049   1
  -8  -6  -8 50.7772 13.6751   1
   8   6   8 50.3308 19.2474   1
   4  -7  -8 3.66876 6.45303   1
   3  -7  -8 41.9608 7.85734   1
   2  -7  -8 50.1355 6.18141   1
   1  -7  -8 155.184 8.89619   1
   0   7   8 2.61574 3.81245  -2
   0  -7  -8 2.61574 3.81245   1
  -1  -7  -8 9.93695 3.21223   1
  -2  -7  -8 9.96537 3.66222   1
   2   7   8 11.8157 12.7153   1
  -3  -7  -8 236.676 13.2157   1
   3   7   8 230.423 26.3962   1
  -4  -7  -8 6.12189 4.68305   1
   4   7   8 1.85792 10.7527   1
  -5  -7  -8 35.1312 7.38641   1
   5   7   8 23.7480 17.3348   1
  -6  -7  -8 36.9491 9.79591   1
   6   7   8 2.94428 11.9279   1
  -7  -7  -8 17.6434 9.29856   1
   7   7   8 27.7679 14.8375   1
  -8  -7  -8 9.14437 11.1833   1
   8   7   8 18.3094 15.5111   1
   3  -8  -8 35.4320 7.40632   1
   2  -8  -8 41.9479 6.71995   1
   1  -8  -8 150.857 8.89058   1
   0   8   8 8.23540 6.05921  -2
   0  -8  -8 8.23540 6.05921   1
  -1  -8  -8 3.22752 2.92551   1
  -2  -8  -8 12.4103 3.52221   1
   2   8   8 2.29188 12.3829   1
  -3  -8  -8 105.899 7.84447   1
   3   8   8 97.0928 18.7550   1
  -4  -8  -8 22.7323 4.71256   1
  -5  -8  -8 10.0907 4.72845   1
   5   8   8 13.4088 12.8229   1
  -6  -8  -8 12.5975 8.05772   1
   6   8   8 17.9902 13.5345   1
  -7  -8  -8 23.4430 10.2097   1
   7   8   8 -0.9814 13.6292   1
   2  -9  -8 110.415 10.9016   1
   1  -9  -8 1.53303 4.30470   1
   0   9   8 60.4865 5.58315  -2
   0  -9  -8 60.4865 5.58315   1
  -1  -9  -8 3.62869 2.79186   1
  -2  -9  -8 16.4517 3.34303   1
  -3  -9  -8 37.6043 5.18562   1
   3   9   8 44.0807 16.2566   1
  -4   6   6 151.017 14.9866  -2
  -4  -9  -8 151.017 14.9866   1
  -5  -9  -8 -4.1721 6.81264   1
   5   9   8 -1.1302 12.4657   1
  -6  -9  -8 28.8795 9.62324   1
   6   9   8 57.2246 18.9931   1
  -7  -9  -8 -2.1126 8.39875   1
   7   9   8 -23.764 14.2831   1
   1 -10  -8 23.4814 15.1732   1
   0  10   8 4.43000 4.02625  -2
   0 -10  -8 4.43000 4.02625   1
  -1 -10  -8 7.85899 2.70047   1
  -2 -10  -8 52.5698 4.29832   1
  -3 -10  -8 85.1346 6.27270   1
   3  10   8 74.0108 20.2733   1
  -4   7   6 67.9940 11.1459  -2
  -4 -10  -8 67.9940 11.1459   1
  -5 -10  -8 35.6397 9.71833   1
   5  10   8 29.1359 16.8416   1
  -6 -10  -8 1.62254 8.64098   1
  -1 -11  -8 -3.6444 2.23448   1
  -2 -11  -8 20.1418 15.6331   1
  -3 -11  -8 55.9395 3.91906   1
  -4 -11  -8 8.41225 4.41723   1
  -3  -9   9 -12.067 16.5345   1
  -2  -9   9 28.5765 11.1006   1
  -1  -9   9 3.22544 8.34258   1
  -5  -8   9 -2.6708 13.6644   1
  -4   5 -11 17.2417 19.7122  -2
  -4  -8   9 17.2417 19.7122   1
  -3  -8   9 3.90415 10.0812   1
  -2  -8   9 10.4568 9.70717   1
  -1  -8   9 63.0619 11.6730   1
   0   8  -9 44.4416 12.2507  -2
   0  -8   9 44.4416 12.2507   1
   1  -8   9 30.3489 9.01000   1
   2  -8   9 2.48396 7.39007   1
   5   7  -9 36.5086 13.3760   1
  -5  -7   9 44.2467 14.5185   1
  -4   4 -11 22.6148 18.0118  -2
  -4  -7   9 22.6148 18.0118   1
  -3  -7   9 5.08168 9.20794   1
  -2  -7   9 6.99879 8.32443   1
  -1  -7   9 104.191 13.8075   1
   0   7  -9 17.6685 9.94646  -2
   0  -7   9 17.6685 9.94646   1
   1  -7   9 21.7080 7.89983   1
   2  -7   9 2.11116 6.66130   1
   3  -7   9 2.21770 7.24759   1
   6   6  -9 10.5014 12.6532   1
  -6  -6   9 23.5167 14.4137   1
   5   6  -9 11.5314 10.2818   1
  -5  -6   9 8.00172 11.3751   1
   4  -3  11 15.9121 12.9994  -2
   4   6  -9 15.9121 12.9994   1
   3   6  -9 18.2531 6.21620   1
  -3  -6   9 20.9944 9.72177   1
  -2  -6   9 34.0382 10.1712   1
  -1  -6   9 5.27113 6.85105   1
   0   6  -9 248.195 21.6780  -2
   0  -6   9 248.195 21.6780   1
   1  -6   9 -0.0168 5.55444   1
   2  -6   9 -4.4752 7.16325   1
   3  -6   9 -1.9116 6.31051   1
   4  -6   9 21.3368 8.96648   1
   6   5  -9 69.5998 17.1840   1
  -6  -5   9 50.5815 15.0564   1
   5   5  -9 70.5621 13.6800   1
  -5  -5   9 47.2216 14.0421   1
   4   5  -9 157.094 17.0029   1
  -4  -5   9 144.700 19.1655   1
   3   5  -9 2.49290 6.00184   1
  -3  -5   9 20.9838 9.24996   1
   2   5  -9 94.1077 9.32580   1
  -2  -5   9 85.9924 9.92317   1
   1   5  -9 47.0052 13.4626   1
  -1  -5   9 65.3751 8.05929   1
   0  -5   9 105.394 14.4403  -2
   0   5  -9 105.394 14.4403   1
   0   5  -9 140.914 14.6896  -2
   0  -5   9 140.914 14.6896   1
  -1   5  -9 0.46370 7.57593   1
   1  -5   9 1.91702 4.85328   1
  -2   5  -9 1.41146 11.2232   1
   2  -5   9 0.57389 6.00139   1
   3  -5   9 3.36658 6.19735   1
   4  -5   9 10.1502 7.72828   1
   5  -5   9 34.7368 10.2759   1
   7   4  -9 19.0262 15.8822   1
  -7  -4   9 1.02143 13.3031   1
   6   4  -9 -1.0404 13.1808   1
  -6  -4   9 -1.6288 11.1127   1
   5   4  -9 109.435 18.4495   1
  -5  -4   9 150.747 19.0037   1
   4   4  -9 12.2234 7.83995   1
  -4  -4   9 2.75349 9.57200   1
   3   4  -9 -8.5450 4.24089   1
  -3  -4   9 -1.7357 7.27593   1
   2   4  -9 107.817 9.07221   1
  -2  -4   9 103.274 10.4653   1
   1   4  -9 52.9946 3.69147   1
  -1  -4   9 46.4025 7.08180   1
   0   4  -9 26.0695 9.28460  -2
   0  -4   9 26.0695 9.28460   1
  -1   4  -9 435.317 34.9082   1
   1  -4   9 418.236 22.4536   1
  -2   4  -9 5.25820 8.20433   1
   2  -4   9 -2.4171 5.01348   1
  -3   4  -9 -5.6352 9.58860   1
   3  -4   9 7.48675 3.61114   1
   4   7  -7 -7.0126 10.7622  -2
   4  -4   9 -7.0126 10.7622   1
   5  -4   9 200.717 14.2536   1
   6  -4   9 11.5552 9.79058   1
   7   3  -9 25.0930 15.9402   1
  -7  -3   9 7.74318 13.8661   1
   6   3  -9 134.595 21.0986   1
  -6  -3   9 170.673 21.4682   1
   5   3  -9 26.3439 7.71081   1
  -5  -3   9 23.0519 11.3306   1
   4   0  11 160.846 20.5923  -2
   4   3  -9 160.846 20.5923   1
  -4  -3   9 80.1016 13.8377   1
   3   3  -9 4.06875 5.23795   1
  -3  -3   9 5.03864 7.77146   1
   2   3  -9 98.5142 8.79078   1
  -2  -3   9 130.649 13.7706   1
   1   3  -9 42.4856 4.40568   1
  -1  -3   9 73.7477 10.1479   1
   0  -3   9 291.409 12.3877  -2
   0   3  -9 291.409 12.3877   1
   0   3  -9 384.824 24.3045  -2
   0  -3   9 384.824 24.3045   1
  -1   3  -9 227.160 9.77521   1
   1  -3   9 207.428 17.8791   1
  -2   3  -9 23.6000 4.09785   1
   2  -3   9 20.7666 4.06848   1
  -3   3  -9 64.4063 13.2160   1
   3  -3   9 93.0577 7.82551   1
   4  -3   9 40.4419 6.50583   1
   5  -3   9 44.1167 7.16957   1
   6  -3   9 80.1509 9.97894   1
   7   2  -9 21.2347 14.8526   1
  -7  -2   9 21.7145 15.4770   1
   6   2  -9 33.8888 9.55802   1
  -6  -2   9 27.1011 13.6362   1
   5   2  -9 8.39304 7.00134   1
  -5  -2   9 -2.0668 9.68468   1
   4   1  11 40.0001 15.3765  -2
   4   2  -9 40.0001 15.3765   1
  -4  -2   9 23.7377 10.3371   1
   3   2  -9 6.69520 7.67207   1
  -3  -2   9 8.13004 7.85491   1
   2   2  -9 68.4945 7.78249   1
  -2  -2   9 75.7483 11.6838   1
   1   2  -9 13.4802 4.52480   1
  -1  -2   9 21.8740 7.08001   1
   0  -2   9 240.116 10.9816  -2
   0   2  -9 240.116 10.9816   1
   0   2  -9 289.688 20.5785  -2
   0  -2   9 289.688 20.5785   1
  -1   2  -9 95.0327 5.78433   1
   1  -2   9 99.2811 10.9486   1
  -2   2  -9 55.3330 6.65464   1
   2  -2   9 79.0669 6.76541   1
  -3   2  -9 32.7800 10.7994   1
   3  -2   9 27.9129 5.05485   1
   4  -2   9 102.824 9.19959   1
  -5   2  -9 36.8932 13.4620   1
   5  -2   9 17.7413 5.83202   1
   6  -2   9 62.8588 8.77884   1
   7   7  -5 12.1125 12.6565  -2
   7  -2   9 12.1125 12.6565   1
   7   1  -9 24.0203 16.6351   1
   6   1  -9 11.4267 9.23668   1
  -6  -1   9 4.60456 11.5887   1
   5   1  -9 141.841 12.9989   1
  -5  -1   9 105.634 17.3352   1
   4   2  11 136.618 21.1977  -2
   4   1  -9 136.618 21.1977   1
  -4  -1   9 168.187 18.1806   1
   3   1  -9 34.1125 6.73147   1
  -3  -1   9 30.2464 8.98137   1
   2   1  -9 -0.7729 4.40088   1
  -2  -1   9 -7.9663 5.19154   1
   1   1  -9 148.600 10.2890   1
  -1  -1   9 138.960 14.0994   1
   0   1  -9 39.8371 8.39748  -2
   0  -1   9 39.8371 8.39748   1
  -1   1  -9 575.304 27.6745   1
   1  -1   9 554.329 38.3977   1
   2  -1   9 -1.6876 3.58597   1
  -3   1  -9 93.1775 14.0107   1
   3  -1   9 103.762 8.38828   1
   4   4  -7 10.8603 12.8487  -2
   4  -1   9 10.8603 12.8487   1
  -5   1  -9 103.240 16.8790   1
   5  -1   9 72.4853 8.63901   1
  -6   1  -9 0.29616 13.0919   1
   6  -1   9 9.24968 7.77154   1
   7  -1   9 4.88284 7.17919   1
   7   0  -9 30.1175 12.3200   1
   6   0  -9 47.6836 9.74667   1
   5   0  -9 15.6452 7.33025   1
  -5   0   9 2.35453 10.3976   1
   4   3  11 100.719 19.4157  -2
   4   0  -9 100.719 19.4157   1
  -4   0   9 56.6815 11.7673   1
   3   0  -9 9.31793 5.58223   1
  -3   0   9 -2.7628 6.44511   1
   2   0  -9 1.18940 4.58930   1
  -2   0   9 10.9802 6.44245   1
   1   0  -9 133.193 9.69758   1
  -1   0   9 108.762 12.7080   1
   0   0   9 466.803 23.1912  -2
   0   0  -9 466.803 23.1912   1
   0   0  -9 429.289 31.3935  -2
   0   0   9 429.289 31.3935   1
  -1   0  -9 344.255 18.3398   1
   1   0   9 336.581 18.2595   1
  -2   0  -9 34.1278 8.34931   1
   2   0   9 19.7892 4.31427   1
  -3   0  -9 37.3714 9.98383   1
   3   0   9 45.7953 6.07107   1
  -4  -3   7 264.270 25.9424  -2
  -4   0  -9 264.270 25.9424   1
   4   0   9 221.696 13.9168   1
  -5   0  -9 168.671 20.6107   1
   5   0   9 186.858 13.2473   1
  -6   0  -9 48.1590 13.9291   1
   6   0   9 34.9152 7.22021   1
  -7   0  -9 -10.231 12.9977   1
   7   0   9 0.32523 6.55036   1
   8   0   9 -5.4310 13.0237   1
   7  -1  -9 32.4719 17.8704   1
   6  -1  -9 168.275 15.4462   1
   5  -1  -9 -6.2306 6.45912   1
  -5   1   9 11.3219 10.3001   1
   4  -1  -9 136.607 11.7948   1
  -4   1   9 116.580 15.4428   1
   3  -1  -9 41.5172 7.37643   1
  -3   1   9 36.2136 9.61805   1
   2  -1  -9 223.519 13.9116   1
  -2   1   9 196.910 17.9153   1
   1  -1  -9 1.83017 3.04807   1
  -1   1   9 7.82544 5.54008   1
   0   1   9 1078.27 39.7762  -2
   0  -1  -9 1078.27 39.7762   1
   0  -1  -9 990.608 67.4985  -2
   0   1   9 990.608 67.4985   1
  -1  -1  -9 31.6512 4.08686   1
   1   1   9 55.1827 6.22190   1
  -2  -1  -9 1.96001 3.47806   1
   2   1   9 0.77235 3.46055   1
  -3  -1  -9 1.27609 6.85668   1
   3   1   9 3.44709 3.71516   1
  -4  -1  -9 144.735 17.1186   1
   4   1   9 154.950 10.9692   1
  -5  -1  -9 -6.2183 8.70312   1
   5   1   9 6.59641 4.94891   1
  -6  -1  -9 86.4829 15.9461   1
   6   1   9 79.7690 9.25808   1
  -7  -1  -9 4.70531 13.5534   1
   7   1   9 11.1858 10.9354   1
  -8  -1  -9 10.5466 16.8760   1
   8   1   9 3.45776 12.8471   1
   6  -2  -9 21.8856 11.5879   1
   5  -2  -9 9.03017 7.35760   1
   4  -2  -9 5.63822 5.26911   1
  -4   2   9 7.84678 8.08108   1
   3  -2  -9 106.903 9.30945   1
  -3   2   9 126.612 14.3721   1
   2  -2  -9 60.6220 5.92837   1
  -2   2   9 49.6428 9.49004   1
   1  -2  -9 717.743 28.4817   1
  -1   2   9 745.315 48.1764   1
   0   2   9 109.840 6.98858  -2
   0  -2  -9 109.840 6.98858   1
  -1  -2  -9 651.674 25.1608   1
   1   2   9 621.537 31.1968   1
  -2  -2  -9 2.84887 3.45498   1
   2   2   9 5.79652 4.85824   1
  -3  -2  -9 49.1932 5.73380   1
   3   2   9 50.7843 6.21852   1
  -4  -2  -9 15.1834 4.86586   1
   4   2   9 15.1984 4.71070   1
  -5  -2  -9 225.625 21.9204   1
   5   2   9 210.588 14.0965   1
  -6  -2  -9 46.6658 13.0764   1
   6   2   9 56.1169 7.96745   1
  -7  -2  -9 -2.8731 10.7468   1
   7   2   9 -2.5794 10.4767   1
  -8  -2  -9 -18.754 12.6843   1
   8   2   9 16.3222 13.5675   1
   6  -3  -9 12.5361 8.30083   1
   5  -3  -9 158.914 14.7652   1
   4  -3  -9 -1.8281 6.10199   1
   3  -3  -9 16.5726 5.09595   1
   2  -3  -9 1.03683 3.53965   1
  -2   3   9 5.26189 6.16148   1
   1  -3  -9 260.227 12.5471   1
  -1   3   9 293.915 20.6808   1
   0   3   9 138.406 7.70049  -2
   0  -3  -9 138.406 7.70049   1
   0  -3  -9 118.956 11.4848  -2
   0   3   9 118.956 11.4848   1
  -1  -3  -9 216.411 10.4873   1
   1   3   9 217.605 13.0520   1
  -2  -3  -9 23.3403 4.31109   1
   2   3   9 17.9344 4.27672   1
  -3  -3  -9 44.0262 5.44692   1
   3   3   9 49.6817 7.64083   1
  -4  -3  -9 17.1747 4.88897   1
   4   3   9 33.0374 10.4460   1
  -5  -3  -9 387.192 30.8062   1
   5   3   9 361.172 20.7944   1
  -6  -3  -9 10.5679 9.68463   1
   6   3   9 18.0327 6.07890   1
  -7  -3  -9 29.6079 13.1198   1
   7   3   9 -8.1104 10.2578   1
  -8  -3  -9 2.75002 13.0140   1
   8   3   9 -3.4237 12.9747   1
   6  -4  -9 47.1345 10.8442   1
   5  -4  -9 7.73319 7.66034   1
   4  -4  -9 54.7253 8.84121   1
   3  -4  -9 46.8663 7.78259   1
  -3   4   9 41.4982 13.7924   1
   2  -4  -9 20.8764 4.50896   1
  -2   4   9 15.9498 7.23709   1
   1  -4  -9 31.7354 4.43144   1
  -1   4   9 40.2530 7.18336   1
   0   4   9 765.503 30.5996  -2
   0  -4  -9 765.503 30.5996   1
   0  -4  -9 846.603 50.9190  -2
   0   4   9 846.603 50.9190   1
  -1  -4  -9 54.9838 5.03416   1
   1   4   9 39.5587 5.84329   1
  -2  -4  -9 36.7425 4.92504   1
   2   4   9 29.2219 5.04646   1
  -3  -4  -9 -4.0885 3.44649   1
   3   4   9 3.87864 4.17481   1
  -4  -4  -9 117.880 9.42380   1
   4   4   9 117.943 9.62035   1
  -5  -4  -9 6.91388 4.71662   1
   5   4   9 -4.3544 4.46918   1
  -6  -4  -9 69.0042 13.6029   1
   6   4   9 95.0144 17.7187   1
  -7  -4  -9 -10.912 12.4449   1
   7   4   9 -2.5465 11.4264   1
  -8  -4  -9 -0.8984 12.6888   1
   8   4   9 2.20335 13.3195   1
   5  -5  -9 45.6608 9.46208   1
   4  -5  -9 22.8566 7.90035   1
   3  -5  -9 13.1258 6.12869   1
   2  -5  -9 7.14864 4.03322   1
   1  -5  -9 220.882 11.2714   1
   0   5   9 110.862 6.97239  -2
   0  -5  -9 110.862 6.97239   1
  -1  -5  -9 74.4090 6.03913   1
  -2  -5  -9 2.48777 3.34798   1
   2   5   9 3.59359 8.69252   1
  -3  -5  -9 14.7034 4.17007   1
   3   5   9 32.6463 11.0403   1
  -4  -5  -9 43.4483 5.75938   1
   4   5   9 54.7119 12.7350   1
  -5  -5  -9 173.871 12.3848   1
   5   5   9 223.340 23.9038   1
  -6  -5  -9 7.82693 9.74260   1
   6   5   9 59.8735 14.9356   1
  -7  -5  -9 9.72307 11.0159   1
   7   5   9 1.09210 12.8086   1
  -8  -5  -9 -8.1673 10.6970   1
   8   5   9 -4.9738 13.0521   1
   4  -6  -9 14.2277 7.45866   1
   3  -6  -9 2.70791 5.66221   1
   2  -6  -9 17.3391 4.34782   1
   1  -6  -9 80.4493 6.57195   1
   0   6   9 12.7480 4.47143  -2
   0  -6  -9 12.7480 4.47143   1
  -1  -6  -9 221.633 10.9494   1
  -2  -6  -9 1.14200 3.52613   1
   2   6   9 4.89475 10.0336   1
  -3  -6  -9 72.4076 6.96514   1
   3   6   9 67.4804 14.7072   1
  -4  -6  -9 15.8910 4.72003   1
   4   6   9 11.6244 10.7431   1
  -5  -6  -9 77.6313 8.16961   1
   5   6   9 91.2312 16.7312   1
  -6  -6  -9 14.5169 9.22764   1
   6   6   9 9.61739 11.9130   1
  -7  -6  -9 12.3441 10.9088   1
   7   6   9 -7.7026 12.1874   1
  -8  -6  -9 10.6607 12.0703   1
   8   6   9 -14.694 13.1164   1
   4  -7  -9 -2.1506 20.6003   1
   3  -7  -9 5.63408 6.66769   1
   2  -7  -9 18.2166 6.11532   1
   1  -7  -9 17.7181 3.93747   1
   0   7   9 273.432 12.8746  -2
   0  -7  -9 273.432 12.8746   1
  -1  -7  -9 24.5316 4.15058   1
  -2  -7  -9 12.8886 4.25228   1
   2   7   9 -5.2348 11.6125   1
  -3  -7  -9 5.49051 4.17798   1
   3   7   9 37.9814 14.0072   1
  -4  -7  -9 137.728 10.2637   1
   4   7   9 155.201 21.5395   1
  -5  -7  -9 7.68009 7.83073   1
   5   7   9 11.4643 12.8501   1
  -6  -7  -9 75.0894 13.4991   1
   6   7   9 49.3847 16.4295   1
  -7  -7  -9 21.3466 10.1135   1
   7   7   9 -6.6449 12.4189   1
   3  -8  -9 -0.2182 14.3777   1
   2  -8  -9 11.9369 6.11433   1
   1  -8  -9 82.0392 6.88067   1
   0   8   9 269.682 12.6852  -2
   0  -8  -9 269.682 12.6852   1
  -1  -8  -9 83.3791 8.59548   1
  -2  -8  -9 3.39413 3.71988   1
   2   8   9 0.20146 12.5892   1
  -3  -8  -9 15.0902 4.71348   1
  -4  -8  -9 54.6785 6.57351   1
   4   8   9 42.4174 15.7748   1
  -5  -8  -9 17.7043 8.44590   1
   5   8   9 16.0482 14.0764   1
  -6  -8  -9 9.01533 8.53944   1
   6   8   9 8.39498 13.7784   1
  -7  -8  -9 15.8926 10.1358   1
   7   8   9 -25.549 14.8469   1
   2  -9  -9 -5.1552 5.64207   1
   1  -9  -9 109.704 10.3319   1
   0   9   9 -6.0325 4.46687  -2
   0  -9  -9 -6.0325 4.46687   1
  -1  -9  -9 59.3725 5.65144   1
  -2  -9  -9 7.96859 3.41895   1
  -3  -9  -9 15.0750 4.72034   1
   3   9   9 20.5025 15.3105   1
  -4   6   7 -4.0009 10.3210  -2
  -4  -9  -9 -4.0009 10.3210   1
  -5  -9  -9 31.9097 9.88517   1
   5   9   9 42.8623 17.1349   1
  -6  -9  -9 -6.0089 7.87020   1
   6   9   9 21.2301 15.8556   1
   0  10   9 74.0252 8.46328  -2
   0 -10  -9 74.0252 8.46328   1
  -1 -10  -9 7.04880 3.21209   1
  -2 -10  -9 7.55208 3.16726   1
  -3 -10  -9 1.63639 3.79290   1
   3  10   9 6.50865 15.8665   1
  -4   7   7 24.0051 11.3229  -2
  -4 -10  -9 24.0051 11.3229   1
  -5 -10  -9 31.1232 10.4986   1
   5  10   9 16.5667 17.9802   1
  -3 -11  -9 1.34230 4.06320   1
  -4   5 -12 39.5121 22.3884  -2
  -4  -8  10 39.5121 22.3884   1
  -3  -8  10 1.66987 11.4721   1
  -2  -8  10 20.7852 10.6359   1
  -1  -8  10 -1.4287 8.13699   1
   0   8 -10 39.4551 12.8769  -2
   0  -8  10 39.4551 12.8769   1
   1  -8  10 64.1225 12.5304   1
  -5  -7  10 6.62943 12.8276   1
  -4   4 -12 77.5812 21.3831  -2
  -4  -7  10 77.5812 21.3831   1
  -3  -7  10 7.65075 10.1741   1
  -2  -7  10 6.44522 8.78062   1
  -1  -7  10 6.78598 7.78791   1
   0   7 -10 62.8799 12.7548  -2
   0  -7  10 62.8799 12.7548   1
   1  -7  10 16.0835 7.98308   1
   2  -7  10 29.3513 8.89122   1
   3  -7  10 19.5045 9.34672   1
   5   6 -10 49.7786 13.3827   1
  -5  -6  10 46.5545 14.8271   1
   4  -3  12 4.37469 13.4110  -2
   4   6 -10 4.37469 13.4110   1
  -4  -6  10 -7.3910 10.1563   1
  -3  -6  10 79.0958 22.3078   1
  -2  -6  10 23.1870 10.2683   1
  -1  -6  10 16.5127 8.21745   1
   0   6 -10 48.9494 11.3307  -2
   0  -6  10 48.9494 11.3307   1
   1  -6  10 112.656 14.8004   1
   2  -6  10 -7.4833 6.04384   1
   3  -6  10 12.3282 8.16708   1
   4   9  -8 9.48613 14.4332  -2
   4  -6  10 9.48613 14.4332   1
   6   5 -10 4.71383 13.4795   1
  -6  -5  10 -4.0649 12.8431   1
   5   5 -10 8.63480 10.9843   1
  -5  -5  10 -3.8283 14.5633   1
   4  -2  12 54.6111 15.0527  -2
   4   5 -10 54.6111 15.0527   1
  -4  -5  10 51.6025 13.2462   1
   3   5 -10 39.3198 8.40043   1
  -3  -5  10 49.4201 11.5521   1
   2   5 -10 6.18985 4.56485   1
  -2  -5  10 6.65979 8.75779   1
  -1  -5  10 24.2392 8.99043   1
   0   5 -10 64.2339 12.0978  -2
   0  -5  10 64.2339 12.0978   1
   1  -5  10 76.1774 11.9452   1
   2  -5  10 56.4359 10.4004   1
   3  -5  10 16.7209 7.46065   1
   4  -5  10 14.0463 8.41980   1
   5  -5  10 7.06376 9.42719   1
   6   4 -10 -3.2421 12.8308   1
  -6  -4  10 12.4183 13.5228   1
   5   4 -10 10.6100 11.6592   1
  -5  -4  10 -4.4956 10.2442   1
   4  -1  12 210.324 16.5626  -2
   4   4 -10 210.324 16.5626   1
  -4  -4  10 171.481 19.6857   1
   3   4 -10 2.30482 5.29927   1
  -3  -4  10 -13.442 7.71136   1
   2   4 -10 71.6454 7.93594   1
  -2  -4  10 93.0347 13.1634   1
   1   4 -10 6.45497 2.39466   1
  -1  -4  10 0.19640 6.88777   1
   0  -4  10 65.3802 13.3561  -2
   0   4 -10 65.3802 13.3561   1
   0   4 -10 83.8164 11.8518  -2
   0  -4  10 83.8164 11.8518   1
  -1   4 -10 73.9841 12.7055   1
   1  -4  10 114.397 12.4939   1
  -2   4 -10 71.7437 13.7994   1
   2  -4  10 109.211 12.8439   1
  -3   4 -10 -7.4783 10.3734   1
   3  -4  10 -6.4378 6.27838   1
   4   7  -8 7.95102 12.8486  -2
   4  -4  10 7.95102 12.8486   1
   5  -4  10 -0.9989 12.7278   1
   6   3 -10 -1.7095 12.8797   1
  -6  -3  10 13.2503 12.9464   1
   5   3 -10 29.9363 8.38363   1
  -5  -3  10 19.9946 12.5348   1
   4   0  12 81.3040 17.8845  -2
   4   3 -10 81.3040 17.8845   1
  -4  -3  10 71.4350 13.7207   1
   3   3 -10 290.680 17.1290   1
  -3  -3  10 242.731 26.0415   1
   2   3 -10 13.9243 5.54989   1
  -2  -3  10 8.68623 7.60621   1
   1   3 -10 -2.8147 4.09815   1
  -1  -3  10 0.87380 6.50572   1
   0  -3  10 209.151 12.7123  -2
   0   3 -10 209.151 12.7123   1
   0   3 -10 267.906 20.4405  -2
   0  -3  10 267.906 20.4405   1
  -1   3 -10 137.420 6.52126   1
   1  -3  10 173.317 14.6852   1
  -2   3 -10 12.5346 3.00671   1
   2  -3  10 24.5405 9.58271   1
  -3   3 -10 66.6697 13.1331   1
   3  -3  10 27.0099 5.14898   1
   4   6  -8 3.15440 11.3007  -2
   4  -3  10 3.15440 11.3007   1
   5  -3  10 16.0410 6.37929   1
   6  -3  10 5.19786 7.26322   1
   6   2 -10 19.7018 14.6881   1
  -6  -2  10 11.2405 13.4840   1
   5   2 -10 -1.5723 7.04646   1
  -5  -2  10 19.8115 12.5550   1
   4   1  12 214.932 25.0855  -2
   4   2 -10 214.932 25.0855   1
  -4  -2  10 177.477 19.6699   1
   3   2 -10 173.681 12.7847   1
  -3  -2  10 169.391 19.0057   1
   2   2 -10 10.0423 7.97955   1
  -2  -2  10 24.9560 8.79228   1
   1   2 -10 5.18176 4.76870   1
  -1  -2  10 6.66947 6.49062   1
   0  -2  10 2.91677 5.70784  -2
   0   2 -10 2.91677 5.70784   1
   0   2 -10 -2.4954 7.13572  -2
   0  -2  10 -2.4954 7.13572   1
  -1   2 -10 123.051 7.21653   1
   1  -2  10 147.973 13.9230   1
  -2   2 -10 79.6677 13.3715   1
   2  -2  10 76.7558 7.41949   1
  -3   2 -10 240.060 24.4220   1
   3  -2  10 287.106 15.6312   1
   4   5  -8 -1.7470 12.0943  -2
   4  -2  10 -1.7470 12.0943   1
  -5   2 -10 59.0693 15.6917   1
   5  -2  10 67.8766 8.46445   1
   6  -2  10 12.2184 7.48568   1
   7   7  -6 41.0701 13.6412  -2
   7  -2  10 41.0701 13.6412   1
   6   1 -10 -3.6356 8.50303   1
  -6  -1  10 -9.5213 12.9998   1
   5   1 -10 94.0727 11.4898   1
  -5  -1  10 95.1189 16.4772   1
   4   2  12 119.458 21.1756  -2
   4   1 -10 119.458 21.1756   1
  -4  -1  10 143.018 17.9774   1
   3   1 -10 32.4227 7.19591   1
  -3  -1  10 25.7169 9.64327   1
   2   1 -10 5.77491 5.40255   1
  -2  -1  10 -10.276 6.74440   1
   1   1 -10 -0.7273 4.73479   1
  -1  -1  10 4.19087 6.16796   1
   0  -1  10 130.857 9.72083  -2
   0   1 -10 130.857 9.72083   1
   0   1 -10 128.601 13.2629  -2
   0  -1  10 128.601 13.2629   1
  -1   1 -10 6.82155 4.18384   1
   1  -1  10 8.09210 6.14315   1
  -2   1 -10 129.368 16.3480   1
   2  -1  10 150.937 10.1680   1
  -3   1 -10 24.5955 9.40339   1
   3  -1  10 9.10804 4.62069   1
   4   4  -8 54.1186 14.8399  -2
   4  -1  10 54.1186 14.8399   1
  -5   1 -10 7.82412 11.8306   1
   5  -1  10 4.24140 5.64732   1
  -6   1 -10 57.9906 16.9390   1
   6  -1  10 43.5596 8.55005   1
   7   6  -6 -8.1782 19.2351  -2
   7  -1  10 -8.1782 19.2351   1
   6   0 -10 4.86113 7.99983   1
   5   0 -10 27.2358 8.28100   1
  -5   0  10 -3.1490 10.3401   1
   4   3  12 134.775 22.3410  -2
   4   0 -10 134.775 22.3410   1
  -4   0  10 59.9547 12.4108   1
   3   0 -10 368.038 20.6726   1
  -3   0  10 318.356 28.3918   1
   2   0 -10 189.385 13.4835   1
  -2   0  10 179.041 17.8127   1
   1   0 -10 55.1002 7.13280   1
  -1   0  10 27.6282 8.13407   1
   0   0  10 11.3235 5.76050  -2
   0   0 -10 11.3235 5.76050   1
   0   0 -10 2.93201 7.70236  -2
   0   0  10 2.93201 7.70236   1
  -1   0 -10 228.344 13.9404   1
   1   0  10 241.443 19.2696   1
  -2   0 -10 279.696 23.2298   1
   2   0  10 260.687 15.2540   1
  -3   0 -10 131.712 16.2093   1
   3   0  10 144.631 10.4252   1
   4   0  10 25.1740 5.74857   1
  -5   0 -10 59.9545 14.4537   1
   5   0  10 75.3701 8.69536   1
  -6   0 -10 32.6446 15.1593   1
   6   0  10 40.7006 7.79525   1
  -7   0 -10 9.24640 16.1283   1
   7   0  10 -3.1945 11.1443   1
   6  -1 -10 2.43874 8.56993   1
   5  -1 -10 107.993 12.2768   1
   4   4  12 11.3669 17.5157  -2
   4  -1 -10 11.3669 17.5157   1
  -4   1  10 27.6178 10.1991   1
   3  -1 -10 79.6820 9.94440   1
  -3   1  10 73.3103 12.5467   1
   2  -1 -10 18.2147 5.91668   1
  -2   1  10 22.3292 7.63479   1
   1  -1 -10 27.0068 5.86465   1
  -1   1  10 23.9333 7.23505   1
   0   1  10 42.8805 5.04141  -2
   0  -1 -10 42.8805 5.04141   1
   0  -1 -10 20.2254 7.57918  -2
   0   1  10 20.2254 7.57918   1
  -1  -1 -10 409.521 17.5721   1
   1   1  10 441.932 29.9356   1
  -2  -1 -10 16.8713 7.76778   1
   2   1  10 8.75499 4.40637   1
  -3  -1 -10 195.809 19.9695   1
   3   1  10 217.925 13.2945   1
  -4  -1 -10 28.5785 11.0700   1
   4   1  10 45.5981 7.33937   1
  -5  -1 -10 39.2635 13.6107   1
   5   1  10 54.7591 8.14891   1
  -6  -1 -10 2.39049 11.2611   1
   6   1  10 20.8706 6.85281   1
  -7  -1 -10 6.88656 14.1329   1
   7   1  10 42.6588 14.8917   1
   8   1  10 -3.1043 13.0373   1
   6  -2 -10 1.43739 8.02199   1
   5  -2 -10 -10.406 6.76533   1
   4  -2 -10 186.421 14.7941   1
  -4   2  10 186.697 20.1316   1
   3  -2 -10 3.01208 5.62404   1
  -3   2  10 -4.9287 7.38797   1
   2  -2 -10 77.3992 6.94025   1
  -2   2  10 91.8600 11.4327   1
   1  -2 -10 3.82490 4.17124   1
  -1   2  10 2.07949 6.71862   1
   0   2  10 94.6536 6.72205  -2
   0  -2 -10 94.6536 6.72205   1
  -1  -2 -10 4.45216 3.33840   1
   1   2  10 -2.3630 5.89633   1
  -2  -2 -10 536.693 37.4695   1
   2   2  10 508.411 26.1574   1
  -3  -2 -10 15.7399 4.64126   1
   3   2  10 15.0689 4.50443   1
   4   2  10 -1.4665 4.64252   1
  -5  -2 -10 6.43940 9.54539   1
   5   2  10 1.92091 5.18067   1
  -6  -2 -10 181.344 22.3500   1
   6   2  10 181.023 14.2330   1
  -7  -2 -10 38.2088 15.1565   1
   7   2  10 26.0713 13.6404   1
  -8  -2 -10 15.4232 21.1082   1
   8   2  10 8.79312 14.9673   1
   6  -3 -10 6.68855 8.10145   1
   5  -3 -10 6.88366 7.16931   1
   4  -3 -10 159.553 14.1839   1
   3  -3 -10 15.4900 6.44451   1
   2  -3 -10 32.3652 4.94171   1
  -2   3  10 17.6007 8.82909   1
   1  -3 -10 64.9101 5.89428   1
  -1   3  10 46.4807 8.37606   1
   0   3  10 253.087 14.7975  -2
   0  -3 -10 253.087 14.7975   1
   0  -3 -10 250.002 19.3338  -2
   0   3  10 250.002 19.3338   1
  -1  -3 -10 284.994 13.3248   1
   1   3  10 290.453 21.2919   1
  -2  -3 -10 261.880 15.1925   1
   2   3  10 253.978 19.1179   1
  -3  -3 -10 63.5976 7.12398   1
   3   3  10 63.4859 12.1790   1
  -4  -3 -10 7.87627 5.18690   1
   4   3  10 9.75725 9.30381   1
  -5  -3 -10 28.9163 11.3108   1
   5   3  10 35.3532 7.94090   1
  -6  -3 -10 54.3712 14.1329   1
   6   3  10 42.2943 13.6228   1
  -7  -3 -10 -23.992 10.7023   1
   7   3  10 -15.415 10.8803   1
  -8  -3 -10 24.4059 15.4822   1
   8   3  10 24.0436 14.6737   1
   5  -4 -10 6.18109 8.29565   1
   4  -4 -10 6.51828 6.47456   1
   3  -4 -10 267.832 18.1830   1
   2  -4 -10 2.93815 4.12391   1
  -2   4  10 19.2076 7.89438   1
   1  -4 -10 47.0294 5.22229   1
  -1   4  10 47.5636 8.25511   1
   0   4  10 10.1188 7.26860  -2
   0  -4 -10 10.1188 7.26860   1
   0  -4 -10 7.53152 7.07579  -2
   0   4  10 7.53152 7.07579   1
  -1  -4 -10 581.430 23.9237   1
   1   4  10 609.081 38.6307   1
  -2  -4 -10 2.79725 3.84141   1
   2   4  10 1.22234 4.40209   1
  -3  -4 -10 65.7931 7.13499   1
   3   4  10 59.8068 8.77622   1
  -4  -4 -10 -2.1019 4.20518   1
   4   4  10 1.91798 4.61509   1
  -5  -4 -10 56.2037 12.7445   1
   5   4  10 63.1515 8.53101   1
  -6  -4 -10 2.86198 10.2170   1
   6   4  10 20.6322 13.0519   1
  -7  -4 -10 45.8623 14.4347   1
   7   4  10 99.4145 18.9610   1
  -8  -4 -10 3.22748 12.6548   1
   8   4  10 -8.4666 12.6415   1
   5  -5 -10 13.4961 8.52108   1
   4  -5 -10 61.9962 10.2067   1
   3  -5 -10 75.8882 9.44857   1
   2  -5 -10 24.4366 5.63942   1
   1  -5 -10 58.1886 5.66673   1
   0   5  10 9.56746 4.99414  -2
   0  -5 -10 9.56746 4.99414   1
  -1  -5 -10 33.4828 4.56230   1
  -2  -5 -10 182.209 11.8090   1
   2   5  10 245.946 24.0994   1
  -3  -5 -10 90.7045 8.19965   1
   3   5  10 68.7760 14.7785   1
  -4  -5 -10 13.7158 4.86905   1
   4   5  10 13.9305 10.3884   1
  -5  -5 -10 6.50719 8.85536   1
   5   5  10 1.31572 10.6151   1
  -6  -5 -10 39.3219 15.0990   1
   6   5  10 52.4950 15.4850   1
  -7  -5 -10 9.13619 11.5646   1
   7   5  10 35.3655 15.2650   1
  -8  -5 -10 24.2987 13.5936   1
   8   5  10 -11.416 14.3167   1
   4  -6 -10 90.4874 11.8853   1
   3  -6 -10 19.7601 7.34438   1
   2  -6 -10 48.8649 8.08350   1
   1  -6 -10 21.2085 4.12946   1
   0   6  10 62.0023 6.68621  -2
   0  -6 -10 62.0023 6.68621   1
  -1  -6 -10 183.465 9.80832   1
  -2  -6 -10 319.714 17.3089   1
   2   6  10 304.594 31.5081   1
  -3  -6 -10 3.96736 4.29781   1
   3   6  10 13.4610 10.7827   1
  -4  -6 -10 -3.7255 4.19471   1
   4   6  10 -1.0381 10.0680   1
   5   6  10 -4.1770 11.2932   1
  -6  -6 -10 63.9722 13.7082   1
   6   6  10 81.9119 18.4388   1
  -7  -6 -10 -2.9439 10.0550   1
   7   6  10 0.89666 13.4150   1
   3  -7 -10 87.6239 11.0662   1
   2  -7 -10 -3.2103 5.51371   1
   1  -7 -10 4.38454 3.96305   1
   0   7  10 -5.0070 7.46979  -2
   0  -7 -10 -5.0070 7.46979   1
  -1  -7 -10 145.481 9.04170   1
  -2  -7 -10 2.26264 3.74836   1
   2   7  10 1.80290 12.3889   1
  -3  -7 -10 43.5748 6.24966   1
   3   7  10 28.5635 14.6356   1
  -4  -7 -10 12.4060 4.95020   1
   4   7  10 9.82279 12.7379   1
  -5  -7 -10 12.6883 8.98255   1
   5   7  10 -1.4410 12.5834   1
  -6  -7 -10 0.71617 8.58427   1
   6   7  10 -5.3841 12.8488   1
  -7  -7 -10 35.9202 12.1710   1
   7   7  10 28.4317 16.6515   1
   3  -8 -10 4.89145 15.6959   1
   2  -8 -10 -11.630 5.19213   1
   1  -8 -10 19.4930 5.25483   1
   0   8  10 37.5070 5.99127  -2
   0  -8 -10 37.5070 5.99127   1
  -1  -8 -10 27.7775 4.72007   1
  -2  -8 -10 37.0621 5.20419   1
  -3  -8 -10 45.4166 6.56858   1
   3   8  10 40.3201 16.0383   1
  -4  -8 -10 4.07187 4.83804   1
   4   8  10 0.68728 13.2539   1
  -5  -8 -10 29.3120 10.1321   1
   5   8  10 13.4356 13.5713   1
  -6  -8 -10 30.2922 10.9343   1
   6   8  10 43.2404 16.4494   1
  -7  -8 -10 18.2172 11.3556   1
   7   8  10 8.42387 15.8423   1
   1  -9 -10 -3.2472 5.33742   1
   0   9  10 26.4308 7.24780  -2
   0  -9 -10 26.4308 7.24780   1
  -1  -9 -10 19.9912 4.20287   1
  -2  -9 -10 150.525 9.23357   1
  -3  -9 -10 -22.205 8.58246   1
   3   9  10 23.5046 16.7052   1
  -4  -9 -10 11.1705 8.65666   1
  -5  -9 -10 0.79235 9.06729   1
   5   9  10 4.63317 14.3767   1
  -6  -9 -10 27.4856 12.5205   1
   0  10  10 14.3206 9.60413  -2
   0 -10 -10 14.3206 9.60413   1
  -1 -10 -10 51.1382 5.32699   1
  -2 -10 -10 27.5494 4.42714   1
  -3 -10 -10 20.9115 4.86756   1
  -4 -10 -10 8.82766 9.27343   1
  -5 -10 -10 3.18885 9.27296   1
   5  10  10 16.7187 26.9850   1
  -3  -8  11 10.8445 12.6096   1
  -2  -8  11 22.9551 12.4114   1
  -1  -8  11 76.3586 13.9316   1
   0   8 -11 1.39066 12.5607  -2
   0  -8  11 1.39066 12.5607   1
  -4   4 -13 5.51274 20.8674  -2
  -4  -7  11 5.51274 20.8674   1
  -3  -7  11 74.9640 16.0842   1
  -2  -7  11 42.3442 12.6216   1
  -1  -7  11 50.4947 11.7253   1
   0   7 -11 21.8074 11.5705  -2
   0  -7  11 21.8074 11.5705   1
   1  -7  11 16.8466 9.08977   1
   2  -7  11 0.19452 8.00264   1
  -5  -6  11 -13.308 12.4540   1
  -4  -6  11 16.5324 13.3410   1
  -3  -6  11 21.1140 12.2109   1
  -2  -6  11 112.756 16.3762   1
  -1  -6  11 22.0334 16.0856   1
   1  -6  11 3.35186 8.07607   1
   2  -6  11 66.1308 11.3742   1
   3  -6  11 8.71968 8.80687   1
   5   5 -11 21.3893 12.7076   1
  -5  -5  11 -4.0930 12.6156   1
  -4  -5  11 1.64005 11.5860   1
   3   5 -11 51.5005 9.49062   1
  -3  -5  11 45.0985 12.7241   1
   2   5 -11 23.9914 6.22937   1
  -2  -5  11 27.1570 10.5003   1
  -1  -5  11 54.7371 11.2000   1
   0   5 -11 4.66520 9.87645  -2
   0  -5  11 4.66520 9.87645   1
   1  -5  11 6.54737 7.72166   1
   2  -5  11 48.6644 10.1135   1
   3  -5  11 71.9723 13.4068   1
   4   8  -9 38.5320 15.6170  -2
   4  -5  11 38.5320 15.6170   1
   6   4 -11 3.84447 14.0872   1
  -6  -4  11 12.6832 14.7818   1
   5   4 -11 2.11979 12.4566   1
  -5  -4  11 15.0949 12.8749   1
   4  -1  13 5.42081 15.1435  -2
   4   4 -11 5.42081 15.1435   1
  -4  -4  11 19.0190 11.4832   1
   3   4 -11 63.8506 8.42463   1
  -3  -4  11 63.2250 13.2274   1
   2   4 -11 5.82760 5.13743   1
  -2  -4  11 5.74964 8.31169   1
   1   4 -11 57.4988 4.85524   1
  -1  -4  11 71.4960 11.8601   1
   0  -4  11 25.7610 12.9366  -2
   0   4 -11 25.7610 12.9366   1
   0   4 -11 46.3944 10.9521  -2
   0  -4  11 46.3944 10.9521   1
  -1   4 -11 3.42047 9.32110   1
   1  -4  11 13.1811 7.97795   1
  -2   4 -11 -7.7030 9.30027   1
   2  -4  11 12.9726 7.23174   1
   3  -4  11 111.788 14.6787   1
   4   7  -9 12.7243 14.2612  -2
   4  -4  11 12.7243 14.2612   1
   5  -4  11 -6.7701 8.53839   1
   6   3 -11 95.7782 19.4201   1
  -6  -3  11 62.9837 18.2150   1
   5   3 -11 -9.9011 10.7066   1
  -5  -3  11 -7.3224 11.4068   1
   4   0  13 -8.9318 15.3856  -2
   4   3 -11 -8.9318 15.3856   1
  -4  -3  11 -11.188 10.3011   1
   3   3 -11 17.4796 6.83766   1
  -3  -3  11 24.7748 10.5287   1
   2   3 -11 218.321 14.5315   1
  -2  -3  11 251.130 23.9048   1
   1   3 -11 29.0100 9.99900   1
  -1  -3  11 35.8465 9.30337   1
   0  -3  11 47.5413 6.18132  -2
   0   3 -11 47.5413 6.18132   1
   0   3 -11 51.9341 10.4033  -2
   0  -3  11 51.9341 10.4033   1
  -1   3 -11 4.88454 2.42109   1
  -2   3 -11 14.0151 4.18001   1
   2  -3  11 19.1511 7.42997   1
  -3   3 -11 12.1706 11.6778   1
   3  -3  11 1.99918 4.49435   1
   4   6  -9 34.5197 12.3314  -2
   4  -3  11 34.5197 12.3314   1
   5  -3  11 9.68225 7.22048   1
   6  -3  11 1.18848 12.3796   1
   6   2 -11 18.3067 15.2854   1
  -6  -2  11 -5.5549 14.2997   1
   5   2 -11 -4.7316 7.90860   1
  -5  -2  11 -4.8153 11.4071   1
   4   1  13 132.739 21.0606  -2
   4   2 -11 132.739 21.0606   1
  -4  -2  11 76.3654 15.5356   1
   3   2 -11 22.5303 7.15560   1
  -3  -2  11 31.1412 10.7417   1
   2   2 -11 409.399 23.0447   1
  -2  -2  11 451.953 33.0931   1
   1   2 -11 226.609 15.0574   1
  -1  -2  11 285.980 22.6098   1
   0   2 -11 33.2916 10.3699  -2
   0  -2  11 33.2916 10.3699   1
  -1   2 -11 -0.6788 4.71818   1
   1  -2  11 1.85289 6.96220   1
  -2   2 -11 207.808 23.1366   1
   2  -2  11 266.912 20.7918   1
  -3   2 -11 89.2298 15.7273   1
   3  -2  11 85.3947 8.64886   1
   4   5  -9 122.826 16.0564  -2
   4  -2  11 122.826 16.0564   1
  -5   2 -11 47.0846 16.1404   1
   5  -2  11 10.2635 6.16390   1
   6  -2  11 5.43169 7.34902   1
   6   1 -11 12.2537 9.70202   1
   5   1 -11 -8.0467 7.92526   1
  -5  -1  11 0.15323 11.3262   1
   4   2  13 67.3441 12.6072  -2
   4   1 -11 67.3441 12.6072   1
  -4  -1  11 26.6283 11.4652   1
   3   1 -11 78.2495 10.1537   1
  -3  -1  11 67.8654 13.1137   1
   2   1 -11 85.4576 9.67978   1
  -2  -1  11 61.8726 11.7823   1
   1   1 -11 222.047 14.7803   1
  -1  -1  11 241.514 20.5781   1
   0  -1  11 42.9431 7.42461  -2
   0   1 -11 42.9431 7.42461   1
   0   1 -11 40.7304 9.76337  -2
   0  -1  11 40.7304 9.76337   1
  -1   1 -11 116.387 9.49584   1
   1  -1  11 133.563 13.6934   1
  -2   1 -11 64.0273 12.5481   1
   2  -1  11 71.3213 7.72091   1
  -3   1 -11 181.989 19.8327   1
   3  -1  11 167.583 11.7401   1
   4   4  -9 9.50440 12.4468  -2
   4  -1  11 9.50440 12.4468   1
  -5   1 -11 90.5048 17.6248   1
   5  -1  11 118.348 10.9584   1
  -6   1 -11 -12.823 15.0565   1
   6  -1  11 -0.5161 6.48037   1
   7   6  -7 50.9061 22.0675  -2
   7  -1  11 50.9061 22.0675   1
   6   0 -11 11.1026 9.29313   1
   5   0 -11 14.3313 8.61766   1
  -5   0  11 26.5116 14.3711   1
   4   3  13 17.4061 19.6687  -2
   4   0 -11 17.4061 19.6687   1
  -4   0  11 3.68705 9.74370   1
   3   0 -11 123.601 11.8354   1
  -3   0  11 127.688 15.9197   1
   2   0 -11 67.8801 8.58758   1
   1   0 -11 127.896 10.8912   1
  -1   0  11 120.049 14.4975   1
   0   0  11 40.2143 7.60523  -2
   0   0 -11 40.2143 7.60523   1
   0   0 -11 40.4886 10.3575  -2
   0   0  11 40.4886 10.3575   1
  -1   0 -11 0.68582 4.70486   1
   1   0  11 10.3656 6.69237   1
  -2   0 -11 145.869 17.3835   1
   2   0  11 147.840 12.0672   1
  -3   0 -11 18.5002 10.0250   1
   3   0  11 30.1735 5.76290   1
   4   0  11 136.919 14.6799   1
  -5   0 -11 85.9271 16.6595   1
   5   0  11 62.3966 8.46174   1
  -6   0 -11 9.11709 14.5297   1
   6   0  11 -2.0990 6.19779   1
  -7   0 -11 9.03408 17.0072   1
   7   5  -7 21.4142 20.3203  -2
   7   0  11 21.4142 20.3203   1
   6  -1 -11 92.0137 22.0416   1
   5  -1 -11 4.77876 8.34351   1
   4   4  13 -1.0791 16.9144  -2
   4  -1 -11 -1.0791 16.9144   1
  -4   1  11 -2.8842 10.0742   1
   3  -1 -11 0.98174 6.68171   1
  -3   1  11 11.6419 9.39827   1
   2  -1 -11 433.582 23.4295   1
  -2   1  11 369.688 30.8794   1
   1  -1 -11 91.8701 9.78186   1
  -1   1  11 98.3695 12.0493   1
   0   1  11 217.108 14.4715  -2
   0  -1 -11 217.108 14.4715   1
   0  -1 -11 219.518 19.0991  -2
   0   1  11 219.518 19.0991   1
  -1  -1 -11 3.66465 4.83558   1
   1   1  11 13.8409 6.23993   1
  -2  -1 -11 13.2534 9.03292   1
   2   1  11 19.0091 5.68525   1
  -3  -1 -11 0.17369 8.45370   1
   3   1  11 5.51559 4.87768   1
  -4  -1 -11 93.6679 15.5108   1
   4   1  11 76.1569 8.64351   1
  -5  -1 -11 14.4319 11.5935   1
   5   1  11 12.5582 6.10608   1
  -6  -1 -11 8.50370 12.5853   1
   6   1  11 -4.1828 5.72416   1
  -7  -1 -11 -11.140 14.6243   1
   7   1  11 22.3826 13.8056   1
   6  -2 -11 -4.2261 8.66652   1
   5  -2 -11 9.51359 7.81780   1
   4  -2 -11 -5.2791 6.45346   1
   3  -2 -11 172.604 14.5660   1
  -3   2  11 195.569 19.1787   1
   2  -2 -11 51.0975 8.36113   1
  -2   2  11 41.6804 9.61961   1
   1  -2 -11 169.575 9.77209   1
  -1   2  11 155.278 15.7450   1
   0   2  11 59.5758 7.38104  -2
   0  -2 -11 59.5758 7.38104   1
   0  -2 -11 45.0071 9.72110  -2
   0   2  11 45.0071 9.72110   1
  -1  -2 -11 23.3601 4.34166   1
   1   2  11 26.3625 7.01037   1
  -2  -2 -11 74.4452 7.61081   1
   2   2  11 69.0705 7.80528   1
  -3  -2 -11 240.028 27.6848   1
   3   2  11 273.424 16.0164   1
   4   2  11 20.8653 6.08851   1
  -5  -2 -11 41.4550 12.9520   1
   5   2  11 71.2128 8.58213   1
  -6  -2 -11 14.2117 13.0020   1
   6   2  11 -4.2977 10.8310   1
  -7  -2 -11 50.2610 16.6794   1
   7   2  11 54.6742 16.1975   1
   5  -3 -11 -13.218 7.32840   1
   4  -3 -11 17.5076 7.84667   1
   3  -3 -11 61.4315 9.49418   1
   2  -3 -11 112.031 9.11010   1
   1  -3 -11 10.5577 4.33825   1
  -1   3  11 -0.7844 6.08917   1
   0   3  11 34.3121 5.89945  -2
   0  -3 -11 34.3121 5.89945   1
   0  -3 -11 33.0363 8.52795  -2
   0   3  11 33.0363 8.52795   1
  -1  -3 -11 15.5334 3.90709   1
   1   3  11 14.2375 6.26419   1
  -2  -3 -11 12.6601 4.73122   1
   2   3  11 3.92564 5.22480   1
  -3  -3 -11 50.2938 6.57787   1
   3   3  11 40.5494 11.7266   1
  -4  -3 -11 101.934 9.95184   1
   4   3  11 128.241 17.9693   1
  -5  -3 -11 29.7702 11.6058   1
   5   3  11 24.7685 11.7171   1
  -6  -3 -11 4.65151 11.2573   1
   6   3  11 9.95309 13.8647   1
  -7  -3 -11 65.8047 24.9933   1
   7   3  11 13.7142 14.3160   1
   5  -4 -11 -15.094 8.79240   1
   4  -4 -11 13.0080 7.23482   1
   3  -4 -11 3.73632 6.42030   1
   2  -4 -11 340.826 20.7482   1
   1  -4 -11 2.27401 4.29519   1
  -1   4  11 2.01368 6.57808   1
   0   4  11 50.2418 6.49275  -2
   0  -4 -11 50.2418 6.49275   1
   0  -4 -11 59.9624 9.95499  -2
   0   4  11 59.9624 9.95499   1
  -1  -4 -11 -6.3608 3.37283   1
   1   4  11 11.7202 5.88801   1
  -2  -4 -11 242.277 14.8626   1
   2   4  11 247.329 15.4659   1
  -3  -4 -11 -2.0136 4.41542   1
   3   4  11 -0.8286 5.97052   1
  -4  -4 -11 201.547 13.3587   1
   4   4  11 198.362 13.7446   1
  -5  -4 -11 -0.1061 8.90041   1
   5   4  11 24.5725 12.3478   1
  -6  -4 -11 19.8276 12.4802   1
   6   4  11 6.49986 12.4194   1
  -7  -4 -11 5.38709 12.6631   1
   7   4  11 0.24800 12.5312   1
   4  -5 -11 3.12812 7.55516   1
   3  -5 -11 35.0382 8.11498   1
   2  -5 -11 39.8453 8.50456   1
   1  -5 -11 78.0730 6.87338   1
   0   5  11 15.3776 6.03125  -2
   0  -5 -11 15.3776 6.03125   1
  -1  -5 -11 45.5578 5.48308   1
  -2  -5 -11 67.0195 7.64011   1
   2   5  11 84.3111 16.4164   1
  -3  -5 -11 359.396 19.6963   1
   3   5  11 353.018 33.2159   1
  -4  -5 -11 14.1196 5.42632   1
   4   5  11 15.2887 11.2310   1
  -5  -5 -11 44.2901 12.3261   1
  -6  -5 -11 6.02494 10.9498   1
   6   5  11 7.87754 12.2343   1
  -7  -5 -11 -1.3643 11.9184   1
   7   5  11 15.2030 14.9504   1
   4  -6 -11 1.07366 7.58146   1
   3  -6 -11 19.3544 7.88967   1
   2  -6 -11 10.8707 6.36829   1
   1  -6 -11 114.589 10.9777   1
   0   6  11 9.35728 5.64035  -2
   0  -6 -11 9.35728 5.64035   1
  -1  -6 -11 11.5556 4.09066   1
  -2  -6 -11 33.3061 5.17437   1
   2   6  11 13.9324 12.8144   1
  -3  -6 -11 257.122 15.6198   1
   3   6  11 265.628 28.7935   1
  -4  -6 -11 18.7377 7.19971   1
   4   6  11 16.3635 13.7060   1
  -5  -6 -11 33.6985 11.2844   1
   5   6  11 5.35431 11.7185   1
  -6  -6 -11 18.7695 11.4135   1
   6   6  11 53.6826 16.8722   1
  -7  -6 -11 9.55060 11.7809   1
   7   6  11 -6.6081 12.8368   1
   3  -7 -11 11.6859 7.38138   1
   2  -7 -11 150.958 13.5094   1
   1  -7 -11 -2.1986 5.44411   1
   0   7  11 20.1954 8.32639  -2
   0  -7 -11 20.1954 8.32639   1
  -1  -7 -11 10.3119 4.21809   1
  -2  -7 -11 37.8122 5.57275   1
  -3  -7 -11 19.3345 5.52597   1
   3   7  11 27.5542 13.9370   1
  -4  -7 -11 88.8242 14.7636   1
   4   7  11 89.8281 18.6269   1
  -5  -7 -11 22.1548 10.1897   1
   5   7  11 10.1910 13.0807   1
  -6  -7 -11 12.4260 9.83661   1
   6   7  11 -11.076 12.6147   1
  -7  -7 -11 -11.721 10.6560   1
   7   7  11 -8.5696 16.1095   1
   2  -8 -11 71.6535 11.5492   1
   1  -8 -11 56.6057 8.63026   1
   0   8  11 5.05684 8.02412  -2
   0  -8 -11 5.05684 8.02412   1
  -1  -8 -11 5.28422 4.02036   1
  -2  -8 -11 9.63477 4.71513   1
  -3  -8 -11 77.7581 8.40218   1
   3   8  11 47.3176 17.8499   1
  -4  -8 -11 38.9131 11.2271   1
   4   8  11 26.0588 15.9224   1
  -5  -8 -11 -10.411 8.11299   1
   5   8  11 26.3142 17.2960   1
  -6  -8 -11 2.80810 9.88813   1
   6   8  11 15.1763 15.6366   1
   1  -9 -11 67.1452 9.78575   1
   0   9  11 17.2896 7.02212  -2
   0  -9 -11 17.2896 7.02212   1
  -1  -9 -11 8.01499 5.42113   1
  -2  -9 -11 7.86130 5.92792   1
  -3  -9 -11 67.6695 10.3823   1
   3   9  11 52.1686 19.3071   1
  -4  -9 -11 -6.0198 8.91689   1
   4   9  11 -10.179 14.6466   1
  -5  -9 -11 18.0042 10.6196   1
   5   9  11 23.3287 17.1145   1
  -1 -10 -11 5.44908 27.7813   1
  -2 -10 -11 33.7984 6.66230   1
  -3 -10 -11 11.5065 6.75846   1
  -4 -10 -11 28.3379 12.8340   1
  -3  -7  12 7.57635 12.0351   1
  -2  -7  12 19.7997 11.3853   1
  -1  -7  12 17.6703 10.3834   1
   0   7 -12 95.7999 15.9061  -2
   0  -7  12 95.7999 15.9061   1
   1  -7  12 13.5812 9.97126   1
  -4  -6  12 3.01954 13.0112   1
  -3  -6  12 5.91927 11.2175   1
  -2  -6  12 24.5193 11.9308   1
  -1  -6  12 106.558 15.5499   1
   0   6 -12 -1.3272 11.3734  -2
   0  -6  12 -1.3272 11.3734   1
   1  -6  12 9.55717 9.09447   1
   2  -6  12 -8.7737 8.14699   1
   3  -6  12 -6.5367 8.39435   1
   5   5 -12 47.8606 15.6028   1
  -5  -5  12 15.1816 14.6975   1
   4  -2  14 97.8167 18.5705  -2
   4   5 -12 97.8167 18.5705   1
  -4  -5  12 78.0057 17.2421   1
  -3  -5  12 6.05598 11.0319   1
  -2  -5  12 26.2112 11.1698   1
  -1  -5  12 104.851 15.1861   1
   0   5 -12 161.982 18.0762  -2
   0  -5  12 161.982 18.0762   1
   1  -5  12 7.56483 8.36654   1
   2  -5  12 -7.2548 9.32609   1
   3  -5  12 -5.7923 7.70188   1
   4   8 -10 22.4652 16.4601  -2
   4  -5  12 22.4652 16.4601   1
   5   4 -12 35.8361 14.8752   1
  -5  -4  12 23.8590 16.0944   1
   4  -1  14 113.350 19.4531  -2
   4   4 -12 113.350 19.4531   1
  -4  -4  12 67.4133 15.3352   1
   3   4 -12 11.7874 9.05250   1
  -3  -4  12 25.1777 11.4258   1
   2   4 -12 50.8595 8.05843   1
  -2  -4  12 75.7765 13.7830   1
   1   4 -12 8.76633 3.97059   1
  -1  -4  12 16.6499 9.29134   1
   0  -4  12 184.651 21.5914  -2
   0   4 -12 184.651 21.5914   1
   0   4 -12 215.451 19.9155  -2
   0  -4  12 215.451 19.9155   1
  -1   4 -12 7.23662 10.2172   1
   1  -4  12 17.2563 8.86133   1
   2  -4  12 -3.3355 7.11918   1
   3  -4  12 7.26920 8.51116   1
   5  -4  12 1.23086 9.51116   1
   5   3 -12 101.628 22.1975   1
  -5  -3  12 71.2688 17.9814   1
   4   0  14 44.5098 19.0467  -2
   4   3 -12 44.5098 19.0467   1
  -4  -3  12 4.00569 12.1303   1
   3   3 -12 11.2072 10.3557   1
  -3  -3  12 20.1753 10.4804   1
   2   3 -12 6.34748 6.87117   1
  -2  -3  12 13.7238 9.86757   1
   1   3 -12 171.833 12.5761   1
  -1  -3  12 245.856 20.8569   1
   0  -3  12 58.1247 7.20574  -2
   0   3 -12 58.1247 7.20574   1
   0   3 -12 53.9531 12.1753  -2
   0  -3  12 53.9531 12.1753   1
  -1   3 -12 46.0824 4.58074   1
   1  -3  12 42.7986 10.0393   1
  -2   3 -12 6.54980 4.30231   1
   2  -3  12 10.5310 8.03041   1
  -3   3 -12 2.86665 4.86919   1
   3  -3  12 2.94195 7.37109   1
   4  -3  12 9.33230 9.10465   1
   5  -3  12 81.3291 14.2925   1
   6   2 -12 11.6435 16.4975   1
   5   2 -12 58.3178 16.7097   1
  -5  -2  12 46.8387 15.8066   1
   4   1  14 21.7268 13.5661  -2
   4   2 -12 21.7268 13.5661   1
  -4  -2  12 23.8961 12.2988   1
   3   2 -12 -1.4773 6.86462   1
  -3  -2  12 -8.5187 9.85753   1
   2   2 -12 10.0019 6.62015   1
  -2  -2  12 29.4485 10.2433   1
   1   2 -12 14.8142 6.23232   1
  -1  -2  12 18.7870 9.47015   1
   0  -2  12 139.149 11.0317  -2
   0   2 -12 139.149 11.0317   1
   0   2 -12 141.916 15.9934  -2
   0  -2  12 141.916 15.9934   1
  -1   2 -12 55.5967 7.54385   1
   1  -2  12 87.7059 12.3970   1
  -2   2 -12 0.31341 4.85282   1
   2  -2  12 0.10179 7.10086   1
  -3   2 -12 1.18235 11.0089   1
   3  -2  12 9.09456 5.44334   1
   4  -2  12 6.50090 7.96396   1
   5  -2  12 41.5082 7.94856   1
   6  -2  12 2.45369 9.90610   1
   6   1 -12 36.6442 18.3611   1
   5   1 -12 4.49841 8.81393   1
  -5  -1  12 10.4137 13.6008   1
   4   2  14 180.696 25.6205  -2
   4   1 -12 180.696 25.6205   1
  -4  -1  12 107.164 17.9796   1
   3   1 -12 8.84279 7.06988   1
  -3  -1  12 9.89497 10.2168   1
   2   1 -12 216.304 16.1961   1
  -2  -1  12 215.956 20.7871   1
   1   1 -12 5.45475 5.91830   1
  -1  -1  12 -0.5799 7.76637   1
   0  -1  12 862.354 42.0431  -2
   0   1 -12 862.354 42.0431   1
   0   1 -12 879.922 58.4118  -2
   0  -1  12 879.922 58.4118   1
  -1   1 -12 8.62355 5.35211   1
   1  -1  12 6.58658 7.99313   1
  -2   1 -12 -3.4903 5.04138   1
   2  -1  12 -4.6686 7.28270   1
  -3   1 -12 8.99888 10.8736   1
   3  -1  12 11.5154 5.55266   1
   4  -1  12 127.673 15.1400   1
  -5   1 -12 15.1580 14.4194   1
   5  -1  12 1.66228 6.43533   1
   6  -1  12 44.9165 9.36877   1
   6   0 -12 13.2044 10.7738   1
   5   0 -12 93.2003 12.7138   1
   4   0 -12 9.87626 9.95922   1
  -4   0  12 25.3025 12.4431   1
   3   0 -12 27.0911 8.51826   1
  -3   0  12 10.4148 10.4740   1
   2   0 -12 1.25822 6.45080   1
  -2   0  12 7.68248 9.41060   1
   1   0 -12 30.0606 7.29036   1
  -1   0  12 26.3358 11.1881   1
   0   0  12 -3.9838 7.40831  -2
   0   0 -12 -3.9838 7.40831   1
  -1   0 -12 159.890 11.9364   1
   1   0  12 133.134 17.1541   1
  -2   0 -12 45.7309 7.62533   1
   2   0  12 70.1127 8.10145   1
  -3   0 -12 16.4138 10.2659   1
   3   0  12 46.1908 6.96810   1
   4   0  12 59.3095 10.9459   1
  -5   0 -12 115.435 23.2517   1
   5   0  12 156.969 13.0275   1
  -6   0 -12 5.94980 16.3516   1
   6   0  12 -0.6752 8.91301   1
   7   0  12 8.32059 14.2697   1
   5  -1 -12 77.5776 12.3849   1
   4   4  14 -2.4340 19.5155  -2
   4  -1 -12 -2.4340 19.5155   1
   3  -1 -12 12.8564 7.36638   1
  -3   1  12 5.77676 9.90349   1
   2  -1 -12 1.85496 6.23963   1
  -2   1  12 -3.0771 7.57340   1
   1  -1 -12 154.576 13.0251   1
  -1   1  12 139.767 15.9890   1
   0   1  12 -2.1156 10.8220  -2
   0  -1 -12 -2.1156 10.8220   1
   0  -1 -12 8.59259 10.0008  -2
   0   1  12 8.59259 10.0008   1
  -1  -1 -12 272.027 17.0775   1
   1   1  12 290.201 23.1144   1
  -2  -1 -12 61.1168 14.1086   1
   2   1  12 127.186 10.6440   1
  -3  -1 -12 -4.7216 8.83618   1
   3   1  12 5.39693 5.74651   1
   4   2 -10 60.8636 12.2764  -2
   4   1  12 60.8636 12.2764   1
  -5  -1 -12 16.5893 12.8209   1
   5   1  12 32.6074 7.51430   1
  -6  -1 -12 39.6720 15.6926   1
   6   1  12 6.64991 11.9729   1
  -7  -1 -12 0.42961 16.7803   1
   7   1  12 -1.8427 12.4688   1
   5  -2 -12 15.8419 9.45935   1
   4   5  14 169.045 27.0202  -2
   4  -2 -12 169.045 27.0202   1
   3  -2 -12 0.57035 6.62248   1
   2  -2 -12 28.5087 7.49457   1
  -2   2  12 35.7459 9.79947   1
   1  -2 -12 148.649 12.1258   1
  -1   2  12 120.292 14.8900   1
   0   2  12 570.138 30.2547  -2
   0  -2 -12 570.138 30.2547   1
   0  -2 -12 597.862 40.8830  -2
   0   2  12 597.862 40.8830   1
  -1  -2 -12 6.40924 4.12120   1
   1   2  12 5.37779 6.50089   1
  -2  -2 -12 26.8467 11.2979   1
   2   2  12 38.1212 6.73192   1
  -3  -2 -12 20.9069 10.2422   1
   3   2  12 20.0943 5.83469   1
   4   2  12 4.21330 5.41419   1
  -5  -2 -12 15.7553 12.5441   1
   5   2  12 16.7155 6.73075   1
  -6  -2 -12 25.3055 14.2721   1
   6   2  12 17.4974 14.3050   1
  -7  -2 -12 13.8744 16.6228   1
   7   2  12 36.1975 15.4788   1
   5  -3 -12 10.2216 9.72632   1
   4  -3 -12 44.4333 9.93822   1
   3  -3 -12 10.4115 7.08876   1
   2  -3 -12 59.8787 9.11074   1
   1  -3 -12 69.9250 9.35056   1
   0   3  12 249.602 12.8602  -2
   0  -3 -12 249.602 12.8602   1
  -1  -3 -12 237.923 12.2564   1
   1   3  12 250.110 22.8997   1
  -2  -3 -12 -0.8514 4.76875   1
   2   3  12 3.37835 9.79691   1
  -3  -3 -12 5.04097 5.33358   1
   3   3  12 2.66237 10.1873   1
  -4  -3 -12 77.8789 15.2563   1
   4   3  12 79.4265 15.0841   1
  -5  -3 -12 75.0063 15.9869   1
   5   3  12 92.5622 17.0099   1
  -6  -3 -12 52.4889 16.0558   1
   6   3  12 50.3071 15.2300   1
  -7  -3 -12 0.08254 14.4197   1
   7   3  12 -0.0930 12.9801   1
   4  -4 -12 13.3403 8.43507   1
   3  -4 -12 -7.7055 6.44182   1
   2  -4 -12 8.67927 6.83489   1
   1  -4 -12 65.5463 8.97814   1
   0   4  12 35.9913 6.39188  -2
   0  -4 -12 35.9913 6.39188   1
   0  -4 -12 37.6022 10.4683  -2
   0   4  12 37.6022 10.4683   1
  -1  -4 -12 17.0690 4.60812   1
   1   4  12 28.7195 7.47316   1
  -2  -4 -12 2.43642 4.65581   1
   2   4  12 -7.3850 5.41402   1
  -3  -4 -12 11.5593 5.77190   1
   3   4  12 24.2661 7.40333   1
  -4  -4 -12 10.1095 9.72387   1
   4   4  12 16.2247 11.2535   1
  -5  -4 -12 114.423 18.8247   1
   5   4  12 102.342 20.7011   1
  -6  -4 -12 -6.2050 11.2781   1
   6   4  12 -4.9545 11.9068   1
  -7  -4 -12 3.86125 13.7944   1
   7   4  12 19.4268 15.2687   1
   4  -5 -12 46.1846 11.2451   1
   3  -5 -12 2.73334 6.96640   1
   2  -5 -12 39.3813 8.41954   1
   1  -5 -12 9.47077 7.06439   1
   0   5  12 197.004 15.3970  -2
   0  -5 -12 197.004 15.3970   1
  -1  -5 -12 11.5626 4.63542   1
  -2  -5 -12 0.95511 4.22171   1
   2   5  12 -0.6408 12.1407   1
  -3  -5 -12 1.09197 4.93972   1
   3   5  12 1.08418 11.3090   1
  -4  -5 -12 58.9976 13.5906   1
   4   5  12 34.0623 13.5640   1
  -5  -5 -12 18.9649 11.2121   1
   5   5  12 24.0394 14.1515   1
  -6  -5 -12 20.0951 12.6041   1
   6   5  12 51.4107 16.6730   1
  -7  -5 -12 20.1426 13.5125   1
   7   5  12 9.55849 15.2562   1
   3  -6 -12 7.43967 6.96770   1
   2  -6 -12 3.24252 6.73588   1
   1  -6 -12 8.18791 6.22437   1
   0   6  12 168.315 14.5336  -2
   0  -6 -12 168.315 14.5336   1
  -1  -6 -12 20.9874 5.25349   1
  -2  -6 -12 -2.7906 4.29192   1
   3   6  12 11.0804 25.1171   1
  -4  -6 -12 88.7306 15.2748   1
   4   6  12 63.4633 16.4447   1
  -5  -6 -12 47.6631 12.9104   1
   5   6  12 50.3698 16.8778   1
  -6  -6 -12 7.53404 11.6305   1
   6   6  12 -0.2665 13.6539   1
  -7  -6 -12 9.67292 12.9556   1
   7   6  12 -4.1169 22.5611   1
   2  -7 -12 17.6603 6.95710   1
   1  -7 -12 44.2239 8.73625   1
   0   7  12 32.9397 9.14518  -2
   0  -7 -12 32.9397 9.14518   1
  -1  -7 -12 99.9137 11.3782   1
  -2  -7 -12 -12.796 5.67624   1
  -3  -7 -12 -4.5729 8.27447   1
   3   7  12 5.60891 13.7485   1
  -4  -7 -12 -6.5247 8.62691   1
   4   7  12 2.53342 13.0152   1
  -5  -7 -12 208.325 23.3397   1
   5   7  12 216.010 29.0075   1
  -6  -7 -12 4.63883 11.1010   1
   6   7  12 -1.6562 14.9462   1
   2  -8 -12 12.8112 16.2119   1
   1  -8 -12 54.2385 9.56624   1
   0   8  12 163.380 14.5090  -2
   0  -8 -12 163.380 14.5090   1
  -1  -8 -12 59.3300 8.84668   1
  -2  -8 -12 0.57408 6.53651   1
  -3  -8 -12 14.8804 15.6108   1
   3   8  12 32.2521 16.9036   1
  -4  -8 -12 1.94890 9.81386   1
   4   8  12 13.7938 15.7587   1
  -5  -8 -12 18.1140 11.0510   1
   5   8  12 20.0140 16.1966   1
  -6  -8 -12 2.31045 14.9921   1
   6   8  12 8.66315 14.5438   1
  -1  -9 -12 29.3155 7.20043   1
  -2  -9 -12 5.23121 6.36958   1
  -3  -9 -12 19.4302 8.32831   1
  -4  -9 -12 39.8485 12.0936   1
   4   9  12 23.6634 18.5109   1
  -5  -9 -12 18.7588 10.5389   1
   5   9  12 18.8554 18.9987   1
  -1  -7  13 -3.0461 10.4932   1
   0   7 -13 39.9982 15.6012  -2
   0  -7  13 39.9982 15.6012   1
  -3  -6  13 10.9498 13.6224   1
  -2  -6  13 24.7730 12.2760   1
  -1  -6  13 -6.8972 9.16376   1
   0   6 -13 109.132 16.9279  -2
   0  -6  13 109.132 16.9279   1
   1  -6  13 -3.7032 8.95804   1
  -4  -5  13 -1.3317 12.9912   1
  -3  -5  13 59.9353 15.8331   1
  -2  -5  13 22.3623 19.5025   1
  -1  -5  13 2.90177 9.63820   1
   0   5 -13 41.3646 13.2983  -2
   0  -5  13 41.3646 13.2983   1
   1  -5  13 56.2211 18.3286   1
   2  -5  13 17.1714 9.99117   1
   3  -5  13 28.3269 10.8953   1
   5   4 -13 36.3969 22.9112   1
  -5  -4  13 15.2030 16.1477   1
   4  -1  15 -14.842 16.3670  -2
   4   4 -13 -14.842 16.3670   1
  -4  -4  13 -4.7522 13.4200   1
   3   4 -13 90.4069 15.4510   1
  -3  -4  13 64.6404 15.7947   1
   2   4 -13 12.1659 8.25627   1
  -2  -4  13 30.3214 11.7666   1
  -1  -4  13 9.19352 10.1891   1
   0   4 -13 16.9975 12.2515  -2
   0  -4  13 16.9975 12.2515   1
   1  -4  13 180.873 19.3573   1
   2  -4  13 22.1127 9.82542   1
   3  -4  13 31.9813 10.1240   1
   4   7 -11 14.9924 17.1786  -2
   4  -4  13 14.9924 17.1786   1
   5   3 -13 -12.722 12.8606   1
  -5  -3  13 5.94893 14.6442   1
   4   0  15 245.559 28.6988  -2
   4   3 -13 245.559 28.6988   1
  -4  -3  13 138.655 21.0066   1
   3   3 -13 17.0730 8.42762   1
  -3  -3  13 10.4437 11.0525   1
   2   3 -13 156.650 13.0581   1
  -2  -3  13 140.184 18.6268   1
   1   3 -13 4.80249 5.85027   1
  -1  -3  13 9.25981 9.15198   1
   0  -3  13 209.738 17.5356  -2
   0   3 -13 209.738 17.5356   1
   0   3 -13 234.955 22.0063  -2
   0  -3  13 234.955 22.0063   1
  -1   3 -13 37.6506 6.26273   1
   1  -3  13 48.2277 11.1260   1
  -2   3 -13 104.036 21.2472   1
   2  -3  13 88.7441 14.8536   1
   3  -3  13 2.60643 8.15394   1
   4  -3  13 -5.9241 9.05875   1
   5  -3  13 4.75479 10.0538   1
   5   2 -13 4.13136 14.4654   1
  -5  -2  13 15.7893 18.6229   1
   4   1  15 53.1542 19.1483  -2
   4   2 -13 53.1542 19.1483   1
  -4  -2  13 14.4974 13.0399   1
   3   2 -13 61.9549 10.2994   1
  -3  -2  13 69.3059 16.7575   1
   2   2 -13 8.61244 7.11763   1
  -2  -2  13 29.2969 10.6720   1
   1   2 -13 0.51813 6.40855   1
  -1  -2  13 3.33234 8.87510   1
   0  -2  13 102.105 10.6034  -2
   0   2 -13 102.105 10.6034   1
   0   2 -13 107.378 15.6171  -2
   0  -2  13 107.378 15.6171   1
  -1   2 -13 82.2397 9.15162   1
   1  -2  13 84.0773 13.1627   1
  -2   2 -13 70.2411 8.06737   1
   2  -2  13 63.4750 12.2302   1
  -3   2 -13 9.41301 7.42238   1
   3  -2  13 21.4697 6.39399   1
   4  -2  13 22.6266 10.9089   1
   5  -2  13 6.18690 10.4176   1
   5   1 -13 20.3154 10.6836   1
   4   1 -13 9.40210 11.2298   1
  -4  -1  13 0.73440 12.3441   1
   3   1 -13 181.354 14.8729   1
  -3  -1  13 127.589 18.9471   1
   2   1 -13 -0.4080 6.69456   1
  -2  -1  13 0.59218 9.01062   1
   1   1 -13 7.05568 6.63638   1
  -1  -1  13 30.1233 10.2057   1
   0  -1  13 21.1194 8.49042  -2
   0   1 -13 21.1194 8.49042   1
   0   1 -13 21.0067 11.0173  -2
   0  -1  13 21.0067 11.0173   1
  -1   1 -13 69.7989 8.77511   1
   1  -1  13 79.0256 12.4950   1
  -2   1 -13 4.47414 5.49629   1
   2  -1  13 -1.7865 8.28926   1
  -3   1 -13 12.0187 12.0827   1
   3  -1  13 29.8056 6.89330   1
   4  -1  13 -3.3609 8.78772   1
  -5   1 -13 30.6106 17.1846   1
   5  -1  13 16.8659 7.79805   1
   6  -1  13 -11.136 12.0071   1
   5   0 -13 13.6376 10.2266   1
   4   3  15 169.410 28.3427  -2
   4   0 -13 169.410 28.3427   1
   3   0 -13 38.6968 9.34748   1
  -3   0  13 31.6716 12.2661   1
   2   0 -13 98.2473 11.8097   1
  -2   0  13 76.7365 13.9026   1
   1   0 -13 6.60354 6.90282   1
  -1   0  13 1.92375 8.81283   1
   0   0  13 201.489 14.8388  -2
   0   0 -13 201.489 14.8388   1
   0   0 -13 201.122 20.5389  -2
   0   0  13 201.122 20.5389   1
  -1   0 -13 31.3288 6.82883   1
   1   0  13 34.6083 10.0165   1
  -2   0 -13 204.658 14.7865   1
   2   0  13 239.076 20.7869   1
  -3   0 -13 34.7904 12.9334   1
   3   0  13 28.3694 7.36501   1
   4   0  13 -3.7315 7.66253   1
  -5   0 -13 -8.8519 13.7736   1
   5   0  13 4.21113 7.05555   1
  -6   0 -13 19.5726 17.6292   1
   6   0  13 5.07626 11.8334   1
   5  -1 -13 33.9762 13.0447   1
   4   4  15 162.710 27.1569  -2
   4  -1 -13 162.710 27.1569   1
   3  -1 -13 51.2208 9.84908   1
  -3   1  13 45.6020 14.4255   1
   2  -1 -13 23.3376 7.90526   1
  -2   1  13 29.4867 10.3598   1
   1  -1 -13 8.32737 6.73077   1
  -1   1  13 9.80292 8.30336   1
   0   1  13 244.271 16.6979  -2
   0  -1 -13 244.271 16.6979   1
   0  -1 -13 242.954 22.3140  -2
   0   1  13 242.954 22.3140   1
  -1  -1 -13 17.0795 6.57043   1
   1   1  13 17.9830 8.14572   1
  -2  -1 -13 55.7280 8.57278   1
   2   1  13 62.3898 10.9516   1
  -3  -1 -13 54.0000 13.2230   1
   3   1  13 37.5885 7.86849   1
  -4  -1 -13 55.6439 14.6687   1
   4   1  13 26.5486 7.64634   1
  -5  -1 -13 16.0824 13.4272   1
   5   1  13 8.52079 8.23818   1
  -6  -1 -13 92.3438 21.3700   1
   6   1  13 69.3917 17.0524   1
   7   1  13 13.6179 15.0841   1
   5  -2 -13 33.7907 11.8084   1
   4   5  15 -8.7393 22.6966  -2
   4  -2 -13 -8.7393 22.6966   1
   3  -2 -13 87.8565 11.5423   1
   2  -2 -13 -4.0696 6.30723   1
  -2   2  13 -1.5998 8.85212   1
   1  -2 -13 10.3067 6.91948   1
  -1   2  13 0.79655 8.17404   1
   0   2  13 18.3113 9.07781  -2
   0  -2 -13 18.3113 9.07781   1
   0  -2 -13 15.0626 11.5308  -2
   0   2  13 15.0626 11.5308   1
  -1  -2 -13 115.578 11.6220   1
   1   2  13 140.590 15.1587   1
  -2  -2 -13 -0.2723 5.88385   1
   2   2  13 6.46224 6.32636   1
  -3  -2 -13 161.161 19.2559   1
   3   2  13 142.361 12.6991   1
  -4  -2 -13 21.0605 12.2750   1
   4   2  13 39.0986 8.09899   1
  -5  -2 -13 32.9077 14.2414   1
   5   2  13 13.5875 11.7512   1
  -6  -2 -13 -3.7981 13.6634   1
   6   2  13 5.89411 12.5705   1
  -7  -2 -13 3.86829 16.9456   1
   7   2  13 14.1880 14.8667   1
   4  -3 -13 54.0216 11.0705   1
   3  -3 -13 92.7879 14.7276   1
   2  -3 -13 13.2208 8.49431   1
   1  -3 -13 11.6290 6.75672   1
   0   3  13 21.4239 9.53813  -2
   0  -3 -13 21.4239 9.53813   1
  -1  -3 -13 175.367 10.7982   1
  -2  -3 -13 29.0092 7.74165   1
   2   3  13 47.3081 13.7516   1
  -3  -3 -13 25.6272 11.9381   1
   3   3  13 30.9172 12.5138   1
  -4  -3 -13 -5.7476 10.7976   1
   4   3  13 -3.7795 10.5698   1
  -5  -3 -13 4.81662 12.0887   1
   5   3  13 19.9807 13.3411   1
  -6  -3 -13 -19.654 14.2989   1
   6   3  13 3.47022 12.5290   1
  -7  -3 -13 -8.8155 15.0295   1
   7   3  13 33.3658 15.7133   1
   4  -4 -13 21.5105 9.42873   1
   3  -4 -13 3.26275 7.71954   1
   2  -4 -13 64.9462 10.0881   1
   1  -4 -13 -3.9103 6.39705   1
   0   4  13 64.8402 10.9326  -2
   0  -4 -13 64.8402 10.9326   1
  -1  -4 -13 3.33657 6.08140   1
  -2  -4 -13 267.194 17.7172   1
   2   4  13 227.067 27.3075   1
  -3  -4 -13 59.3971 13.6862   1
   3   4  13 69.5661 16.4377   1
  -4  -4 -13 16.7699 11.3112   1
   4   4  13 -1.8153 11.3776   1
  -5  -4 -13 -6.6601 17.4060   1
   5   4  13 9.01045 12.6636   1
  -6  -4 -13 39.4385 15.5010   1
   6   4  13 62.0174 17.2601   1
  -7  -4 -13 -12.744 13.3088   1
   7   4  13 -1.3778 13.9057   1
   3  -5 -13 54.9469 10.4815   1
   2  -5 -13 29.7217 8.47446   1
   1  -5 -13 0.28186 5.96154   1
  -1  -5 -13 56.6205 9.08692   1
  -2  -5 -13 7.19430 6.95542   1
  -3  -5 -13 6.05268 9.86866   1
   3   5  13 3.20075 11.9269   1
  -4  -5 -13 5.25291 10.8354   1
   4   5  13 -11.286 11.1188   1
  -5  -5 -13 50.0436 14.2798   1
   5   5  13 23.5466 14.3848   1
  -6  -5 -13 22.8315 13.4606   1
   6   5  13 -7.0804 14.3439   1
  -7  -5 -13 24.5651 14.7727   1
   7   5  13 30.6178 23.7715   1
   3  -6 -13 33.5502 9.68692   1
   2  -6 -13 29.3004 8.24514   1
   1  -6 -13 10.7848 7.04616   1
   0   6  13 25.2977 10.2685  -2
   0  -6 -13 25.2977 10.2685   1
  -1  -6 -13 75.1238 10.6338   1
  -2  -6 -13 17.8196 7.65433   1
  -3  -6 -13 21.4136 11.8094   1
   3   6  13 9.25029 13.8833   1
  -4  -6 -13 4.51286 10.1868   1
   4   6  13 -13.284 13.7833   1
  -5  -6 -13 7.30690 11.8926   1
   5   6  13 9.34616 14.2917   1
  -6  -6 -13 -5.0061 12.0804   1
   6   6  13 24.3993 16.3745   1
   2  -7 -13 17.1982 11.5678   1
   1  -7 -13 -4.0514 6.61717   1
   0   7  13 44.5646 11.0055  -2
   0  -7 -13 44.5646 11.0055   1
  -1  -7 -13 2.67689 6.58975   1
  -2  -7 -13 94.1945 11.9204   1
  -3  -7 -13 2.91870 8.38873   1
   3   7  13 -1.7578 14.6721   1
  -4  -7 -13 -2.9371 9.79056   1
   4   7  13 -2.7354 14.9009   1
  -5  -7 -13 10.0851 11.5583   1
   5   7  13 28.3869 16.9113   1
  -6  -7 -13 29.1191 13.4723   1
   1  -8 -13 12.9739 7.24145   1
   0   8  13 24.7898 10.1890  -2
   0  -8 -13 24.7898 10.1890   1
  -1  -8 -13 23.8882 7.73143   1
  -2  -8 -13 62.1546 10.1950   1
  -3  -8 -13 5.87837 8.14490   1
   3   8  13 6.46191 16.8693   1
  -4  -8 -13 18.9149 11.2983   1
   4   8  13 -4.7451 14.7603   1
  -5  -8 -13 5.90088 12.5258   1
   5   8  13 31.3539 22.9274   1
  -1  -9 -13 40.9136 9.17699   1
  -2  -9 -13 8.67862 11.9098   1
  -4  -9 -13 -3.8347 10.1480   1
   4   9  13 -19.767 16.6858   1
  -2  -6  14 29.8810 13.7309   1
  -1  -6  14 50.8670 14.4171   1
   0   6 -14 5.46240 14.0392  -2
   0  -6  14 5.46240 14.0392   1
   1  -6  14 -3.1433 10.3936   1
  -3  -5  14 5.90313 13.6908   1
  -2  -5  14 94.0323 17.6588   1
  -1  -5  14 7.97765 11.5777   1
   0   5 -14 -7.9899 12.6900  -2
   0  -5  14 -7.9899 12.6900   1
   1  -5  14 6.87504 10.0947   1
   2  -5  14 58.7178 13.6316   1
  -4  -4  14 33.6908 15.8850   1
  -3  -4  14 -2.2445 12.4134   1
  -2  -4  14 63.0939 14.8379   1
  -1  -4  14 38.1327 12.6325   1
   0   4 -14 13.9257 13.4282  -2
   0  -4  14 13.9257 13.4282   1
   1  -4  14 1.22082 8.99571   1
   2  -4  14 46.2454 12.4349   1
   3  -4  14 9.05031 11.2008   1
   4   0  16 5.10816 20.2175  -2
   4   3 -14 5.10816 20.2175   1
  -4  -3  14 -11.687 14.5789   1
   3   3 -14 79.3955 16.1585   1
  -3  -3  14 64.6182 16.1321   1
   2   3 -14 -8.8729 9.58863   1
  -2  -3  14 -0.5714 11.0984   1
   1   3 -14 138.570 12.4678   1
  -1  -3  14 117.431 18.3675   1
   0  -3  14 -30.367 14.6307  -2
   0   3 -14 -30.367 14.6307   1
   0   3 -14 -16.555 12.0025  -2
   0  -3  14 -16.555 12.0025   1
  -1   3 -14 4.18283 11.8105   1
   1  -3  14 15.4411 9.90951   1
   2  -3  14 13.4655 9.68159   1
   3  -3  14 67.2265 13.0730   1
   4  -3  14 9.38690 10.0104   1
  -4  -2  14 -0.1073 15.2191   1
   3   2 -14 93.0640 12.6102   1
  -3  -2  14 101.038 17.9717   1
   2   2 -14 103.638 12.3521   1
  -2  -2  14 110.911 17.0374   1
   1   2 -14 62.9543 9.64204   1
  -1  -2  14 86.7220 16.6372   1
   0  -2  14 99.3510 11.6962  -2
   0   2 -14 99.3510 11.6962   1
   0   2 -14 109.967 16.8758  -2
   0  -2  14 109.967 16.8758   1
  -1   2 -14 6.45438 6.38311   1
   1  -2  14 15.1309 11.5375   1
  -2   2 -14 20.4696 7.02632   1
   2  -2  14 26.8947 10.3317   1
  -3   2 -14 38.9501 7.98734   1
   3  -2  14 63.6678 12.4139   1
   4  -2  14 14.4140 10.1203   1
   5  -2  14 -9.3653 11.8394   1
   4   2  16 69.8779 24.3983  -2
   4   1 -14 69.8779 24.3983   1
   3   1 -14 7.70190 8.92088   1
  -3  -1  14 19.1805 12.7858   1
   2   1 -14 161.336 14.6574   1
  -2  -1  14 145.396 19.9627   1
   1   1 -14 20.2053 7.87263   1
  -1  -1  14 19.3919 10.8992   1
   0  -1  14 40.5849 9.98732  -2
   0   1 -14 40.5849 9.98732   1
   0   1 -14 41.8846 13.6670  -2
   0  -1  14 41.8846 13.6670   1
  -1   1 -14 -7.2735 5.73073   1
   1  -1  14 -1.9978 8.04329   1
  -2   1 -14 200.216 14.6620   1
   2  -1  14 197.516 20.4858   1
  -3   1 -14 -0.5442 6.72039   1
   3  -1  14 0.91400 8.91892   1
   4  -1  14 70.3141 13.1727   1
   5  -1  14 -7.3926 8.05082   1
   4   3  16 28.7275 23.3879  -2
   4   0 -14 28.7275 23.3879   1
   3   0 -14 79.0428 11.5980   1
   2   0 -14 -9.2852 7.08046   1
  -2   0  14 -3.4077 10.0212   1
   1   0 -14 121.386 12.4917   1
  -1   0  14 102.898 15.9102   1
   0   0  14 14.5564 12.0524  -2
   0   0 -14 14.5564 12.0524   1
   0   0 -14 29.9133 13.2816  -2
   0   0  14 29.9133 13.2816   1
  -1   0 -14 56.9159 9.61312   1
   1   0  14 63.3346 11.9867   1
  -2   0 -14 10.7702 8.56384   1
   2   0  14 9.06936 8.92520   1
  -3   0 -14 69.6758 16.4557   1
   3   0  14 79.7980 9.95329   1
   4   0  14 15.2875 9.88237   1
  -5   0 -14 17.7759 16.4720   1
   5   0  14 -7.0240 11.7109   1
  -6   0 -14 -2.4587 27.3640   1
   6   0  14 -20.280 13.9799   1
   4   4  16 17.1975 24.2340  -2
   4  -1 -14 17.1975 24.2340   1
   3  -1 -14 79.0339 11.9659   1
   2  -1 -14 28.7549 8.48706   1
  -2   1  14 25.8907 12.9346   1
   1  -1 -14 77.3810 10.5487   1
  -1   1  14 118.463 15.9197   1
   0   1  14 -5.4635 8.74916  -2
   0  -1 -14 -5.4635 8.74916   1
   0  -1 -14 8.10787 12.3891  -2
   0   1  14 8.10787 12.3891   1
  -1  -1 -14 36.3292 7.85431   1
   1   1  14 28.4407 9.83523   1
  -2  -1 -14 33.7959 7.49750   1
   2   1  14 49.7729 10.5445   1
  -3  -1 -14 5.91636 12.4542   1
   3   1  14 16.8188 7.01374   1
  -4  -1 -14 31.7192 14.7356   1
   4   1  14 40.3065 11.6419   1
  -5  -1 -14 -13.236 14.1428   1
   5   1  14 2.41829 12.4079   1
  -6  -1 -14 -20.838 15.6315   1
   6   1  14 -2.3467 13.6399   1
   4   5  16 -14.269 23.5538  -2
   4  -2 -14 -14.269 23.5538   1
   3  -2 -14 0.53984 8.26234   1
   2  -2 -14 164.844 15.3744   1
   1  -2 -14 -1.9929 6.86174   1
   0   2  14 82.3876 11.3320  -2
   0  -2 -14 82.3876 11.3320   1
   0  -2 -14 78.0328 15.7158  -2
   0   2  14 78.0328 15.7158   1
  -1  -2 -14 13.2637 6.73877   1
   1   2  14 9.83342 8.39064   1
  -2  -2 -14 138.636 12.6489   1
   2   2  14 148.781 16.8256   1
  -3  -2 -14 2.25867 11.2865   1
   3   2  14 -16.301 5.88143   1
  -4  -2 -14 75.5150 16.7648   1
   4   2  14 57.7366 15.1940   1
  -5  -2 -14 -2.8762 12.8790   1
   5   2  14 -2.8822 11.9471   1
  -6  -2 -14 32.0119 23.8029   1
   6   2  14 55.4408 17.0259   1
   4  -3 -14 5.01516 8.99170   1
   3  -3 -14 97.1969 12.9193   1
   2  -3 -14 37.0024 9.95693   1
   1  -3 -14 37.6720 8.92604   1
   0   3  14 -1.9924 9.65778  -2
   0  -3 -14 -1.9924 9.65778   1
  -1  -3 -14 37.0051 7.89780   1
  -2  -3 -14 35.2432 8.15305   1
  -3  -3 -14 7.50602 11.3754   1
   3   3  14 38.7282 13.8772   1
  -4  -3 -14 14.0240 12.6560   1
   4   3  14 5.98908 12.1944   1
  -5  -3 -14 39.8078 16.7735   1
   5   3  14 -5.2193 12.6600   1
  -6  -3 -14 9.71218 15.6635   1
   6   3  14 8.35885 14.6740   1
   3  -4 -14 49.5697 11.1974   1
   2  -4 -14 29.2857 9.03251   1
   1  -4 -14 97.3991 12.0876   1
   0   4  14 -14.768 13.1104  -2
   0  -4 -14 -14.768 13.1104   1
  -1  -4 -14 1.27208 6.87091   1
  -2  -4 -14 1.25140 6.96623   1
  -3  -4 -14 66.5516 15.5351   1
   3   4  14 49.0045 16.1461   1
  -4  -4 -14 -2.2573 16.5301   1
   4   4  14 -8.0205 12.1406   1
  -5  -4 -14 28.5491 14.4143   1
   5   4  14 17.7218 14.4998   1
  -6  -4 -14 14.1599 16.0196   1
   6   4  14 11.4922 15.5361   1
   3  -5 -14 5.23810 9.66192   1
   2  -5 -14 63.1576 10.7264   1
   1  -5 -14 10.2551 7.28856   1
   0   5  14 58.9048 11.9107  -2
   0  -5 -14 58.9048 11.9107   1
  -1  -5 -14 0.79279 6.95884   1
  -2  -5 -14 51.0899 9.47791   1
  -3  -5 -14 11.3988 11.6989   1
   3   5  14 20.7230 15.1566   1
  -4  -5 -14 133.678 20.4183   1
   4   5  14 114.640 22.2588   1
  -5  -5 -14 2.90778 12.6203   1
   5   5  14 -29.313 12.1166   1
  -6  -5 -14 20.8392 15.2559   1
   6   5  14 -15.539 13.6034   1
   2  -6 -14 32.9031 10.1289   1
   1  -6 -14 3.87583 7.40247   1
   0   6  14 69.8144 12.4581  -2
   0  -6 -14 69.8144 12.4581   1
  -1  -6 -14 8.21707 7.71959   1
  -2  -6 -14 81.3032 11.0445   1
  -3  -6 -14 31.5756 15.0390   1
   3   6  14 13.7361 15.4166   1
  -4  -6 -14 46.6421 13.5968   1
   4   6  14 36.0044 17.5661   1
  -5  -6 -14 6.46309 12.3902   1
   5   6  14 3.48590 14.8796   1
  -6  -6 -14 30.5390 15.1238   1
   6   6  14 6.62345 17.8542   1
   1  -7 -14 17.7646 8.66422   1
   0   7  14 -9.0345 10.1175  -2
   0  -7 -14 -9.0345 10.1175   1
  -1  -7 -14 19.7894 8.29817   1
  -2  -7 -14 -1.2429 7.17197   1
  -3  -7 -14 35.9624 10.0993   1
   3   7  14 14.9035 16.4879   1
  -4  -7 -14 -0.5186 10.8862   1
   4   7  14 4.71844 16.4850   1
  -5  -7 -14 4.82281 12.2347   1
   5   7  14 0.95004 17.0234   1
   0   8  14 29.3794 11.6268  -2
   0  -8 -14 29.3794 11.6268   1
  -1  -8 -14 3.90879 7.27714   1
  -2  -8 -14 48.2383 9.42279   1
  -3  -8 -14 8.29706 8.52410   1
  -2  -5  15 -0.2241 12.1294   1
  -1  -5  15 71.1057 15.7962   1
   0   5 -15 53.1427 16.6875  -2
   0  -5  15 53.1427 16.6875   1
   1  -5  15 56.5210 14.0767   1
  -3  -4  15 36.9291 15.7824   1
  -2  -4  15 -6.5785 12.7171   1
  -1  -4  15 68.4385 15.7878   1
   0   4 -15 30.1235 15.0285  -2
   0  -4  15 30.1235 15.0285   1
   1  -4  15 18.5815 10.8380   1
   2  -4  15 -4.9386 11.0832   1
   3  -4  15 15.1018 11.8044   1
   3   3 -15 -3.5344 13.5937   1
  -3  -3  15 13.0983 14.3744   1
  -2  -3  15 29.4232 13.4575   1
  -1  -3  15 4.31647 11.2891   1
   0   3 -15 251.676 26.0101  -2
   0  -3  15 251.676 26.0101   1
   1  -3  15 -0.7878 9.68758   1
   2  -3  15 7.69518 11.2863   1
   3  -3  15 0.81662 10.6705   1
   4  -3  15 42.8031 15.1829   1
   4   1  17 -29.916 21.1588  -2
   4   2 -15 -29.916 21.1588   1
   3   2 -15 5.96675 13.7813   1
  -3  -2  15 8.06746 14.1070   1
   2   2 -15 16.7662 9.37002   1
  -2  -2  15 14.2605 13.3456   1
   1   2 -15 50.8921 9.98928   1
  -1  -2  15 92.7663 16.1603   1
   0  -2  15 44.9455 11.1702  -2
   0   2 -15 44.9455 11.1702   1
   0   2 -15 26.0213 15.7174  -2
   0  -2  15 26.0213 15.7174   1
  -1   2 -15 69.1842 10.1964   1
   1  -2  15 71.1231 14.0647   1
  -2   2 -15 7.00711 13.3118   1
   2  -2  15 17.5671 11.2375   1
   3  -2  15 36.3187 12.6772   1
   4  -2  15 22.1629 12.7853   1
   4   2  17 -10.184 21.9170  -2
   4   1 -15 -10.184 21.9170   1
   3   1 -15 3.60502 9.64836   1
   2   1 -15 7.04481 8.59381   1
  -2  -1  15 -3.4149 12.1107   1
   1   1 -15 138.903 15.1219   1
  -1  -1  15 123.329 18.4810   1
   0  -1  15 16.5289 16.4577  -2
   0   1 -15 16.5289 16.4577   1
   0   1 -15 33.2053 15.6158  -2
   0  -1  15 33.2053 15.6158   1
  -1   1 -15 80.1690 10.3184   1
   1  -1  15 55.0680 13.1057   1
  -2   1 -15 3.34435 6.94207   1
   2  -1  15 -1.4136 10.0106   1
  -3   1 -15 30.4215 8.82803   1
   3  -1  15 26.3395 12.4378   1
   4  -1  15 -6.1175 11.1415   1
   4   3  17 104.337 27.4356  -2
   4   0 -15 104.337 27.4356   1
   3   0 -15 2.56575 9.10899   1
   2   0 -15 -1.2284 8.40447   1
   1   0 -15 9.65310 7.82285   1
  -1   0  15 32.9992 12.7101   1
   0   0  15 253.383 18.4231  -2
   0   0 -15 253.383 18.4231   1
   0   0 -15 261.836 26.0164  -2
   0   0  15 261.836 26.0164   1
  -1   0 -15 -2.0805 6.58892   1
   1   0  15 -0.7644 9.26171   1
  -2   0 -15 11.6701 7.19795   1
   2   0  15 11.7199 10.1300   1
  -3   0 -15 7.71044 7.68893   1
   3   0  15 17.4613 11.6011   1
  -5   0 -15 5.46113 16.9609   1
   5   0  15 15.7137 13.7543   1
   4   4  17 51.1292 25.4689  -2
   4  -1 -15 51.1292 25.4689   1
   3  -1 -15 -2.9726 8.67856   1
   2  -1 -15 45.1791 10.7355   1
   1  -1 -15 51.6269 9.85519   1
   0   1  15 95.6664 12.5985  -2
   0  -1 -15 95.6664 12.5985   1
   0  -1 -15 118.176 18.4231  -2
   0   1  15 118.176 18.4231   1
  -1  -1 -15 35.6918 8.38810   1
   1   1  15 16.5683 10.9005   1
  -2  -1 -15 7.69819 7.14819   1
   2   1  15 11.6734 9.36664   1
  -3  -1 -15 20.9099 8.38765   1
   3   1  15 4.85803 11.8815   1
  -4  -1 -15 16.0305 14.6680   1
  -5  -1 -15 16.6059 17.0012   1
   5   1  15 15.7592 13.9986   1
   3  -2 -15 -4.4571 8.73833   1
   2  -2 -15 9.69897 8.12616   1
   1  -2 -15 144.784 14.5902   1
   0   2  15 -16.536 9.57099  -2
   0  -2 -15 -16.536 9.57099   1
  -1  -2 -15 98.8455 11.7136   1
  -2  -2 -15 16.0573 7.57610   1
  -3  -2 -15 8.79067 8.49143   1
   3   2  15 3.73094 12.9584   1
  -4  -2 -15 4.71039 14.1510   1
   4   2  15 11.2887 13.0769   1
  -5  -2 -15 4.76557 15.0023   1
   5   2  15 7.63269 13.5101   1
  -6  -2 -15 5.88365 17.7310   1
   6   2  15 -9.3954 14.2619   1
   3  -3 -15 -1.5484 8.56385   1
   2  -3 -15 14.3191 8.75075   1
   1  -3 -15 20.6116 10.9706   1
   0   3  15 169.936 21.9752  -2
   0  -3 -15 169.936 21.9752   1
  -1  -3 -15 18.8851 7.51515   1
  -2  -3 -15 -0.3407 7.12461   1
  -3  -3 -15 16.7948 9.42231   1
   3   3  15 7.49378 13.3425   1
  -4  -3 -15 49.1228 23.6361   1
   4   3  15 18.2031 15.0890   1
  -5  -3 -15 21.8491 15.7132   1
   5   3  15 5.09255 15.2906   1
  -6  -3 -15 39.3174 18.3755   1
   6   3  15 -14.811 14.6071   1
   3  -4 -15 15.1522 11.8455   1
   2  -4 -15 11.5387 8.67733   1
   1  -4 -15 71.5699 11.3034   1
   0   4  15 171.003 15.8968  -2
   0  -4 -15 171.003 15.8968   1
  -1  -4 -15 7.47413 7.66070   1
  -2  -4 -15 -2.6232 7.10152   1
  -3  -4 -15 17.7357 13.1175   1
   3   4  15 -16.057 12.0421   1
  -4  -4 -15 92.4936 18.6293   1
   4   4  15 98.1002 20.0387   1
  -5  -4 -15 5.18074 14.6108   1
   5   4  15 13.4937 15.6634   1
  -6  -4 -15 50.1264 18.6517   1
   6   4  15 6.03537 15.0672   1
   2  -5 -15 9.88282 9.11916   1
   1  -5 -15 92.1999 12.1454   1
   0   5  15 17.0548 10.8056  -2
   0  -5 -15 17.0548 10.8056   1
  -1  -5 -15 11.2477 8.07840   1
  -2  -5 -15 -5.7696 7.12559   1
  -3  -5 -15 28.9992 9.72816   1
   3   5  15 8.21067 15.1782   1
  -4  -5 -15 -9.3880 11.3855   1
   4   5  15 11.2588 15.6356   1
  -5  -5 -15 43.6023 15.9725   1
   5   5  15 39.5994 18.5276   1
   6   5  15 -4.2740 16.3975   1
   1  -6 -15 18.2039 8.92407   1
   0   6  15 71.8027 13.3247  -2
   0  -6 -15 71.8027 13.3247   1
  -1  -6 -15 42.0500 9.73839   1
  -2  -6 -15 0.99986 7.93333   1
  -3  -6 -15 12.9597 8.97093   1
  -4  -6 -15 32.7373 14.6551   1
   4   6  15 69.1479 20.2381   1
  -5  -6 -15 19.2006 14.7317   1
   5   6  15 -7.2910 15.4724   1
  -1  -7 -15 -2.9170 7.56719   1
  -2  -7 -15 5.17701 7.81153   1
  -3  -7 -15 4.45790 8.91497   1
  -4  -7 -15 44.6928 15.4437   1
   4   7  15 18.9764 18.1539   1
  -2  -8 -15 6.77185 8.41193   1
  -3  -8 -15 0.05310 8.45437   1
  -1  -4  16 6.91313 12.8994   1
   0   4 -16 33.4745 17.1144  -2
   0  -4  16 33.4745 17.1144   1
   1  -4  16 34.4161 12.5872   1
  -2  -3  16 -6.4085 14.0454   1
  -1  -3  16 11.1877 13.8358   1
   0   3 -16 12.9409 16.7969  -2
   0  -3  16 12.9409 16.7969   1
   1  -3  16 48.3249 13.4470   1
   2  -3  16 8.44365 12.2806   1
   3   2 -16 1.00687 15.7201   1
   2   2 -16 9.43535 14.1754   1
  -2  -2  16 11.1222 13.4074   1
   1   2 -16 12.2951 12.6755   1
  -1  -2  16 -10.152 12.7659   1
   0   2 -16 44.0316 17.7883  -2
   0  -2  16 44.0316 17.7883   1
   1  -2  16 10.9123 11.4371   1
   2  -2  16 85.0998 16.2087   1
   3  -2  16 24.7869 13.2001   1
   3   1 -16 18.8522 16.1898   1
   2   1 -16 2.32596 9.65764   1
   1   1 -16 -0.1761 8.87285   1
  -1  -1  16 11.8020 14.3823   1
   0  -1  16 87.9792 13.6756  -2
   0   1 -16 87.9792 13.6756   1
   0   1 -16 87.4209 19.7977  -2
   0  -1  16 87.4209 19.7977   1
  -1   1 -16 6.83359 9.86965   1
   1  -1  16 9.48291 11.2849   1
  -2   1 -16 59.0767 10.6737   1
   2  -1  16 42.0272 13.0940   1
  -3   1 -16 4.61112 14.5702   1
   3   0 -16 41.5785 11.6161   1
   2   0 -16 -6.2514 9.00383   1
   1   0 -16 -14.601 7.79168   1
   0   0  16 -4.2231 10.9966  -2
   0   0 -16 -4.2231 10.9966   1
  -1   0 -16 98.3488 11.8583   1
   1   0  16 94.6069 25.3515   1
  -2   0 -16 17.0015 7.98317   1
  -3   0 -16 29.7531 9.00884   1
  -4   0 -16 7.73084 17.0623   1
   3  -1 -16 28.7503 11.2316   1
   2  -1 -16 63.2975 11.7483   1
   1  -1 -16 -5.3585 7.92462   1
   0   1  16 16.4595 11.0778  -2
   0  -1 -16 16.4595 11.0778   1
  -1  -1 -16 126.056 13.4941   1
  -2  -1 -16 30.3334 8.80221   1
  -3  -1 -16 23.0710 8.85064   1
  -4  -1 -16 -1.3615 15.6367   1
  -5  -1 -16 12.8382 17.6320   1
   5   1  16 14.1739 15.3531   1
   3  -2 -16 5.38598 9.58513   1
   2  -2 -16 3.66858 8.70834   1
   1  -2 -16 -2.8259 8.55508   1
   0   2  16 159.536 15.8379  -2
   0  -2 -16 159.536 15.8379   1
  -1  -2 -16 -0.0374 7.30627   1
  -2  -2 -16 136.816 13.9385   1
  -3  -2 -16 11.6749 8.40384   1
  -4  -2 -16 -14.253 17.9618   1
  -5  -2 -16 -10.837 15.2005   1
   5   2  16 -12.050 14.7752   1
   2  -3 -16 -2.8974 8.56805   1
   1  -3 -16 2.33776 8.14072   1
   0   3  16 -0.3247 11.1633  -2
   0  -3 -16 -0.3247 11.1633   1
  -1  -3 -16 137.617 14.7711   1
  -2  -3 -16 -7.5005 8.01162   1
  -3  -3 -16 20.0381 9.35604   1
  -4  -3 -16 5.81366 15.5958   1
   4   3  16 -4.1170 14.2016   1
  -5  -3 -16 28.2016 17.7230   1
   5   3  16 17.6194 16.5400   1
   2  -4 -16 15.7116 9.78224   1
   1  -4 -16 2.44092 8.42737   1
   0   4  16 30.6285 12.0996  -2
   0  -4 -16 30.6285 12.0996   1
  -1  -4 -16 89.9992 12.1752   1
  -2  -4 -16 3.55566 7.83406   1
  -3  -4 -16 2.91458 8.76233   1
  -4  -4 -16 6.34121 14.7500   1
   4   4  16 8.85307 15.0037   1
  -5  -4 -16 35.5017 17.0172   1
   5   4  16 25.4617 18.5589   1
   1  -5 -16 -9.0411 7.78077   1
   0   5  16 24.8709 12.1074  -2
   0  -5 -16 24.8709 12.1074   1
  -1  -5 -16 4.26182 8.42533   1
  -2  -5 -16 34.9777 9.97828   1
  -3  -5 -16 3.91530 8.81403   1
  -4  -5 -16 -3.5188 13.4264   1
  -5  -5 -16 17.4483 16.0863   1
   5   5  16 -1.4730 16.3479   1
   0   6  16 -14.027 15.9273  -2
   0  -6 -16 -14.027 15.9273   1
  -1  -6 -16 55.7304 11.3485   1
  -2  -6 -16 14.0309 9.11515   1
  -3  -6 -16 3.20219 9.11634   1
  -4  -6 -16 -0.5892 13.7455   1
   4   6  16 -12.243 16.8795   1
  -1  -7 -16 55.2236 11.5002   1
  -2  -7 -16 11.4566 10.1026   1
  -3  -7 -16 18.8253 10.0242   1
   0   3 -17 8.12730 19.2206  -2
   0  -3  17 8.12730 19.2206   1
   2   1 -17 39.3547 16.8354   1
   1   1 -17 78.7968 13.0213   1
   0  -1  17 -2.3426 13.0101  -2
   0   1 -17 -2.3426 13.0101   1
  -1   1 -17 -15.836 13.7227   1
  -2   1 -17 -6.8234 15.9480   1
   2   0 -17 77.4948 13.7649   1
   1   0 -17 -3.7424 9.19470   1
   0   0  17 4.09901 12.5661  -2
   0   0 -17 4.09901 12.5661   1
  -1   0 -17 9.46976 8.69144   1
  -2   0 -17 34.5886 9.76737   1
  -3   0 -17 -4.9406 8.88241   1
  -4   0 -17 34.7355 19.5298   1
   2  -1 -17 13.6482 10.7925   1
   1  -1 -17 20.5515 9.71033   1
   0   1  17 14.2636 11.9837  -2
   0  -1 -17 14.2636 11.9837   1
  -1  -1 -17 0.37881 8.28503   1
  -2  -1 -17 12.9407 8.88436   1
  -3  -1 -17 52.9062 10.7824   1
   2  -2 -17 32.3537 11.2083   1
   1  -2 -17 53.3596 11.3626   1
   0   2  17 28.5359 12.6126  -2
   0  -2 -17 28.5359 12.6126   1
  -1  -2 -17 5.46186 9.05926   1
  -2  -2 -17 -7.8842 9.33171   1
  -3  -2 -17 78.2658 11.8256   1
  -4  -1  15 -1.5997 15.3484  -2
  -4  -2 -17 -1.5997 15.3484   1
   4   1 -15 9.57900 16.9434  -2
   4   2  17 9.57900 16.9434   1
   1  -3 -17 9.56378 9.36367   1
   0   3  17 -27.553 11.3982  -2
   0  -3 -17 -27.553 11.3982   1
  -1  -3 -17 4.91677 8.61716   1
  -2  -3 -17 70.3331 11.5679   1
  -3  -3 -17 12.6347 9.36827   1
  -4   0  15 71.4054 19.5378  -2
  -4  -3 -17 71.4054 19.5378   1
   4   0 -15 39.2848 18.2918  -2
   4   3  17 39.2848 18.2918   1
   1  -4 -17 35.4291 10.9153   1
   0   4  17 28.0413 13.2634  -2
   0  -4 -17 28.0413 13.2634   1
  -1  -4 -17 4.74228 9.26759   1
  -2  -4 -17 8.31014 9.18526   1
  -3  -4 -17 23.9054 10.2331   1
  -4   1  15 -4.6663 17.8548  -2
  -4  -4 -17 -4.6663 17.8548   1
   4  -1 -15 3.38883 17.6547  -2
   4   4  17 3.38883 17.6547   1
   0   5  17 -24.074 17.7235  -2
   0  -5 -17 -24.074 17.7235   1
  -1  -5 -17 14.7100 10.0618   1
  -2  -5 -17 5.23542 9.31943   1
  -3  -5 -17 64.1665 12.2639   1
  -4  -5 -17 7.16688 11.0602   1
   4   5  17 10.1958 17.7450   1
   0   0  18 11.1423 18.9677  -2
   0   0 -18 11.1423 18.9677   1
  -1   0 -18 33.6992 11.0567   1
  -2   0 -18 4.12659 14.6962   1
   0   1  18 22.4395 13.8852  -2
   0  -1 -18 22.4395 13.8852   1
  -1  -1 -18 -4.2071 10.7746   1
  -2  -1 -18 -1.8666 10.0767   1
  -3  -1 -18 10.0537 11.6534   1
   0   2  18 94.9996 15.8875  -2
   0  -2 -18 94.9996 15.8875   1
  -1  -2 -18 3.81220 9.27298   1
  -2  -2 -18 5.07935 9.55344   1
  -3  -2 -18 1.56960 9.68449   1
   0   3  18 20.0802 14.4250  -2
   0  -3 -18 20.0802 14.4250   1
  -1  -3 -18 27.1042 10.3004   1
  -2  -3 -18 13.0994 9.89516   1
  -3  -3 -18 8.41843 10.0973   1
  -1  -4 -18 10.4183 9.84552   1
  -2  -4 -18 -5.4762 9.25379   1
   0   0   0    0.00    0.00   0
;
_shelx_hkl_checksum   54922

