 
data_er1065
 
_audit_creation_method            'SHELXL-2018/3'
_shelx_SHELXL_version_number      '2018/3'
_chemical_name_systematic         ?
_chemical_name_common             ?
_chemical_melting_point           ?
_chemical_formula_moiety          ?
_chemical_formula_sum
 'C28 H21 Ce N12 O12 S2' 
_chemical_formula_weight          921.81

loop_
 _atom_type_symbol
 _atom_type_description
 _atom_type_scat_dispersion_real
 _atom_type_scat_dispersion_imag
 _atom_type_scat_source
 'C'  'C'   0.0027   0.0018
 'International Tables Vol C Tables 4.2.6.8 and 6.1.1.4'
 'H'  'H'   0.0000   0.0000
 'International Tables Vol C Tables 4.2.6.8 and 6.1.1.4'
 'Ce'  'Ce'  -0.4950   2.9145
 'International Tables Vol C Tables 4.2.6.8 and 6.1.1.4'
 'N'  'N'   0.0051   0.0037
 'International Tables Vol C Tables 4.2.6.8 and 6.1.1.4'
 'O'  'O'   0.0094   0.0069
 'International Tables Vol C Tables 4.2.6.8 and 6.1.1.4'
 'S'  'S'   0.1230   0.1390
 'International Tables Vol C Tables 4.2.6.8 and 6.1.1.4'
 
_space_group_crystal_system       monoclinic
_space_group_IT_number            14
_space_group_name_H-M_alt         'P 21/n'
_space_group_name_Hall            '-P 2yn'
 
_shelx_space_group_comment
;
The symmetry employed for this shelxl refinement is uniquely defined
by the following loop, which should always be used as a source of
symmetry information in preference to the above space-group names.
They are only intended as comments.
;
 
loop_
 _space_group_symop_operation_xyz
 'x, y, z'
 '-x+1/2, y+1/2, -z+1/2'
 '-x, -y, -z'
 'x-1/2, -y-1/2, z-1/2'
 
_cell_length_a                    17.519(4)
_cell_length_b                    6.8540(14)
_cell_length_c                    25.376(5)
_cell_angle_alpha                 90
_cell_angle_beta                  96.39(3)
_cell_angle_gamma                 90
_cell_volume                      3028.1(11)
_cell_formula_units_Z             4
_cell_measurement_temperature     293(2)
_cell_measurement_reflns_used     ?
_cell_measurement_theta_min       ?
_cell_measurement_theta_max       ?
 
_exptl_crystal_description        ?
_exptl_crystal_colour             ?
_exptl_crystal_density_meas       ?
_exptl_crystal_density_method     ?
_exptl_crystal_density_diffrn     2.022          
_exptl_crystal_F_000              1836
_exptl_transmission_factor_min    ?
_exptl_transmission_factor_max    ?
_exptl_crystal_size_max           ?
_exptl_crystal_size_mid           ?
_exptl_crystal_size_min           ?
_exptl_absorpt_coefficient_mu     2.009
_shelx_estimated_absorpt_T_min    ?
_shelx_estimated_absorpt_T_max    ?
_exptl_absorpt_correction_type    ?
_exptl_absorpt_correction_T_min   ?
_exptl_absorpt_correction_T_max   ?
_exptl_absorpt_process_details    ?
_exptl_absorpt_special_details    ?
_diffrn_ambient_temperature       293(2)
_diffrn_radiation_wavelength      0.7527
_diffrn_radiation_type            ?
_diffrn_source                    ?
_diffrn_measurement_device_type   ?
_diffrn_measurement_method        ?
_diffrn_detector_area_resol_mean  ?
_diffrn_reflns_number             17721
_diffrn_reflns_av_unetI/netI      0.0251
_diffrn_reflns_av_R_equivalents   0.0294
_diffrn_reflns_limit_h_min        -20
_diffrn_reflns_limit_h_max        20
_diffrn_reflns_limit_k_min        -7
_diffrn_reflns_limit_k_max        7
_diffrn_reflns_limit_l_min        -29
_diffrn_reflns_limit_l_max        29
_diffrn_reflns_theta_min          1.425
_diffrn_reflns_theta_max          26.275
_diffrn_reflns_theta_full         26.275
_diffrn_measured_fraction_theta_max   0.972
_diffrn_measured_fraction_theta_full  0.972
_diffrn_reflns_Laue_measured_fraction_max    0.972
_diffrn_reflns_Laue_measured_fraction_full   0.972
_diffrn_reflns_point_group_measured_fraction_max   0.972
_diffrn_reflns_point_group_measured_fraction_full  0.972
_reflns_number_total              4991
_reflns_number_gt                 4736
_reflns_threshold_expression      'I > 2\s(I)'
_reflns_Friedel_coverage          0.000
_reflns_Friedel_fraction_max      .
_reflns_Friedel_fraction_full     .
 
_reflns_special_details
;
 Reflections were merged by SHELXL according to the crystal
 class for the calculation of statistics and refinement.
 
 _reflns_Friedel_fraction is defined as the number of unique
 Friedel pairs measured divided by the number that would be
 possible theoretically, ignoring centric projections and
 systematic absences.
;
 
_computing_data_collection        ?
_computing_cell_refinement        ?
_computing_data_reduction         ?
_computing_structure_solution     'SHELXT 2014/5 (Sheldrick, 2014)'
_computing_structure_refinement 'SHELXL-2018/3 (Sheldrick, 2018)'
_computing_molecular_graphics     ?
_computing_publication_material   ?
_refine_special_details           ?
_refine_ls_structure_factor_coef  Fsqd
_refine_ls_matrix_type            full
_refine_ls_weighting_scheme       calc
_refine_ls_weighting_details
'w=1/[\s^2^(Fo^2^)+(0.0154P)^2^+4.7870P] where P=(Fo^2^+2Fc^2^)/3'
_atom_sites_solution_primary      ?
_atom_sites_solution_secondary    ?
_atom_sites_solution_hydrogens    difmap
_refine_ls_hydrogen_treatment     refall
_refine_ls_extinction_method      none
_refine_ls_extinction_coef        .
_refine_ls_number_reflns          4991
_refine_ls_number_parameters      580
_refine_ls_number_restraints      0
_refine_ls_R_factor_all           0.0216
_refine_ls_R_factor_gt            0.0202
_refine_ls_wR_factor_ref          0.0490
_refine_ls_wR_factor_gt           0.0484
_refine_ls_goodness_of_fit_ref    1.063
_refine_ls_restrained_S_all       1.063
_refine_ls_shift/su_max           0.003
_refine_ls_shift/su_mean          0.000
 
loop_
 _atom_site_label
 _atom_site_type_symbol
 _atom_site_fract_x
 _atom_site_fract_y
 _atom_site_fract_z
 _atom_site_U_iso_or_equiv
 _atom_site_adp_type
 _atom_site_occupancy
 _atom_site_site_symmetry_order  
 _atom_site_calc_flag
 _atom_site_refinement_flags_posn
 _atom_site_refinement_flags_adp
 _atom_site_refinement_flags_occupancy
 _atom_site_disorder_assembly
 _atom_site_disorder_group
Ce01 Ce 0.37709(2) 0.77377(2) 0.61647(2) 0.00895(6) Uani 1 1 d . . . . .
S002 S 0.89102(3) 0.33249(9) 0.48771(2) 0.01295(12) Uani 1 1 d . . . . .
S003 S 0.11474(3) 1.16113(9) 0.46481(2) 0.01183(12) Uani 1 1 d . . . . .
O004 O 0.49170(9) 0.6936(2) 0.57407(6) 0.0129(3) Uani 1 1 d . . . . .
O005 O -0.29730(9) 1.3489(3) 0.31235(6) 0.0154(4) Uani 1 1 d . . . . .
O006 O 0.35020(10) 0.4825(3) 0.55988(7) 0.0147(3) Uani 1 1 d . . . . .
O007 O 0.45309(9) 0.8674(2) 0.45285(6) 0.0132(3) Uani 1 1 d . . . . .
O008 O 0.34003(10) 0.9205(3) 0.52725(7) 0.0156(4) Uani 1 1 d . . . . .
O009 O 0.55992(9) 0.6959(2) 0.50502(6) 0.0145(3) Uani 1 1 d . . . . .
O00A O -0.23461(9) 1.3169(3) 0.39266(6) 0.0149(3) Uani 1 1 d . . . . .
O00B O 0.44299(9) 0.8636(3) 0.70696(7) 0.0149(4) Uani 1 1 d . . . . .
O00C O 0.52874(8) 0.9050(2) 0.38746(6) 0.0134(3) Uani 1 1 d . . . . .
O00D O 1.29888(9) 0.0659(2) 0.63636(6) 0.0134(3) Uani 1 1 d . . . . .
O00E O 0.44171(10) 0.4678(3) 0.66358(8) 0.0164(4) Uani 1 1 d . . . . .
O00F O 1.24159(9) 0.1831(2) 0.55910(6) 0.0141(3) Uani 1 1 d . . . . .
N00G N 0.18477(10) 1.1135(3) 0.43063(7) 0.0117(4) Uani 1 1 d . . . . .
N00H N -0.04174(11) 1.2400(3) 0.31075(7) 0.0104(4) Uani 1 1 d . . . . .
N00I N 0.04581(11) 1.1966(3) 0.41792(7) 0.0117(4) Uani 1 1 d . . . . .
N00J N 0.73187(10) 0.4534(3) 0.61345(7) 0.0102(4) Uani 1 1 d . . . . .
C00K C 0.55145(12) 0.6553(3) 0.55323(9) 0.0108(5) Uani 1 1 d . . . . .
N00L N 0.96103(11) 0.2995(3) 0.53413(7) 0.0124(4) Uani 1 1 d . . . . .
C00M C -0.23533(13) 1.3285(3) 0.34297(9) 0.0122(5) Uani 1 1 d . . . . .
N00N N 1.08439(11) 0.2156(3) 0.69191(8) 0.0124(4) Uani 1 1 d . . . . .
N00O N 1.05037(11) 0.2532(3) 0.64141(8) 0.0110(4) Uani 1 1 d . . . . .
N00P N 0.82144(10) 0.3768(3) 0.52254(7) 0.0120(4) Uani 1 1 d . . . . .
C00Q C 0.03724(12) 1.1896(3) 0.31921(9) 0.0098(4) Uani 1 1 d . . . . .
N00R N -0.07665(12) 1.2631(3) 0.25993(8) 0.0179(5) Uani 1 1 d . . . . .
C00S C 0.07586(12) 1.1726(3) 0.37176(9) 0.0100(4) Uani 1 1 d . . . . .
N00T N 0.27678(10) 1.0461(3) 0.34076(7) 0.0104(4) Uani 1 1 d . . . . .
N00U N 0.69433(11) 0.4650(3) 0.65831(7) 0.0121(4) Uani 1 1 d . . . . .
C00V C 0.93186(12) 0.3209(3) 0.58073(9) 0.0103(4) Uani 1 1 d . . . . .
N00W N 0.31669(11) 1.0557(3) 0.29708(8) 0.0131(4) Uani 1 1 d . . . . .
C00X C 1.15669(13) 0.1731(3) 0.68591(9) 0.0118(5) Uani 1 1 d . . . . .
C00Y C 0.15640(12) 1.1234(3) 0.37914(9) 0.0104(4) Uani 1 1 d . . . . .
C00Z C 0.46460(13) 0.9096(3) 0.40448(9) 0.0115(5) Uani 1 1 d . . . . .
C010 C 0.07926(13) 1.1584(3) 0.27766(9) 0.0114(5) Uani 1 1 d . . . . .
C011 C 0.85066(12) 0.3679(3) 0.57378(9) 0.0099(4) Uani 1 1 d . . . . .
C012 C 1.24250(12) 0.1419(3) 0.60759(9) 0.0113(5) Uani 1 1 d . . . . .
C013 C -0.16258(13) 1.3066(3) 0.31942(9) 0.0120(5) Uani 1 1 d . . . . .
C014 C 0.84984(13) 0.3747(3) 0.66823(9) 0.0107(5) Uani 1 1 d . . . . .
C015 C 0.68682(13) 0.5129(3) 0.56941(9) 0.0119(5) Uani 1 1 d . . . . .
C016 C 0.39488(13) 0.9659(3) 0.37036(9) 0.0111(5) Uani 1 1 d . . . . .
C017 C 0.19760(12) 1.0932(3) 0.33438(9) 0.0102(4) Uani 1 1 d . . . . .
C018 C 0.32234(13) 0.9911(3) 0.38480(9) 0.0111(5) Uani 1 1 d . . . . .
C019 C 0.81024(12) 0.3980(3) 0.61901(9) 0.0097(4) Uani 1 1 d . . . . .
C01A C 0.15836(13) 1.1117(3) 0.28506(9) 0.0105(5) Uani 1 1 d . . . . .
C01B C -0.09235(13) 1.2649(3) 0.34667(9) 0.0119(5) Uani 1 1 d . . . . .
C01C C -0.14955(13) 1.3032(4) 0.26586(10) 0.0173(5) Uani 1 1 d . . . . .
C01D C 0.61728(13) 0.5653(3) 0.58559(9) 0.0110(4) Uani 1 1 d . . . . .
C01E C 1.17110(13) 0.1841(3) 0.63253(9) 0.0114(5) Uani 1 1 d . . . . .
C01F C 0.92907(13) 0.3246(3) 0.67485(9) 0.0108(4) Uani 1 1 d . . . . .
C01G C 0.38765(13) 1.0080(4) 0.31575(9) 0.0131(5) Uani 1 1 d . . . . .
C01H C 0.97098(12) 0.3011(3) 0.63301(9) 0.0100(4) Uani 1 1 d . . . . .
C01I C 0.62548(13) 0.5316(3) 0.64079(9) 0.0120(5) Uani 1 1 d . . . . .
C01J C 1.10213(13) 0.2361(3) 0.60551(9) 0.0116(5) Uani 1 1 d . . . . .
H01J H 1.0873(14) 0.254(3) 0.5707(11) 0.006(6) Uiso 1 1 d . . . . .
H01F H 0.9545(15) 0.308(4) 0.7096(11) 0.012(6) Uiso 1 1 d . . . . .
H01B H -0.0788(15) 1.250(4) 0.3828(11) 0.010(6) Uiso 1 1 d . . . . .
H01I H 0.5882(14) 0.551(4) 0.6648(10) 0.009(6) Uiso 1 1 d . . . . .
H014 H 0.8243(14) 0.388(4) 0.6981(11) 0.011(6) Uiso 1 1 d . . . . .
H01G H 0.4242(16) 1.007(4) 0.2921(11) 0.015(7) Uiso 1 1 d . . . . .
H01C H -0.1813(17) 1.328(4) 0.2349(12) 0.021(7) Uiso 1 1 d . . . . .
H018 H 0.3045(15) 0.976(4) 0.4153(12) 0.015(7) Uiso 1 1 d . . . . .
H01A H 0.1826(15) 1.097(4) 0.2568(11) 0.010(6) Uiso 1 1 d . . . . .
H015 H 0.7011(15) 0.511(4) 0.5362(11) 0.014(7) Uiso 1 1 d . . . . .
H010 H 0.0564(15) 1.161(4) 0.2440(11) 0.014(7) Uiso 1 1 d . . . . .
H00X H 1.1886(17) 0.143(4) 0.7173(12) 0.021(7) Uiso 1 1 d . . . . .
H00A H 0.314(2) 0.401(5) 0.5602(14) 0.040(10) Uiso 1 1 d . . . . .
H00E H 0.4333(19) 0.807(5) 0.7354(14) 0.030(9) Uiso 1 1 d . . . . .
H00G H 0.4288(19) 0.424(5) 0.6903(15) 0.031(9) Uiso 1 1 d . . . . .
H00B H 0.378(2) 0.421(5) 0.5403(14) 0.042(10) Uiso 1 1 d . . . . .
H00H H 0.4397(19) 0.372(6) 0.6446(14) 0.036(10) Uiso 1 1 d . . . . .
H00F H 0.4413(18) 0.978(6) 0.7137(13) 0.028(9) Uiso 1 1 d . . . . .
H00C H 0.369(2) 0.941(5) 0.5065(15) 0.043(11) Uiso 1 1 d . . . . .
H00D H 0.311(2) 1.021(6) 0.5321(14) 0.043(10) Uiso 1 1 d . . . . .
H007 H 0.499(3) 0.806(7) 0.4742(18) 0.078(14) Uiso 1 1 d . . . . .
 
loop_
 _atom_site_aniso_label
 _atom_site_aniso_U_11
 _atom_site_aniso_U_22
 _atom_site_aniso_U_33
 _atom_site_aniso_U_23
 _atom_site_aniso_U_13
 _atom_site_aniso_U_12
Ce01 0.00594(7) 0.01355(9) 0.00743(8) 0.00004(5) 0.00109(5) 0.00151(5)
S002 0.0098(3) 0.0211(3) 0.0080(3) 0.0004(2) 0.0007(2) 0.0028(2)
S003 0.0090(3) 0.0185(3) 0.0080(3) 0.0001(2) 0.0009(2) 0.0011(2)
O004 0.0084(8) 0.0173(9) 0.0133(8) -0.0005(6) 0.0022(6) 0.0025(6)
O005 0.0085(8) 0.0239(10) 0.0136(8) 0.0035(7) 0.0002(6) 0.0016(7)
O006 0.0117(8) 0.0171(9) 0.0158(9) -0.0048(7) 0.0046(7) -0.0019(7)
O007 0.0097(8) 0.0193(9) 0.0105(8) 0.0020(7) 0.0008(6) 0.0035(6)
O008 0.0133(9) 0.0213(10) 0.0127(9) 0.0023(7) 0.0036(7) 0.0046(7)
O009 0.0119(8) 0.0204(9) 0.0114(8) 0.0020(7) 0.0017(6) 0.0058(7)
O00A 0.0092(8) 0.0239(10) 0.0116(8) -0.0024(7) 0.0010(6) -0.0007(7)
O00B 0.0147(8) 0.0192(11) 0.0109(9) 0.0013(8) 0.0015(7) -0.0025(7)
O00C 0.0074(8) 0.0189(9) 0.0144(8) 0.0004(7) 0.0025(6) 0.0021(6)
O00D 0.0082(8) 0.0182(9) 0.0137(8) 0.0001(7) 0.0003(6) 0.0032(6)
O00E 0.0180(9) 0.0185(10) 0.0135(9) 0.0028(8) 0.0050(7) 0.0031(7)
O00F 0.0120(8) 0.0192(9) 0.0114(8) 0.0013(7) 0.0025(6) 0.0021(7)
N00G 0.0106(9) 0.0151(11) 0.0094(9) -0.0014(7) 0.0017(7) 0.0003(7)
N00H 0.0082(9) 0.0143(10) 0.0088(9) 0.0011(7) 0.0013(7) 0.0005(7)
N00I 0.0103(9) 0.0146(11) 0.0102(10) 0.0005(8) 0.0005(7) -0.0004(8)
N00J 0.0087(9) 0.0138(10) 0.0082(9) -0.0002(7) 0.0010(7) 0.0011(7)
C00K 0.0083(11) 0.0111(12) 0.0129(11) -0.0012(9) 0.0005(9) -0.0002(8)
N00L 0.0112(9) 0.0170(11) 0.0088(10) 0.0004(8) -0.0004(8) 0.0015(8)
C00M 0.0107(11) 0.0111(12) 0.0151(12) 0.0003(9) 0.0031(9) -0.0019(9)
N00N 0.0100(9) 0.0180(11) 0.0086(9) 0.0006(8) -0.0005(7) 0.0024(8)
N00O 0.0084(9) 0.0146(10) 0.0101(10) -0.0004(7) 0.0014(7) 0.0019(7)
N00P 0.0101(9) 0.0153(11) 0.0107(9) 0.0003(8) 0.0014(7) 0.0010(7)
C00Q 0.0068(10) 0.0099(12) 0.0125(11) 0.0003(9) -0.0002(8) -0.0003(8)
N00R 0.0113(10) 0.0322(13) 0.0099(10) 0.0041(9) 0.0004(8) 0.0037(8)
C00S 0.0086(11) 0.0091(11) 0.0122(11) 0.0005(9) 0.0004(8) -0.0018(8)
N00T 0.0074(9) 0.0141(10) 0.0097(9) -0.0009(7) 0.0007(7) 0.0012(7)
N00U 0.0095(9) 0.0172(11) 0.0101(9) 0.0000(8) 0.0035(7) 0.0008(8)
C00V 0.0086(11) 0.0092(12) 0.0131(11) 0.0009(9) 0.0017(9) 0.0005(8)
N00W 0.0093(9) 0.0205(11) 0.0101(9) -0.0003(8) 0.0036(7) 0.0009(8)
C00X 0.0087(11) 0.0145(12) 0.0118(11) 0.0000(9) -0.0004(9) 0.0006(9)
C00Y 0.0108(11) 0.0097(12) 0.0105(11) 0.0009(8) 0.0007(9) -0.0004(8)
C00Z 0.0114(11) 0.0096(12) 0.0133(12) -0.0022(9) 0.0004(9) 0.0001(8)
C010 0.0117(11) 0.0140(12) 0.0082(11) 0.0009(9) 0.0000(9) -0.0013(9)
C011 0.0085(11) 0.0101(12) 0.0108(11) 0.0009(8) -0.0003(8) -0.0004(8)
C012 0.0094(11) 0.0113(12) 0.0136(12) -0.0019(9) 0.0025(9) -0.0011(8)
C013 0.0094(11) 0.0114(12) 0.0151(12) 0.0006(9) 0.0014(9) -0.0007(9)
C014 0.0100(11) 0.0129(12) 0.0096(11) 0.0001(9) 0.0026(9) -0.0001(9)
C015 0.0105(11) 0.0155(13) 0.0091(11) 0.0013(9) -0.0010(9) 0.0011(9)
C016 0.0095(11) 0.0111(12) 0.0125(11) -0.0013(9) 0.0007(9) -0.0002(8)
C017 0.0074(10) 0.0097(12) 0.0132(11) -0.0005(9) 0.0008(9) -0.0003(8)
C018 0.0108(11) 0.0130(12) 0.0095(11) -0.0001(9) 0.0006(9) -0.0010(9)
C019 0.0069(10) 0.0096(11) 0.0126(11) -0.0002(9) 0.0008(8) 0.0004(8)
C01A 0.0096(11) 0.0142(12) 0.0081(11) -0.0008(9) 0.0032(9) 0.0006(8)
C01B 0.0117(11) 0.0147(12) 0.0094(12) -0.0017(9) 0.0019(9) -0.0009(9)
C01C 0.0091(11) 0.0293(15) 0.0135(12) 0.0052(10) 0.0008(9) 0.0028(10)
C01D 0.0093(11) 0.0116(12) 0.0120(11) -0.0012(9) 0.0012(8) -0.0004(8)
C01E 0.0108(11) 0.0104(12) 0.0132(11) -0.0002(9) 0.0013(9) -0.0005(9)
C01F 0.0099(11) 0.0117(12) 0.0102(11) 0.0005(9) -0.0011(9) -0.0003(9)
C01G 0.0101(11) 0.0172(13) 0.0125(11) -0.0009(9) 0.0038(9) 0.0005(9)
C01H 0.0074(10) 0.0097(12) 0.0126(11) 0.0005(9) 0.0001(9) 0.0001(8)
C01I 0.0094(11) 0.0134(12) 0.0135(11) -0.0001(9) 0.0032(9) 0.0002(9)
C01J 0.0125(11) 0.0142(12) 0.0084(12) 0.0003(9) 0.0029(9) 0.0008(9)
 
_geom_special_details
;
 All esds (except the esd in the dihedral angle between two l.s. planes)
 are estimated using the full covariance matrix.  The cell esds are taken
 into account individually in the estimation of esds in distances, angles
 and torsion angles; correlations between esds in cell parameters are only
 used when they are defined by crystal symmetry.  An approximate (isotropic)
 treatment of cell esds is used for estimating esds involving l.s. planes.
;
 
loop_
 _geom_bond_atom_site_label_1
 _geom_bond_atom_site_label_2
 _geom_bond_distance
 _geom_bond_site_symmetry_2
 _geom_bond_publ_flag
Ce01 O004 2.4439(16) . ?
Ce01 O006 2.4734(18) . ?
Ce01 O008 2.4964(18) . ?
Ce01 O00D 2.5089(16) 1_465 ?
Ce01 O00B 2.5285(18) . ?
Ce01 O005 2.5465(17) 3_576 ?
Ce01 O00A 2.5576(16) 3_576 ?
Ce01 O00E 2.6092(18) . ?
Ce01 O00C 2.7599(17) 3_676 ?
Ce01 C00M 2.879(2) 3_576 ?
S002 N00P 1.6121(19) . ?
S002 N00L 1.619(2) . ?
S003 N00G 1.6129(19) . ?
S003 N00I 1.616(2) . ?
O004 C00K 1.252(3) . ?
O005 C00M 1.270(3) . ?
O006 H00A 0.85(4) . ?
O006 H00B 0.85(4) . ?
O007 C00Z 1.299(3) . ?
O007 H007 1.01(5) . ?
O008 H00C 0.79(4) . ?
O008 H00D 0.87(4) . ?
O009 C00K 1.279(3) . ?
O009 H007 1.46(5) . ?
O00A C00M 1.262(3) . ?
O00B H00E 0.85(4) . ?
O00B H00F 0.80(4) . ?
O00C C00Z 1.248(3) . ?
O00D C012 1.272(3) . ?
O00E H00G 0.80(4) . ?
O00E H00H 0.81(4) . ?
O00F C012 1.261(3) . ?
N00G C00Y 1.347(3) . ?
N00H C01B 1.351(3) . ?
N00H N00R 1.373(3) . ?
N00H C00Q 1.419(3) . ?
N00I C00S 1.347(3) . ?
N00J C015 1.357(3) . ?
N00J N00U 1.379(3) . ?
N00J C019 1.416(3) . ?
C00K C01D 1.474(3) . ?
N00L C00V 1.347(3) . ?
C00M C013 1.474(3) . ?
N00N C00X 1.325(3) . ?
N00N N00O 1.376(3) . ?
N00O C01J 1.360(3) . ?
N00O C01H 1.422(3) . ?
N00P C011 1.345(3) . ?
C00Q C010 1.368(3) . ?
C00Q C00S 1.431(3) . ?
N00R C01C 1.331(3) . ?
C00S C00Y 1.443(3) . ?
N00T C018 1.352(3) . ?
N00T N00W 1.376(3) . ?
N00T C017 1.416(3) . ?
N00U C01I 1.320(3) . ?
C00V C01H 1.430(3) . ?
C00V C011 1.450(3) . ?
N00W C01G 1.321(3) . ?
C00X C01E 1.407(3) . ?
C00X H00X 0.94(3) . ?
C00Y C017 1.427(3) . ?
C00Z C016 1.468(3) . ?
C010 C01A 1.414(3) . ?
C010 H010 0.90(3) . ?
C011 C019 1.429(3) . ?
C012 C01E 1.492(3) . ?
C013 C01B 1.373(3) . ?
C013 C01C 1.403(3) . ?
C014 C019 1.369(3) . ?
C014 C01F 1.422(3) . ?
C014 H014 0.93(3) . ?
C015 C01D 1.376(3) . ?
C015 H015 0.91(3) . ?
C016 C018 1.372(3) . ?
C016 C01G 1.407(3) . ?
C017 C01A 1.365(3) . ?
C018 H018 0.87(3) . ?
C01A H01A 0.88(3) . ?
C01B H01B 0.93(3) . ?
C01C H01C 0.93(3) . ?
C01D C01I 1.411(3) . ?
C01E C01J 1.369(3) . ?
C01F C01H 1.366(3) . ?
C01F H01F 0.95(3) . ?
C01G H01G 0.92(3) . ?
C01I H01I 0.95(3) . ?
C01J H01J 0.90(3) . ?
 
loop_
 _geom_angle_atom_site_label_1
 _geom_angle_atom_site_label_2
 _geom_angle_atom_site_label_3
 _geom_angle
 _geom_angle_site_symmetry_1
 _geom_angle_site_symmetry_3
 _geom_angle_publ_flag
O004 Ce01 O006 71.07(6) . . ?
O004 Ce01 O008 80.48(6) . . ?
O006 Ce01 O008 77.58(6) . . ?
O004 Ce01 O00D 139.62(5) . 1_465 ?
O006 Ce01 O00D 133.46(6) . 1_465 ?
O008 Ce01 O00D 76.60(6) . 1_465 ?
O004 Ce01 O00B 98.05(6) . . ?
O006 Ce01 O00B 139.63(6) . . ?
O008 Ce01 O00B 140.53(7) . . ?
O00D Ce01 O00B 80.07(6) 1_465 . ?
O004 Ce01 O005 141.34(6) . 3_576 ?
O006 Ce01 O005 93.52(6) . 3_576 ?
O008 Ce01 O005 131.95(6) . 3_576 ?
O00D Ce01 O005 76.45(6) 1_465 3_576 ?
O00B Ce01 O005 70.58(6) . 3_576 ?
O004 Ce01 O00A 138.32(5) . 3_576 ?
O006 Ce01 O00A 68.31(6) . 3_576 ?
O008 Ce01 O00A 82.13(6) . 3_576 ?
O00D Ce01 O00A 70.29(5) 1_465 3_576 ?
O00B Ce01 O00A 118.93(6) . 3_576 ?
O005 Ce01 O00A 51.46(5) 3_576 3_576 ?
O004 Ce01 O00E 71.65(6) . . ?
O006 Ce01 O00E 70.26(6) . . ?
O008 Ce01 O00E 142.66(6) . . ?
O00D Ce01 O00E 140.19(6) 1_465 . ?
O00B Ce01 O00E 69.43(7) . . ?
O005 Ce01 O00E 69.77(6) 3_576 . ?
O00A Ce01 O00E 102.45(6) 3_576 . ?
O004 Ce01 O00C 68.88(5) . 3_676 ?
O006 Ce01 O00C 134.33(6) . 3_676 ?
O008 Ce01 O00C 75.05(6) . 3_676 ?
O00D Ce01 O00C 73.29(5) 1_465 3_676 ?
O00B Ce01 O00C 67.93(6) . 3_676 ?
O005 Ce01 O00C 131.80(5) 3_576 3_676 ?
O00A Ce01 O00C 140.52(5) 3_576 3_676 ?
O00E Ce01 O00C 115.29(5) . 3_676 ?
O004 Ce01 C00M 152.43(6) . 3_576 ?
O006 Ce01 C00M 83.97(6) . 3_576 ?
O008 Ce01 C00M 105.95(7) . 3_576 ?
O00D Ce01 C00M 67.07(6) 1_465 3_576 ?
O00B Ce01 C00M 93.41(6) . 3_576 ?
O005 Ce01 C00M 26.17(6) 3_576 3_576 ?
O00A Ce01 C00M 26.00(6) 3_576 3_576 ?
O00E Ce01 C00M 89.31(6) . 3_576 ?
O00C Ce01 C00M 138.61(6) 3_676 3_576 ?
N00P S002 N00L 100.67(10) . . ?
N00G S003 N00I 100.67(10) . . ?
C00K O004 Ce01 178.49(16) . . ?
C00M O005 Ce01 91.68(13) . 3_576 ?
Ce01 O006 H00A 128(2) . . ?
Ce01 O006 H00B 131(2) . . ?
H00A O006 H00B 100(3) . . ?
C00Z O007 H007 114(3) . . ?
Ce01 O008 H00C 124(3) . . ?
Ce01 O008 H00D 107(2) . . ?
H00C O008 H00D 113(4) . . ?
C00K O009 H007 117.8(18) . . ?
C00M O00A Ce01 91.36(13) . 3_576 ?
Ce01 O00B H00E 123(2) . . ?
Ce01 O00B H00F 114(2) . . ?
H00E O00B H00F 104(3) . . ?
C00Z O00C Ce01 123.84(14) . 3_676 ?
C012 O00D Ce01 128.14(14) . 1_645 ?
Ce01 O00E H00G 123(2) . . ?
Ce01 O00E H00H 113(2) . . ?
H00G O00E H00H 102(3) . . ?
C00Y N00G S003 106.91(15) . . ?
C01B N00H N00R 111.20(19) . . ?
C01B N00H C00Q 129.1(2) . . ?
N00R N00H C00Q 119.66(19) . . ?
C00S N00I S003 106.83(15) . . ?
C015 N00J N00U 112.05(18) . . ?
C015 N00J C019 129.12(19) . . ?
N00U N00J C019 118.65(18) . . ?
O004 C00K O009 123.4(2) . . ?
O004 C00K C01D 119.4(2) . . ?
O009 C00K C01D 117.18(19) . . ?
C00V N00L S002 107.02(15) . . ?
O00A C00M O005 122.1(2) . . ?
O00A C00M C013 119.0(2) . . ?
O005 C00M C013 118.8(2) . . ?
O00A C00M Ce01 62.64(12) . 3_576 ?
O005 C00M Ce01 62.15(12) . 3_576 ?
C013 C00M Ce01 159.91(16) . 3_576 ?
C00X N00N N00O 104.75(18) . . ?
C01J N00O N00N 110.83(18) . . ?
C01J N00O C01H 129.3(2) . . ?
N00N N00O C01H 119.85(19) . . ?
C011 N00P S002 106.98(15) . . ?
C010 C00Q N00H 121.4(2) . . ?
C010 C00Q C00S 117.8(2) . . ?
N00H C00Q C00S 120.8(2) . . ?
C01C N00R N00H 104.49(19) . . ?
N00I C00S C00Q 127.6(2) . . ?
N00I C00S C00Y 112.78(19) . . ?
C00Q C00S C00Y 119.6(2) . . ?
C018 N00T N00W 111.89(18) . . ?
C018 N00T C017 129.69(19) . . ?
N00W N00T C017 118.43(18) . . ?
C01I N00U N00J 104.12(18) . . ?
N00L C00V C01H 127.9(2) . . ?
N00L C00V C011 112.35(19) . . ?
C01H C00V C011 119.7(2) . . ?
C01G N00W N00T 103.98(18) . . ?
N00N C00X C01E 112.0(2) . . ?
N00N C00X H00X 115.9(17) . . ?
C01E C00X H00X 132.1(18) . . ?
N00G C00Y C017 126.9(2) . . ?
N00G C00Y C00S 112.81(19) . . ?
C017 C00Y C00S 120.3(2) . . ?
O00C C00Z O007 124.2(2) . . ?
O00C C00Z C016 121.6(2) . . ?
O007 C00Z C016 114.17(19) . . ?
C00Q C010 C01A 122.4(2) . . ?
C00Q C010 H010 120.4(17) . . ?
C01A C010 H010 117.1(17) . . ?
N00P C011 C019 126.9(2) . . ?
N00P C011 C00V 112.97(19) . . ?
C019 C011 C00V 120.1(2) . . ?
O00F C012 O00D 125.2(2) . . ?
O00F C012 C01E 116.8(2) . . ?
O00D C012 C01E 118.0(2) . . ?
C01B C013 C01C 104.5(2) . . ?
C01B C013 C00M 125.7(2) . . ?
C01C C013 C00M 129.5(2) . . ?
C019 C014 C01F 121.7(2) . . ?
C019 C014 H014 119.6(16) . . ?
C01F C014 H014 118.7(16) . . ?
N00J C015 C01D 106.6(2) . . ?
N00J C015 H015 124.5(17) . . ?
C01D C015 H015 128.8(17) . . ?
C018 C016 C01G 104.6(2) . . ?
C018 C016 C00Z 127.6(2) . . ?
C01G C016 C00Z 127.8(2) . . ?
C01A C017 N00T 120.9(2) . . ?
C01A C017 C00Y 117.9(2) . . ?
N00T C017 C00Y 121.2(2) . . ?
N00T C018 C016 107.1(2) . . ?
N00T C018 H018 122.0(18) . . ?
C016 C018 H018 131.0(18) . . ?
C014 C019 N00J 120.6(2) . . ?
C014 C019 C011 118.0(2) . . ?
N00J C019 C011 121.35(19) . . ?
C017 C01A C010 121.9(2) . . ?
C017 C01A H01A 119.9(17) . . ?
C010 C01A H01A 118.2(17) . . ?
N00H C01B C013 107.8(2) . . ?
N00H C01B H01B 122.5(17) . . ?
C013 C01B H01B 129.7(17) . . ?
N00R C01C C013 112.0(2) . . ?
N00R C01C H01C 115.8(18) . . ?
C013 C01C H01C 132.2(18) . . ?
C015 C01D C01I 104.9(2) . . ?
C015 C01D C00K 127.4(2) . . ?
C01I C01D C00K 127.5(2) . . ?
C01J C01E C00X 104.7(2) . . ?
C01J C01E C012 125.0(2) . . ?
C00X C01E C012 130.3(2) . . ?
C01H C01F C014 122.6(2) . . ?
C01H C01F H01F 118.1(16) . . ?
C014 C01F H01F 119.3(16) . . ?
N00W C01G C016 112.4(2) . . ?
N00W C01G H01G 117.6(17) . . ?
C016 C01G H01G 130.0(17) . . ?
C01F C01H N00O 120.8(2) . . ?
C01F C01H C00V 117.8(2) . . ?
N00O C01H C00V 121.4(2) . . ?
N00U C01I C01D 112.3(2) . . ?
N00U C01I H01I 120.0(15) . . ?
C01D C01I H01I 127.7(15) . . ?
N00O C01J C01E 107.7(2) . . ?
N00O C01J H01J 120.2(16) . . ?
C01E C01J H01J 132.0(16) . . ?
 
loop_
 _geom_torsion_atom_site_label_1
 _geom_torsion_atom_site_label_2
 _geom_torsion_atom_site_label_3
 _geom_torsion_atom_site_label_4
 _geom_torsion
 _geom_torsion_site_symmetry_1
 _geom_torsion_site_symmetry_2
 _geom_torsion_site_symmetry_3
 _geom_torsion_site_symmetry_4
 _geom_torsion_publ_flag
N00I S003 N00G C00Y -0.02(17) . . . . ?
N00G S003 N00I C00S -0.29(18) . . . . ?
N00P S002 N00L C00V 0.51(18) . . . . ?
Ce01 O00A C00M O005 19.2(2) 3_576 . . . ?
Ce01 O00A C00M C013 -157.25(19) 3_576 . . . ?
Ce01 O005 C00M O00A -19.2(2) 3_576 . . . ?
Ce01 O005 C00M C013 157.16(19) 3_576 . . . ?
C00X N00N N00O C01J -0.9(2) . . . . ?
C00X N00N N00O C01H 178.8(2) . . . . ?
N00L S002 N00P C011 0.11(18) . . . . ?
C01B N00H C00Q C010 175.9(2) . . . . ?
N00R N00H C00Q C010 -1.7(3) . . . . ?
C01B N00H C00Q C00S -5.0(4) . . . . ?
N00R N00H C00Q C00S 177.4(2) . . . . ?
C01B N00H N00R C01C 0.2(3) . . . . ?
C00Q N00H N00R C01C 178.2(2) . . . . ?
S003 N00I C00S C00Q -179.8(2) . . . . ?
S003 N00I C00S C00Y 0.5(2) . . . . ?
C010 C00Q C00S N00I -179.8(2) . . . . ?
N00H C00Q C00S N00I 1.1(4) . . . . ?
C010 C00Q C00S C00Y -0.2(3) . . . . ?
N00H C00Q C00S C00Y -179.3(2) . . . . ?
C015 N00J N00U C01I 0.3(3) . . . . ?
C019 N00J N00U C01I 175.9(2) . . . . ?
S002 N00L C00V C01H 178.5(2) . . . . ?
S002 N00L C00V C011 -0.9(2) . . . . ?
C018 N00T N00W C01G -0.8(3) . . . . ?
C017 N00T N00W C01G 178.9(2) . . . . ?
N00O N00N C00X C01E 0.7(3) . . . . ?
S003 N00G C00Y C017 179.5(2) . . . . ?
S003 N00G C00Y C00S 0.3(2) . . . . ?
N00I C00S C00Y N00G -0.6(3) . . . . ?
C00Q C00S C00Y N00G 179.8(2) . . . . ?
N00I C00S C00Y C017 -179.8(2) . . . . ?
C00Q C00S C00Y C017 0.5(3) . . . . ?
Ce01 O00C C00Z O007 -94.6(2) 3_676 . . . ?
Ce01 O00C C00Z C016 85.0(2) 3_676 . . . ?
N00H C00Q C010 C01A 178.7(2) . . . . ?
C00S C00Q C010 C01A -0.4(3) . . . . ?
S002 N00P C011 C019 179.8(2) . . . . ?
S002 N00P C011 C00V -0.7(2) . . . . ?
N00L C00V C011 N00P 1.1(3) . . . . ?
C01H C00V C011 N00P -178.4(2) . . . . ?
N00L C00V C011 C019 -179.3(2) . . . . ?
C01H C00V C011 C019 1.2(3) . . . . ?
Ce01 O00D C012 O00F -48.6(3) 1_645 . . . ?
Ce01 O00D C012 C01E 130.65(18) 1_645 . . . ?
O00A C00M C013 C01B 3.1(4) . . . . ?
O005 C00M C013 C01B -173.4(2) . . . . ?
Ce01 C00M C013 C01B -86.2(5) 3_576 . . . ?
O00A C00M C013 C01C 176.1(2) . . . . ?
O005 C00M C013 C01C -0.4(4) . . . . ?
Ce01 C00M C013 C01C 86.8(5) 3_576 . . . ?
N00U N00J C015 C01D -0.1(3) . . . . ?
C019 N00J C015 C01D -175.0(2) . . . . ?
O00C C00Z C016 C018 -174.7(2) . . . . ?
O007 C00Z C016 C018 4.9(4) . . . . ?
O00C C00Z C016 C01G 4.5(4) . . . . ?
O007 C00Z C016 C01G -175.8(2) . . . . ?
C018 N00T C017 C01A -168.1(2) . . . . ?
N00W N00T C017 C01A 12.2(3) . . . . ?
C018 N00T C017 C00Y 12.0(4) . . . . ?
N00W N00T C017 C00Y -167.6(2) . . . . ?
N00G C00Y C017 C01A -179.4(2) . . . . ?
C00S C00Y C017 C01A -0.2(3) . . . . ?
N00G C00Y C017 N00T 0.4(4) . . . . ?
C00S C00Y C017 N00T 179.6(2) . . . . ?
N00W N00T C018 C016 0.8(3) . . . . ?
C017 N00T C018 C016 -178.8(2) . . . . ?
C01G C016 C018 N00T -0.5(3) . . . . ?
C00Z C016 C018 N00T 178.9(2) . . . . ?
C01F C014 C019 N00J -178.2(2) . . . . ?
C01F C014 C019 C011 0.8(3) . . . . ?
C015 N00J C019 C014 168.5(2) . . . . ?
N00U N00J C019 C014 -6.2(3) . . . . ?
C015 N00J C019 C011 -10.5(4) . . . . ?
N00U N00J C019 C011 174.8(2) . . . . ?
N00P C011 C019 C014 177.4(2) . . . . ?
C00V C011 C019 C014 -2.1(3) . . . . ?
N00P C011 C019 N00J -3.6(4) . . . . ?
C00V C011 C019 N00J 176.9(2) . . . . ?
N00T C017 C01A C010 179.9(2) . . . . ?
C00Y C017 C01A C010 -0.3(3) . . . . ?
C00Q C010 C01A C017 0.6(4) . . . . ?
N00R N00H C01B C013 -0.3(3) . . . . ?
C00Q N00H C01B C013 -178.1(2) . . . . ?
C01C C013 C01B N00H 0.3(3) . . . . ?
C00M C013 C01B N00H 174.7(2) . . . . ?
N00H N00R C01C C013 0.0(3) . . . . ?
C01B C013 C01C N00R -0.2(3) . . . . ?
C00M C013 C01C N00R -174.3(2) . . . . ?
N00J C015 C01D C01I -0.2(3) . . . . ?
N00J C015 C01D C00K 174.3(2) . . . . ?
O004 C00K C01D C015 179.7(2) . . . . ?
O009 C00K C01D C015 -2.5(4) . . . . ?
O004 C00K C01D C01I -6.9(4) . . . . ?
O009 C00K C01D C01I 170.9(2) . . . . ?
N00N C00X C01E C01J -0.2(3) . . . . ?
N00N C00X C01E C012 -177.6(2) . . . . ?
O00F C012 C01E C01J 10.1(4) . . . . ?
O00D C012 C01E C01J -169.2(2) . . . . ?
O00F C012 C01E C00X -173.0(2) . . . . ?
O00D C012 C01E C00X 7.7(4) . . . . ?
C019 C014 C01F C01H 1.6(4) . . . . ?
N00T N00W C01G C016 0.5(3) . . . . ?
C018 C016 C01G N00W 0.0(3) . . . . ?
C00Z C016 C01G N00W -179.4(2) . . . . ?
C014 C01F C01H N00O 179.2(2) . . . . ?
C014 C01F C01H C00V -2.5(3) . . . . ?
C01J N00O C01H C01F -175.4(2) . . . . ?
N00N N00O C01H C01F 4.9(3) . . . . ?
C01J N00O C01H C00V 6.3(4) . . . . ?
N00N N00O C01H C00V -173.3(2) . . . . ?
N00L C00V C01H C01F -178.3(2) . . . . ?
C011 C00V C01H C01F 1.1(3) . . . . ?
N00L C00V C01H N00O 0.0(4) . . . . ?
C011 C00V C01H N00O 179.4(2) . . . . ?
N00J N00U C01I C01D -0.5(3) . . . . ?
C015 C01D C01I N00U 0.4(3) . . . . ?
C00K C01D C01I N00U -174.1(2) . . . . ?
N00N N00O C01J C01E 0.8(3) . . . . ?
C01H N00O C01J C01E -178.9(2) . . . . ?
C00X C01E C01J N00O -0.3(3) . . . . ?
C012 C01E C01J N00O 177.2(2) . . . . ?
 
_refine_diff_density_max    0.435
_refine_diff_density_min   -0.600
_refine_diff_density_rms    0.071

_shelx_res_file
;
TITL er1065_a.res in P2(1)/n
    er1065.res
    created by SHELXL-2018/3 at 12:48:04 on 01-Dec-2022
REM Old TITL er1065 in P2(1)/n
REM SHELXT solution in P2(1)/n
REM R1 0.059, Rweak 0.002, Alpha 0.028, Orientation as input
REM Formula found by SHELXT: C33 N7 O12 S2 Ce
CELL 0.7527 17.519 6.854 25.376 90 96.395 90
ZERR 4 0.0035 0.0014 0.0051 0 0.03 0
LATT 1
SYMM 0.5-X,0.5+Y,0.5-Z
SFAC C H Ce N O S
DISP C 0.0027 0.0018 12.944
DISP Ce -0.495 2.9145 12864.8337
DISP H 0 0 0.6262
DISP N 0.0051 0.0037 22.4473
DISP O 0.0094 0.0069 37.6033
DISP S 0.123 0.139 624.6015
UNIT 112 84 4 48 48 8
ACTA

L.S. 10
PLAN  6
CONF
BOND $H
list 4
MORE -1
fmap 2
SHEL 999999 0.85
REM <olex2.extras>
REM <HklSrc "%.\\er1065.hkl">
REM </olex2.extras>

WGHT    0.015400    4.787000
FVAR       0.35247
CE01  3    0.377086    0.773767    0.616475    11.00000    0.00594    0.01355 =
         0.00743    0.00004    0.00109    0.00151
S002  6    0.891016    0.332488    0.487712    11.00000    0.00975    0.02106 =
         0.00798    0.00041    0.00069    0.00276
S003  6    0.114741    1.161132    0.464810    11.00000    0.00899    0.01850 =
         0.00799    0.00008    0.00086    0.00109
O004  5    0.491701    0.693617    0.574071    11.00000    0.00837    0.01733 =
         0.01330   -0.00046    0.00221    0.00254
O005  5   -0.297297    1.348862    0.312353    11.00000    0.00845    0.02394 =
         0.01360    0.00347    0.00017    0.00158
O006  5    0.350196    0.482548    0.559882    11.00000    0.01170    0.01715 =
         0.01581   -0.00479    0.00464   -0.00186
O007  5    0.453093    0.867430    0.452852    11.00000    0.00965    0.01934 =
         0.01045    0.00203    0.00079    0.00345
O008  5    0.340032    0.920473    0.527247    11.00000    0.01327    0.02131 =
         0.01273    0.00227    0.00358    0.00456
O009  5    0.559920    0.695917    0.505022    11.00000    0.01188    0.02043 =
         0.01142    0.00197    0.00167    0.00575
O00A  5   -0.234606    1.316864    0.392664    11.00000    0.00917    0.02391 =
         0.01162   -0.00239    0.00103   -0.00065
O00B  5    0.442987    0.863551    0.706959    11.00000    0.01473    0.01919 =
         0.01085    0.00134    0.00148   -0.00246
O00C  5    0.528741    0.904968    0.387457    11.00000    0.00739    0.01887 =
         0.01435    0.00036    0.00250    0.00208
O00D  5    1.298883    0.065898    0.636357    11.00000    0.00819    0.01821 =
         0.01369    0.00006    0.00035    0.00325
O00E  5    0.441712    0.467778    0.663583    11.00000    0.01799    0.01846 =
         0.01353    0.00285    0.00496    0.00313
O00F  5    1.241591    0.183096    0.559103    11.00000    0.01201    0.01920 =
         0.01142    0.00126    0.00249    0.00209
N00G  4    0.184772    1.113462    0.430627    11.00000    0.01060    0.01508 =
         0.00942   -0.00136    0.00173    0.00027
N00H  4   -0.041737    1.240015    0.310750    11.00000    0.00819    0.01426 =
         0.00876    0.00115    0.00130    0.00048
N00I  4    0.045810    1.196584    0.417921    11.00000    0.01031    0.01458 =
         0.01020    0.00048    0.00051   -0.00036
N00J  4    0.731869    0.453413    0.613455    11.00000    0.00873    0.01383 =
         0.00817   -0.00019    0.00102    0.00113
C00K  1    0.551447    0.655298    0.553228    11.00000    0.00826    0.01107 =
         0.01292   -0.00121    0.00050   -0.00024
N00L  4    0.961026    0.299528    0.534128    11.00000    0.01121    0.01696 =
         0.00883    0.00037   -0.00042    0.00148
C00M  1   -0.235329    1.328534    0.342968    11.00000    0.01067    0.01106 =
         0.01513    0.00030    0.00313   -0.00190
N00N  4    1.084385    0.215636    0.691908    11.00000    0.01003    0.01804 =
         0.00864    0.00058   -0.00051    0.00243
N00O  4    1.050367    0.253231    0.641407    11.00000    0.00835    0.01459 =
         0.01006   -0.00036    0.00138    0.00192
N00P  4    0.821438    0.376758    0.522542    11.00000    0.01010    0.01531 =
         0.01068    0.00026    0.00144    0.00096
C00Q  1    0.037235    1.189641    0.319206    11.00000    0.00681    0.00994 =
         0.01248    0.00031   -0.00024   -0.00031
N00R  4   -0.076649    1.263112    0.259933    11.00000    0.01130    0.03221 =
         0.00990    0.00413    0.00043    0.00374
C00S  1    0.075860    1.172630    0.371763    11.00000    0.00861    0.00907 =
         0.01223    0.00046    0.00041   -0.00181
N00T  4    0.276782    1.046071    0.340761    11.00000    0.00743    0.01411 =
         0.00969   -0.00087    0.00068    0.00123
N00U  4    0.694331    0.464979    0.658309    11.00000    0.00954    0.01722 =
         0.01014    0.00004    0.00351    0.00082
C00V  1    0.931864    0.320927    0.580727    11.00000    0.00860    0.00918 =
         0.01312    0.00095    0.00170    0.00055
N00W  4    0.316690    1.055707    0.297085    11.00000    0.00928    0.02051 =
         0.01007   -0.00034    0.00358    0.00090
C00X  1    1.156687    0.173083    0.685911    11.00000    0.00867    0.01448 =
         0.01183    0.00003   -0.00043    0.00063
C00Y  1    0.156402    1.123415    0.379140    11.00000    0.01075    0.00969 =
         0.01051    0.00088    0.00065   -0.00044
C00Z  1    0.464604    0.909628    0.404478    11.00000    0.01139    0.00958 =
         0.01334   -0.00225    0.00044    0.00014
C010  1    0.079256    1.158364    0.277657    11.00000    0.01167    0.01403 =
         0.00823    0.00088    0.00002   -0.00132
C011  1    0.850659    0.367913    0.573780    11.00000    0.00847    0.01006 =
         0.01083    0.00093   -0.00028   -0.00041
C012  1    1.242498    0.141859    0.607593    11.00000    0.00938    0.01129 =
         0.01360   -0.00187    0.00249   -0.00112
C013  1   -0.162577    1.306590    0.319416    11.00000    0.00936    0.01142 =
         0.01509    0.00064    0.00137   -0.00068
C014  1    0.849836    0.374727    0.668230    11.00000    0.00999    0.01290 =
         0.00956    0.00011    0.00258   -0.00006
C015  1    0.686816    0.512921    0.569413    11.00000    0.01052    0.01547 =
         0.00910    0.00130   -0.00101    0.00112
C016  1    0.394883    0.965913    0.370360    11.00000    0.00948    0.01114 =
         0.01248   -0.00132    0.00065   -0.00022
C017  1    0.197604    1.093238    0.334381    11.00000    0.00745    0.00975 =
         0.01323   -0.00047    0.00077   -0.00027
C018  1    0.322344    0.991143    0.384798    11.00000    0.01080    0.01296 =
         0.00950   -0.00015    0.00064   -0.00102
C019  1    0.810240    0.398012    0.619010    11.00000    0.00689    0.00957 =
         0.01262   -0.00017    0.00076    0.00040
C01A  1    0.158365    1.111720    0.285058    11.00000    0.00961    0.01425 =
         0.00812   -0.00079    0.00315    0.00058
C01B  1   -0.092350    1.264938    0.346670    11.00000    0.01172    0.01469 =
         0.00938   -0.00172    0.00195   -0.00088
C01C  1   -0.149546    1.303203    0.265863    11.00000    0.00907    0.02926 =
         0.01348    0.00521    0.00084    0.00281
C01D  1    0.617284    0.565330    0.585589    11.00000    0.00932    0.01164 =
         0.01202   -0.00124    0.00124   -0.00043
C01E  1    1.171100    0.184055    0.632530    11.00000    0.01079    0.01035 =
         0.01319   -0.00021    0.00130   -0.00051
C01F  1    0.929072    0.324616    0.674847    11.00000    0.00992    0.01167 =
         0.01019    0.00052   -0.00115   -0.00030
C01G  1    0.387650    1.008024    0.315749    11.00000    0.01013    0.01717 =
         0.01252   -0.00094    0.00379    0.00050
C01H  1    0.970979    0.301107    0.633013    11.00000    0.00737    0.00965 =
         0.01262    0.00046    0.00009    0.00009
C01I  1    0.625482    0.531573    0.640791    11.00000    0.00944    0.01338 =
         0.01348   -0.00009    0.00322    0.00016
C01J  1    1.102128    0.236129    0.605511    11.00000    0.01252    0.01416 =
         0.00837    0.00026    0.00291    0.00080
H01J  2    1.087273    0.253867    0.570710    11.00000    0.00620
H01F  2    0.954490    0.307811    0.709633    11.00000    0.01190
H01B  2   -0.078766    1.249799    0.382777    11.00000    0.00958
H01I  2    0.588221    0.551376    0.664804    11.00000    0.00867
H014  2    0.824341    0.388129    0.698116    11.00000    0.01080
H01G  2    0.424219    1.006593    0.292141    11.00000    0.01528
H01C  2   -0.181330    1.327917    0.234872    11.00000    0.02124
H018  2    0.304508    0.976048    0.415339    11.00000    0.01501
H01A  2    0.182583    1.097144    0.256772    11.00000    0.01011
H015  2    0.701117    0.511276    0.536189    11.00000    0.01432
H010  2    0.056385    1.160662    0.244044    11.00000    0.01396
H00X  2    1.188592    0.142655    0.717259    11.00000    0.02148
H00A  2    0.313754    0.401033    0.560160    11.00000    0.03979
H00E  2    0.433310    0.806713    0.735401    11.00000    0.02957
H00G  2    0.428780    0.424203    0.690349    11.00000    0.03108
H00B  2    0.378392    0.421100    0.540333    11.00000    0.04233
H00H  2    0.439713    0.371999    0.644629    11.00000    0.03637
H00F  2    0.441346    0.977839    0.713727    11.00000    0.02785
H00C  2    0.369460    0.941115    0.506483    11.00000    0.04341
H00D  2    0.311361    1.020628    0.532144    11.00000    0.04330
H007  2    0.498708    0.805798    0.474206    11.00000    0.07822
HKLF 4




REM  er1065_a.res in P2(1)/n
REM wR2 = 0.0490, GooF = S = 1.063, Restrained GooF = 1.063 for all data
REM R1 = 0.0202 for 4736 Fo > 4sig(Fo) and 0.0216 for all 4991 data
REM 580 parameters refined using 0 restraints

END

WGHT      0.0154      4.7873

REM Highest difference peak  0.435,  deepest hole -0.600,  1-sigma level  0.071
Q1    1   0.4007  0.7937  0.6692  11.00000  0.05    0.43
Q2    1   0.3512  0.6030  0.5904  11.00000  0.05    0.37
Q3    1   0.5875  0.6012  0.5692  11.00000  0.05    0.35
Q4    1   0.6126  0.5416  0.6106  11.00000  0.05    0.35
Q5    1   0.9521  0.3017  0.6076  11.00000  0.05    0.32
Q6    1   0.8893  0.3372  0.5791  11.00000  0.05    0.32
;
_shelx_res_checksum   58456

_shelx_hkl_file
;
   0   0   3    2.00    2.82
   0   0  -3    1.63    2.23
   0   0   5    3.34    3.19
   0   0  -5    1.56    4.38
   0   0   6  303.46   11.94
   0   0  -6  280.83   11.57
   0   0   7   -2.45    4.67
   0   0  -7    0.45    5.27
   0   0   8 1562.16   51.63
   0   0  -8 1616.31   53.56
   0   0   9    1.26    4.75
   0   0  -9    6.08    4.23
   0   0  10 1106.71   37.38
   0   0 -10 1203.89   40.35
   0   0  11   -2.23    4.08
   0   0 -11    2.60    3.19
   0   0  12 2875.08   93.68
   0   0 -12 3302.34  107.19
   0   0  13   -2.00    3.19
   0   0 -13    0.15    4.23
   0   0  14 2409.25   78.92
   0   0 -14 2466.37   80.85
   0   0  15    6.60    3.86
   0   0 -15    1.78    4.45
   0   0  16 2632.53   86.27
   0   0 -16 2570.96   84.19
   0   0  17    0.45    4.90
   0   0 -17   -2.45    4.30
   0   0  18 1544.36   51.85
   0   0 -18 1472.40   49.25
   0   0  19   -0.22    5.04
   0   0 -19   -6.90    3.71
   0   0  20 1355.21   45.77
   0   0 -20 1408.61   47.25
   0   0  21    0.15    4.90
   0   0 -21   -0.15    3.63
   0   0  22 2545.00   83.75
   0   0 -22 2648.84   86.93
   0   0  23    1.48    3.86
   0   0 -23   -4.60    4.60
   0   0  24  112.15    6.75
   0   0 -24  103.70    7.12
   0   0  25    0.67    3.71
   0   0 -25    9.57    4.67
   0   0  26 2335.08   76.92
   0   0 -26 2206.01   72.69
   0   0  27   -4.52    4.52
   0   0 -27   -1.41    4.23
   0   0  28   18.32    4.82
   0   0 -28   20.18    4.82
   0   0  29    2.23    4.97
   0   0 -29   -2.23    4.60
   0   0  30  807.04   28.41
   0   0 -30  861.93   29.67
   0   0  31   -3.19    4.90
   0   0 -31   -3.93    4.30
   0   0  32   19.73    5.34
   0   0 -32   15.28    4.45
   0   0  33    0.82    4.82
   0   0 -33    2.89    4.01
   0   0  34  306.20   12.02
   0   0 -34  286.02   11.27
  -1   0 -34    0.74    3.34
   1   0  34    5.41    3.78
  -1   0 -33   21.59    3.86
   1   0  33   26.56    4.97
  -1   0 -32    2.37    3.71
   1   0  32   -2.30    4.90
  -1   0 -31  979.87   33.45
   1   0  31  933.88   32.27
  -1   0 -30    1.41    4.01
   1   0  30    2.97    5.12
  -1   0 -29   14.32    4.75
   1   0  29   19.88    5.41
  -1   0 -28   -4.01    4.30
   1   0  28    2.67    4.38
  -1   0 -27  421.03   15.87
   1   0  27  397.51   15.35
  -1   0 -26   -0.15    4.45
   1   0  26    0.59    4.67
  -1   0 -25   97.47    6.82
   1   0  25   99.03    7.12
  -1   0 -24   -1.41    4.67
   1   0  24    5.41    5.41
  -1   0 -23    9.64    5.04
   1   0  23   19.36    5.19
  -1   0 -22    1.11    4.45
   1   0  22   -3.34    3.71
  -1   0 -21    5.19    3.93
   1   0  21    4.30    4.82
  -1   0 -20   -3.12    3.86
   1   0  20    7.57    5.19
  -1   0 -19 5050.68  163.41
   1   0  19 4570.76  148.28
  -1   0 -18    1.19    3.78
   1   0  18   -7.20    4.15
  -1   0 -17 2307.63   75.81
   1   0  17 2321.73   76.55
  -1   0 -16    3.41    4.45
   1   0  16   -1.63    3.34
  -1   0 -15 1278.06   42.73
   1   0  15 1401.94   46.95
  -1   0 -14    2.08    3.12
   1   0  14   -2.52    3.93
  -1   0 -13 1160.12   39.09
   1   0  13 1161.60   39.24
  -1   0 -12    3.26    4.23
   1   0  12    2.23    3.34
  -1   0 -11 1428.64   47.47
   1   0  11 1503.56   50.07
  -1   0 -10   -2.97    4.52
   1   0  10    2.52    5.04
  -1   0  -9 2594.70   84.64
   1   0   9 2724.50   88.86
  -1   0  -8    3.12    4.75
   1   0   8   -1.71    4.15
  -1   0  -7 1506.53   49.99
   1   0   7 1548.81   51.26
  -1   0  -6    0.37    4.08
   1   0   6    0.15    4.30
  -1   0  -4    2.60    4.15
   1   0   4   -3.12    3.56
  -1   0  -3   10.38    2.97
   1   0   3    7.34    2.97
  -1   0  -2    0.15    2.67
   1   0   2   -1.41    1.93
  -1   0   0   -0.74    1.11
   1   0   0   -2.00    1.19
  -1   0   1   12.68    1.63
   1   0  -1   12.16    1.48
  -1   0   2    1.11    2.08
   1   0  -2    0.89    1.93
  -1   0   3  399.37   13.72
   1   0  -3  385.72   13.35
  -1   0   4    1.56    3.93
   1   0  -4   -0.22    3.56
  -1   0   6   -2.89    3.49
   1   0  -6    0.00    4.75
  -1   0   7 2530.90   82.56
   1   0  -7 2431.51   79.44
  -1   0   8   -2.67    3.86
   1   0  -8   -2.52    4.38
  -1   0   9  458.41   16.69
   1   0  -9  465.53   17.13
  -1   0  10   -1.48    3.19
   1   0 -10    0.45    4.75
  -1   0  11 3303.08  107.41
   1   0 -11 3286.02  106.81
  -1   0  12    3.26    3.71
   1   0 -12    4.52    4.23
  -1   0  13 1384.13   46.29
   1   0 -13 1367.82   45.62
  -1   0  14   -2.45    3.26
   1   0 -14    1.63    4.52
  -1   0  15 4167.24  135.08
   1   0 -15 3491.49  113.42
  -1   0  16   -0.96    4.67
   1   0 -16    0.67    4.30
  -1   0  17  913.11   31.75
   1   0 -17  996.93   34.12
  -1   0  18    1.11    4.15
   1   0 -18    0.96    4.38
  -1   0  19  278.24   11.65
   1   0 -19  276.68   11.72
  -1   0  20    3.19    3.63
   1   0 -20   -0.37    3.86
  -1   0  21 3564.93  116.31
   1   0 -21 3478.14  113.34
  -1   0  22   -1.04    5.19
   1   0 -22    6.08    4.45
  -1   0  23  914.60   31.97
   1   0 -23  795.17   28.11
  -1   0  24   -0.82    5.34
   1   0 -24    1.41    3.93
  -1   0  25 1735.73   58.01
   1   0 -25 1760.21   58.53
  -1   0  26    3.26    5.27
   1   0 -26    0.74    4.30
  -1   0  27  105.33    7.34
   1   0 -27  106.44    6.90
  -1   0  28   -1.78    4.75
   1   0 -28    9.27    4.52
  -1   0  29 1059.98   36.12
   1   0 -29 1128.97   38.35
  -1   0  30    0.89    4.52
   1   0 -30   -0.74    3.56
  -1   0  31   24.77    4.08
   1   0 -31   22.77    4.23
  -1   0  32    0.15    3.49
   1   0 -32   -2.74    3.78
  -1   0  33  824.84   28.19
   1   0 -33  850.06   29.00
  -1   0  34    2.74    3.86
   1   0 -34    3.93    3.93
  -2   0 -34   43.54    4.52
   2   0  34   42.73    4.90
  -2   0 -33    1.93    3.86
   2   0  33    0.15    3.12
  -2   0 -32  975.42   33.23
   2   0  32  976.16   33.08
  -2   0 -31    0.67    4.30
   2   0  31    2.45    4.52
  -2   0 -30   60.75    5.56
   2   0  30   62.38    6.45
  -2   0 -29    1.41    4.08
   2   0  29    4.67    4.97
  -2   0 -28  447.06   16.69
   2   0  28  443.43   16.69
  -2   0 -27    0.37    3.41
   2   0  27   -4.67    4.45
  -2   0 -26   53.93    5.56
   2   0  26   60.31    6.38
  -2   0 -25   -3.41    4.67
   2   0  25    3.04    4.90
  -2   0 -24 1494.66   50.29
   2   0  24 1550.29   51.92
  -2   0 -23    2.30    4.08
   2   0  23   -7.49    5.19
  -2   0 -22 1619.27   54.15
   2   0  22 1723.12   57.49
  -2   0 -21    6.08    4.52
   2   0  21   -1.63    4.75
  -2   0 -20 1533.23   51.26
   2   0  20 1663.78   55.78
  -2   0 -19    0.59    3.26
   2   0  19    3.78    4.30
  -2   0 -18   11.87    4.30
   2   0  18    2.08    4.30
  -2   0 -17   -5.04    4.30
   2   0  17    1.19    4.75
  -2   0 -16 2057.66   67.72
   2   0  16 2022.79   66.83
  -2   0 -15    0.89    4.30
   2   0  15   -1.56    3.86
  -2   0 -14 1229.85   41.24
   2   0  14 1263.23   42.50
  -2   0 -13   -0.82    3.56
   2   0  13   -2.23    4.60
  -2   0 -12  916.82   31.30
   2   0  12 1045.89   35.53
  -2   0 -11   -0.07    4.23
   2   0  11   -1.34    3.19
  -2   0 -10 4595.24  148.58
   2   0  10 4489.91  145.39
  -2   0  -9   -0.59    4.08
   2   0   9    1.19    3.34
  -2   0  -8  421.25   15.43
   2   0   8  403.74   14.98
  -2   0  -7    4.90    3.86
   2   0   7    5.27    5.04
  -2   0  -6 1252.84   41.84
   2   0   6 1245.42   41.69
  -2   0  -5   -3.26    4.90
   2   0   5   -1.19    4.45
  -2   0  -3   -1.11    3.12
   2   0   3    4.08    4.23
  -2   0  -1   -0.45    3.12
   2   0   1    1.93    2.30
  -2   0   0   95.17    4.52
   2   0   0  102.36    4.60
  -2   0   1    2.15    2.89
   2   0  -1    2.37    2.60
  -2   0   3   -0.45    2.97
   2   0  -3   -1.34    2.97
  -2   0   4  415.83   14.84
   2   0  -4  424.36   15.13
  -2   0   5   -3.04    4.52
   2   0  -5   -1.48    4.15
  -2   0   6  647.64   22.55
   2   0  -6  612.48   21.51
  -2   0   7   -3.12    5.04
   2   0  -7    1.26    4.60
  -2   0   8   88.42    5.79
   2   0  -8   90.64    6.16
  -2   0   9    3.93    3.93
   2   0  -9    4.30    3.93
  -2   0  10 2394.42   78.26
   2   0 -10 2332.85   76.40
  -2   0  11    3.63    4.15
   2   0 -11   -1.04    4.15
  -2   0  12  528.21   19.14
   2   0 -12  577.69   20.47
  -2   0  13   -4.23    4.15
   2   0 -13   -4.45    4.15
  -2   0  14 2396.64   78.55
   2   0 -14 2183.76   71.73
  -2   0  15    0.15    4.45
   2   0 -15    2.00    4.15
  -2   0  16 2013.89   66.46
   2   0 -16 2103.65   69.21
  -2   0  17    2.60    4.45
   2   0 -17    5.19    3.63
  -2   0  18 1155.67   39.39
   2   0 -18 1057.02   36.20
  -2   0  19    2.52    4.82
   2   0 -19    1.93    3.78
  -2   0  20 1459.05   48.96
   2   0 -20 1384.88   46.58
  -2   0  21    0.45    4.52
   2   0 -21    3.26    4.08
  -2   0  22 8730.58  281.50
   2   0 -22 7788.54  251.16
  -2   0  23    2.97    4.90
   2   0 -23    6.01    4.01
  -2   0  24 4182.07  135.97
   2   0 -24 4776.23  154.95
  -2   0  25    4.15    4.38
   2   0 -25   -5.41    4.01
  -2   0  26   97.32    7.27
   2   0 -26   91.61    6.01
  -2   0  27    5.93    5.27
   2   0 -27   -1.56    4.38
  -2   0  28  219.86   10.31
   2   0 -28  213.78   10.01
  -2   0  29    8.01    3.86
   2   0 -29   -1.19    3.63
  -2   0  30    4.15    3.71
   2   0 -30    7.57    4.01
  -2   0  31    2.15    4.38
   2   0 -31    0.22    4.45
  -2   0  32  552.54   19.95
   2   0 -32  559.74   20.25
  -2   0  33   -1.85    4.82
   2   0 -33   -0.07    4.08
  -2   0  34   84.93    6.16
   2   0 -34   84.56    5.19
  -3   0 -33  845.61   28.85
   3   0  33  930.17   31.45
  -3   0 -32    0.52    4.38
   3   0  32    2.45    4.08
  -3   0 -31   -0.59    4.08
   3   0  31    1.56    3.41
  -3   0 -30   -5.27    3.04
   3   0  30    1.48    4.75
  -3   0 -29 1098.55   37.53
   3   0  29 1076.30   36.94
  -3   0 -28   -1.48    4.52
   3   0  28    2.00    3.71
  -3   0 -27  358.27   13.95
   3   0  27  327.86   13.57
  -3   0 -26   -3.12    3.19
   3   0  26   -4.15    5.04
  -3   0 -25  962.07   33.45
   3   0  25 1016.96   35.01
  -3   0 -24    0.30    4.75
   3   0  24    8.98    5.19
  -3   0 -23  198.79    9.64
   3   0  23  194.49    9.27
  -3   0 -22    2.97    4.52
   3   0  22    6.31    5.49
  -3   0 -21 3906.14  126.99
   3   0  21 3961.03  128.99
  -3   0 -20   -4.38    3.26
   3   0  20    3.56    4.45
  -3   0 -19 2679.26   87.90
   3   0  19 2915.14   95.61
  -3   0 -18    0.07    3.19
   3   0  18    7.27    4.90
  -3   0 -17  131.89    7.49
   3   0  17  115.72    6.68
  -3   0 -16   -2.74    4.30
   3   0  16    1.56    3.41
  -3   0 -15 1475.37   49.18
   3   0  15 1442.73   48.29
  -3   0 -14   -5.41    3.19
   3   0  14    8.75    4.15
  -3   0 -13 2720.05   88.86
   3   0  13 2876.57   93.98
  -3   0 -12   -2.67    3.34
   3   0  12    2.37    3.34
  -3   0 -11 2952.23   96.13
   3   0  11 3037.53   98.95
  -3   0 -10    0.96    3.34
   3   0  10   -5.04    4.30
  -3   0  -9   68.17    5.49
   3   0   9   62.53    5.71
  -3   0  -8    1.04    3.41
   3   0   8    2.45    4.97
   3   0   7 5922.26  191.15
  -3   0  -6   -1.56    3.63
   3   0   6    2.23    5.19
  -3   0  -5   93.39    5.86
   3   0   5   85.23    5.64
  -3   0  -4   -1.41    4.75
   3   0   4    0.67    4.15
  -3   0  -3 1324.05   43.84
   3   0   3 1292.90   43.02
  -3   0  -2   -1.11    4.08
   3   0   2   -2.37    4.30
  -3   0  -1  569.16   19.66
   3   0   1  550.39   18.99
  -3   0   0    4.01    4.15
   3   0   0    1.11    3.34
  -3   0   1 1792.11   58.45
  -3   0   2    0.52    3.93
   3   0  -2    2.52    3.78
  -3   0   4    4.01    4.30
  -3   0   4    6.75    4.45
  -3   0   6    4.97    4.45
   3   0  -6   -3.26    4.52
  -3   0   7  511.00   18.62
   3   0  -7  463.01   16.99
  -3   0   8    2.97    3.86
   3   0  -8    2.30    4.15
  -3   0   9 1258.03   41.98
   3   0  -9 1272.13   42.50
  -3   0  10   -3.93    4.15
   3   0 -10   -0.67    4.15
  -3   0  11  586.51   20.84
   3   0 -11  680.87   23.74
  -3   0  12   -2.97    4.30
   3   0 -12   -0.37    3.56
  -3   0  13  976.91   33.23
   3   0 -13 1011.77   34.34
  -3   0  14   -3.04    4.45
   3   0 -14    2.08    4.01
  -3   0  15   69.13    5.86
   3   0 -15   60.75    5.27
  -3   0  16    5.04    4.23
   3   0 -16    2.30    4.01
  -3   0  17  403.89   15.43
   3   0 -17  384.16   14.91
  -3   0  18    1.26    4.82
   3   0 -18   -2.67    4.01
  -3   0  19 1709.03   57.04
   3   0 -19 1751.31   58.23
  -3   0  20    1.93    4.23
   3   0 -20    7.05    4.60
  -3   0  21 1697.16   56.75
   3   0 -21 1482.05   49.62
  -3   0  22    3.41    4.45
   3   0 -22   -1.48    4.30
  -3   0  23 1955.29   64.90
   3   0 -23 1968.65   65.28
  -3   0  24    1.93    5.27
   3   0 -24   -5.12    3.71
  -3   0  25   17.43    4.08
   3   0 -25   16.84    4.60
  -3   0  26    4.15    4.60
   3   0 -26    5.27    4.30
  -3   0  27 2449.31   80.56
   3   0 -27 2223.07   73.36
  -3   0  28   -6.90    4.30
   3   0 -28    0.45    4.52
  -3   0  29   17.88    4.08
   3   0 -29   20.18    4.01
  -3   0  30  -10.09    5.04
   3   0 -30   -6.97    4.23
  -3   0  31  640.29   23.14
   3   0 -31  557.36   20.25
  -3   0  32    0.67    4.30
   3   0 -32   -6.97    3.63
  -3   0  33   17.58    3.78
   3   0 -33   24.85    4.08
  -3   0  34    2.23    4.15
   3   0 -34    1.48    3.86
  -4   0 -33   -3.34    4.30
   4   0  33    1.48    4.08
  -4   0 -32    0.30    4.23
   4   0  32   -4.08    4.82
  -4   0 -31    0.74    3.49
   4   0  31   -1.63    4.15
  -4   0 -30  985.81   33.60
   4   0  30 1048.86   35.60
  -4   0 -29    2.52    4.52
   4   0  29    0.96    4.97
  -4   0 -28    6.60    4.01
   4   0  28    4.82    3.71
  -4   0 -27   -2.60    3.63
   4   0  27    1.71    5.19
  -4   0 -26 1052.57   36.05
   4   0  26 1134.16   38.50
  -4   0 -25    0.37    4.23
   4   0  25    2.00    5.19
  -4   0 -24  807.78   28.48
   4   0  24  800.37   27.96
  -4   0 -23   -2.00    4.52
   4   0  23    3.34    5.04
  -4   0 -22   19.81    4.52
   4   0  22    6.23    5.27
  -4   0 -21    0.00    4.30
   4   0  21    2.89    3.78
  -4   0 -20 1736.47   57.71
   4   0  20 1850.71   61.71
  -4   0 -19   -2.08    3.86
   4   0  19    6.31    5.19
  -4   0 -18 1036.99   35.60
   4   0  18 1013.99   35.01
  -4   0 -17   -5.34    4.38
   4   0  17    2.82    4.82
  -4   0 -16 1766.14   58.53
   4   0  16 1738.70   57.86
  -4   0 -15   -0.82    3.34
   4   0  15    1.63    3.41
  -4   0 -14 1472.40   49.10
   4   0  14 1424.19   47.92
  -4   0 -13    1.04    4.45
   4   0  13   -4.75    3.19
  -4   0 -12 2088.81   68.84
   4   0  12 2057.66   67.80
  -4   0 -11    8.90    4.60
   4   0  11   -3.26    4.15
  -4   0 -10 1497.62   49.77
   4   0  10 1455.34   48.36
  -4   0  -9   -0.22    4.30
   4   0   9    4.82    4.60
  -4   0  -7   -0.74    4.38
   4   0   7    3.26    3.93
  -4   0  -6  723.07   25.07
   4   0   6  765.50   26.48
  -4   0  -5    3.41    4.90
   4   0   5    1.85    4.52
  -4   0  -4  235.21   10.09
   4   0   4  231.80    9.94
  -4   0  -3    1.56    4.45
   4   0   3   -1.11    4.82
  -4   0  -2   -1.11    4.75
   4   0   2    2.23    4.52
  -4   0  -1   -5.79    4.52
   4   0   1    2.37    4.08
  -4   0   1    4.01    4.75
   4   0  -1    6.68    4.52
  -4   0   2  891.60   30.26
   4   0  -2  905.70   30.63
  -4   0   3   -3.12    4.38
   4   0  -3   -4.23    4.67
  -4   0   4 1714.96   56.67
   4   0  -4 1715.70   56.52
  -4   0   5    0.67    4.01
  -4   0   5   -0.15    4.52
  -4   0   6  189.00    8.98
  -4   0   6  198.87    9.20
  -4   0   7    1.34    4.23
   4   0  -7    0.89    3.34
  -4   0   8 1684.55   55.56
   4   0  -8 1576.25   52.15
  -4   0   9    2.30    4.38
   4   0  -9    1.26    4.38
  -4   0  10  428.59   16.02
   4   0 -10  386.98   14.61
  -4   0  11    0.15    4.23
   4   0 -11    2.89    4.08
  -4   0  12 2470.08   80.78
   4   0 -12 2236.42   73.29
  -4   0  13   -4.23    4.60
   4   0 -13    5.79    4.30
  -4   0  14  904.21   30.93
   4   0 -14  915.34   31.38
  -4   0  15   -2.97    4.38
   4   0 -15   -0.82    3.56
  -4   0  16  359.98   14.24
   4   0 -16  423.25   16.17
  -4   0  17    4.23    4.90
   4   0 -17    3.78    4.30
  -4   0  18   31.01    5.49
   4   0 -18   33.45    4.52
  -4   0  19   -1.71    4.15
   4   0 -19    0.22    4.23
  -4   0  20  982.10   33.75
   4   0 -20  983.58   33.82
  -4   0  21    2.45    5.12
   4   0 -21    0.96    3.78
  -4   0  22 3090.20  101.25
   4   0 -22 3373.55  110.08
  -4   0  23    0.07    4.45
   4   0 -23   -1.71    4.52
  -4   0  24    2.15    4.82
   4   0 -24    0.07    4.01
  -4   0  25    6.23    4.82
   4   0 -25    0.00    3.93
  -4   0  26 1077.79   36.87
   4   0 -26 1116.36   38.20
  -4   0  27    3.04    5.27
   4   0 -27    1.56    3.93
  -4   0  28    1.63    3.63
   4   0 -28    4.23    4.52
  -4   0  29   -1.63    4.90
   4   0 -29    8.31    3.56
  -4   0  30  644.22   23.22
   4   0 -30  629.39   22.55
  -4   0  31    3.71    3.71
   4   0 -31    5.79    4.15
  -4   0  32    7.20    4.82
   4   0 -32    4.01    3.93
  -4   0  33    1.63    4.90
   4   0 -33   -0.82    4.08
  -4   0  34  547.27   19.21
   4   0 -34  550.02   19.36
  -5   0 -32   -6.16    4.08
   5   0  32   -4.45    4.60
  -5   0 -31  959.84   32.56
   5   0  31  959.10   32.64
  -5   0 -30    1.19    4.38
   5   0  30    4.60    4.15
  -5   0 -29   29.67    4.82
   5   0  29   18.69    5.27
  -5   0 -28   -1.34    3.34
   5   0  28    4.82    3.71
  -5   0 -27  773.66   26.85
   5   0  27  833.74   29.23
  -5   0 -26    1.56    4.01
   5   0  26   -0.30    4.52
  -5   0 -25  233.14   10.76
   5   0  25  272.90   11.87
  -5   0 -24    1.34    4.15
   5   0  24   -1.19    5.27
  -5   0 -23   18.69    4.82
   5   0  23   23.14    5.19
  -5   0 -22   -1.78    3.34
   5   0  22    3.19    3.93
  -5   0 -21 1396.74   47.03
   5   0  21 1475.37   49.70
  -5   0 -20    6.16    4.01
   5   0  20   -1.41    4.97
  -5   0 -19 1427.90   47.84
   5   0  19 1358.91   46.06
  -5   0 -18   -4.45    4.45
   5   0  18    2.23    4.52
  -5   0 -17 1875.18   62.23
   5   0  17 1892.99   62.90
  -5   0 -16    4.30    4.75
   5   0  16   -1.93    4.97
  -5   0 -15  757.34   26.63
   5   0  15  765.50   26.85
  -5   0 -14    0.59    3.26
   5   0  14   -3.86    4.90
  -5   0 -13  886.41   30.49
   5   0  13  947.98   32.64
  -5   0 -12    2.37    3.93
   5   0  12    2.08    4.01
  -5   0 -11  587.92   21.36
   5   0  11  524.87   19.29
  -5   0 -10   -0.52    4.67
   5   0  10    2.52    3.56
  -5   0  -9 3094.65  100.73
   5   0   9 3268.96  106.37
  -5   0  -8   -2.82    4.45
   5   0   8   -0.37    3.86
  -5   0  -7    9.57    4.52
   5   0   7    6.75    4.60
  -5   0  -6    4.23    4.60
   5   0   6    6.68    4.45
  -5   0  -5 2025.76   66.54
   5   0   5 2180.79   71.51
  -5   0  -4   -0.96    4.23
   5   0   4   -3.04    4.01
  -5   0  -3   16.39    5.41
   5   0   3   13.50    4.82
  -5   0  -2   -5.86    3.93
   5   0   2    3.93    4.67
  -5   0  -1   88.20    6.53
   5   0   1   71.73    5.79
  -5   0   0   -1.11    4.08
   5   0   0    0.00    4.60
  -5   0   1   17.65    5.04
   5   0  -1   12.09    4.97
  -5   0   2    3.34    4.75
   5   0  -2    0.07    4.60
  -5   0   4    3.78    4.52
   5   0  -4    3.19    4.45
  -5   0   6    1.85    4.23
  -5   0   6    2.00    3.78
  -5   0   7 1568.09   51.78
  -5   0   7 1691.97   55.78
  -5   0   8   -3.71    3.93
  -5   0   8    3.93    4.15
  -5   0   9  114.08    6.60
   5   0  -9  114.53    6.38
  -5   0  10   -3.78    4.08
   5   0 -10   -0.82    4.08
  -5   0  11 1530.26   50.74
   5   0 -11 1413.06   47.03
  -5   0  12    4.60    4.15
   5   0 -12   -3.04    4.23
  -5   0  13 2557.61   83.89
   5   0 -13 2469.34   80.85
  -5   0  14   -1.93    3.12
   5   0 -14   -0.45    4.01
  -5   0  15 2036.89   67.13
   5   0 -15 2041.34   67.28
  -5   0  16    0.96    3.34
   5   0 -16   -0.67    3.71
  -5   0  17 1947.88   64.68
   5   0 -17 1691.97   56.30
  -5   0  18   -0.82    4.75
   5   0 -18    0.59    3.56
  -5   0  19  607.51   22.10
   5   0 -19  590.74   21.51
  -5   0  20   -1.71    4.23
   5   0 -20    4.15    4.30
  -5   0  21  487.19   18.25
   5   0 -21  464.79   17.51
  -5   0  22    0.59    4.60
   5   0 -22   -2.00    4.30
  -5   0  23    4.52    5.12
   5   0 -23   -4.38    4.23
  -5   0  24    2.97    3.56
   5   0 -24    4.15    4.23
  -5   0  25  133.44    8.09
   5   0 -25  138.04    7.71
  -5   0  26   -5.19    4.30
   5   0 -26   -1.48    4.01
  -5   0  27  367.62   14.69
   5   0 -27  363.84   14.46
  -5   0  28    1.19    4.30
   5   0 -28   -1.56    4.15
  -5   0  29 1067.40   36.57
   5   0 -29 1047.37   35.46
  -5   0  30    1.71    3.78
   5   0 -30   -2.23    4.38
  -5   0  31    2.82    4.97
   5   0 -31    0.89    3.34
  -5   0  32   -3.71    4.08
   5   0 -32    0.30    4.15
  -5   0  33 1016.22   34.42
   5   0 -33  969.49   32.93
  -5   0  34   -4.82    4.23
   5   0 -34   -3.93    3.71
  -6   0 -32  610.47   21.14
   6   0  32  525.10   18.32
  -6   0 -31    1.04    4.23
   6   0  31   -6.75    4.60
  -6   0 -30   88.20    5.79
   6   0  30   90.87    5.64
  -6   0 -29   -5.49    4.30
   6   0  29   -2.67    4.90
  -6   0 -28  499.28   18.25
   6   0  28  561.44   20.32
  -6   0 -27   -1.71    4.45
   6   0  27    0.96    4.97
  -6   0 -26   68.02    4.90
   6   0  26   69.95    6.38
  -6   0 -25    2.74    4.82
   6   0  25    3.49    3.71
  -6   0 -24 2016.12   66.76
   6   0  24 2047.27   67.72
  -6   0 -23    1.11    4.45
   6   0  23   -0.67    5.04
  -6   0 -22   90.57    6.60
   6   0  22   88.27    7.05
  -6   0 -21    2.15    3.34
   6   0  21   -3.34    5.19
  -6   0 -20 3688.80  120.09
   6   0  20 3092.42  101.25
  -6   0 -19   -4.75    4.45
   6   0  19    0.59    5.04
  -6   0 -18  113.56    7.42
   6   0  18  134.63    7.57
  -6   0 -17   -0.67    5.04
   6   0  17    3.49    4.97
  -6   0 -16 3961.77  128.84
   6   0  16 4142.76  134.78
  -6   0 -15   -2.67    4.01
   6   0  15   -3.93    4.90
  -6   0 -14 2938.88   96.06
   6   0  14 3036.05   99.25
  -6   0 -13    2.37    4.67
   6   0  13    0.96    3.41
  -6   0 -12  501.73   18.25
   6   0  12  458.19   17.13
  -6   0 -11   -0.52    3.26
   6   0  11    0.74    4.67
  -6   0 -10 3108.74  101.33
   6   0  10 3096.87  100.95
  -6   0  -9    2.82    4.82
   6   0   9    0.15    3.63
  -6   0  -8  167.19    7.79
   6   0   8  171.79    8.38
  -6   0  -7   -5.41    3.86
   6   0   7   -1.63    3.78
  -6   0  -6  887.15   30.34
   6   0   6  922.76   31.38
  -6   0  -5   -0.15    4.75
   6   0   5    3.19    4.45
  -6   0  -4 1855.16   61.20
   6   0   4 1867.77   61.42
  -6   0  -3    3.49    4.52
   6   0   3   -6.90    4.60
  -6   0  -2 1461.28   48.51
   6   0   2 1478.34   49.10
  -6   0  -1    0.82    4.30
   6   0   1    3.04    4.38
  -6   0   0  297.60   12.09
   6   0   0  284.62   11.42
  -6   0   1    1.41    4.38
   6   0  -1    5.19    4.75
  -6   0   2 2183.02   71.51
   6   0  -2 2230.49   73.06
  -6   0   3   -2.08    4.30
   6   0  -3   -3.41    4.08
  -6   0   4 2884.73   93.83
   6   0  -4 2826.87   91.98
  -6   0   5   -0.52    4.01
   6   0  -5   10.46    4.23
  -6   0   6 2571.70   83.89
  -6   0   6 2493.07   81.45
  -6   0   7   -1.04    4.01
  -6   0   7    1.85    4.23
  -6   0   8 1382.65   45.99
  -6   0   8 1490.95   49.55
  -6   0   9   -1.41    3.56
  -6   0   9    0.52    3.41
  -6   0  10 1912.27   62.98
  -6   0  10 1832.16   60.38
  -6   0  11   -5.64    3.41
  -6   0  11    1.19    3.63
  -6   0  12  117.94    7.12
   6   0 -12  107.93    6.68
  -6   0  13   -2.23    4.23
   6   0 -13   -4.15    3.78
  -6   0  14 1384.13   46.29
   6   0 -14 1387.10   46.36
  -6   0  15    2.74    4.23
   6   0 -15    1.63    3.63
  -6   0  16 2924.78   95.84
   6   0 -16 3001.18   98.06
  -6   0  17   -4.60    4.45
   6   0 -17    3.71    4.30
  -6   0  18  599.57   22.03
   6   0 -18  623.68   22.48
  -6   0  19   -3.78    4.75
   6   0 -19   -3.93    3.56
  -6   0  20  342.55   14.02
   6   0 -20  337.28   13.50
  -6   0  21   -1.63    4.97
   6   0 -21   -3.49    4.45
  -6   0  22  326.38   13.72
   6   0 -22  318.14   13.06
  -6   0  23   -0.37    4.82
   6   0 -23   -5.27    4.01
  -6   0  24 2933.68   95.98
   6   0 -24 2875.83   94.13
  -6   0  25   -0.15    4.67
   6   0 -25    1.78    4.45
  -6   0  26   41.54    5.71
   6   0 -26   42.87    5.56
  -6   0  27   -0.74    3.56
   6   0 -27    7.27    4.60
  -6   0  28 1108.20   37.83
   6   0 -28 1134.16   38.42
  -6   0  29    3.19    3.63
   6   0 -29   -2.37    4.08
  -6   0  30   -0.82    5.19
   6   0 -30   -0.07    4.30
  -6   0  31    0.00    3.56
   6   0 -31   12.76    4.30
  -6   0  32  520.65   19.06
   6   0 -32  479.92   17.58
  -6   0  33    3.93    3.34
   6   0 -33    2.30    3.86
  -6   0  34    0.45    4.38
   6   0 -34    2.08    4.08
  -7   0 -31   31.23    4.82
   7   0  31   37.53    4.82
  -7   0 -30    1.34    2.97
   7   0  30   -2.30    4.15
  -7   0 -29 1126.00   38.13
   7   0  29 1192.02   40.20
  -7   0 -28    2.97    3.34
   7   0  28    3.41    3.63
  -7   0 -27  293.37   12.24
   7   0  27  246.19   10.90
  -7   0 -26   -0.07    3.26
   7   0  26   -5.04    5.12
  -7   0 -25  223.27   10.38
   7   0  25  213.78   10.31
  -7   0 -24   -0.74    4.52
   7   0  24   -4.01    4.30
  -7   0 -23   -0.96    3.19
   7   0  23   -2.08    3.63
  -7   0 -22    5.41    4.52
   7   0  22    2.89    3.78
  -7   0 -21 4598.21  149.09
   7   0  21 4876.37  158.22
  -7   0 -20   -1.26    4.08
   7   0  20   -1.11    5.12
  -7   0 -19 2922.56   95.84
   7   0  19 3110.22  101.99
  -7   0 -18   -2.67    3.34
   7   0  18    0.67    4.60
  -7   0 -17 1019.93   35.09
   7   0  17 1099.30   37.90
  -7   0 -16    5.34    4.90
   7   0  16   -2.67    4.30
  -7   0 -15  650.31   23.51
   7   0  15  562.11   20.99
  -7   0 -14    2.30    3.41
   7   0  14    4.52    4.90
  -7   0 -13 1088.91   37.16
   7   0  13 1177.18   40.13
  -7   0 -12   -1.71    3.19
   7   0  12   -4.45    4.67
  -7   0 -11 1847.74   60.97
   7   0  11 1737.21   57.78
  -7   0 -10    2.30    3.12
   7   0  10    1.19    4.08
  -7   0  -9  908.66   31.30
   7   0   9  869.35   29.89
  -7   0  -8   -1.93    4.60
   7   0   8   -0.52    3.56
  -7   0  -7 1871.47   61.86
   7   0   7 1913.01   63.12
  -7   0  -6    5.41    4.30
   7   0   6    4.97    4.45
   7   0   5 5603.30  180.84
  -7   0  -4    0.00    4.30
   7   0   4   -0.45    3.26
  -7   0  -2    0.52    4.82
   7   0   2   -0.67    4.38
  -7   0  -1   55.78    5.12
   7   0   1   65.50    5.64
  -7   0   0    0.15    4.30
   7   0   0   -2.45    3.93
  -7   0   2   -0.59    4.23
   7   0  -2   12.02    4.52
  -7   0   3 3815.64  123.58
   7   0  -3 3935.81  127.44
  -7   0   4    0.07    4.15
   7   0  -4   -1.78    3.78
  -7   0   5 4511.42  145.98
   7   0  -5 4818.51  155.70
  -7   0   6   -1.19    3.71
   7   0  -6    2.52    4.08
  -7   0   8    3.78    3.93
  -7   0   8   -0.89    4.38
  -7   0   9 1646.72   54.37
  -7   0   9 1586.64   52.59
  -7   0  10   -0.59    3.78
  -7   0  10   -1.63    3.41
  -7   0  11 1096.33   37.31
  -7   0  11 1034.02   35.23
  -7   0  12   -0.74    4.08
  -7   0  12    1.63    4.01
  -7   0  13  316.81   12.54
  -7   0  13  342.77   13.65
  -7   0  14   -2.89    3.04
  -7   0  14   -0.45    4.23
  -7   0  15  758.08   26.78
   7   0 -15  615.15   22.03
  -7   0  16    0.15    4.01
   7   0 -16    2.89    3.56
  -7   0  17  423.92   16.54
   7   0 -17  413.02   15.73
  -7   0  18   -2.82    3.34
   7   0 -18   -1.34    4.01
  -7   0  19 3347.59  109.34
   7   0 -19 2863.22   93.61
  -7   0  20    2.60    4.82
   7   0 -20    1.93    4.15
  -7   0  21  575.83   21.29
   7   0 -21  602.98   21.81
  -7   0  22   -2.37    4.90
   7   0 -22    0.82    4.08
  -7   0  23 1806.20   60.16
   7   0 -23 1887.05   62.61
  -7   0  24    1.78    4.15
   7   0 -24   -5.86    3.71
  -7   0  25   93.83    5.93
   7   0 -25   69.87    5.71
  -7   0  26    3.26    4.75
   7   0 -26    3.41    3.86
  -7   0  27 2278.70   75.07
   7   0 -27 2370.68   77.96
  -7   0  28   -3.26    3.56
   7   0 -28   -0.22    3.71
  -7   0  29   21.81    5.49
   7   0 -29   26.70    4.82
  -7   0  30    7.71    4.30
   7   0 -30   -0.74    4.15
  -7   0  31  815.94   28.34
   7   0 -31  838.94   29.00
  -7   0  32    0.96    4.01
   7   0 -32    2.08    4.01
  -7   0  33   84.71    6.01
   7   0 -33   82.19    5.41
  -7   0  34    2.52    3.78
   7   0 -34    2.60    3.93
  -8   0 -31   -1.48    2.82
   8   0  31   -2.52    3.41
  -8   0 -30  569.60   20.40
   8   0  30  525.91   18.99
  -8   0 -29    3.19    3.19
   8   0  29   -2.82    4.52
  -8   0 -28   25.89    4.75
   8   0  28   20.47    3.93
  -8   0 -27    5.41    4.30
   8   0  27   -0.82    4.82
  -8   0 -26 1485.76   49.40
   8   0  26 1420.48   47.77
  -8   0 -25   -2.08    4.52
   8   0  25   -5.86    5.19
  -8   0 -24   69.80    5.79
   8   0  24   66.17    6.60
  -8   0 -23   -3.56    3.93
   8   0  23    1.26    5.04
  -8   0 -22  822.62   28.63
   8   0  22  838.20   29.45
  -8   0 -21   -5.79    4.45
   8   0  21    3.34    5.34
  -8   0 -20  163.41    8.60
   8   0  20  158.00    8.60
  -8   0 -19    7.94    4.60
   8   0  19   -2.08    4.45
  -8   0 -18 1510.98   50.89
   8   0  18 1578.48   53.11
  -8   0 -17    5.93    4.75
   8   0  17    1.56    4.45
  -8   0 -16  854.51   29.97
   8   0  16  811.49   28.78
  -8   0 -15    3.26    3.63
   8   0  15    5.34    5.34
  -8   0 -14  603.72   21.96
   8   0  14  600.68   22.18
  -8   0 -13    7.12    4.15
   8   0  13   -0.30    4.90
  -8   0 -12 1284.74   43.32
   8   0  12 1273.61   43.17
  -8   0 -11    1.04    4.38
   8   0  11   -3.19    4.75
  -8   0 -10  752.89   26.33
   8   0  10  795.17   27.82
  -8   0  -9    3.26    4.30
   8   0   9   -5.71    3.78
  -8   0  -8 4447.63  144.05
   8   0   8 4289.63  139.16
  -8   0  -7   -4.38    4.45
   8   0   7    3.63    4.01
  -8   0  -6 1531.00   50.89
   8   0   6 1351.50   45.32
  -8   0  -5    0.67    3.86
   8   0   5    6.16    4.15
  -8   0  -4 1291.41   43.24
   8   0   4 1252.10   42.06
  -8   0  -3    1.93    3.41
   8   0   3   -3.41    3.71
   8   0   2 7025.26  226.31
  -8   0  -1   -4.67    4.38
   8   0   1   -3.41    4.15
  -8   0   0   47.47    5.04
   8   0   0   47.55    5.27
  -8   0   1   -4.90    4.15
   8   0  -1   -5.56    4.23
  -8   0   2   80.93    5.64
   8   0  -2   73.95    5.79
  -8   0   3   -3.34    4.15
   8   0  -3   -1.85    4.30
   8   0  -4 5855.50  188.85
  -8   0   5   -1.93    3.49
   8   0  -5    0.89    4.30
  -8   0   6 1387.84   46.21
   8   0  -6 1319.60   44.14
  -8   0   7    3.34    4.01
   8   0  -7    4.15    4.08
  -8   0   8 3826.03  124.25
  -8   0   8 3884.63  126.03
  -8   0   9   -0.59    3.93
  -8   0   9    2.37    4.38
  -8   0  10  822.62   28.63
  -8   0  10  761.05   26.63
  -8   0  11    3.41    4.08
  -8   0  11    5.04    4.15
  -8   0  12 2152.60   70.69
  -8   0  12 2125.90   69.95
  -8   0  13    5.41    4.08
  -8   0  13    2.15    3.71
  -8   0  14 4910.49  158.89
  -8   0  14 5117.44  165.78
  -8   0  15    3.56    4.01
  -8   0  15    0.74    3.93
  -8   0  16  117.35    6.45
  -8   0  16  111.78    7.34
  -8   0  17    1.71    4.01
  -8   0  17   -3.34    4.60
  -8   0  18 1364.11   45.92
  -8   0  18 1311.44   44.36
  -8   0  19   -6.53    3.86
   8   0 -19    0.59    3.63
  -8   0  20 2752.69   90.27
   8   0 -20 2651.81   86.93
  -8   0  21   -5.56    4.75
   8   0 -21    2.30    4.01
  -8   0  22 1672.68   56.00
   8   0 -22 1656.36   55.19
  -8   0  23    8.09    5.04
   8   0 -23   -2.82    3.86
  -8   0  24   94.43    6.97
   8   0 -24   95.17    6.60
  -8   0  25   -2.67    4.60
   8   0 -25    1.85    4.15
  -8   0  26 1166.80   39.61
   8   0 -26 1219.46   41.32
  -8   0  27   -3.71    3.93
   8   0 -27    0.15    3.86
  -8   0  28   57.64    6.08
   8   0 -28   56.37    5.19
  -8   0  29   -1.93    4.52
   8   0 -29   -0.22    4.08
  -8   0  30  991.00   33.82
   8   0 -30  978.39   33.45
  -8   0  31   -3.49    4.67
   8   0 -31    0.89    3.34
  -8   0  32   23.51    3.78
   8   0 -32   29.97    4.52
  -8   0  33    7.05    4.60
   8   0 -33   -0.59    3.86
  -9   0 -30    4.38    2.97
   9   0  30    1.26    4.38
  -9   0 -29  178.02    8.38
   9   0  29  179.06    8.38
  -9   0 -28    0.89    3.86
   9   0  28    3.93    4.38
  -9   0 -27 1202.40   40.43
   9   0  27 1186.82   40.28
  -9   0 -26   -2.23    4.52
   9   0  26   -3.93    4.97
  -9   0 -25    4.82    4.01
   9   0  25    5.64    5.12
  -9   0 -24   -4.60    4.01
   9   0  24   -0.37    5.19
  -9   0 -23  703.64   25.07
   9   0  23  761.79   27.07
  -9   0 -22   -0.07    4.52
   9   0  22   -3.71    5.19
  -9   0 -21   38.87    5.19
   9   0  21   40.57    5.49
  -9   0 -20    6.23    4.15
   9   0  20    1.34    5.19
  -9   0 -19  286.62   12.02
   9   0  19  271.86   12.09
  -9   0 -18   -0.89    4.38
   9   0  18   -7.57    4.52
  -9   0 -17  746.22   26.70
   9   0  17  731.68   26.26
  -9   0 -16   -4.45    4.60
   9   0  16    9.49    5.49
  -9   0 -15  230.91   10.38
   9   0  15  214.89   10.46
  -9   0 -14    7.71    4.82
   9   0  14   -7.27    5.19
  -9   0 -13  979.13   33.68
   9   0  13  967.26   33.68
  -9   0 -12    2.97    4.82
   9   0  12   -6.38    4.60
  -9   0 -11  672.71   23.81
   9   0  11  678.05   24.40
  -9   0 -10    1.71    3.19
   9   0  10   -2.37    3.93
  -9   0  -9  861.93   29.74
   9   0   9  884.93   30.63
  -9   0  -8   -0.37    4.45
   9   0   8    4.82    3.93
  -9   0  -7  694.66   24.26
   9   0   7  776.63   27.45
  -9   0  -6    5.04    4.30
   9   0   6    1.93    4.45
  -9   0  -5 4693.15  151.91
   9   0   5 5012.85  162.22
  -9   0  -4    2.30    3.93
   9   0   4   -2.89    4.30
  -9   0  -3 2027.99   66.76
   9   0   3 2089.55   68.69
  -9   0  -2    8.83    4.38
   9   0   2    0.45    4.52
  -9   0  -1 2559.09   83.67
   9   0   1 2621.40   85.67
  -9   0   0   -2.15    4.15
   9   0   0    0.82    4.23
  -9   0   1  145.91    7.57
   9   0  -1  137.23    7.34
  -9   0   2    1.85    3.93
   9   0  -2    1.85    4.08
  -9   0   4   -2.37    4.23
   9   0  -4   -3.26    4.23
  -9   0   5 2701.51   88.27
   9   0  -5 2692.61   87.90
  -9   0   6   -2.30    3.93
   9   0  -6    3.26    4.08
  -9   0   7 1967.90   65.05
   9   0  -7 1915.24   63.12
  -9   0   8    0.37    3.86
  -9   0   8    2.00    3.49
  -9   0   9  945.01   32.49
  -9   0   9 1003.61   34.27
  -9   0  10   -4.90    3.56
  -9   0  10    1.63    4.08
  -9   0  11  682.65   23.96
  -9   0  11  730.56   25.59
  -9   0  12   -0.74    3.93
  -9   0  12   -3.63    4.38
  -9   0  13  457.82   17.06
  -9   0  13  445.21   16.91
  -9   0  14   -0.89    4.38
  -9   0  14    3.26    4.52
  -9   0  15 2220.85   72.84
  -9   0  15 2290.57   75.59
  -9   0  16    2.67    4.15
  -9   0  16   -4.01    4.60
  -9   0  18    2.30    4.30
  -9   0  18   -2.00    3.93
  -9   0  19 7491.83  241.67
  -9   0  19 7677.27  247.45
  -9   0  20    0.52    4.38
  -9   0  20   -3.04    4.67
  -9   0  21 2910.69   95.09
  -9   0  21 3087.97  101.10
  -9   0  22    2.45    4.08
  -9   0  22   -0.59    4.15
  -9   0  23  776.63   27.07
  -9   0  23  789.98   27.74
  -9   0  24    1.78    4.52
  -9   0  24   -3.63    3.26
  -9   0  25 1410.10   47.32
  -9   0  25 1518.39   50.81
  -9   0  26   -2.08    3.34
  -9   0  26   -6.31    4.67
  -9   0  27   37.53    4.23
  -9   0  27   34.94    5.64
  -9   0  28   -3.56    3.12
  -9   0  28   -3.49    4.75
  -9   0  29 1064.43   35.98
  -9   0  29 1085.94   36.79
  -9   0  30   -0.96    3.12
  -9   0  30   -6.01    4.38
  -9   0  31   69.95    5.41
  -9   0  31   82.26    6.16
  -9   0  32   -3.49    3.93
  -9   0  32   -2.08    3.34
  -9   0  33  973.20   32.79
  -9   0  33  909.40   30.56
 -10   0 -29    3.78    3.26
  10   0  29    2.52    4.08
 -10   0 -28  420.14   15.50
  10   0  28  434.75   16.17
 -10   0 -27    0.45    4.08
  10   0  27    4.38    4.90
 -10   0 -26  124.47    6.68
  10   0  26  107.85    7.27
 -10   0 -25    5.79    4.30
  10   0  25    0.59    5.27
 -10   0 -24 1692.71   56.45
  10   0  24 1792.85   59.71
 -10   0 -23   -3.19    4.01
  10   0  23   -2.37    5.27
 -10   0 -22  782.56   27.22
  10   0  22  785.53   27.67
 -10   0 -21    4.08    3.19
  10   0  21    0.15    4.67
 -10   0 -20   25.44    4.60
  10   0  20   26.11    5.79
 -10   0 -19    1.34    3.93
  10   0  19   -1.48    4.60
 -10   0 -18   90.05    5.93
  10   0  18   93.54    7.42
 -10   0 -17   -0.74    3.34
  10   0  17   -2.23    4.82
 -10   0 -16 1181.63   40.35
  10   0  16 1151.22   39.31
 -10   0 -15    3.86    4.60
  10   0  15    1.41    4.52
 -10   0 -14 2347.69   77.29
  10   0  14 2105.87   69.65
 -10   0 -13    6.01    4.60
  10   0  13    1.41    4.30
 -10   0 -12  700.30   24.77
  10   0  12  766.99   27.22
 -10   0 -11   -2.30    4.45
  10   0  11   -2.74    4.08
 -10   0 -10 2359.56   77.59
  10   0  10 2298.73   75.88
 -10   0  -9    4.97    4.67
  10   0   9    4.67    4.90
 -10   0  -8   30.04    4.97
  10   0   8   30.49    5.34
 -10   0  -7   -2.08    3.78
  10   0   7   -4.60    4.08
 -10   0  -6  661.58   23.37
  10   0   6  679.75   24.26
 -10   0  -5   -0.15    4.30
  10   0   5   -1.63    3.34
 -10   0  -4   20.99    4.67
  10   0   4   16.17    4.52
 -10   0  -3    1.48    3.49
  10   0   3    2.82    4.23
 -10   0  -2 1629.66   54.15
  10   0   2 1663.04   55.34
 -10   0  -1   -2.00    4.38
  10   0   1   -1.11    4.15
 -10   0   0  273.79   11.65
  10   0   0  264.96   11.05
 -10   0   1   -2.30    4.38
  10   0  -1   -3.41    4.30
 -10   0   2 1223.17   41.46
  10   0  -2 1149.74   38.87
 -10   0   3    5.12    4.67
  10   0  -3   -1.85    3.93
 -10   0   4  290.18   12.16
  10   0  -4  280.02   11.50
 -10   0   5   -3.19    3.86
  10   0  -5    0.22    3.71
 -10   0   6 3000.44   98.06
  10   0  -6 3063.49   99.84
 -10   0   7   -2.30    3.86
  10   0  -7   -3.93    3.86
 -10   0   8 1778.75   58.90
  10   0  -8 1720.15   56.97
 -10   0   9   -0.52    4.15
 -10   0   9    2.60    3.78
 -10   0  10 1404.16   46.95
 -10   0  10 1334.44   44.95
 -10   0  11   -4.75    3.93
 -10   0  11   -1.19    3.93
 -10   0  12  766.99   26.78
 -10   0  12  724.33   25.74
 -10   0  13    1.48    4.15
 -10   0  13    3.41    4.60
 -10   0  14 2806.84   91.61
 -10   0  14 3151.02  103.03
 -10   0  15    2.74    4.45
 -10   0  15    2.37    3.78
 -10   0  16 1660.81   55.34
 -10   0  16 1535.45   51.48
 -10   0  17   -2.82    4.38
 -10   0  17    4.75    4.38
 -10   0  18 1115.62   38.05
 -10   0  18 1163.83   39.68
 -10   0  19   -2.08    4.15
 -10   0  19    2.74    4.52
 -10   0  20  557.51   20.32
 -10   0  20  609.66   22.03
 -10   0  21   -6.75    4.45
 -10   0  21    4.15    4.52
 -10   0  22  119.35    7.05
 -10   0  22  143.09    8.31
 -10   0  23   -4.67    4.38
 -10   0  23    7.94    4.75
 -10   0  24 2329.89   76.70
 -10   0  24 2291.31   75.51
 -10   0  25   -7.05    4.67
 -10   0  25    2.52    4.82
 -10   0  26   89.23    6.45
 -10   0  26   91.24    6.60
 -10   0  27   -1.48    3.56
 -10   0  27    1.19    4.52
 -10   0  28 1012.51   34.27
 -10   0  28  954.65   32.79
 -10   0  29   -2.82    3.49
 -10   0  29   -0.59    3.34
 -10   0  30   90.12    6.16
 -10   0  30   79.15    6.01
 -10   0  31   -1.41    3.93
 -10   0  31   -2.52    4.60
 -10   0  32  534.44   18.84
 -10   0  32  598.98   20.92
 -11   0 -28    5.34    3.19
  11   0  28   -2.00    4.60
 -11   0 -27  766.24   26.41
  11   0  27  721.22   25.22
 -11   0 -26   -1.34    3.93
  11   0  26    7.79    5.04
 -11   0 -25  160.59    7.71
  11   0  25  160.44    8.53
 -11   0 -24   -4.60    3.63
  11   0  24    0.00    5.19
 -11   0 -23   31.45    5.49
  11   0  23   42.65    5.86
 -11   0 -22   -2.60    4.60
  11   0  22   -0.30    4.38
 -11   0 -21 1466.47   48.96
  11   0  21 1532.49   51.40
 -11   0 -20    2.37    4.30
  11   0  20    2.15    5.34
 -11   0 -19 1090.40   37.31
  11   0  19 1184.60   40.43
 -11   0 -18    2.37    4.75
  11   0  18    5.27    5.12
 -11   0 -17  371.55   15.13
  11   0  17  369.03   15.13
 -11   0 -16    9.35    4.82
  11   0  16   -0.30    5.04
 -11   0 -15  324.89   12.98
  11   0  15  330.23   13.80
 -11   0 -14   -4.82    4.23
  11   0  14  -11.27    4.97
 -11   0 -13  422.36   16.02
  11   0  13  448.92   17.43
 -11   0 -12    0.96    3.86
  11   0  12    0.52    5.04
 -11   0 -11 3165.11  103.25
  11   0  11 3404.70  111.19
 -11   0 -10   -2.45    4.67
  11   0  10    1.41    3.86
 -11   0  -9  991.74   34.05
  11   0   9 1005.83   34.71
 -11   0  -8    0.30    4.60
  11   0   8    2.74    4.82
 -11   0  -7 5423.05  175.28
  11   0   7 5882.94  190.26
 -11   0  -6   -0.74    4.75
  11   0   6   -4.45    4.52
 -11   0  -5   69.43    5.49
  11   0   5   54.00    5.56
 -11   0  -4   -1.93    4.60
  11   0   4   -5.41    4.38
 -11   0  -3 1433.83   48.14
  11   0   3 1378.94   46.36
 -11   0  -2    0.15    4.15
  11   0   2    4.01    4.45
 -11   0  -1  551.13   20.18
  11   0   1  573.09   20.70
 -11   0   0    7.34    4.67
  11   0   0    5.56    4.45
 -11   0   1 1603.70   53.48
  11   0  -1 1747.60   58.01
 -11   0   2    3.93    4.45
  11   0  -2    0.00    4.30
 -11   0   3  350.48   13.80
  11   0  -3  362.06   14.09
 -11   0   4    2.15    4.30
  11   0  -4    3.04    4.08
 -11   0   5 1878.89   62.16
  11   0  -5 1883.34   62.23
 -11   0   6   -0.82    4.30
  11   0  -6   -8.68    4.23
 -11   0   7 1186.82   40.06
  11   0  -7 1161.60   39.31
 -11   0   8   -2.97    4.15
  11   0  -8    6.01    4.38
 -11   0   9 1243.20   42.21
 -11   0   9 1301.06   43.69
 -11   0  10   -0.59    4.15
 -11   0  10   -2.89    4.38
 -11   0  11 1534.71   51.03
 -11   0  11 1559.19   52.29
 -11   0  12   -3.49    4.01
 -11   0  12   -3.71    3.78
 -11   0  13  890.12   31.01
 -11   0  13  962.81   33.01
 -11   0  14   -0.59    4.38
 -11   0  14   -0.30    4.08
 -11   0  16   -3.49    4.15
 -11   0  16   -2.08    4.01
 -11   0  17 1977.55   65.50
 -11   0  17 1920.43   63.87
 -11   0  18   -1.26    4.15
 -11   0  18    2.82    3.93
 -11   0  19 5870.33  189.74
 -11   0  19 5576.59  180.62
 -11   0  20   -4.60    4.23
 -11   0  20   -2.89    4.30
 -11   0  21   22.92    4.52
 -11   0  21   19.43    4.82
 -11   0  22    1.11    4.52
 -11   0  22    1.78    4.23
 -11   0  23  516.79   19.36
 -11   0  23  585.62   21.36
 -11   0  24   -3.41    4.45
 -11   0  24   -2.00    4.60
 -11   0  25  170.53    8.68
 -11   0  25  185.14    9.20
 -11   0  26    0.22    4.38
 -11   0  26    4.52    4.82
 -11   0  27 1146.77   38.50
 -11   0  27 1132.68   38.57
 -11   0  28    2.08    3.93
 -11   0  28   -2.89    3.86
 -11   0  29  202.28    9.20
 -11   0  29  213.55    9.35
 -11   0  30    2.45    4.01
 -11   0  30   -0.45    3.78
 -11   0  31  539.86   18.99
 -11   0  31  506.48   18.47
 -11   0  32   -3.41    4.01
 -11   0  32    2.45    3.93
 -12   0 -27   -0.30    3.93
  12   0  27   -6.08    4.15
 -12   0 -26 1381.91   46.06
  12   0  26 1407.13   46.81
 -12   0 -25    2.60    3.63
  12   0  25   -4.01    4.82
 -12   0 -24 1009.54   34.27
  12   0  24 1025.12   35.09
 -12   0 -23   -5.79    3.78
  12   0  23    0.15    5.12
 -12   0 -22  235.29   10.61
  12   0  22  244.34   10.83
 -12   0 -21    1.78    4.60
  12   0  21    0.52    5.12
 -12   0 -20   15.58    4.60
  12   0  20    6.53    5.41
 -12   0 -19   -9.72    4.52
  12   0  19   -3.63    4.97
 -12   0 -18  399.81   15.80
  12   0  18  369.55   14.61
 -12   0 -17  -10.24    4.67
  12   0  17    2.60    5.19
 -12   0 -16 1552.52   52.07
  12   0  16 1562.16   52.52
 -12   0 -15    6.16    3.49
  12   0  15   -1.78    5.12
 -12   0 -14  361.98   14.39
  12   0  14  322.15   13.50
 -12   0 -13   -2.30    4.01
  12   0  13    1.63    5.12
 -12   0 -12 1345.56   45.10
  12   0  12 1521.36   51.03
 -12   0 -11   -0.52    3.49
  12   0  11   -2.89    5.12
 -12   0 -10    4.08    4.30
  12   0  10    4.90    4.67
 -12   0  -9    0.82    3.41
  12   0   9    6.01    5.04
 -12   0  -8  996.19   34.27
  12   0   8  974.68   33.75
 -12   0  -7    4.52    4.08
  12   0   7    8.98    4.97
 -12   0  -6  326.75   13.13
  12   0   6  295.52   12.31
 -12   0  -5    2.30    3.93
  12   0   5    1.19    4.75
 -12   0  -4 3633.91  118.24
  12   0   4 3699.19  120.54
 -12   0  -3    6.08    4.60
  12   0   3    3.41    4.45
 -12   0  -2  109.71    7.34
  12   0   2  106.30    6.97
 -12   0  -1   -4.75    4.52
  12   0   1    0.37    4.45
 -12   0   0 3624.27  118.16
  12   0   0 3518.19  114.60
 -12   0   1    0.67    4.67
  12   0  -1    3.78    4.52
 -12   0   2  838.20   29.30
  12   0  -2  830.78   28.93
 -12   0   3   -2.30    4.15
  12   0  -3    4.30    4.45
 -12   0   4 1248.39   42.28
  12   0  -4 1221.69   41.32
 -12   0   5    4.60    4.52
  12   0  -5    7.12    4.45
 -12   0   6  129.96    7.49
  12   0  -6  131.14    7.57
 -12   0   7   -0.96    4.08
  12   0  -7   -0.30    4.15
 -12   0   8 1926.37   63.57
  12   0  -8 2057.66   67.95
 -12   0   9    5.19    4.15
 -12   0   9   -1.26    3.78
 -12   0  11   -3.86    4.23
 -12   0  11    6.08    4.67
 -12   0  13   -2.45    4.23
 -12   0  13   -0.30    4.60
 -12   0  14 2574.67   84.34
 -12   0  14 2562.80   84.26
 -12   0  15   -4.45    3.86
 -12   0  15    2.37    3.63
 -12   0  16  163.63    8.38
 -12   0  16  145.91    7.86
 -12   0  17   -2.15    3.93
 -12   0  17    1.48    4.38
 -12   0  18  346.70   13.87
 -12   0  18  368.81   14.54
 -12   0  19   -4.30    4.45
 -12   0  19    1.71    4.52
 -12   0  20  338.62   13.65
 -12   0  20  317.10   13.06
 -12   0  21   -5.19    4.30
 -12   0  21    0.52    3.71
 -12   0  22  212.96    9.94
 -12   0  22  218.30    9.94
 -12   0  23    8.83    4.60
 -12   0  23    0.37    4.38
 -12   0  24   -3.63    4.38
 -12   0  24    4.08    4.60
 -12   0  25   -1.93    4.23
 -12   0  25    9.87    4.82
 -12   0  26  443.50   16.32
 -12   0  26  442.69   16.99
 -12   0  27   -1.19    4.38
 -12   0  27   -0.37    4.82
 -12   0  28   39.68    5.12
 -12   0  28   36.42    5.19
 -12   0  29   -1.78    4.15
 -12   0  29    0.45    3.93
 -12   0  30  571.09   20.18
 -12   0  30  620.34   21.73
 -12   0  31    4.97    3.78
 -12   0  31   -3.63    3.63
 -13   0 -26    2.67    3.86
  13   0  26    0.52    3.86
 -13   0 -25   47.03    4.75
  13   0  25   38.72    4.75
 -13   0 -24    2.00    3.04
  13   0  24   -2.89    4.60
 -13   0 -23  924.24   31.53
  13   0  23  867.12   29.89
 -13   0 -22    4.08    4.45
  13   0  22   -1.41    4.67
 -13   0 -21  266.00   11.65
  13   0  21  253.16   11.35
 -13   0 -20    0.00    4.38
  13   0  20    7.05    5.27
 -13   0 -19  580.28   21.07
  13   0  19  565.97   20.84
 -13   0 -18   -4.97    4.52
  13   0  18   -4.90    4.30
 -13   0 -17 1970.87   65.42
  13   0  17 1908.56   63.50
 -13   0 -16    4.01    4.52
  13   0  16   -5.41    5.04
 -13   0 -15  363.32   14.24
  13   0  15  324.23   13.65
 -13   0 -14    1.41    3.93
  13   0  14    1.93    5.19
 -13   0 -13 2057.66   68.02
  13   0  13 1697.16   56.75
 -13   0 -12    6.31    3.12
  13   0  12   -1.04    4.01
 -13   0 -11  546.01   19.88
  13   0  11  589.70   21.59
 -13   0 -10    1.78    2.97
  13   0  10   -2.30    4.52
 -13   0  -9 1918.21   63.57
  13   0   9 1904.85   63.64
 -13   0  -8   -1.04    3.78
  13   0   8    0.82    4.90
 -13   0  -7  783.30   27.45
  13   0   7  801.11   28.34
 -13   0  -6    3.04    3.63
  13   0   6   -3.49    4.75
 -13   0  -5 4222.13  137.37
  13   0   5 4207.29  136.78
 -13   0  -4    2.15    4.97
  13   0   4   -1.04    4.38
 -13   0  -3 4147.95  134.93
  13   0   3 4583.37  148.80
 -13   0  -2    0.15    4.67
  13   0   2   -0.07    4.52
 -13   0  -1 1806.94   60.23
  13   0   1 1801.01   59.86
 -13   0   0    2.52    4.38
  13   0   0    1.93    4.15
 -13   0   1   14.24    4.08
  13   0  -1   23.66    4.67
 -13   0   2    5.12    4.15
  13   0  -2    3.04    4.45
 -13   0   3 5395.60  174.61
  13   0  -3 5032.88  163.04
 -13   0   4    4.01    3.63
  13   0  -4   -5.86    4.15
 -13   0   5  616.70   22.10
  13   0  -5  717.95   25.44
 -13   0   6    1.71    4.30
  13   0  -6   -1.41    4.75
 -13   0   7  676.19   23.96
  13   0  -7  720.55   25.59
 -13   0   8   -2.67    3.63
  13   0  -8    2.45    3.93
 -13   0   9 1192.02   40.35
  13   0  -9 1212.79   41.09
 -13   0  10   -0.82    4.23
 -13   0  10    3.63    4.15
 -13   0  11 1577.74   52.81
 -13   0  11 1606.66   53.48
 -13   0  12    1.56    3.71
 -13   0  12   -0.22    3.71
 -13   0  13  180.32    8.60
 -13   0  13  194.27    9.20
 -13   0  14   -1.93    3.86
 -13   0  14    2.60    3.93
 -13   0  16    0.37    3.93
 -13   0  16   -0.07    3.78
 -13   0  17 2121.45   70.25
 -13   0  17 1987.93   65.94
 -13   0  18    2.89    4.30
 -13   0  18    4.01    4.38
 -13   0  19   11.72    4.75
 -13   0  19   12.31    4.38
 -13   0  20   -2.97    4.08
 -13   0  20    6.53    3.19
 -13   0  21  199.91    9.49
 -13   0  21  216.67    9.94
 -13   0  22   -1.63    4.38
 -13   0  22   -3.63    4.23
 -13   0  23  269.56   11.57
 -13   0  23  268.07   11.35
 -13   0  24   -1.63    4.08
 -13   0  24   -0.37    4.15
 -13   0  25  883.44   30.26
 -13   0  25  850.06   29.52
 -13   0  26   -4.23    4.08
 -13   0  26   -0.22    4.01
 -13   0  27   17.13    4.52
 -13   0  27   17.73    4.52
 -13   0  28   -3.93    4.23
 -13   0  28   -6.38    4.30
 -13   0  29  578.65   20.47
 -13   0  29  520.50   18.84
 -13   0  30   -1.04    4.23
 -13   0  30   -2.37    3.71
 -13   0  31   67.95    5.19
 -13   0  31   78.11    5.49
 -14   0 -25    0.74    2.67
  14   0  25    6.38    4.15
 -14   0 -24 1867.02   61.42
  14   0  24 1910.79   62.83
 -14   0 -23    1.04    4.15
  14   0  23    1.11    4.75
 -14   0 -22  322.59   12.91
  14   0  22  297.74   12.31
 -14   0 -21    1.63    4.30
  14   0  21    6.01    4.01
 -14   0 -20  607.06   21.88
  14   0  20  569.90   20.92
 -14   0 -19    2.97    3.86
  14   0  19    0.22    4.15
 -14   0 -18  176.84    8.60
  14   0  18  149.54    8.38
 -14   0 -17    7.49    4.60
  14   0  17    4.67    5.12
 -14   0 -16 1284.74   43.62
  14   0  16 1361.14   45.92
 -14   0 -15    2.89    4.60
  14   0  15   -5.56    5.04
 -14   0 -14 1934.52   64.09
  14   0  14 1718.67   57.41
 -14   0 -13    7.57    3.19
  14   0  13    1.11    5.19
 -14   0 -12  212.44    9.72
  14   0  12  216.00   10.38
 -14   0 -11   -0.82    3.56
  14   0  11    5.86    4.30
 -14   0 -10 1760.95   58.45
  14   0  10 1973.84   65.42
 -14   0  -9    3.04    4.01
  14   0   9    0.67    4.52
 -14   0  -8    4.82    4.15
  14   0   8   -0.89    3.93
 -14   0  -7   -3.78    3.04
  14   0   7   -2.52    4.60
 -14   0  -6 1559.19   52.44
  14   0   6 1711.25   57.19
 -14   0  -5    1.26    4.30
  14   0   5    2.15    4.15
 -14   0  -4  206.51    9.64
  14   0   4  197.09    9.57
 -14   0  -3   -0.74    3.56
  14   0   3   -4.23    4.75
  14   0   2 7669.86  247.45
 -14   0  -1    0.74    4.90
  14   0   1   -0.15    4.38
 -14   0   0 1700.87   56.89
  14   0   0 1629.66   54.52
 -14   0   1    2.89    4.67
  14   0  -1    3.49    4.30
 -14   0   2  740.43   26.26
  14   0  -2  789.98   27.82
 -14   0   3    3.63    4.38
  14   0  -3    6.38    4.67
 -14   0   4   14.24    4.67
  14   0  -4   13.95    4.75
 -14   0   5   -4.82    4.45
  14   0  -5    0.45    4.52
 -14   0   6 2562.80   83.97
  14   0  -6 2780.88   91.16
 -14   0   7    2.82    3.86
  14   0  -7    7.34    4.15
 -14   0   8 1062.21   36.05
  14   0  -8 1126.00   38.35
 -14   0   9   -1.19    3.78
  14   0  -9    1.93    3.93
 -14   0  10  284.62   11.65
 -14   0  10  246.71   10.83
 -14   0  11   -3.19    3.71
 -14   0  11   -1.56    3.86
 -14   0  12 3717.73  120.98
 -14   0  12 3820.09  124.39
 -14   0  13   -0.96    3.71
 -14   0  13   -3.86    3.56
 -14   0  14   64.98    5.41
 -14   0  14   60.68    5.56
 -14   0  15   -1.93    3.93
 -14   0  15   -1.26    4.01
 -14   0  16 2016.86   66.91
 -14   0  16 2151.12   71.21
 -14   0  17   -3.12    3.86
 -14   0  17   -1.11    4.23
 -14   0  18  307.68   12.54
 -14   0  18  331.35   13.28
 -14   0  19    2.82    4.38
 -14   0  19    4.45    3.71
 -14   0  20  664.99   23.74
 -14   0  20  629.02   22.70
 -14   0  21    0.22    4.45
 -14   0  21    1.56    4.23
 -14   0  22   20.84    4.75
 -14   0  22   27.89    4.23
 -14   0  23   -3.86    3.86
 -14   0  23    1.48    3.78
 -14   0  24 1652.65   54.74
 -14   0  24 1689.74   56.23
 -14   0  25   -3.12    3.93
 -14   0  25   -5.71    4.38
 -14   0  26    5.56    3.93
 -14   0  26    2.60    4.45
 -14   0  27    5.71    4.01
 -14   0  27    2.23    4.23
 -14   0  28  514.19   18.47
 -14   0  28  526.65   18.84
 -14   0  29   -1.19    3.49
 -14   0  29    1.78    2.97
 -15   0 -24   -0.74    3.78
  15   0  24   -2.74    4.38
 -15   0 -23   16.62    4.30
  15   0  23   13.20    4.38
 -15   0 -22    4.52    3.63
  15   0  22    4.52    4.60
 -15   0 -21  577.76   20.47
  15   0  21  631.98   22.48
 -15   0 -20    1.78    3.12
  15   0  20    1.93    4.75
 -15   0 -19 1235.78   41.69
  15   0  19 1254.33   42.28
 -15   0 -18   -5.79    3.71
  15   0  18   -5.04    5.12
 -15   0 -17  381.04   14.39
  15   0  17  390.09   15.35
 -15   0 -16    4.23    3.26
  15   0  16   -1.56    4.38
 -15   0 -15  661.43   23.51
  15   0  15  714.32   25.52
 -15   0 -14    5.86    4.23
  15   0  14   -7.05    4.52
 -15   0 -13  199.53    9.35
  15   0  13  177.73    9.12
 -15   0 -12   -0.82    3.86
  15   0  12    3.93    5.04
 -15   0 -11  993.97   33.90
  15   0  11  980.61   34.05
 -15   0 -10   -3.86    4.08
  15   0  10   -0.67    4.45
 -15   0  -9   57.93    5.12
  15   0   9   58.97    6.08
 -15   0  -8    1.78    4.08
  15   0   8   -7.86    4.97
 -15   0  -7 3409.90  111.41
  15   0   7 3395.06  110.82
 -15   0  -6   -3.63    4.23
  15   0   6   -0.59    4.52
 -15   0  -5 1560.67   52.29
  15   0   5 1458.31   48.96
 -15   0  -4   -4.08    4.23
  15   0   4   -0.74    3.93
 -15   0  -3  942.78   32.71
  15   0   3  902.73   31.38
 -15   0  -2   -1.04    3.86
  15   0   2   -0.67    4.52
 -15   0  -1  798.88   28.34
  15   0   1  861.93   30.04
 -15   0   0    1.71    3.78
  15   0   0   -2.67    4.45
 -15   0   1 2950.74   96.65
  15   0  -1 2856.54   93.61
 -15   0   2    4.01    4.08
  15   0  -2    0.37    4.23
 -15   0   3   67.13    5.27
  15   0  -3   59.34    5.64
 -15   0   4   -5.27    3.71
  15   0  -4    4.38    3.93
 -15   0   5 2196.37   72.32
  15   0  -5 2096.97   69.28
 -15   0   6   -0.52    3.63
  15   0  -6    6.38    4.30
 -15   0   7  878.25   30.26
  15   0  -7  848.58   29.60
 -15   0   8    3.86    4.01
  15   0  -8   -4.01    3.71
 -15   0   9  933.14   32.04
  15   0  -9  890.12   30.86
 -15   0  10    1.11    3.41
 -15   0  10    3.26    3.78
 -15   0  11 1166.80   39.31
 -15   0  11 1207.59   41.02
 -15   0  12    6.82    3.93
 -15   0  12   -2.67    4.01
 -15   0  14   -4.52    3.78
 -15   0  14    1.63    4.15
 -15   0  15   43.24    4.75
 -15   0  15   35.09    4.75
 -15   0  16   -1.11    3.93
 -15   0  16    1.56    4.30
 -15   0  17   70.84    5.86
 -15   0  17   66.39    5.19
 -15   0  18   -4.30    4.01
 -15   0  18   -1.26    4.23
 -15   0  19 2661.45   87.23
 -15   0  19 2817.23   92.20
 -15   0  20   -0.07    4.23
 -15   0  20    0.74    3.93
 -15   0  21  191.52    8.98
 -15   0  21  168.23    8.31
 -15   0  22   -0.89    4.08
 -15   0  22   -0.07    4.30
 -15   0  23  719.44   25.00
 -15   0  23  677.01   24.11
 -15   0  24    1.78    4.01
 -15   0  24    0.67    3.86
 -15   0  25  121.80    6.75
 -15   0  25  118.83    6.60
 -15   0  26    2.52    3.86
 -15   0  26   -0.37    3.71
 -15   0  27 1050.34   35.38
 -15   0  27 1056.27   35.60
 -15   0  28    1.93    3.56
 -15   0  28   -1.11    3.78
 -15   0  29   50.89    4.75
 -15   0  29   50.07    4.82
 -16   0 -23   -4.01    3.34
  16   0  23    0.59    4.75
 -16   0 -22  270.37   11.13
  16   0  22  267.70   10.68
 -16   0 -21    0.22    4.08
  16   0  21   -6.75    4.60
 -16   0 -20    4.45    4.45
  16   0  20    7.20    4.45
 -16   0 -19   -4.67    4.15
  16   0  19    2.37    4.82
 -16   0 -18 1269.16   42.73
  16   0  18 1178.67   39.91
 -16   0 -17   -2.08    4.08
  16   0  17   -0.45    4.52
 -16   0 -16  721.14   25.15
  16   0  16  730.34   25.81
 -16   0 -15   -1.34    4.52
  16   0  15    2.30    4.90
 -16   0 -14  261.69   11.50
  16   0  14  234.62   10.90
 -16   0 -13    2.30    4.15
  16   0  13   -2.15    4.90
 -16   0 -12  764.76   26.56
  16   0  12  801.11   28.11
 -16   0 -11    0.45    2.89
  16   0  11    4.90    4.82
 -16   0 -10   30.49    4.60
  16   0  10   29.60    5.49
 -16   0  -9   -5.04    4.01
  16   0   9    0.07    4.30
 -16   0  -8  993.22   34.05
  16   0   8 1026.60   35.38
 -16   0  -7    1.48    4.38
  16   0   7   -8.38    4.75
 -16   0  -6  591.48   21.44
  16   0   6  572.05   21.07
 -16   0  -5    5.34    4.23
  16   0   5    4.30    4.52
 -16   0  -4 1365.59   46.14
  16   0   4 1238.75   42.13
 -16   0  -3   -0.59    4.23
  16   0   3    0.37    4.01
 -16   0  -2 1734.99   57.86
  16   0   2 1633.37   54.59
 -16   0  -1   -1.63    4.15
  16   0   1   -3.71    4.38
 -16   0   0 2101.42   69.43
  16   0   0 1904.11   63.12
 -16   0   1    1.93    4.01
  16   0  -1   -0.15    4.15
 -16   0   2  155.33    7.71
  16   0  -2  157.25    8.23
 -16   0   3    2.30    3.78
  16   0  -3    3.86    4.23
 -16   0   4 1005.09   34.12
  16   0  -4  991.74   34.12
 -16   0   5    3.12    3.26
  16   0  -5    3.34    4.23
 -16   0   6   63.42    5.04
  16   0  -6   52.15    5.12
 -16   0   7   -2.37    3.49
  16   0  -7    1.41    4.01
 -16   0   8  948.72   32.42
  16   0  -8 1028.83   35.23
 -16   0   9    5.79    3.86
  16   0  -9   -4.38    3.49
 -16   0  11   -4.01    3.78
 -16   0  11   -1.19    3.63
 -16   0  13   -2.67    3.71
 -16   0  13    1.19    3.93
 -16   0  14   57.49    5.12
 -16   0  14   41.76    4.75
 -16   0  15    1.78    3.93
 -16   0  15    1.19    3.93
 -16   0  16  162.30    8.16
 -16   0  16  189.82    9.05
 -16   0  17    7.20    4.15
 -16   0  17    1.56    3.56
 -16   0  18  144.20    7.71
 -16   0  18  145.83    7.94
 -16   0  19   -2.52    3.93
 -16   0  19   -5.12    3.86
 -16   0  20  530.88   19.29
 -16   0  20  537.26   19.58
 -16   0  21   -5.64    3.78
 -16   0  21   -2.82    4.30
 -16   0  22 2677.03   87.38
 -16   0  22 2746.02   89.83
 -16   0  23    5.27    3.78
 -16   0  23   -1.56    4.45
 -16   0  24   83.15    6.01
 -16   0  24   88.34    6.23
 -16   0  25    2.82    3.93
 -16   0  25    2.08    4.23
 -16   0  26  659.65   22.99
 -16   0  26  640.51   22.40
 -16   0  27    1.19    3.78
 -16   0  27   -4.08    4.01
 -16   0  28    6.38    3.86
 -16   0  28    0.45    4.15
 -17   0 -21  520.87   18.25
  17   0  21  513.75   18.32
 -17   0 -20    0.96    3.41
  17   0  20    3.86    4.45
 -17   0 -19  120.83    6.82
  17   0  19  123.87    7.05
 -17   0 -18    6.97    4.23
  17   0  18   -9.57    4.38
 -17   0 -17  363.54   14.09
  17   0  17  381.71   14.91
 -17   0 -16   -1.48    4.30
  17   0  16    1.04    4.82
 -17   0 -15  459.15   16.91
  17   0  15  420.36   16.02
 -17   0 -14   -2.37    4.15
  17   0  14   -0.67    4.52
 -17   0 -13  738.43   26.11
  17   0  13  733.38   25.81
 -17   0 -12   -2.08    3.78
  17   0  12   -5.56    4.90
 -17   0 -11  162.30    7.57
  17   0  11  185.00    9.42
 -17   0 -10    3.26    3.63
  17   0  10   -1.11    4.60
 -17   0  -9 1034.76   35.16
  17   0   9 1063.69   36.64
 -17   0  -8    7.05    4.01
  17   0   8    6.31    4.52
 -17   0  -7  391.58   14.84
  17   0   7  368.81   14.84
 -17   0  -6    0.15    3.93
  17   0   6   -1.04    4.38
 -17   0  -5  433.78   16.69
  17   0   5  424.36   16.17
 -17   0  -4   -1.85    3.04
  17   0   4    2.74    3.78
 -17   0  -3  402.19   15.80
  17   0   3  408.86   15.73
 -17   0  -2   -1.71    4.01
  17   0   2   -1.71    4.45
 -17   0  -1  643.04   22.92
  17   0   1  634.51   22.85
 -17   0   0    3.12    4.08
  17   0   0   -7.64    4.15
 -17   0   1   38.79    4.38
  17   0  -1   46.43    5.41
 -17   0   2   -1.34    3.71
  17   0  -2   -1.78    4.08
 -17   0   3 3821.58  124.10
  17   0  -3 3492.97  113.86
 -17   0   4   -0.07    3.56
  17   0  -4   -7.20    4.23
 -17   0   5  482.22   17.58
  17   0  -5  493.87   18.40
 -17   0   6   -2.30    3.49
  17   0  -6    4.15    4.15
 -17   0   7  828.55   28.48
  17   0  -7  816.68   28.56
 -17   0   8    3.78    3.49
  17   0  -8   -4.52    3.93
 -17   0   9  776.63   26.85
  17   0  -9  674.86   23.96
 -17   0  10    2.89    3.63
 -17   0  10   -8.60    3.93
 -17   0  11  242.71   10.46
 -17   0  11  234.99   10.24
 -17   0  12   -4.30    3.93
 -17   0  12    6.01    4.01
 -17   0  14   -4.30    3.63
 -17   0  14    5.04    4.01
 -17   0  15 1352.98   45.47
 -17   0  15 1318.12   44.43
 -17   0  16    4.75    3.93
 -17   0  16    3.63    3.93
 -17   0  17 2783.10   91.01
 -17   0  17 2796.46   91.53
 -17   0  18    5.56    3.78
 -17   0  18    2.74    4.15
 -17   0  19   11.50    3.78
 -17   0  19    7.12    3.71
 -17   0  20   -4.60    3.63
 -17   0  20    7.71    3.71
 -17   0  21  603.87   21.29
 -17   0  21  607.51   21.81
 -17   0  22    7.05    3.78
 -17   0  22   -4.08    4.30
 -17   0  23  318.22   12.46
 -17   0  23  338.84   13.35
 -17   0  24   -1.56    4.01
 -17   0  24   -0.74    4.08
 -17   0  25 1419.00   46.95
 -17   0  25 1437.54   47.62
 -17   0  26  -11.87    3.41
 -17   0  26    1.71    4.15
 -17   0  27    4.30    3.71
 -17   0  27   -0.52    4.01
 -18   0 -19    5.34    3.49
  18   0  19    1.19    4.15
 -18   0 -18  264.88   10.53
  18   0  18  256.73   10.76
 -18   0 -17    3.93    3.86
  18   0  17  -10.68    3.93
 -18   0 -16  506.48   18.25
  18   0  16  482.59   17.73
 -18   0 -15   -1.26    4.38
  18   0  15    9.49    4.45
 -18   0 -14  544.90   19.58
  18   0  14  600.53   21.51
 -18   0 -13   -2.15    3.93
  18   0  13    1.71    4.52
 -18   0 -12  180.17    8.68
  18   0  12  193.82    9.35
 -18   0 -11   -2.60    3.71
  18   0  11   -2.15    4.30
 -18   0 -10 1262.48   42.35
  18   0  10 1226.88   41.46
 -18   0  -9    4.67    3.41
  18   0   9    0.22    4.75
 -18   0  -8    3.41    3.63
  18   0   8    5.19    4.23
 -18   0  -7    1.93    3.86
  18   0   7    4.23    4.67
 -18   0  -6  206.21    9.27
  18   0   6  194.05    9.35
 -18   0  -5   -1.78    3.49
  18   0   5    2.15    4.30
 -18   0  -4  255.46   10.90
  18   0   4  259.54   11.20
 -18   0  -3   -1.93    4.01
  18   0   3    1.78    4.52
 -18   0  -2 2272.03   74.92
  18   0   2 2314.31   76.25
 -18   0  -1    5.34    3.56
  18   0   1   -5.86    4.30
 -18   0   0  587.78   21.14
  18   0   0  607.51   21.96
 -18   0   1    4.97    4.08
  18   0  -1    5.93    4.38
 -18   0   2   58.60    5.27
  18   0  -2   55.04    5.27
 -18   0   3    6.38    3.78
  18   0  -3   -0.89    4.01
 -18   0   4   -2.08    3.26
  18   0  -4    4.75    4.15
 -18   0   5    2.67    3.26
  18   0  -5    3.49    4.15
 -18   0   6 1599.25   53.18
  18   0  -6 1361.14   45.77
 -18   0   7   -6.23    3.49
  18   0  -7   -4.08    4.01
 -18   0   8  464.94   17.13
  18   0  -8  431.34   16.24
 -18   0   9   -2.37    3.63
  18   0  -9    0.67    3.86
 -18   0  10  460.49   16.84
 -18   0  10  461.97   17.28
 -18   0  11    5.27    3.78
 -18   0  11   -0.22    3.26
 -18   0  13    3.49    4.01
 -18   0  13    5.64    4.08
 -18   0  14  172.76    8.38
 -18   0  14  162.67    7.79
 -18   0  15   -3.71    3.71
 -18   0  15    1.93    3.93
 -18   0  16  357.01   13.72
 -18   0  16  385.94   14.84
 -18   0  17    0.89    3.49
 -18   0  17    0.67    4.01
 -18   0  18  353.38   13.43
 -18   0  18  356.20   13.80
 -18   0  19   -0.15    3.12
 -18   0  19   -7.71    3.93
 -18   0  20  323.11   12.91
 -18   0  20  365.17   13.80
 -18   0  21   -2.08    3.71
 -18   0  21    2.82    4.30
 -18   0  22   74.10    5.49
 -18   0  22   90.20    6.08
 -18   0  24  798.88   27.15
 -18   0  24  847.84   28.78
 -18   0  25   -3.26    3.63
 -18   0  25   -2.89    3.86
 -19   0 -17  153.32    7.20
  19   0  17  135.74    7.34
 -19   0 -16    6.38    4.15
  19   0  16    4.60    4.60
 -19   0 -15  247.16   10.24
  19   0  15  233.06   10.16
 -19   0 -14    3.78    4.15
  19   0  14   -2.97    4.01
 -19   0 -13  264.88   11.13
  19   0  13  228.02    9.94
 -19   0 -12   -2.08    4.01
  19   0  12   -1.26    4.38
 -19   0 -11  174.54    8.38
  19   0  11  178.91    8.98
 -19   0 -10    1.26    4.23
  19   0  10    1.26    4.52
 -19   0  -9  436.45   16.47
  19   0   9  396.70   15.28
 -19   0  -8    0.82    3.93
  19   0   8    0.00    4.15
 -19   0  -7 1536.94   50.96
  19   0   7 1481.31   49.62
 -19   0  -6    0.37    2.67
  19   0   6  -11.13    4.23
 -19   0  -5    3.26    2.74
  19   0   5    4.82    4.23
 -19   0  -4    0.22    3.49
  19   0   4   -6.01    4.52
 -19   0  -3  877.51   30.26
  19   0   3  817.43   28.56
 -19   0  -2   -0.82    4.08
  19   0   2   -6.16    3.78
 -19   0  -1    9.64    4.30
  19   0   1   11.35    4.38
 -19   0   0   -0.82    3.86
  19   0   0    1.11    4.01
 -19   0   1  658.76   23.44
  19   0  -1  691.92   24.48
 -19   0   2   -1.19    3.78
  19   0  -2   -1.34    3.86
 -19   0   3  239.66   10.09
  19   0  -3  247.23   10.61
 -19   0   4    3.26    3.26
  19   0  -4   -6.38    4.01
 -19   0   5  933.14   31.90
  19   0  -5  926.47   31.97
 -19   0   6   -0.45    3.26
  19   0  -6    3.93    4.15
 -19   0   7  307.61   12.09
  19   0  -7  312.36   12.68
 -19   0   8    1.41    3.19
  19   0  -8    5.04    3.49
 -19   0   9 1106.71   37.38
  19   0  -9 1131.19   38.42
 -19   0  10    0.59    3.71
 -19   0  10   -5.41    3.86
 -19   0  11  713.06   24.85
 -19   0  11  724.63   25.52
 -19   0  12   -1.26    3.41
 -19   0  12    7.57    4.01
 -19   0  13  287.36   11.50
 -19   0  13  305.16   12.39
 -19   0  14    2.08    3.26
 -19   0  14   -1.78    3.93
 -19   0  15  606.17   21.44
 -19   0  15  611.29   21.96
 -19   0  16   -0.96    3.63
 -19   0  16    2.89    4.01
 -19   0  17   40.50    4.82
 -19   0  17   55.41    4.82
 -19   0  18   -1.41    3.56
 -19   0  18    2.08    4.01
 -19   0  19 1590.35   52.74
 -19   0  19 1649.69   54.67
 -19   0  20    3.78    3.93
 -19   0  20    2.52    3.71
 -19   0  21   36.27    4.45
 -19   0  21   36.27    4.23
 -19   0  22   -2.08    3.41
 -19   0  22    1.41    3.41
 -19   0  23 1035.50   34.64
 -19   0  23 1156.41   38.65
 -19   0  24    5.27    3.71
 -19   0  24   -4.82    3.34
 -20   0 -15    1.11    3.71
  20   0  15    3.34    4.30
 -20   0 -14  190.78    8.23
  20   0  14  223.27    9.79
 -20   0 -13   -0.37    3.26
  20   0  13    5.04    4.67
 -20   0 -12  758.08   26.11
  20   0  12  762.54   26.56
 -20   0 -11    2.97    3.04
  20   0  11    6.23    4.75
 -20   0 -10  143.90    6.68
  20   0  10  147.39    8.01
 -20   0  -9    0.07    2.74
  20   0   9   -4.90    4.15
 -20   0  -8 1902.63   62.75
  20   0   8 1976.81   65.20
 -20   0  -7    2.89    3.04
  20   0   7    9.42    4.60
 -20   0  -6  145.98    7.34
  20   0   6  153.25    7.86
 -20   0  -5    4.67    3.41
  20   0   5    2.67    4.30
 -20   0  -4 1433.83   47.62
  20   0   4 1419.00   47.55
 -20   0  -3    1.93    3.63
  20   0   3   -4.01    3.93
 -20   0  -2  400.70   15.13
  20   0   2  381.64   14.69
 -20   0  -1   -4.60    3.86
  20   0   1    0.96    4.38
 -20   0   0  420.28   16.02
  20   0   0  401.67   15.50
 -20   0   1   -1.71    4.01
  20   0  -1    0.52    4.15
 -20   0   2  393.73   15.21
  20   0  -2  389.20   15.06
 -20   0   3    6.53    4.08
  20   0  -3   -1.63    3.86
 -20   0   4  843.39   29.30
  20   0  -4  862.67   29.89
 -20   0   5    3.49    3.78
  20   0  -5    0.52    3.93
 -20   0   6  279.42   11.50
  20   0  -6  288.03   11.87
 -20   0   7   -2.97    3.78
  20   0  -7    0.37    3.78
 -20   0   8 1350.76   45.17
  20   0  -8 1245.42   41.91
 -20   0   9    8.23    3.93
  20   0  -9   -0.22    3.71
 -20   0  10  696.96   24.40
 -20   0  10  731.46   25.67
 -20   0  11   -2.00    3.49
 -20   0  11    3.34    3.71
 -20   0  12  942.78   32.12
 -20   0  12  940.56   32.42
 -20   0  13   -1.41    3.19
 -20   0  13   -0.74    3.86
 -20   0  14 1270.64   42.58
 -20   0  14 1274.35   42.87
 -20   0  15   -3.78    3.71
 -20   0  15    5.56    3.71
 -20   0  16    2.23    4.01
 -20   0  16    7.71    3.93
 -20   0  17    1.26    3.93
 -20   0  17    0.15    3.41
 -20   0  18   10.24    4.01
 -20   0  18    7.20    4.01
 -20   0  19    2.08    3.86
 -20   0  19    1.56    4.01
 -20   0  20  118.91    6.23
 -20   0  20  105.11    6.16
 -20   0  21   -1.93    3.56
 -20   0  21    2.15    4.08
 -20   0  22  867.87   29.45
 -20   0  22  892.34   30.19
 -21   0 -13  372.07   13.57
  21   0  13  410.27   15.35
 -21   0 -12   -4.90    4.01
  21   0  12   -5.27    4.15
 -21   0 -11  159.18    7.42
  21   0  11  185.00    8.53
 -21   0 -10   -5.56    4.01
  21   0  10    4.23    4.08
 -21   0  -9  808.52   27.96
  21   0   9  899.76   30.63
 -21   0  -8    2.15    3.63
  21   0   8    7.20    4.23
 -21   0  -7    0.74    3.56
  21   0   7    5.56    4.52
 -21   0  -6    0.82    3.49
  21   0   6   -0.07    4.15
 -21   0  -5 1777.27   58.82
  21   0   5 1903.37   62.90
 -21   0  -4   -1.85    3.56
  21   0   4   -0.67    4.01
 -21   0  -3  367.99   14.17
  21   0   3  337.13   13.35
 -21   0  -2    0.59    3.41
  21   0   2    3.41    4.23
 -21   0  -1  386.24   14.39
  21   0   1  377.11   14.39
 -21   0   0   -1.26    3.19
  21   0   0   -0.22    4.08
 -21   0   1  315.32   12.31
  21   0  -1  329.42   13.20
 -21   0   2   -3.78    3.63
  21   0  -2    5.41    4.15
 -21   0   3  962.81   32.93
  21   0  -3  975.42   33.38
 -21   0   4    4.67    4.01
  21   0  -4    3.41    4.01
 -21   0   5  541.12   19.66
  21   0  -5  552.62   19.88
 -21   0   6    1.78    3.78
  21   0  -6    0.37    3.63
 -21   0   7  950.20   32.56
  21   0  -7  940.56   32.04
 -21   0   8   -1.78    3.93
  21   0  -8    0.74    3.63
 -21   0   9  661.51   23.37
  21   0  -9  730.64   25.59
 -21   0  10   -6.68    3.71
 -21   0  10    0.59    3.93
 -21   0  11    4.97    3.86
 -21   0  11   15.28    4.23
 -21   0  12   -4.82    3.78
 -21   0  12    3.49    4.01
 -21   0  13  265.48   10.98
 -21   0  13  282.32   11.50
 -21   0  14    0.30    3.49
 -21   0  14   -3.63    3.71
 -21   0  15  317.03   12.24
 -21   0  15  317.77   12.39
 -21   0  16    3.12    3.49
 -21   0  16   -3.49    3.12
 -21   0  17 1105.23   36.79
 -21   0  17 1008.80   34.12
 -21   0  18   -5.34    3.19
 -21   0  18   -4.23    3.26
 -21   0  19   29.00    3.78
 -21   0  19   32.49    3.93
 -21   0  20    0.15    3.86
 -22   0 -10 1456.09   47.92
  22   0  10 1775.05   58.53
 -22   0  -9   -3.56    3.56
  22   0   9    2.82    3.56
 -22   0  -8   37.09    4.45
  22   0   8   38.05    4.67
 -22   0  -7   -2.67    3.78
  22   0   7    3.49    4.15
 -22   0  -6  312.95   12.24
  22   0   6  326.01   12.46
 -22   0  -5    1.85    3.19
  22   0   5   -4.01    3.93
 -22   0  -4  128.25    6.01
  22   0   4  124.32    6.82
 -22   0  -3   -3.26    2.45
  22   0   3   -2.52    4.08
 -22   0  -2 1078.53   36.27
  22   0   2 1179.41   39.54
 -22   0  -1    0.59    3.86
  22   0   1    4.30    4.30
 -22   0   0  453.96   16.91
  22   0   0  436.53   16.24
 -22   0   1    2.97    4.08
  22   0  -1    2.67    3.86
 -22   0   2  671.08   23.59
  22   0  -2  611.73   21.73
 -22   0   3    2.00    3.41
  22   0  -3   -5.27    4.08
 -22   0   4  148.65    7.27
  22   0  -4  137.75    7.27
 -22   0   5    0.59    3.71
  22   0  -5    6.38    3.78
 -22   0   6 1183.86   39.61
  22   0  -6 1218.72   40.87
 -22   0   7   -2.30    3.12
  22   0  -7    3.26    3.78
 -22   0   8  389.50   14.46
  22   0  -8  361.83   13.65
 -22   0   9    3.26    3.41
 -22   0   9   -1.19    3.26
 -22   0  10  985.06   33.08
 -22   0  10 1027.35   34.86
 -22   0  11   -4.30    3.26
 -22   0  11    2.15    3.63
 -22   0  12  840.42   28.56
 -22   0  12  833.00   28.56
 -22   0  13   -0.74    2.97
 -22   0  13   -0.30    3.63
 -22   0  14   23.59    3.78
 -22   0  14   24.70    4.15
 -22   0  15   -2.82    3.41
 -22   0  15   -0.07    3.41
 -22   0  16  920.53   30.93
 -22   0  16  910.15   30.56
 -22   0  17    5.27    3.26
 -22   0  17    2.08    3.26
 -23   0  -6   -8.23    3.49
 -23   0  -5    2.45    2.97
  23   0   5    4.82    3.63
 -23   0  -4   -0.15    2.67
  23   0   4   -0.52    3.93
 -23   0  -3  360.79   13.65
  23   0   3  355.08   13.28
 -23   0  -2   -2.82    3.71
  23   0   2    3.93    4.08
 -23   0  -1   21.66    3.63
  23   0   1   24.48    4.15
 -23   0   0   -1.63    2.89
  23   0   0    2.08    3.86
 -23   0   1 1162.35   38.57
  23   0  -1 1182.37   39.54
 -23   0   2    3.49    3.41
  23   0  -2    2.45    3.34
 -23   0   3  327.12   12.39
  23   0  -3  351.00   13.50
 -23   0   4   -0.52    3.04
  23   0  -4    1.41    3.86
 -23   0   5  587.70   20.62
  23   0  -5  609.51   21.36
 -23   0   6    8.38    3.71
  23   0  -6   -6.01    3.63
 -23   0   7  272.45   10.76
  23   0  -7  267.48   10.68
 -23   0   8   -1.19    3.56
  23   0  -8    6.60    3.63
 -23   0   9  390.69   14.39
 -23   0   9  356.27   13.43
 -23   0  10    2.08    3.63
 -23   0  10   -1.48    3.41
 -23   0  11  441.65   15.87
 -23   0  11  493.27   17.58
 -23   0  12    2.15    3.49
 -23   0  12    1.48    3.49
 -23   0  13  124.10    6.23
 -23   0  13  129.51    6.45
 -23   1  12   21.96    3.78
 -23   1  12   23.22    3.93
 -23   1  11  311.99   11.57
 -23   1  11  293.81   11.27
 -23   1  10   10.38    3.49
 -23   1  10    8.09    3.56
 -23   1   9    3.26    3.56
 -23   1   9   -0.45    2.89
  23  -1  -8    7.86    3.49
 -23   1   8   14.24    3.56
  23  -1  -7  369.92   13.87
 -23   1   7  391.43   14.32
  23  -1  -6  148.95    7.20
 -23   1   6  147.09    6.82
  23  -1  -5  212.66    9.12
 -23   1   5  231.95    9.64
  23  -1  -4   -4.52    3.78
 -23   1   4   -4.67    3.41
  23  -1  -3  610.18   21.59
 -23   1   3  571.23   20.03
  23  -1  -2   90.12    5.79
 -23   1   2   96.36    5.79
  23  -1  -1   38.20    4.45
 -23   1   1   43.24    4.45
  23  -1   0   13.65    4.01
 -23   1   0    6.16    3.41
  23  -1   1  455.44   16.54
 -23   1  -1  467.46   16.54
  23  -1   2   16.10    4.01
 -23   1  -2   18.25    3.71
  23  -1   3    2.30    3.86
 -23   1  -3    0.22    3.56
  23  -1   4    3.71    3.93
 -23   1  -4   -3.19    3.41
  23  -1   5  451.36   16.84
 -23   1  -5  438.38   15.73
 -22   1  16  130.62    6.90
 -22   1  16  115.34    5.86
 -22   1  15   31.82    4.23
 -22   1  15   30.93    3.86
 -22   1  14  319.63   12.31
 -22   1  14  283.06   10.90
 -22   1  13   55.93    4.90
 -22   1  13   44.28    4.30
 -22   1  12   25.37    4.23
 -22   1  12   31.45    4.08
 -22   1  11  150.80    7.34
 -22   1  11  148.58    6.90
 -22   1  10 1729.80   57.12
 -22   1  10 1785.43   58.75
 -22   1   9   35.60    4.52
 -22   1   9   42.58    4.45
  22  -1  -8 1284.74   43.02
 -22   1   8 1401.94   46.66
  22  -1  -7  112.30    6.45
 -22   1   7  101.03    6.01
  22  -1  -6    1.93    3.93
 -22   1   6    0.74    3.56
  22  -1  -5    2.52    4.15
 -22   1   5    0.59    3.63
  22  -1  -4  302.71   12.09
 -22   1   4  329.64   12.91
  22  -1  -3   30.41    4.67
 -22   1   3   38.35    4.52
  22  -1  -2  123.80    7.05
 -22   1   2  125.58    6.53
  22  -1  -1   -4.60    4.08
 -22   1   1    2.89    3.19
  22  -1   0  974.68   33.31
 -22   1   0  901.99   30.56
  22  -1   1   70.47    5.64
 -22   1  -1   68.84    5.04
  22  -1   2    4.08    4.23
 -22   1  -2   -0.74    4.08
  22  -1   3   23.51    4.45
 -22   1  -3   34.94    4.45
  22  -1   4  772.18   26.63
 -22   1  -4  746.96   25.67
  22  -1   5   24.85    4.52
 -22   1  -5   30.63    3.71
  22  -1   6   17.28    4.23
 -22   1  -6   26.04    3.12
  22  -1   7    3.63    3.78
 -22   1  -7   -2.60    3.26
  22  -1   8  426.89   15.65
 -22   1  -8  454.48   16.32
  22  -1   9    1.41    4.01
 -22   1  -9    4.67    3.56
 -21   1  19  868.61   29.45
 -21   1  19  867.12   29.15
 -21   1  18    0.52    3.49
 -21   1  18    4.67    3.63
 -21   1  17   94.58    5.71
 -21   1  17   96.73    5.71
 -21   1  16  111.04    6.53
 -21   1  16  105.33    5.93
 -21   1  15  775.15   26.78
 -21   1  15  772.18   26.48
 -21   1  14    0.59    3.78
 -21   1  14   -3.19    3.49
 -21   1  13  495.87   18.10
 -21   1  13  537.48   19.06
 -21   1  12    0.22    3.63
 -21   1  12    6.01    3.49
 -21   1  11   31.82    4.60
 -21   1  11   45.17    4.60
 -21   1  10   32.56    4.38
 -21   1  10   19.36    4.08
  21  -1  -8   57.19    5.04
 -21   1   8   43.39    4.67
  21  -1  -7  235.51   10.01
 -21   1   7  243.89   10.38
  21  -1  -6   -5.12    4.15
 -21   1   6    0.96    3.56
  21  -1  -5 1805.46   59.79
 -21   1   5 1780.24   58.90
  21  -1  -4   78.26    5.71
 -21   1   4   89.38    5.86
  21  -1  -3  188.33    8.83
 -21   1   3  204.50    9.27
  21  -1  -2    3.19    3.71
 -21   1   2    7.94    4.15
  21  -1  -1  959.84   32.79
 -21   1   1  996.19   34.05
  21  -1   0   42.43    4.97
 -21   1   0   42.87    4.97
  21  -1   1   34.79    4.90
 -21   1  -1   36.72    4.52
  21  -1   2   21.07    4.52
 -21   1  -2   27.37    4.30
  21  -1   3  719.88   25.22
 -21   1  -3  707.72   24.55
  21  -1   4   34.64    4.97
 -21   1  -4   18.54    4.01
  21  -1   5    4.30    4.52
 -21   1  -5    8.98    3.86
  21  -1   6   -4.97    4.30
 -21   1  -6    0.30    3.49
  21  -1   7 1131.93   38.20
 -21   1  -7 1182.37   39.61
  21  -1   8   25.89    4.75
 -21   1  -8   13.80    2.97
  21  -1   9  127.36    6.97
 -21   1  -9  124.62    6.08
  21  -1  10   79.22    5.56
 -21   1 -10   95.54    5.64
  21  -1  11  604.61   21.14
 -21   1 -11  624.79   21.66
  21  -1  12   97.69    6.01
 -21   1 -12   90.87    5.34
 -20   1  21   53.78    5.04
 -20   1  21   57.12    4.67
 -20   1  19   11.05    4.23
 -20   1  19    4.90    3.93
 -20   1  18  121.43    6.75
 -20   1  18  128.70    6.90
 -20   1  17  108.59    6.45
 -20   1  17  109.78    6.45
 -20   1  16  519.61   18.84
 -20   1  16  529.40   18.92
 -20   1  15   -4.82    4.08
 -20   1  15    1.11    3.63
 -20   1  14  116.16    6.90
 -20   1  14  101.10    6.08
 -20   1  13    1.04    3.49
 -20   1  13    1.56    3.86
 -20   1  12 1286.22   43.39
 -20   1  12 1326.28   44.51
 -20   1  11  456.33   16.99
 -20   1  11  466.05   17.21
  20  -1  -9   79.15    5.27
 -20   1   9   90.50    5.93
  20  -1  -8  449.96   16.62
 -20   1   8  416.80   15.65
  20  -1  -7   -0.59    3.63
 -20   1   7   -0.45    3.56
  20  -1  -6  881.22   30.34
 -20   1   6  909.40   31.08
  20  -1  -5  104.59    6.38
 -20   1   5  113.86    6.45
  20  -1  -4  524.06   19.14
 -20   1   4  501.66   18.17
  20  -1  -3    3.56    3.56
 -20   1   3    7.79    3.49
  20  -1  -2 1153.45   39.02
 -20   1   2 1119.32   37.90
  20  -1  -1   33.23    4.67
 -20   1   1   40.06    4.38
  20  -1   0  151.32    7.79
 -20   1   0  152.95    7.71
  20  -1   1   50.66    5.12
 -20   1  -1   54.15    4.82
  20  -1   2  833.74   28.85
 -20   1  -2  826.33   28.56
  20  -1   3   12.39    4.52
 -20   1  -3   28.71    4.23
  20  -1   4   11.35    4.60
 -20   1  -4    1.41    3.71
  20  -1   5  141.08    7.57
 -20   1  -5  130.70    6.82
  20  -1   6 1204.63   40.57
 -20   1  -6 1323.31   44.14
  20  -1   7    1.71    3.63
 -20   1  -7    4.60    4.01
  20  -1   8    3.86    4.30
 -20   1  -8    6.23    4.38
  20  -1   9   47.10    4.97
 -20   1  -9   48.21    5.04
  20  -1  10  499.13   18.32
 -20   1 -10  467.31   16.99
  20  -1  11  257.32   11.05
 -20   1 -11  232.69    9.64
  20  -1  12  137.23    7.57
 -20   1 -12  140.19    6.97
  20  -1  13    2.23    4.52
 -20   1 -13    3.26    2.74
  20  -1  14  958.36   32.49
 -20   1 -14  959.10   32.12
  20  -1  15   20.18    4.45
 -20   1 -15   14.61    3.41
 -19   1  23    7.64    4.15
 -19   1  23   11.72    4.08
 -19   1  22   15.35    4.01
 -19   1  22   14.61    4.08
 -19   1  21  879.73   30.04
 -19   1  21  879.73   29.97
 -19   1  20    6.08    3.63
 -19   1  20    5.71    4.15
 -19   1  19  112.53    6.60
 -19   1  19  100.95    6.16
 -19   1  18   83.60    5.93
 -19   1  18   90.87    6.08
 -19   1  17  809.27   28.19
 -19   1  17  786.27   27.22
 -19   1  16    4.52    4.01
 -19   1  16   11.65    4.38
 -19   1  15  403.52   15.43
 -19   1  15  395.44   15.21
 -19   1  14  199.61    9.42
 -19   1  14  179.73    8.46
 -19   1  13  482.96   17.80
 -19   1  13  470.72   17.36
 -19   1  12   10.83    4.08
 -19   1  12   11.57    3.93
 -19   1  11  335.87   13.50
 -19   1  11  329.27   12.98
 -19   1  10   49.48    4.60
 -19   1  10   46.14    4.75
  19  -1  -9  419.91   16.02
 -19   1   9  423.92   15.95
  19  -1  -8  101.92    6.38
 -19   1   8  105.63    6.31
  19  -1  -7  181.51    8.75
 -19   1   7  184.48    8.46
  19  -1  -6   55.19    5.34
 -19   1   6   45.32    4.45
  19  -1  -5  688.88   24.40
 -19   1   5  704.31   24.55
  19  -1  -4    0.89    3.93
 -19   1   4    1.78    3.63
  19  -1  -3 1281.03   43.10
 -19   1   3 1250.62   42.06
  19  -1  -2    4.82    4.23
 -19   1   2   11.50    4.08
  19  -1  -1  161.41    8.38
 -19   1   1  140.56    7.57
  19  -1   0    0.22    4.23
 -19   1   0   -0.74    3.86
  19  -1   1  774.40   27.15
 -19   1  -1  730.42   25.81
  19  -1   2    9.05    4.52
 -19   1  -2   15.21    4.01
  19  -1   3   22.10    4.90
 -19   1  -3   19.06    4.45
  19  -1   4   70.76    5.93
 -19   1  -4   76.18    5.79
  19  -1   5 1022.15   34.94
 -19   1  -5 1039.96   35.46
  19  -1   6    3.12    4.38
 -19   1  -6   -3.19    3.78
  19  -1   7    1.11    4.15
 -19   1  -7    0.59    3.71
  19  -1   8  141.90    7.71
 -19   1  -8  140.86    7.12
  19  -1   9 1367.82   45.84
 -19   1  -9 1426.42   47.62
  19  -1  10   40.13    5.19
 -19   1 -10   20.18    4.15
  19  -1  11  841.90   29.15
 -19   1 -11  789.24   27.22
  19  -1  12   52.74    5.56
 -19   1 -12   46.14    4.38
  19  -1  13  331.72   13.13
 -19   1 -13  338.47   13.13
  19  -1  14   29.00    4.52
 -19   1 -14   30.56    4.45
  19  -1  15   49.62    5.19
 -19   1 -15   49.62    4.75
  19  -1  16   13.50    4.52
 -19   1 -16    2.97    3.63
  19  -1  17  906.44   30.56
 -19   1 -17  982.10   32.93
 -18   1  25  130.33    6.75
 -18   1  25  139.53    6.75
 -18   1  24   -4.45    3.63
 -18   1  24    1.93    3.49
 -18   1  23    1.11    3.93
 -18   1  23   -6.31    3.86
 -18   1  22 1049.60   35.53
 -18   1  22 1016.22   34.34
 -18   1  21   18.62    4.60
 -18   1  21   20.70    4.38
 -18   1  20   30.49    4.90
 -18   1  20   41.54    4.97
 -18   1  19   34.49    4.75
 -18   1  19   32.49    4.67
 -18   1  18  867.12   29.97
 -18   1  18  953.17   32.56
 -18   1  17   13.35    4.52
 -18   1  17    2.97    4.08
 -18   1  16  601.13   21.66
 -18   1  16  537.41   19.66
 -18   1  15   40.35    4.90
 -18   1  15   35.01    4.67
 -18   1  14  456.04   17.28
 -18   1  14  452.03   16.91
 -18   1  13   25.81    4.45
 -18   1  13   22.92    4.23
 -18   1  12  188.41    8.98
 -18   1  12  192.19    8.75
 -18   1  11   44.95    4.82
 -18   1  11   51.33    4.90
 -18   1  10  487.04   17.88
 -18   1  10  457.82   16.99
  18  -1  -9   49.48    4.97
 -18   1   9   47.62    4.67
  18  -1  -8 1002.13   34.34
 -18   1   8 1078.53   36.57
  18  -1  -7   21.21    4.38
 -18   1   7   10.83    3.78
  18  -1  -6   86.79    6.23
 -18   1   6   92.57    5.86
  18  -1  -5    9.72    4.30
 -18   1   5    2.30    3.56
  18  -1  -4  238.40   10.53
 -18   1   4  239.96   10.09
  18  -1  -3  230.54   10.38
 -18   1   3  220.90    9.57
  18  -1  -2  676.42   24.26
 -18   1   2  742.51   25.96
  18  -1  -1   16.39    4.60
 -18   1   1   11.13    4.15
  18  -1   0 1050.34   35.98
 -18   1   0 1177.92   40.06
  18  -1   1   19.66    4.75
 -18   1  -1   33.16    4.67
  18  -1   2   97.32    6.75
 -18   1  -2   80.70    5.71
  18  -1   3   43.17    5.41
 -18   1  -3   50.59    5.27
  18  -1   4 1768.37   58.75
 -18   1  -4 1925.62   63.94
  18  -1   5   16.10    4.45
 -18   1  -5    8.90    4.01
  18  -1   6  276.38   11.79
 -18   1  -6  274.23   11.20
  18  -1   7   36.57    5.34
 -18   1  -7   35.53    4.30
  18  -1   8  619.97   22.40
 -18   1  -8  651.49   22.92
  18  -1   9   49.40    5.71
 -18   1  -9   62.16    5.34
  18  -1  10   55.11    5.79
 -18   1 -10   35.31    4.82
  18  -1  11  151.91    8.01
 -18   1 -11  160.59    8.23
  18  -1  12 2162.25   71.14
 -18   1 -12 1994.61   65.94
  18  -1  13  136.78    7.79
 -18   1 -13  124.32    6.75
  18  -1  14  133.59    7.49
 -18   1 -14  153.55    7.79
  18  -1  15   58.15    5.86
 -18   1 -15   73.14    6.01
  18  -1  16  347.52   13.65
 -18   1 -16  358.42   13.80
  18  -1  17   15.35    4.45
 -18   1 -17   14.84    4.08
  18  -1  18  298.93   11.87
 -18   1 -18  312.88   12.16
  18  -1  19    8.53    4.30
 -18   1 -19    9.64    3.49
 -17   1  26    8.83    4.01
 -17   1  26   14.54    3.78
 -17   1  25  121.80    6.60
 -17   1  25  125.06    6.60
 -17   1  24   36.27    4.15
 -17   1  24   38.20    4.23
 -17   1  23  446.02   16.47
 -17   1  23  450.40   16.54
 -17   1  22   84.71    6.08
 -17   1  22   81.67    5.86
 -17   1  21   20.77    4.67
 -17   1  21   30.56    4.82
 -17   1  20   16.84    4.67
 -17   1  20   11.05    4.38
 -17   1  19  900.50   31.08
 -17   1  19  858.96   29.74
 -17   1  18   17.13    4.08
 -17   1  18   15.95    4.52
 -17   1  17  201.69    9.42
 -17   1  17  204.13    9.64
 -17   1  16  106.59    6.38
 -17   1  16  101.47    6.68
 -17   1  15  866.38   30.12
 -17   1  15  973.94   33.45
 -17   1  14    3.49    3.86
 -17   1  14    6.23    4.30
 -17   1  12   28.85    4.45
 -17   1  12   29.30    4.67
 -17   1  11  340.69   13.28
 -17   1  11  340.77   13.65
 -17   1  10   50.14    4.75
 -17   1  10   52.59    4.75
  17  -1  -9  471.99   17.65
 -17   1   9  472.21   17.28
  17  -1  -8   31.90    4.67
 -17   1   8   25.52    4.15
  17  -1  -7 1548.81   51.85
 -17   1   7 1543.61   51.33
  17  -1  -6  203.69    9.42
 -17   1   6  203.02    9.12
  17  -1  -5 2435.22   80.11
 -17   1   5 2304.67   75.88
  17  -1  -4    4.52    4.15
 -17   1   4    6.16    3.49
  17  -1  -3   18.54    4.60
 -17   1   3   19.66    4.23
  17  -1  -2  613.22   22.25
 -17   1   2  605.35   21.88
  17  -1  -1 1372.27   46.29
 -17   1   1 1416.03   47.62
  17  -1   0    4.52    4.38
 -17   1   0    9.87    4.23
  17  -1   1  257.17   11.27
 -17   1  -1  263.70   11.42
  17  -1   2   44.06    5.56
 -17   1  -2   35.31    4.45
  17  -1   3 1864.80   62.01
 -17   1  -3 1775.05   59.04
  17  -1   4   25.81    4.82
 -17   1  -4   23.74    4.30
  17  -1   5   97.99    6.60
 -17   1  -5   90.50    6.08
  17  -1   6    1.11    4.52
 -17   1  -6    5.04    4.23
  17  -1   7 1938.23   64.24
 -17   1  -7 1778.01   59.04
  17  -1   8   16.69    4.67
 -17   1  -8   23.37    3.41
  17  -1   9  101.25    7.05
 -17   1  -9   99.32    5.93
  17  -1  10  235.88   10.61
 -17   1 -10  237.22   10.16
  17  -1  11  559.66   20.62
 -17   1 -11  577.98   20.70
  17  -1  12   22.55    5.12
 -17   1 -12   22.92    4.67
  17  -1  13   32.19    4.97
 -17   1 -13   24.70    4.82
  17  -1  14    9.87    4.52
 -17   1 -14   -0.22    4.15
  17  -1  15  364.21   14.09
 -17   1 -15  358.27   13.65
  17  -1  16   35.01    5.27
 -17   1 -16   44.95    5.12
  17  -1  17  277.35   11.72
 -17   1 -17  285.13   11.94
  17  -1  18  104.59    6.82
 -17   1 -18   94.50    6.08
  17  -1  19  683.39   23.88
 -17   1 -19  680.05   23.59
  17  -1  20   12.68    4.75
 -17   1 -20   21.51    4.52
  17  -1  21  510.78   18.17
 -17   1 -21  489.86   17.06
 -16   1  28  108.08    6.60
 -16   1  27    8.01    4.15
 -16   1  27    8.16    4.30
 -16   1  26    6.23    4.15
 -16   1  26    6.08    4.08
 -16   1  25    4.90    3.93
 -16   1  25   -4.01    4.08
 -16   1  24 1724.60   57.12
 -16   1  24 1693.45   55.93
 -16   1  23   35.83    4.38
 -16   1  23   31.75    4.82
 -16   1  22  170.61    8.46
 -16   1  22  172.53    8.53
 -16   1  21    4.45    4.60
 -16   1  21    3.49    4.45
 -16   1  20  885.67   30.78
 -16   1  20  966.52   33.16
 -16   1  19   38.50    4.38
 -16   1  19   43.54    5.27
 -16   1  18  214.59    9.87
 -16   1  18  230.24   10.16
 -16   1  17  147.24    7.64
 -16   1  17  134.93    7.64
 -16   1  16  404.63   15.73
 -16   1  16  415.17   16.10
 -16   1  15   55.63    5.34
 -16   1  15   52.29    5.34
 -16   1  14  471.39   17.65
 -16   1  14  448.99   16.69
 -16   1  13   11.42    4.15
 -16   1  13   18.10    4.45
 -16   1  12 1523.59   51.11
 -16   1  12 1564.38   52.15
 -16   1  11    0.07    3.93
 -16   1  11   10.38    4.08
 -16   1  10 2305.41   75.96
 -16   1  10 2296.51   75.29
  16  -1  -9   10.38    3.93
 -16   1   9   12.54    3.56
  16  -1  -8  682.42   24.18
 -16   1   8  637.92   22.40
  16  -1  -7   19.51    4.52
 -16   1   7   18.69    3.86
  16  -1  -6  207.32    9.49
 -16   1   6  208.51    9.35
  16  -1  -5  153.10    7.79
 -16   1   5  153.69    7.71
  16  -1  -4 1067.40   36.49
 -16   1   4 1145.29   38.87
  16  -1  -3   86.64    6.16
 -16   1   3   83.45    6.01
  16  -1  -2 1719.41   57.26
 -16   1   2 1689.74   56.30
  16  -1  -1   24.18    4.75
 -16   1   1   33.45    4.75
  16  -1   0  106.74    6.90
 -16   1   0   96.73    6.08
  16  -1   1   -1.41    4.45
 -16   1  -1   -7.12    4.08
  16  -1   2 1769.85   58.90
 -16   1  -2 1855.16   61.71
  16  -1   3    1.11    4.23
 -16   1  -3   14.84    4.60
  16  -1   4   -1.63    4.23
 -16   1  -4    1.63    3.71
  16  -1   5  195.01    9.49
 -16   1  -5  189.00    9.42
  16  -1   6 2414.45   79.59
 -16   1  -6 2415.93   79.52
  16  -1   7  123.95    7.79
 -16   1  -7  131.22    7.12
  16  -1   8   82.19    6.75
 -16   1  -8   80.18    5.71
  16  -1   9  106.52    6.75
 -16   1  -9   90.50    5.49
  16  -1  10  357.46   14.24
 -16   1 -10  378.45   14.46
  16  -1  11   93.24    6.75
 -16   1 -11   75.81    5.79
  16  -1  12  106.15    7.12
 -16   1 -12  100.73    6.38
  16  -1  13  290.40   12.54
 -16   1 -13  272.82   11.20
  16  -1  14 1388.59   46.88
 -16   1 -14 1339.63   45.03
  16  -1  15   -1.93    4.97
 -16   1 -15    9.49    3.41
  16  -1  16  441.28   16.91
 -16   1 -16  428.44   15.80
  16  -1  17    2.74    4.82
 -16   1 -17    0.22    2.97
  16  -1  18  171.13    8.53
 -16   1 -18  200.20    9.27
  16  -1  19   -0.96    4.82
 -16   1 -19   -3.86    3.49
  16  -1  20  274.45   11.57
 -16   1 -20  247.38   10.24
  16  -1  21   14.84    4.67
 -16   1 -21   20.99    4.90
  16  -1  22  158.07    7.49
 -16   1 -22  176.47    7.94
 -15   1  29 3286.76  106.59
 -15   1  29 3275.64  106.52
 -15   1  28   53.63    5.56
 -15   1  28   56.75    5.27
 -15   1  27  164.08    8.16
 -15   1  27  183.29    8.46
 -15   1  26   -3.41    4.60
 -15   1  26   -2.89    4.15
 -15   1  25  566.86   20.47
 -15   1  25  615.44   21.81
 -15   1  24    4.52    4.52
 -15   1  24   10.53    4.75
 -15   1  23    0.67    4.23
 -15   1  23   -8.23    4.45
 -15   1  22   26.70    4.30
 -15   1  22   31.08    5.12
 -15   1  21 1458.31   48.73
 -15   1  21 1545.10   51.63
 -15   1  20   55.34    5.64
 -15   1  20   68.76    6.08
 -15   1  19  118.76    7.42
 -15   1  19  129.81    7.05
 -15   1  18    4.90    4.23
 -15   1  18    0.37    4.45
 -15   1  17 1003.61   34.49
 -15   1  17  995.45   34.20
 -15   1  16   37.01    5.04
 -15   1  16   25.52    4.90
 -15   1  15  641.26   23.07
 -15   1  15  625.75   22.40
 -15   1  14   24.85    4.30
 -15   1  14   29.30    4.82
 -15   1  13 2634.01   86.49
 -15   1  13 2656.26   86.71
 -15   1  12  679.98   24.26
 -15   1  12  638.73   22.62
 -15   1  11  686.80   24.33
 -15   1  11  707.20   24.92
 -15   1  10   98.36    6.38
 -15   1  10   99.17    6.38
  15  -1  -9 3245.97  105.92
 -15   1   9 3033.82   99.10
  15  -1  -8  114.45    6.82
 -15   1   8  105.40    6.53
  15  -1  -7 1217.98   41.24
 -15   1   7 1254.33   42.35
  15  -1  -6  673.75   24.18
 -15   1   6  549.50   19.88
  15  -1  -5   31.01    4.97
 -15   1   5   39.02    4.75
  15  -1  -4    2.37    4.08
 -15   1   4    1.41    3.78
  15  -1  -3 1934.52   64.09
 -15   1   3 1849.22   61.49
  15  -1  -2    0.00    4.08
 -15   1   2    3.63    4.01
  15  -1  -1  109.56    6.82
 -15   1   1  102.81    6.68
  15  -1   0  193.90    9.35
 -15   1   0  200.13    9.35
  15  -1   1 1565.87   52.37
 -15   1  -1 1574.03   52.89
  15  -1   2   86.56    6.38
 -15   1  -2  100.81    6.75
  15  -1   3    1.56    4.30
 -15   1  -3    3.12    3.63
  15  -1   4   19.43    4.67
 -15   1  -4    9.72    4.38
  15  -1   5 1016.96   35.01
 -15   1  -5  924.98   31.97
  15  -1   6   -0.15    4.75
 -15   1  -6    7.49    4.15
  15  -1   7   48.36    5.56
 -15   1  -7   31.08    4.75
  15  -1   8  148.65    8.23
 -15   1  -8  164.38    8.31
  15  -1   9 1449.41   48.81
 -15   1  -9 1525.81   50.74
  15  -1  10    6.53    4.75
 -15   1 -10    0.00    3.86
  15  -1  11  671.97   24.11
 -15   1 -11  649.86   23.07
  15  -1  12   -5.27    4.52
 -15   1 -12   -2.74    2.89
  15  -1  13  947.98   32.86
 -15   1 -13  924.24   31.67
  15  -1  14   19.88    5.27
 -15   1 -14   17.88    4.52
  15  -1  15   89.61    6.90
 -15   1 -15   90.50    6.45
  15  -1  16   73.06    6.45
 -15   1 -16   65.57    5.86
  15  -1  17 1008.06   34.49
 -15   1 -17  955.39   32.64
  15  -1  18    0.00    4.60
 -15   1 -18    1.78    4.30
  15  -1  19 1143.80   38.79
 -15   1 -19 1178.67   39.98
  15  -1  20  113.12    6.97
 -15   1 -20  122.32    6.82
  15  -1  21  270.67   11.72
 -15   1 -21  266.29   10.61
  15  -1  22    4.82    3.78
 -15   1 -22   -6.08    3.71
  15  -1  23  438.16   16.17
 -15   1 -23  445.95   16.10
  15  -1  24    4.30    4.67
 -15   1 -24    6.68    4.08
 -14   1  30  215.85    9.42
 -14   1  29   91.68    6.01
 -14   1  29  104.81    6.16
 -14   1  28  390.98   14.61
 -14   1  28  363.32   13.87
 -14   1  27   43.17    4.75
 -14   1  27   40.72    4.52
 -14   1  26 1338.15   44.73
 -14   1  26 1310.70   43.91
 -14   1  25    1.41    3.93
 -14   1  25    5.86    4.01
 -14   1  24   65.79    5.64
 -14   1  24   84.26    6.38
 -14   1  23   13.35    4.82
 -14   1  23    5.86    4.60
 -14   1  22 1407.87   47.40
 -14   1  22 1344.08   45.10
 -14   1  21   -5.34    4.23
 -14   1  21    1.04    4.52
 -14   1  20   68.84    5.49
 -14   1  20   67.35    6.23
 -14   1  19    5.27    4.52
 -14   1  19    4.08    4.52
 -14   1  18 1184.60   40.20
 -14   1  18 1177.18   39.91
 -14   1  17    6.97    4.38
 -14   1  17    0.96    4.23
 -14   1  16  249.68   10.76
 -14   1  16  260.43   10.90
 -14   1  15   68.76    5.79
 -14   1  15   51.26    4.52
 -14   1  14  855.26   29.82
 -14   1  14  945.01   32.42
 -14   1  13   32.19    4.75
 -14   1  13   27.30    4.67
 -14   1  12   90.12    6.16
 -14   1  12   94.65    6.31
 -14   1  11  197.31    8.98
 -14   1  11  205.54    9.42
 -14   1  10   14.32    3.86
 -14   1  10   18.69    4.01
  14  -1  -9   88.79    6.23
 -14   1   9  104.22    6.31
  14  -1  -8 2137.03   70.54
 -14   1   8 2050.24   67.72
  14  -1  -7  230.17   10.31
 -14   1   7  211.92    9.72
  14  -1  -6    5.04    4.52
 -14   1   6   17.43    4.52
  14  -1  -5   57.71    5.49
 -14   1   5   70.91    6.08
  14  -1  -4 2188.21   72.17
 -14   1   4 2243.84   74.18
  14  -1  -3  499.43   18.54
 -14   1   3  527.84   19.58
  14  -1  -2   14.32    4.45
 -14   1   2    9.72    4.52
  14  -1  -1   27.74    5.04
 -14   1   1   23.51    4.52
  14  -1   0 2295.02   75.66
 -14   1   0 2132.58   70.69
  14  -1   1  362.58   14.54
 -14   1  -1  382.90   15.35
  14  -1   2   46.21    5.34
 -14   1  -2   52.96    6.16
  14  -1   3   27.45    5.12
 -14   1  -3   23.07    4.75
  14  -1   4 2064.33   68.39
 -14   1  -4 1993.87   66.09
  14  -1   5  109.93    7.27
 -14   1  -5  108.30    6.53
  14  -1   6  319.48   13.28
 -14   1  -6  310.13   12.91
  14  -1   7  107.93    7.12
 -14   1  -7  115.42    6.68
  14  -1   8  598.09   21.96
 -14   1  -8  583.55   20.99
  14  -1   9    9.72    4.90
 -14   1  -9   14.91    3.86
  14  -1  10  328.01   13.43
 -14   1 -10  321.85   12.91
  14  -1  11   85.30    6.90
 -14   1 -11   93.68    5.56
  14  -1  12 1795.07   59.79
 -14   1 -12 1735.73   57.41
  14  -1  13  304.49   12.76
 -14   1 -13  302.64   12.39
  14  -1  14 1083.72   37.09
 -14   1 -14 1127.48   38.28
  14  -1  15    7.42    4.75
 -14   1 -15    9.94    3.41
  14  -1  16   37.90    4.97
 -14   1 -16   39.02    4.38
  14  -1  17  153.03    8.09
 -14   1 -17  135.37    6.97
  14  -1  18  294.63   12.54
 -14   1 -18  284.84   11.35
  14  -1  19   -1.48    4.75
 -14   1 -19    4.08    3.12
  14  -1  20  288.55   12.02
 -14   1 -20  280.31   11.65
  14  -1  21    1.78    4.97
 -14   1 -21   10.38    4.30
  14  -1  22  555.73   20.25
 -14   1 -22  628.65   22.10
  14  -1  23    5.41    4.60
 -14   1 -23    3.19    4.60
  14  -1  24  164.60    8.16
 -14   1 -24  173.57    7.42
  14  -1  25   23.81    4.82
 -14   1 -25   23.14    4.01
 -13   1  30  400.63   14.98
 -13   1  30  402.26   14.84
 -13   1  29   -2.45    4.38
 -13   1  29   -3.34    4.23
 -13   1  28   92.50    6.45
 -13   1  28   88.72    6.31
 -13   1  27  811.49   28.19
 -13   1  27  733.75   25.67
 -13   1  26   42.80    5.49
 -13   1  26   54.67    5.41
 -13   1  25    6.01    4.82
 -13   1  25   -3.71    4.52
 -13   1  24   49.03    5.86
 -13   1  24   56.75    5.64
 -13   1  23 1311.44   44.14
 -13   1  23 1264.71   42.87
 -13   1  22    8.01    3.86
 -13   1  22    3.86    4.52
 -13   1  21   44.36    5.19
 -13   1  21   53.70    5.79
 -13   1  20    0.89    4.38
 -13   1  20    2.08    4.45
 -13   1  19 1291.41   43.69
 -13   1  19 1156.41   39.46
 -13   1  18   92.13    6.53
 -13   1  18   89.53    6.08
 -13   1  17  154.81    7.79
 -13   1  17  143.75    7.49
 -13   1  16  164.38    8.46
 -13   1  16  180.32    8.60
 -13   1  15 1510.23   50.59
 -13   1  15 1518.39   50.74
 -13   1  14   48.81    5.04
 -13   1  14   39.83    4.82
 -13   1  12  616.04   22.18
 -13   1  12  696.81   24.40
 -13   1  11 1029.57   35.38
 -13   1  11 1022.89   34.86
 -13   1  10  162.22    8.46
 -13   1  10  155.92    7.94
  13  -1  -9 2542.03   83.75
 -13   1   9 2210.46   72.77
  13  -1  -8 1145.29   38.94
 -13   1   8 1001.38   34.34
  13  -1  -7 6566.11  212.07
 -13   1   7 6560.92  211.92
  13  -1  -6   24.55    4.82
 -13   1   6   15.87    4.75
  13  -1  -5 3481.11  113.42
 -13   1   5 3462.56  113.05
  13  -1  -4   59.27    5.64
 -13   1   4   59.19    5.71
  13  -1  -3  180.55    9.05
 -13   1   3  166.90    8.68
  13  -1  -2   21.14    4.82
 -13   1   2   14.54    4.90
  13  -1  -1 1480.56   49.70
 -13   1   1 1442.73   48.59
  13  -1   0  152.80    8.16
 -13   1   0  127.58    7.49
  13  -1   1  157.18    8.31
 -13   1  -1  176.99    8.83
  13  -1   2   39.61    5.12
 -13   1  -2   36.49    5.19
  13  -1   3 1502.08   50.44
 -13   1  -3 1545.10   51.85
  13  -1   4  125.06    7.57
 -13   1  -4  132.63    7.57
  13  -1   5   33.60    5.04
 -13   1  -5   36.05    5.41
  13  -1   6  151.91    8.16
 -13   1  -6  144.35    8.23
  13  -1   7 2199.33   72.69
 -13   1  -7 2312.82   76.03
  13  -1   8  203.02    9.94
 -13   1  -8  200.80    8.90
  13  -1   9    5.93    4.60
 -13   1  -9   11.72    4.30
  13  -1  10  718.70   25.67
 -13   1 -10  677.16   23.96
  13  -1  11 1468.70   49.48
 -13   1 -11 1536.20   51.18
  13  -1  12  591.71   21.81
 -13   1 -12  566.86   20.25
  13  -1  13  375.56   15.06
 -13   1 -13  411.53   15.73
  13  -1  14   43.47    5.34
 -13   1 -14   40.72    5.34
  13  -1  15 1094.10   37.38
 -13   1 -15  968.00   33.45
  13  -1  16  770.69   27.22
 -13   1 -16  764.02   26.85
  13  -1  17 1461.28   49.03
 -13   1 -17 1469.44   49.33
  13  -1  18  209.47   10.09
 -13   1 -18  189.82    8.90
  13  -1  19  404.93   15.80
 -13   1 -19  408.49   15.35
  13  -1  20    9.27    5.04
 -13   1 -20    2.82    4.08
  13  -1  21  830.78   28.93
 -13   1 -21  775.15   27.22
  13  -1  22    5.86    4.97
 -13   1 -22    4.30    4.38
  13  -1  23  135.67    7.27
 -13   1 -23  140.27    6.97
  13  -1  24    0.67    3.93
 -13   1 -24    0.00    3.19
  13  -1  25  650.53   22.85
 -13   1 -25  651.72   22.55
  13  -1  26    2.82    4.45
 -13   1 -26    3.78    4.30
 -12   1  31   18.40    4.67
 -12   1  31   11.50    4.23
 -12   1  30  123.06    6.60
 -12   1  30  110.08    6.31
 -12   1  29    1.19    4.38
 -12   1  29    8.53    4.01
 -12   1  28  487.93   17.88
 -12   1  28  547.65   19.88
 -12   1  27   40.72    5.27
 -12   1  27   37.68    5.34
 -12   1  26  101.55    7.05
 -12   1  26  107.41    6.82
 -12   1  25   33.01    5.27
 -12   1  25   36.79    5.56
 -12   1  24 1204.63   40.80
 -12   1  24 1165.31   39.76
 -12   1  23    7.12    4.01
 -12   1  23    5.79    4.97
 -12   1  22   53.04    5.19
 -12   1  22   44.80    5.71
 -12   1  21    2.89    4.45
 -12   1  21   -0.30    4.38
 -12   1  20 1195.73   40.65
 -12   1  20 1128.23   38.42
 -12   1  19   77.59    5.71
 -12   1  19   98.80    6.23
 -12   1  18  333.13   13.57
 -12   1  18  367.77   14.32
 -12   1  17    2.67    3.86
 -12   1  17    0.96    4.23
 -12   1  16  729.30   25.81
 -12   1  16  642.37   22.85
 -12   1  15    1.48    4.23
 -12   1  15   -0.67    4.08
 -12   1  14  328.53   13.43
 -12   1  14  373.55   14.32
 -12   1  13    9.42    4.52
 -12   1  13    9.20    4.15
 -12   1  12 1306.99   43.84
 -12   1  12 1367.82   46.21
 -12   1  11  812.23   28.48
 -12   1  11  827.81   28.56
 -12   1  10  708.02   25.00
 -12   1  10  737.32   26.04
 -12   1   9    6.31    4.01
 -12   1   9    7.57    4.15
  12  -1  -8   40.06    4.97
 -12   1   8   38.57    5.04
  12  -1  -7  403.59   15.50
 -12   1   7  404.78   15.73
  12  -1  -6  269.93   11.57
 -12   1   6  261.69   11.27
  12  -1  -5   32.42    4.52
 -12   1   5   30.04    4.52
  12  -1  -4  325.56   12.98
 -12   1   4  306.13   12.54
  12  -1  -3  155.18    7.86
 -12   1   3  166.67    8.60
  12  -1  -2 2684.45   87.83
 -12   1   2 2648.84   86.86
  12  -1  -1   68.91    5.64
 -12   1   1   78.03    6.08
  12  -1   0  183.59    8.90
 -12   1   0  201.02    9.57
  12  -1   1   22.77    4.75
 -12   1  -1   35.98    4.60
  12  -1   2 2250.52   74.10
 -12   1  -2 2520.52   82.78
  12  -1   3  286.02   11.94
 -12   1  -3  311.62   12.98
  12  -1   4    2.52    4.52
 -12   1  -4   10.83    4.45
  12  -1   5  186.70    9.20
 -12   1  -5  174.24    8.60
  12  -1   6 1196.47   40.65
 -12   1  -6 1267.68   42.65
  12  -1   7  300.19   12.46
 -12   1  -7  317.40   12.98
  12  -1   8  540.45   19.95
 -12   1  -8  548.16   20.18
  12  -1   9   28.34    5.12
 -12   1  -9   26.11    4.01
  12  -1  10  275.27   12.09
 -12   1 -10  242.78   10.31
  12  -1  11  812.23   28.63
 -12   1 -11  800.37   27.96
  12  -1  12 3182.92  104.07
 -12   1 -12 2783.10   91.16
  12  -1  13  241.44   10.90
 -12   1 -13  225.87    9.94
  12  -1  14 2309.86   76.33
 -12   1 -14 2310.60   76.18
  12  -1  15  218.38   10.46
 -12   1 -15  233.14   10.61
  12  -1  16  706.68   25.22
 -12   1 -16  729.08   26.04
  12  -1  17   73.14    6.16
 -12   1 -17   75.51    5.56
  12  -1  18 1005.83   34.64
 -12   1 -18 1057.02   36.12
  12  -1  19   37.83    5.79
 -12   1 -19   43.62    4.67
  12  -1  20  463.01   17.58
 -12   1 -20  474.36   17.36
  12  -1  21   65.79    6.23
 -12   1 -21   59.49    5.56
  12  -1  22  142.94    8.38
 -12   1 -22  113.19    7.34
  12  -1  23   -0.82    4.60
 -12   1 -23    2.30    3.86
  12  -1  24  431.19   16.17
 -12   1 -24  448.25   16.24
  12  -1  25   25.44    4.67
 -12   1 -25   48.29    5.12
  12  -1  26  320.15   12.68
 -12   1 -26  335.72   12.91
  12  -1  27    6.53    3.86
 -12   1 -27    4.75    3.04
 -11   1  32   21.81    4.30
 -11   1  32   12.16    4.08
 -11   1  31   10.98    4.60
 -11   1  31   11.27    4.60
 -11   1  30    0.00    4.45
 -11   1  30    1.11    4.60
 -11   1  29 2036.15   66.83
 -11   1  29 1821.78   60.08
 -11   1  28   46.51    4.97
 -11   1  28   47.84    5.49
 -11   1  27    3.41    4.45
 -11   1  27   -1.34    4.67
 -11   1  26   96.95    6.82
 -11   1  26  104.81    7.05
 -11   1  25  235.44   10.53
 -11   1  25  243.00   10.98
 -11   1  24   -4.60    4.60
 -11   1  24   11.87    5.12
 -11   1  23   39.09    5.34
 -11   1  23   31.01    5.04
 -11   1  22   35.83    4.75
 -11   1  22   34.86    5.41
 -11   1  21 1103.75   37.61
 -11   1  21 1210.56   41.09
 -11   1  20   81.37    6.31
 -11   1  20   76.40    5.79
 -11   1  19  192.34    8.98
 -11   1  19  179.66    8.83
 -11   1  18   15.28    4.82
 -11   1  18   11.65    4.52
 -11   1  17 2311.34   76.25
 -11   1  17 2082.88   68.46
 -11   1  16  224.24   10.24
 -11   1  16  245.30   10.46
 -11   1  15 2148.15   71.06
 -11   1  15 2122.19   69.80
 -11   1  14   69.50    6.08
 -11   1  14   72.40    5.56
 -11   1  13  311.84   12.98
 -11   1  13  294.18   12.02
 -11   1  12  116.98    6.75
 -11   1  12  134.70    7.27
 -11   1  11  334.91   13.13
 -11   1  11  358.94   14.02
 -11   1  10   11.35    4.08
 -11   1  10    9.35    4.30
 -11   1   9  469.76   17.51
 -11   1   9  423.55   15.87
  11  -1  -8  547.87   19.81
 -11   1   8  515.68   18.84
  11  -1  -7 2460.44   80.63
 -11   1   7 2460.44   80.70
  11  -1  -6 1510.98   50.37
 -11   1   6 1438.28   48.07
  11  -1  -5  203.84    9.20
 -11   1   5  224.01    9.87
  11  -1  -4   46.81    4.90
 -11   1   4   50.44    4.82
  11  -1  -3 1608.15   53.41
 -11   1   3 1490.21   49.77
  11  -1  -2   22.85    4.52
 -11   1   2   17.95    4.45
  11  -1  -1  456.48   16.99
 -11   1   1  426.59   16.02
  11  -1   0    5.27    3.86
 -11   1   0    4.30    4.15
  11  -1   1 2510.88   82.34
 -11   1  -1 2496.04   81.59
  11  -1   2  144.20    7.49
 -11   1  -2  135.67    7.12
  11  -1   3   -0.82    4.30
 -11   1  -3   -6.08    4.30
  11  -1   4    5.64    4.38
 -11   1  -4    6.53    4.15
  11  -1   5 1669.71   55.63
 -11   1  -5 1839.58   60.82
  11  -1   6  575.09   21.07
 -11   1  -6  600.09   21.44
  11  -1   7   27.15    4.82
 -11   1  -7   24.03    4.75
  11  -1   8   36.27    5.19
 -11   1  -8   31.60    4.67
  11  -1   9 5203.49  168.53
 -11   1  -9 4933.48  159.63
  11  -1  10  254.35   11.13
 -11   1 -10  284.32   11.79
  11  -1  11  198.27    9.79
 -11   1 -11  215.19    9.72
  11  -1  12  583.47   21.36
 -11   1 -12  582.73   20.99
  11  -1  13 1477.60   49.70
 -11   1 -13 1557.71   52.22
  11  -1  14  151.47    8.60
 -11   1 -14  141.90    8.01
  11  -1  15  251.01   11.50
 -11   1 -15  238.03   10.46
  11  -1  16   10.24    5.64
 -11   1 -16   -5.27    3.41
  11  -1  17 1327.76   44.95
 -11   1 -17 1229.11   41.84
  11  -1  18   42.73    5.19
 -11   1 -18   40.57    5.04
  11  -1  19 1299.57   44.14
 -11   1 -19 1324.79   44.58
  11  -1  20  101.55    6.82
 -11   1 -20   94.13    5.64
  11  -1  21   87.23    6.90
 -11   1 -21  101.10    5.71
  11  -1  22   -0.52    5.12
 -11   1 -22    3.34    4.38
  11  -1  23  602.24   21.66
 -11   1 -23  648.45   23.37
  11  -1  24   40.28    5.04
 -11   1 -24   53.63    4.82
  11  -1  25   66.17    5.71
 -11   1 -25   73.58    5.41
  11  -1  26   19.14    4.67
 -11   1 -26   12.16    4.45
  11  -1  27  297.52   11.87
 -11   1 -27  300.64   11.79
  11  -1  28    4.52    4.01
 -11   1 -28   -1.41    3.63
 -10   1  32    1.26    3.19
 -10   1  32    0.15    3.86
 -10   1  31   51.26    5.71
 -10   1  31   42.21    5.12
 -10   1  29    1.11    3.34
 -10   1  29   -4.08    4.45
 -10   1  28  166.01    8.31
 -10   1  28  169.35    8.53
 -10   1  27  111.56    7.27
 -10   1  27  108.22    6.68
 -10   1  26 1293.64   43.62
 -10   1  26 1222.43   41.46
 -10   1  25   37.76    5.56
 -10   1  25   43.91    5.64
 -10   1  24  107.19    7.20
 -10   1  24  127.14    8.01
 -10   1  23  167.56    8.75
 -10   1  23  166.23    8.60
 -10   1  21   14.91    4.45
 -10   1  21   17.73    4.67
 -10   1  20  193.75    9.12
 -10   1  20  211.25    9.72
 -10   1  19   40.50    5.41
 -10   1  19   45.99    5.34
 -10   1  17   78.11    6.16
 -10   1  17   59.56    5.34
 -10   1  16  689.10   24.63
 -10   1  16  685.32   24.11
 -10   1  15  130.48    7.27
 -10   1  15  111.04    6.45
 -10   1  14 1697.16   56.45
 -10   1  14 1716.45   56.97
 -10   1  13   20.03    4.30
 -10   1  13   22.48    4.45
 -10   1  12  845.61   29.23
 -10   1  12  818.91   28.41
 -10   1  11 1341.11   45.03
 -10   1  11 1274.35   42.73
 -10   1  10  250.94   10.83
 -10   1  10  267.70   11.05
 -10   1   9  477.70   17.65
 -10   1   9  543.94   19.95
  10  -1  -8 3265.25  106.59
 -10   1   8 2856.54   93.46
  10  -1  -7  436.23   16.17
 -10   1   7  440.16   16.62
  10  -1  -6  301.08   11.87
 -10   1   6  297.37   12.09
  10  -1  -5   51.40    4.90
 -10   1   5   58.60    5.41
  10  -1  -4  301.60   11.94
 -10   1   4  307.31   12.54
  10  -1  -3  879.73   30.04
 -10   1   3  885.67   30.63
  10  -1  -2 1219.46   40.95
 -10   1   2 1162.35   39.31
  10  -1  -1   75.44    5.64
 -10   1   1   91.16    6.08
  10  -1   0 2577.64   84.34
 -10   1   0 2538.32   83.08
  10  -1   1  141.53    7.57
 -10   1  -1  153.99    7.71
  10  -1   2   12.68    4.30
 -10   1  -2   13.87    4.38
  10  -1   3   17.58    4.30
 -10   1  -3   27.07    4.60
  10  -1   4 3193.30  104.00
 -10   1  -4 3244.48  105.40
  10  -1   5  237.66   10.31
 -10   1  -5  229.80    9.87
  10  -1   6  762.54   26.70
 -10   1  -6  767.73   26.41
  10  -1   7   25.74    4.90
 -10   1  -7   38.87    4.75
  10  -1   8  140.42    7.86
 -10   1  -8  127.58    7.34
  10  -1   9   16.62    4.90
 -10   1  -9   19.14    4.45
  10  -1  10  229.21   10.61
 -10   1 -10  231.58    9.79
  10  -1  11  286.99   12.16
 -10   1 -11  279.57   11.79
  10  -1  12  563.07   20.70
 -10   1 -12  526.73   19.58
  10  -1  13   83.75    6.38
 -10   1 -13   84.71    6.16
  10  -1  14 1925.62   64.01
 -10   1 -14 1841.06   61.20
  10  -1  15  143.09    8.01
 -10   1 -15  140.49    8.23
  10  -1  16  378.45   14.98
 -10   1 -16  414.50   16.39
  10  -1  17   25.74    5.86
 -10   1 -17   33.82    5.56
  10  -1  18  599.49   22.10
 -10   1 -18  600.83   21.96
  10  -1  19    8.31    5.27
 -10   1 -19   -3.34    4.90
  10  -1  20  530.96   19.88
 -10   1 -20  521.68   19.36
  10  -1  21   21.51    5.64
 -10   1 -21    7.12    4.23
  10  -1  22  725.22   25.81
 -10   1 -22  761.05   26.41
  10  -1  23   20.03    4.82
 -10   1 -23   23.14    4.52
  10  -1  24  307.91   12.54
 -10   1 -24  303.31   12.68
  10  -1  25    9.27    4.52
 -10   1 -25    5.56    3.71
  10  -1  26  999.16   34.12
 -10   1 -26  919.05   31.45
  10  -1  27   39.46    5.12
 -10   1 -27   33.01    4.90
  10  -1  28   -3.63    4.67
 -10   1 -28   -1.41    2.97
  10  -1  29  318.22   12.46
 -10   1 -29  354.04   13.28
  -9   1  33  462.71   16.99
  -9   1  33  479.18   17.06
  -9   1  32   51.55    4.45
  -9   1  32   51.40    4.82
  -9   1  31  497.58   18.17
  -9   1  31  547.57   19.66
  -9   1  30   98.43    6.45
  -9   1  30  102.36    6.53
  -9   1  29   53.70    5.12
  -9   1  29   49.99    5.79
  -9   1  27 1099.30   37.61
  -9   1  27 1111.91   37.90
  -9   1  26    1.04    4.38
  -9   1  26    1.71    4.90
  -9   1  25   -0.07    3.41
  -9   1  25    0.07    4.60
  -9   1  24   16.24    3.78
  -9   1  24   19.29    4.75
  -9   1  22   -1.85    3.41
  -9   1  22   -7.94    4.08
  -9   1  21  316.29   12.91
  -9   1  21  330.90   13.20
  -9   1  20   49.25    5.71
  -9   1  20   68.46    5.93
  -9   1  19 1513.20   50.81
  -9   1  19 1387.84   46.36
  -9   1  18  158.00    8.23
  -9   1  18  166.30    8.16
  -9   1  17  281.50   11.94
  -9   1  17  263.99   11.05
  -9   1  16  579.47   21.14
  -9   1  16  556.99   20.03
  -9   1  15 2615.47   85.67
  -9   1  15 2458.95   80.85
  -9   1  14  444.32   16.54
  -9   1  14  465.61   17.21
  -9   1  13 1421.96   47.62
  -9   1  13 1431.61   47.77
  -9   1  12    4.38    3.93
  -9   1  12    6.82    3.93
  -9   1  11    4.97    4.23
  -9   1  11    7.86    3.86
  -9   1  10  163.78    8.23
  -9   1  10  141.75    7.64
  -9   1   9   93.91    6.08
  -9   1   9   84.71    5.93
   9  -1  -7 2841.70   92.57
  -9   1   7 2648.84   86.56
   9  -1  -6  460.34   16.84
  -9   1   6  446.84   16.54
   9  -1  -5 2220.85   72.77
  -9   1   5 2384.78   77.89
   9  -1  -4   91.68    5.71
  -9   1   4   97.99    5.79
   9  -1  -3   -1.34    3.49
  -9   1   3    2.67    3.56
   9  -1  -2  336.84   13.06
  -9   1   2  322.15   12.31
   9  -1  -1 3239.29  105.33
  -9   1   1 3528.58  114.31
   9  -1   0    9.87    4.01
  -9   1   0   12.61    3.78
   9  -1   1    6.45    4.30
  -9   1  -1    4.23    3.78
   9  -1   2    0.89    4.01
  -9   1  -2   -1.71    3.93
   9  -1   3 2319.50   76.11
  -9   1  -3 2309.86   75.66
   9  -1   4  420.43   15.80
  -9   1  -4  412.64   15.50
   9  -1   5   38.65    5.04
  -9   1  -5   38.05    4.97
   9  -1   6   36.57    4.90
  -9   1  -6   38.87    4.38
   9  -1   7 5271.73  170.46
  -9   1  -7 4985.41  161.11
   9  -1   8   13.13    4.67
  -9   1  -8    6.31    3.86
   9  -1   9 3133.96  102.36
  -9   1  -9 3084.26  100.51
   9  -1  10   15.35    4.82
  -9   1 -10   17.21    4.82
   9  -1  11  571.75   20.70
  -9   1 -11  567.23   20.62
   9  -1  12  476.66   18.02
  -9   1 -12  473.69   17.43
   9  -1  13  216.45   10.31
  -9   1 -13  274.90   12.16
   9  -1  14   38.05    5.79
  -9   1 -14   45.03    5.04
   9  -1  15 2910.69   95.47
  -9   1 -15 2916.62   95.69
   9  -1  16  176.61    9.49
  -9   1 -16  179.58    9.27
   9  -1  17  769.95   27.30
  -9   1 -17  795.91   28.26
   9  -1  18  413.31   16.17
  -9   1 -18  459.00   17.73
   9  -1  19  737.17   26.33
  -9   1 -19  715.95   25.52
   9  -1  20   35.46    6.01
  -9   1 -20   39.24    5.04
   9  -1  21  630.28   22.85
  -9   1 -21  657.87   23.22
   9  -1  22   13.06    3.93
  -9   1 -22   10.68    4.30
   9  -1  23  279.57   11.94
  -9   1 -23  279.72   11.72
   9  -1  24   74.47    6.08
  -9   1 -24   69.58    5.27
   9  -1  25 1272.87   42.87
  -9   1 -25 1193.50   40.20
   9  -1  26    8.68    3.71
  -9   1 -26    5.93    4.38
   9  -1  27   72.40    5.71
  -9   1 -27   76.70    5.56
   9  -1  28   29.37    5.27
  -9   1 -28   32.42    4.90
   9  -1  29  315.40   12.46
  -9   1 -29  319.03   11.94
   9  -1  30    2.89    3.19
  -9   1 -30    6.08    4.08
   8  -1 -33  184.40    8.16
  -8   1  33  194.94    8.83
   8  -1 -32  682.65   23.88
  -8   1  32  635.54   22.40
   8  -1 -31  227.43   10.09
  -8   1  31  230.02   10.16
   8  -1 -30   15.28    4.30
  -8   1  30   19.88    3.86
   8  -1 -29   59.04    4.75
  -8   1  29   47.84    6.01
   8  -1 -28 1241.72   41.84
  -8   1  28 1056.27   36.12
   8  -1 -27  135.37    7.05
  -8   1  27  135.52    7.12
   8  -1 -26   21.29    3.86
  -8   1  26   32.27    5.41
   8  -1 -25  142.42    7.42
  -8   1  25  145.02    8.38
   8  -1 -24 1154.19   39.24
  -8   1  24 1232.07   41.76
   8  -1 -23   12.46    4.45
  -8   1  23    2.30    4.52
   8  -1 -22  465.68   17.51
  -8   1  22  515.45   19.21
   8  -1 -21   17.06    4.52
  -8   1  21   16.24    4.90
   8  -1 -20  991.00   33.97
  -8   1  20 1108.94   37.98
  -8   1  19    1.78    4.45
  -8   1  19    0.82    3.71
  -8   1  18  233.36   10.38
  -8   1  18  223.49    9.79
  -8   1  17  129.66    7.71
  -8   1  17  128.70    6.97
  -8   1  16 1128.23   38.20
  -8   1  16 1220.20   41.17
  -8   1  15  172.31    8.31
  -8   1  15  157.40    8.09
  -8   1  14   10.24    4.15
  -8   1  14   11.57    4.01
  -8   1  12 3032.34   99.03
  -8   1  12 3298.63  107.56
  -8   1  11    2.74    3.93
  -8   1  11   -0.45    4.08
  -8   1  10 3251.90  105.78
  -8   1  10 3225.20  104.96
  -8   1   9   32.64    4.52
  -8   1   9   41.17    4.60
  -8   1   8  225.27    9.64
  -8   1   8  219.12    9.35
   8  -1  -7  334.31   12.91
  -8   1   7  314.95   12.16
   8  -1  -6 2990.06   97.32
  -8   1   6 2889.92   94.06
   8  -1  -5  120.46    6.53
  -8   1   5  128.18    6.45
   8  -1  -4  787.01   26.93
  -8   1   4  764.02   26.26
   8  -1  -3  633.17   22.10
  -8   1   3  590.07   20.70
   8  -1  -2 5763.52  185.89
   8  -1  -1   39.24    4.67
  -8   1   1   33.90    4.23
   8  -1   0   50.81    4.82
  -8   1   0   51.85    4.90
   8  -1   1    1.78    4.08
  -8   1  -1   -0.45    3.26
   8  -1   2 3995.89  129.51
  -8   1  -2 3691.03  119.65
   8  -1   3  300.34   12.16
  -8   1  -3  308.06   12.16
   8  -1   4  747.70   26.26
  -8   1  -4  708.76   24.48
   8  -1   5   22.03    4.30
  -8   1  -5   18.99    3.86
   8  -1   6 3768.91  122.32
  -8   1  -6 3606.46  117.20
   8  -1   7  125.51    6.82
  -8   1  -7  116.09    7.05
   8  -1   8   19.36    4.75
  -8   1  -8   25.29    4.75
   8  -1   9  405.60   15.65
  -8   1  -9  400.48   15.06
   8  -1  10 3556.02  115.79
  -8   1 -10 3622.78  117.87
   8  -1  11   64.83    5.56
  -8   1 -11   65.13    6.16
   8  -1  12  180.55    9.20
  -8   1 -12  196.79    9.20
   8  -1  13  159.03    8.46
  -8   1 -13  165.04    8.75
   8  -1  14 1456.09   48.96
  -8   1 -14 1387.10   46.66
   8  -1  15  384.53   15.35
  -8   1 -15  403.37   15.80
   8  -1  16  338.10   14.09
  -8   1 -16  360.13   14.69
   8  -1  17  196.12    9.57
  -8   1 -17  209.62   10.16
   8  -1  18  498.39   18.84
  -8   1 -18  519.90   19.43
   8  -1  19   -1.85    4.90
  -8   1 -19   -2.52    4.01
   8  -1  20  371.85   14.69
  -8   1 -20  374.81   14.46
   8  -1  21  107.56    7.20
  -8   1 -21  122.91    6.97
   8  -1  22  483.93   18.54
  -8   1 -22  487.71   18.02
   8  -1  23   24.33    5.71
  -8   1 -23   37.90    4.60
   8  -1  24 1270.64   43.02
  -8   1 -24 1277.32   43.10
   8  -1  25   10.16    4.45
  -8   1 -25    3.12    4.82
   8  -1  26  226.39    9.79
  -8   1 -26  220.08    9.27
   8  -1  27   42.06    5.27
  -8   1 -27   56.08    5.79
   8  -1  28 1232.07   41.54
  -8   1 -28 1304.77   43.47
   8  -1  29   13.87    4.45
  -8   1 -29   15.50    4.60
   8  -1  30  236.03    9.94
  -8   1 -30  261.62   10.31
   7  -1 -33  225.65    9.57
  -7   1  33  194.05    8.75
   7  -1 -32  118.83    6.75
  -7   1  32  104.14    6.60
   7  -1 -31  441.35   16.54
  -7   1  31  472.95   17.43
   7  -1 -30    9.94    3.63
  -7   1  30   13.43    5.12
   7  -1 -29 1297.35   43.62
  -7   1  29 1333.69   44.88
   7  -1 -28   -0.89    4.52
  -7   1  28   -0.74    4.38
   7  -1 -27   83.60    6.31
  -7   1  27   70.17    6.23
   7  -1 -26  125.95    7.34
  -7   1  26  128.03    6.90
   7  -1 -25 1185.34   40.28
  -7   1  25 1207.59   40.95
   7  -1 -24   11.65    4.75
  -7   1  24   10.46    5.12
   7  -1 -23  258.51   11.50
  -7   1  23  232.54   10.76
   7  -1 -22   41.32    5.19
  -7   1  22   41.46    5.34
   7  -1 -21 1445.70   48.59
  -7   1  21 1543.61   51.63
   7  -1 -20    4.23    4.15
  -7   1  20    4.97    4.52
   7  -1 -19  128.40    7.12
  -7   1  19  128.40    7.79
   7  -1 -18   53.48    5.04
  -7   1  18   64.98    6.01
   7  -1 -17 2337.30   76.85
  -7   1  17 2527.94   82.86
   7  -1 -16  105.85    6.31
  -7   1  16   91.83    6.31
   7  -1 -15 2022.05   66.83
  -7   1  15 1674.16   55.63
  -7   1  14  870.09   30.19
  -7   1  14  810.01   27.96
  -7   1  13    6.38    4.23
  -7   1  13   12.31    4.08
  -7   1  12   43.99    4.97
  -7   1  12   49.85    4.90
  -7   1  11   87.60    5.79
  -7   1  11   93.31    5.93
  -7   1  10  276.16   10.98
  -7   1  10  278.24   11.27
  -7   1   8  968.00   32.71
  -7   1   8  907.18   30.93
   7  -1  -6    1.71    3.63
  -7   1   6    3.26    3.93
   7  -1  -5  525.10   18.69
  -7   1   5  489.94   17.43
   7  -1  -4   10.31    3.78
  -7   1   4    7.79    3.63
   7  -1  -2   27.74    4.30
  -7   1   2   12.61    3.86
   7  -1  -1    2.37    3.93
  -7   1   1    3.78    3.86
   7  -1   0   38.94    4.60
  -7   1   0   33.53    4.45
   7  -1   1 2851.35   92.79
  -7   1  -1 2816.48   91.68
   7  -1   2   18.77    4.52
  -7   1  -2   22.48    4.52
   7  -1   3   34.71    4.60
  -7   1  -3   33.01    4.75
   7  -1   4    6.60    4.30
  -7   1  -4    2.30    4.30
   7  -1   5 4776.97  154.51
  -7   1  -5 4693.15  151.77
   7  -1   6  388.98   14.98
  -7   1  -6  407.53   15.13
   7  -1   7   10.01    4.45
  -7   1  -7   18.99    4.52
   7  -1   8 1348.53   45.10
  -7   1  -8 1350.76   45.32
   7  -1   9 5195.33  168.01
  -7   1  -9 5167.14  167.19
   7  -1  10  854.51   29.45
  -7   1 -10  800.37   27.82
   7  -1  11  304.20   12.68
  -7   1 -11  315.77   12.54
   7  -1  12  235.14   10.38
  -7   1 -12  234.40   10.68
   7  -1  13   50.81    4.67
  -7   1 -13   71.36    5.86
   7  -1  14   18.54    4.45
  -7   1 -14   16.39    5.12
   7  -1  15   51.11    5.86
  -7   1 -15   48.21    5.86
   7  -1  16  271.34   12.09
  -7   1 -16  259.99   11.65
   7  -1  17 1558.45   52.29
  -7   1 -17 1533.97   51.63
   7  -1  18  218.15   10.31
  -7   1 -18  231.36   10.83
   7  -1  19 1792.85   59.79
  -7   1 -19 1732.02   57.71
   7  -1  20  147.98    8.60
  -7   1 -20  178.69    8.75
   7  -1  21  559.07   20.77
  -7   1 -21  520.72   19.06
   7  -1  22   83.89    6.90
  -7   1 -22   86.71    6.38
   7  -1  23 1510.23   50.74
  -7   1 -23 1553.26   51.70
   7  -1  24   -5.41    5.12
  -7   1 -24   16.17    4.82
   7  -1  25   36.94    5.71
  -7   1 -25   37.09    5.04
   7  -1  26   22.70    4.82
  -7   1 -26   23.74    4.52
   7  -1  27  509.44   18.84
  -7   1 -27  476.73   17.58
   7  -1  28   44.88    5.71
  -7   1 -28   45.54    5.34
   7  -1  29  198.35    8.90
  -7   1 -29  188.19    8.68
   7  -1  30    5.64    4.75
  -7   1 -30    7.34    4.30
   7  -1  31 1263.23   41.84
  -7   1 -31 1212.79   40.43
   6  -1 -34  931.66   31.60
  -6   1  34 1044.41   35.09
   6  -1 -33   12.39    4.08
  -6   1  33    9.94    3.49
   6  -1 -32  159.70    7.94
  -6   1  32  166.23    8.38
   6  -1 -31  123.65    7.05
  -6   1  31  117.20    7.27
   6  -1 -30  370.88   14.32
  -6   1  30  400.85   15.35
   6  -1 -29    4.60    4.45
  -6   1  29   16.84    5.27
   6  -1 -28  137.45    7.49
  -6   1  28  159.41    8.38
   6  -1 -27  115.42    6.82
  -6   1  27  126.32    7.79
   6  -1 -26 3320.14  108.22
  -6   1  26 3128.77  102.22
   6  -1 -25    7.86    4.82
  -6   1  25   20.55    4.67
   6  -1 -24  304.49   12.98
  -6   1  24  275.64   12.24
   6  -1 -23   44.28    5.79
  -6   1  23   37.68    5.49
   6  -1 -22 1337.40   45.25
  -6   1  22 1519.14   50.81
   6  -1 -21   36.27    4.90
  -6   1  21   33.60    4.82
   6  -1 -20  210.59    9.57
  -6   1  20  186.92    9.27
   6  -1 -19    4.01    4.23
  -6   1  19    5.27    4.15
   6  -1 -18 1123.77   38.13
  -6   1  18 1275.84   43.17
   6  -1 -17   61.94    5.19
  -6   1  17   68.02    5.19
   6  -1 -16  677.38   23.88
  -6   1  16  611.21   21.96
   6  -1 -15   11.87    4.01
  -6   1  15    5.49    3.71
   6  -1 -14 2120.71   69.73
  -6   1  14 2281.67   74.99
   6  -1 -13   54.30    4.67
  -6   1  13   53.18    4.97
   6  -1 -12 4354.91  141.01
  -6   1  12 4801.45  155.25
  -6   1  11 1112.65   37.53
  -6   1  11 1054.79   35.46
  -6   1  10 3876.47  125.66
  -6   1  10 4118.28  133.22
  -6   1   9 1316.63   43.76
  -6   1   9 1279.55   42.65
  -6   1   7  521.39   18.47
  -6   1   7  534.22   18.77
   6  -1  -5   77.29    5.04
  -6   1   5   73.43    4.97
   6  -1  -4 4281.47  138.27
   6  -1  -3    7.27    3.71
  -6   1   3    5.41    3.71
   6  -1  -2  697.26   24.03
  -6   1   2  705.49   24.33
   6  -1  -1   28.19    4.08
  -6   1   1   32.27    4.38
  -6   1   0 3762.24  121.65
   6  -1   1   -3.19    3.71
  -6   1  -1   -0.89    3.19
   6  -1   2  161.48    7.71
  -6   1  -2  153.17    7.20
   6  -1   3  163.04    7.79
  -6   1  -3  173.20    8.09
   6  -1   4 2746.02   89.38
  -6   1  -4 2743.05   89.31
   6  -1   5   55.93    4.75
  -6   1  -5   71.88    5.71
   6  -1   6   36.94    5.04
  -6   1  -6   45.40    4.67
   6  -1   7   83.15    6.23
  -6   1  -7   80.70    5.93
   6  -1   8 2408.51   78.85
  -6   1  -8 2429.28   79.52
   6  -1   9   46.81    4.82
  -6   1  -9   61.79    5.79
   6  -1  10  131.59    7.12
  -6   1 -10  163.34    8.60
   6  -1  11  150.80    8.09
  -6   1 -11  154.88    8.01
   6  -1  12 4374.19  141.90
  -6   1 -12 4286.66  139.16
   6  -1  13  309.17   12.83
  -6   1 -13  327.04   13.13
   6  -1  14 3992.18  129.59
  -6   1 -14 4239.93  137.75
   6  -1  15   38.20    4.45
  -6   1 -15   58.08    6.01
   6  -1  16  454.63   17.58
  -6   1 -16  433.27   16.76
   6  -1  17    9.49    4.82
  -6   1 -17   20.18    5.12
   6  -1  18 1189.79   40.57
  -6   1 -18 1261.00   42.73
   6  -1  19   93.98    7.27
  -6   1 -19   95.61    6.38
   6  -1  20  618.26   22.62
  -6   1 -20  633.32   22.85
   6  -1  21    1.56    5.34
  -6   1 -21   -1.41    3.86
   6  -1  22 1438.28   48.51
  -6   1 -22 1343.34   45.17
   6  -1  23   21.44    5.04
  -6   1 -23   33.75    5.12
   6  -1  24  190.34    9.35
  -6   1 -24  199.46    9.35
   6  -1  25    4.01    5.27
  -6   1 -25    8.38    4.75
   6  -1  26 1000.64   34.42
  -6   1 -26 1040.70   35.53
   6  -1  27  107.19    6.82
  -6   1 -27  118.91    6.60
   6  -1  28   -2.89    4.90
  -6   1 -28    7.57    4.82
   6  -1  29   22.03    4.01
  -6   1 -29   23.22    4.08
   6  -1  30  298.49   12.39
  -6   1 -30  271.41   11.20
   6  -1  31   17.73    3.71
  -6   1 -31   21.51    4.60
   6  -1  32   12.54    4.75
  -6   1 -32   19.06    3.12
   5  -1 -34    5.04    3.34
  -5   1  34    5.49    4.38
   5  -1 -33  473.17   17.51
  -5   1  33  379.26   14.46
   5  -1 -32   22.18    4.08
  -5   1  32   22.03    3.93
   5  -1 -31 1309.96   43.99
  -5   1  31 1255.07   42.28
   5  -1 -30    6.82    4.15
  -5   1  30    9.35    5.12
   5  -1 -29   19.66    4.45
  -5   1  29   19.66    4.15
   5  -1 -28    5.86    3.78
  -5   1  28   11.13    5.19
   5  -1 -27  703.64   25.00
  -5   1  27  582.51   21.14
   5  -1 -26   -6.82    4.23
  -5   1  26    5.71    5.04
   5  -1 -25   35.83    4.75
  -5   1  25   33.75    5.04
   5  -1 -24   -4.97    4.60
  -5   1  24    3.41    5.04
   5  -1 -23 1358.91   45.92
  -5   1  23 1571.80   52.59
   5  -1 -22    3.04    4.45
  -5   1  22   -2.00    4.97
   5  -1 -21  126.47    7.42
  -5   1  21  147.83    8.31
   5  -1 -20   -1.48    4.15
  -5   1  20   -1.71    4.01
   5  -1 -19 1536.20   51.33
  -5   1  19 1570.32   52.59
   5  -1 -18  320.22   12.83
  -5   1  18  269.11   11.27
   5  -1 -17  807.04   28.04
  -5   1  17  802.59   27.74
   5  -1 -16  415.02   15.73
  -5   1  16  425.70   15.95
   5  -1 -15 1631.88   54.22
  -5   1  15 1732.76   57.64
   5  -1 -14  431.19   16.02
  -5   1  14  477.85   17.58
   5  -1 -13  171.35    8.09
  -5   1  13  148.43    7.57
   5  -1 -12  510.11   18.32
  -5   1  12  508.04   18.47
   5  -1 -11 1103.75   37.01
  -5   1  11 1214.27   40.57
   5  -1 -10  363.39   13.65
  -5   1  10  383.12   14.17
  -5   1   9   88.64    5.41
  -5   1   9   88.27    5.12
  -5   1   8 1935.27   63.35
  -5   1   8 1860.35   60.90
  -5   1   7  926.47   31.23
  -5   1   7  861.93   29.08
  -5   1   6  239.15    9.72
  -5   1   6  230.02    9.42
   5  -1  -4  108.22    6.08
  -5   1   4  123.73    6.53
   5  -1  -3  873.80   29.45
  -5   1   3  938.33   31.67
   5  -1  -2  153.84    7.34
  -5   1   2  170.16    7.86
   5  -1   0    1.19    4.01
  -5   1   0    4.01    3.78
   5  -1   1   77.29    5.56
  -5   1  -1   83.97    5.71
   5  -1   2    5.71    4.15
  -5   1  -2    5.12    4.45
   5  -1   3 1942.68   63.79
  -5   1  -3 1923.40   62.98
   5  -1   4   26.48    4.60
  -5   1  -4   26.33    4.52
   5  -1   5  251.53   10.24
  -5   1  -5  249.31   10.46
   5  -1   6  185.37    8.75
  -5   1  -6  199.02    8.83
   5  -1   8   70.02    5.41
  -5   1  -8   65.28    5.27
   5  -1   9 3515.23  114.16
  -5   1  -9 3238.55  105.26
   5  -1  10   48.44    5.34
  -5   1 -10   57.41    5.19
   5  -1  11  488.75   18.10
  -5   1 -11  501.43   18.47
   5  -1  12  308.35   12.68
  -5   1 -12  336.39   13.43
   5  -1  13   67.57    6.01
  -5   1 -13   82.48    6.60
   5  -1  14  916.08   31.60
  -5   1 -14  872.32   30.49
   5  -1  15 3066.46  100.21
  -5   1 -15 3020.47   98.73
   5  -1  16  493.42   18.40
  -5   1 -16  498.61   18.77
   5  -1  17 3612.40  117.79
  -5   1 -17 3286.76  107.33
   5  -1  18   77.51    6.38
  -5   1 -18   69.36    5.12
   5  -1  19  475.10   18.10
  -5   1 -19  488.30   18.47
   5  -1  20  177.50    9.05
  -5   1 -20  184.03    8.68
   5  -1  21 1554.00   52.00
  -5   1 -21 1600.73   53.41
   5  -1  22  151.02    8.46
  -5   1 -22  162.97    8.16
   5  -1  23   95.61    7.34
  -5   1 -23  100.36    6.75
   5  -1  24   49.62    5.86
  -5   1 -24   42.43    4.52
   5  -1  25  697.19   24.85
  -5   1 -25  659.36   23.88
   5  -1  26   18.69    5.49
  -5   1 -26   17.95    4.30
   5  -1  27   17.21    3.93
  -5   1 -27   11.42    4.08
   5  -1  28    2.45    5.12
  -5   1 -28    8.09    4.67
   5  -1  29 1174.96   39.61
  -5   1 -29 1131.19   38.05
   5  -1  30  179.88    8.98
  -5   1 -30  162.89    7.94
   5  -1  31   -1.26    4.30
  -5   1 -31    5.19    4.38
   5  -1  32   12.16    4.01
  -5   1 -32    8.38    4.01
   4  -1 -34    0.89    3.86
  -4   1  34    1.85    3.26
   4  -1 -33    3.04    4.01
  -4   1  33    1.63    4.15
   4  -1 -32  438.98   16.39
  -4   1  32  477.40   17.65
   4  -1 -31    0.52    4.15
  -4   1  31    7.20    4.75
   4  -1 -30   27.74    4.67
  -4   1  30   27.45    4.30
   4  -1 -29   11.27    4.15
  -4   1  29   10.53    5.27
   4  -1 -28 1016.22   34.79
  -4   1  28  991.00   34.20
   4  -1 -27  414.50   15.65
  -4   1  27  412.20   15.65
   4  -1 -26  126.17    7.71
  -4   1  26  180.17    9.20
   4  -1 -25  176.10    8.98
  -4   1  25  162.37    8.68
   4  -1 -24  979.13   33.82
  -4   1  24 1180.89   40.28
   4  -1 -23    5.49    4.52
  -4   1  23   14.84    5.34
   4  -1 -22  243.45   10.76
  -4   1  22  228.69   10.01
   4  -1 -21   13.20    3.93
  -4   1  21    8.75    5.04
   4  -1 -20 1464.99   49.10
  -4   1  20 1520.62   51.03
   4  -1 -19   30.34    4.75
  -4   1  19   40.95    5.04
   4  -1 -18  759.57   26.41
  -4   1  18  821.88   28.71
   4  -1 -17  110.67    6.68
  -4   1  17  114.90    6.90
   4  -1 -16  694.29   24.55
  -4   1  16  623.38   22.40
   4  -1 -15  153.17    7.64
  -4   1  15  134.63    7.57
   4  -1 -14 1189.05   39.91
  -4   1  14  971.71   33.16
   4  -1 -13 1881.86   61.86
  -4   1  13 1983.48   65.28
   4  -1 -12 2634.01   85.82
  -4   1  12 2572.44   84.04
   4  -1 -11  319.33   12.24
  -4   1  11  310.43   12.09
   4  -1  -9  107.41    6.01
  -4   1   9   86.12    5.27
   4  -1  -8   19.73    3.56
  -4   1   8   21.21    4.01
   4  -1  -7    1.93    3.19
  -4   1   7    1.48    3.49
  -4   1   6  582.95   20.32
  -4   1   6  645.11   22.25
  -4   1   5  261.03   10.38
  -4   1   5  267.48   10.38
   4  -1  -3  657.13   22.55
  -4   1   3  662.40   22.77
   4  -1  -1   33.08    4.45
  -4   1   1   30.34    4.45
   4  -1   0   25.81    4.30
  -4   1   0   23.81    4.15
   4  -1   1    3.26    3.93
  -4   1  -1    4.90    4.15
   4  -1   2 3347.59  108.52
   4  -1   3    3.49    4.15
  -4   1  -3    3.56    4.30
   4  -1   4  509.67   18.40
  -4   1  -4  494.46   17.88
   4  -1   5   94.20    5.56
  -4   1  -5   90.20    6.01
   4  -1   6 4333.39  140.19
   4  -1   7  256.43   10.61
  -4   1  -7  265.40   10.83
   4  -1   8   14.24    4.75
  -4   1  -8   20.70    4.38
   4  -1   9  967.26   32.86
  -4   1  -9  973.20   32.93
   4  -1  11 1493.17   49.77
  -4   1 -11 1603.70   53.26
   4  -1  12  126.10    6.97
  -4   1 -12  131.96    7.64
   4  -1  13  858.96   29.74
  -4   1 -13  871.57   30.19
   4  -1  14  894.57   30.86
  -4   1 -14  907.18   31.38
   4  -1  15   -2.52    4.52
  -4   1 -15    1.71    4.01
   4  -1  16 2313.57   76.25
  -4   1 -16 2319.50   76.18
   4  -1  17   14.02    5.19
  -4   1 -17   10.68    4.90
   4  -1  18  338.47   13.95
  -4   1 -18  408.49   15.58
   4  -1  19  139.30    8.31
  -4   1 -19  155.03    8.31
   4  -1  20 1150.48   39.39
  -4   1 -20 1189.05   40.13
   4  -1  21  370.51   14.76
  -4   1 -21  412.64   15.95
   4  -1  22  241.44   11.20
  -4   1 -22  250.05   10.53
   4  -1  23    7.57    4.01
  -4   1 -23    5.04    4.60
   4  -1  24  905.70   31.67
  -4   1 -24  784.05   27.74
   4  -1  25  101.70    6.90
  -4   1 -25  114.53    7.12
   4  -1  26  105.26    7.27
  -4   1 -26  115.64    6.82
   4  -1  27   67.43    5.34
  -4   1 -27   68.76    5.79
   4  -1  28  979.87   33.75
  -4   1 -28 1102.26   37.38
   4  -1  29   35.01    4.45
  -4   1 -29   41.39    4.67
   4  -1  30   24.03    5.12
  -4   1 -30   28.85    4.30
   4  -1  31   85.67    6.53
  -4   1 -31   89.38    6.01
   4  -1  32  941.30   31.90
  -4   1 -32  968.75   32.79
   4  -1  33  231.88    9.57
  -4   1 -33  224.38    9.27
   3  -1 -34   15.21    4.23
  -3   1  34    7.12    4.52
   3  -1 -33  722.33   25.07
  -3   1  33  743.99   25.89
   3  -1 -32  262.66   10.90
  -3   1  32  254.05   10.31
   3  -1 -31   15.58    4.52
  -3   1  31   12.68    4.45
   3  -1 -30   15.06    4.52
  -3   1  30   19.58    5.41
   3  -1 -29  825.59   28.71
  -3   1  29  873.80   30.49
   3  -1 -28   38.35    5.04
  -3   1  28   38.50    5.56
   3  -1 -27  568.04   20.62
  -3   1  27  569.01   20.62
   3  -1 -26    7.05    3.93
  -3   1  26    2.89    4.38
   3  -1 -25 1281.03   43.54
  -3   1  25 1523.59   51.18
   3  -1 -24   81.74    6.23
  -3   1  24   69.06    6.53
   3  -1 -23    7.57    4.52
  -3   1  23    8.38    3.93
   3  -1 -22   70.62    5.49
  -3   1  22   67.80    6.31
   3  -1 -21 1778.01   59.12
  -3   1  21 1674.91   55.93
   3  -1 -20   36.35    4.97
  -3   1  20   27.59    4.75
   3  -1 -19  292.11   11.87
  -3   1  19  292.48   12.61
   3  -1 -18  100.81    6.31
  -3   1  18  101.84    5.93
   3  -1 -17 1837.35   60.75
  -3   1  17 1726.09   57.26
   3  -1 -16   41.32    4.45
  -3   1  16   32.19    5.12
   3  -1 -15 3114.67  101.40
  -3   1  15 3105.03  101.25
   3  -1 -14   39.83    4.60
  -3   1  14   37.68    3.86
   3  -1 -13  768.47   26.33
  -3   1  13  740.43   25.67
   3  -1 -12   49.70    4.52
  -3   1  12   55.71    4.97
  -3   1  11 3467.01  112.45
   3  -1 -10    7.12    3.56
  -3   1  10    8.98    3.93
   3  -1  -9 1708.29   56.15
  -3   1   9 1959.74   64.16
   3  -1  -8   70.99    4.97
  -3   1   8   67.80    5.04
   3  -1  -7 1872.96   61.27
  -3   1   7 2072.49   67.65
   3  -1  -6  458.41   16.32
  -3   1   6  447.66   16.10
   3  -1  -5  123.65    5.86
  -3   1   5  116.38    6.01
  -3   1   4  105.11    5.71
  -3   1   4  120.24    5.86
   3  -1  -3 2445.60   79.22
   3  -1  -2  163.56    6.90
  -3   1   2  157.33    6.75
   3  -1  -1    8.98    3.26
  -3   1   1    4.75    3.26
   3  -1   0    4.75    3.49
  -3   1   0    8.01    3.56
   3  -1   2   36.72    4.75
  -3   1  -2   30.26    4.30
   3  -1   3  349.07   13.06
  -3   1  -3  347.96   12.98
   3  -1   4  506.33   18.25
  -3   1  -4  521.98   18.47
   3  -1   6 1068.14   35.98
  -3   1  -6 1054.79   35.31
   3  -1   7  858.22   29.37
  -3   1  -7  804.82   27.45
   3  -1   8 1736.47   57.26
  -3   1  -8 1866.28   61.34
   3  -1   9  281.50   11.42
  -3   1  -9  309.17   12.31
   3  -1  10  959.84   32.56
  -3   1 -10  960.59   32.49
   3  -1  11 1080.01   36.57
  -3   1 -11 1120.81   37.76
   3  -1  12    1.71    3.26
  -3   1 -12    2.15    3.26
   3  -1  13   89.90    6.60
  -3   1 -13   89.31    6.08
   3  -1  14   43.62    5.71
  -3   1 -14   49.48    5.41
   3  -1  15 1992.38   66.02
  -3   1 -15 1874.44   62.01
   3  -1  16    1.71    4.90
  -3   1 -16   12.02    4.67
   3  -1  17 1448.67   48.66
  -3   1 -17 1485.76   49.48
   3  -1  18    8.01    3.78
  -3   1 -18   -1.93    4.60
   3  -1  19 1071.11   36.87
  -3   1 -19 1068.14   36.27
   3  -1  20  205.84    9.72
  -3   1 -20  203.76    9.27
   3  -1  21  504.85   19.06
  -3   1 -21  485.78   18.10
   3  -1  22   28.19    5.34
  -3   1 -22   47.77    5.27
   3  -1  23 1254.33   42.65
  -3   1 -23 1321.08   44.51
   3  -1  24  120.91    7.34
  -3   1 -24  114.16    7.27
   3  -1  25   27.89    5.79
  -3   1 -25   26.18    5.34
   3  -1  26    1.41    3.63
  -3   1 -26    0.30    4.67
   3  -1  27  299.90   12.76
  -3   1 -27  281.13   11.35
   3  -1  28   67.87    6.53
  -3   1 -28   58.01    4.67
   3  -1  29   46.43    4.75
  -3   1 -29   39.46    4.82
   3  -1  30   66.17    5.71
  -3   1 -30   72.92    5.71
   3  -1  31 2196.37   72.10
  -3   1 -31 2290.57   75.07
   3  -1  32   -2.00    4.82
  -3   1 -32    4.08    4.23
   3  -1  33  121.58    6.45
  -3   1 -33  113.64    6.16
   2  -1 -34  559.44   19.81
  -2   1  34  540.82   19.06
   2  -1 -33   22.18    4.45
  -2   1  33   23.44    4.38
   2  -1 -32   37.38    4.97
  -2   1  32   33.45    5.27
   2  -1 -31   31.90    4.82
  -2   1  31   37.16    5.71
   2  -1 -30  530.07   19.36
  -2   1  30  528.29   19.81
   2  -1 -29  252.79   10.68
  -2   1  29  251.16   11.20
   2  -1 -28  142.49    7.57
  -2   1  28  178.62    8.98
   2  -1 -27   25.07    4.75
  -2   1  27   29.60    5.12
   2  -1 -26 2079.91   68.84
  -2   1  26 1927.11   63.87
   2  -1 -25    9.27    3.93
  -2   1  25   10.01    4.60
   2  -1 -24  276.16   11.72
  -2   1  24  278.83   12.24
   2  -1 -23   16.17    4.90
  -2   1  23   16.17    5.49
   2  -1 -22  979.13   33.60
  -2   1  22 1027.35   35.46
   2  -1 -21    6.45    4.60
  -2   1  21   17.28    4.90
   2  -1 -20  364.73   14.17
  -2   1  20  304.20   12.39
   2  -1 -19    8.23    4.30
  -2   1  19   12.83    4.38
   2  -1 -18 2247.55   73.88
  -2   1  18 1938.98   64.24
   2  -1 -17   47.10    5.12
  -2   1  17   45.99    5.12
   2  -1 -16 1227.62   41.32
  -2   1  16 1226.14   41.39
   2  -1 -15  566.41   20.18
  -2   1  15  511.74   18.84
   2  -1 -14 2895.85   94.35
  -2   1  14 2716.35   88.64
   2  -1 -13  581.54   20.47
  -2   1  13  493.94   18.17
   2  -1 -11  124.84    6.68
  -2   1  11  159.03    7.42
   2  -1 -10  740.06   25.37
  -2   1  10  753.63   25.74
   2  -1  -9  238.33    9.64
  -2   1   9  208.58    8.98
   2  -1  -8  523.02   18.47
  -2   1   8  524.06   18.40
   2  -1  -7    6.08    3.63
  -2   1   7   15.58    3.93
   2  -1  -6  518.05   18.10
  -2   1   6  497.13   17.43
   2  -1  -5  839.68   28.11
  -2   1   5  801.85   26.93
  -2   1   3  241.74    8.83
  -2   1   3  232.91    8.60
   2  -1  -2   34.79    2.89
  -2   1   2   37.61    2.89
   2  -1  -1   17.88    2.45
  -2   1   1   14.46    2.45
   2  -1   1   79.22    4.45
  -2   1  -1   79.07    4.38
   2  -1   2    3.71    3.12
  -2   1  -2    5.93    2.97
   2  -1   3  131.52    6.38
  -2   1  -3  133.81    6.45
   2  -1   5    1.19    4.45
  -2   1  -5    5.71    4.67
   2  -1   6 2894.37   94.20
  -2   1  -6 2895.85   94.20
   2  -1   7  962.81   32.71
  -2   1  -7  947.23   31.90
   2  -1   8 2595.44   84.64
  -2   1  -8 2580.60   84.04
   2  -1   9 2122.19   69.58
  -2   1  -9 2236.42   73.21
   2  -1  10 1002.87   34.05
  -2   1 -10 1083.72   36.42
   2  -1  11  547.94   19.81
  -2   1 -11  505.51   18.02
   2  -1  12 6882.10  221.79
   2  -1  13  359.76   13.95
  -2   1 -13  345.37   13.43
   2  -1  14 1831.42   60.60
  -2   1 -14 1878.15   61.94
   2  -1  15  105.40    6.82
  -2   1 -15  119.05    7.12
   2  -1  16  141.08    7.94
  -2   1 -16  157.11    7.86
   2  -1  17    7.34    3.56
  -2   1 -17   10.24    3.34
   2  -1  18  105.85    7.27
  -2   1 -18   97.76    6.38
   2  -1  19   47.92    4.82
  -2   1 -19   54.89    5.64
   2  -1  20  886.41   31.08
  -2   1 -20  900.50   31.15
   2  -1  21    2.67    5.34
  -2   1 -21    7.05    4.38
   2  -1  22 1183.86   40.28
  -2   1 -22 1186.82   40.28
   2  -1  23  153.40    8.83
  -2   1 -23  120.31    6.75
   2  -1  24  143.09    8.46
  -2   1 -24  142.64    7.57
   2  -1  25   19.06    4.23
  -2   1 -25   14.24    4.45
   2  -1  26 1184.60   40.43
  -2   1 -26 1235.04   41.91
   2  -1  27  112.01    7.71
  -2   1 -27  105.18    6.60
   2  -1  28   25.44    5.64
  -2   1 -28   21.07    4.60
   2  -1  29   22.18    4.23
  -2   1 -29   27.22    5.19
   2  -1  30  444.17   16.54
  -2   1 -30  425.03   15.87
   2  -1  31   -2.37    4.15
  -2   1 -31    4.97    4.45
   2  -1  32  215.26    9.72
  -2   1 -32  231.58    9.94
   2  -1  33   15.95    4.82
  -2   1 -33   17.58    3.63
   1  -1 -34  205.91    9.12
  -1   1  34  198.64    9.12
   1  -1 -33  262.96   10.83
  -1   1  33  240.41   10.38
   1  -1 -32   -1.11    4.08
  -1   1  32   -1.71    4.75
   1  -1 -31 1395.26   46.66
  -1   1  31 1266.19   42.80
   1  -1 -30  103.18    6.38
  -1   1  30   97.54    6.97
   1  -1 -29  153.40    7.71
  -1   1  29  153.03    8.53
   1  -1 -28    7.94    3.71
  -1   1  28    1.63    4.82
   1  -1 -27  358.79   14.09
  -1   1  27  372.74   14.91
   1  -1 -26   23.88    4.82
  -1   1  26   28.34    5.27
   1  -1 -25   78.40    6.23
  -1   1  25   66.76    6.23
   1  -1 -24   23.59    4.75
  -1   1  24   22.99    5.56
   1  -1 -23 2872.12   94.06
  -1   1  23 2714.12   89.23
   1  -1 -22   19.06    4.15
  -1   1  22   12.76    5.27
   1  -1 -21  399.81   15.50
  -1   1  21  400.03   15.73
   1  -1 -20    1.41    4.38
  -1   1  20    6.08    4.75
   1  -1 -19 1107.46   37.68
  -1   1  19  972.45   33.75
   1  -1 -18   21.07    4.01
  -1   1  18    4.38    4.67
   1  -1 -17 1795.81   59.49
  -1   1  17 1832.90   60.60
   1  -1 -16    2.37    4.30
  -1   1  16   -4.90    4.38
   1  -1 -15 2169.66   71.21
  -1   1  15 2131.09   70.10
   1  -1 -14  210.74    9.35
  -1   1  14  182.55    8.38
   1  -1 -13 2614.72   85.23
  -1   1  13 2622.14   85.67
   1  -1 -12  546.53   19.43
  -1   1  12  566.78   20.10
   1  -1 -11 2654.78   86.49
  -1   1  11 2783.85   90.57
   1  -1 -10  135.52    6.90
  -1   1  10  112.60    6.31
   1  -1  -9 1497.62   49.40
  -1   1   9 1643.75   54.15
   1  -1  -8  870.83   29.37
  -1   1   8  844.87   28.56
   1  -1  -7    6.45    3.78
  -1   1   7   11.35    4.01
   1  -1  -6 1111.16   36.79
  -1   1   6 1088.91   36.27
   1  -1  -5 2782.36   90.05
   1  -1  -4  815.94   27.00
  -1   1   4  772.92   25.67
   1  -1  -3  743.99   24.48
  -1   1   3  720.48   23.74
   1  -1  -2   24.48    1.93
  -1   1   2   24.48    2.00
   1  -1   0  235.29    7.94
  -1   1   0  243.15    8.16
   1  -1   1   35.98    2.60
  -1   1  -1   41.39    2.74
   1  -1   2   99.77    4.67
  -1   1  -2  104.96    4.90
   1  -1   4  475.25   16.84
  -1   1  -4  477.33   16.99
   1  -1   5  299.67   11.72
  -1   1  -5  313.99   12.31
   1  -1   6  798.88   27.52
  -1   1  -6  804.07   27.52
   1  -1   8  828.55   28.56
  -1   1  -8  848.58   28.93
   1  -1   9 3504.10  113.64
  -1   1  -9 3528.58  114.45
   1  -1  10 1723.12   56.82
  -1   1 -10 1766.89   58.15
   1  -1  11  479.03   17.65
  -1   1 -11  518.72   18.47
   1  -1  12  272.30   10.98
  -1   1 -12  285.88   11.35
   1  -1  13  146.20    7.86
  -1   1 -13  151.91    7.64
   1  -1  14  245.52   10.68
  -1   1 -14  254.35   10.61
   1  -1  15  166.53    8.01
  -1   1 -15  159.48    7.86
   1  -1  16  111.71    7.20
  -1   1 -16  113.05    6.68
   1  -1  17  885.67   30.86
  -1   1 -17  909.40   31.15
   1  -1  18   48.07    4.75
  -1   1 -18   61.94    5.27
   1  -1  19  483.78   18.17
  -1   1 -19  495.13   18.25
   1  -1  20   13.06    5.64
  -1   1 -20    1.41    3.78
   1  -1  21 1629.66   54.59
  -1   1 -21 1476.11   49.48
   1  -1  22   97.10    7.05
  -1   1 -22   82.48    6.01
   1  -1  23   58.30    5.34
  -1   1 -23   47.99    5.19
   1  -1  24   23.59    5.04
  -1   1 -24   29.74    4.82
   1  -1  25 1490.21   50.14
  -1   1 -25 1464.25   49.25
   1  -1  26   90.35    7.20
  -1   1 -26   72.25    5.27
   1  -1  27   -1.41    5.27
  -1   1 -27    9.72    3.34
   1  -1  28   15.50    5.27
  -1   1 -28   14.54    3.34
   1  -1  29 1220.95   41.32
  -1   1 -29 1267.68   42.80
   1  -1  30   24.55    4.23
  -1   1 -30   21.73    3.56
   1  -1  31  364.28   14.02
  -1   1 -31  356.20   13.72
   1  -1  32  314.14   12.31
  -1   1 -32  308.06   11.94
   1  -1  33  881.22   29.97
  -1   1 -33  895.31   30.19
   1  -1  34   35.16    4.52
  -1   1 -34   40.43    4.38
   0  -1 -34  144.57    7.42
   0   1  34  139.75    6.60
   0  -1 -33   64.53    5.19
   0   1  33   63.87    4.75
   0  -1 -32  710.09   24.70
   0   1  32  659.73   23.22
   0  -1 -31   30.49    4.30
   0   1  31   21.29    4.15
   0  -1 -30   39.83    4.67
   0   1  30   34.49    4.97
   0  -1 -29   17.36    4.08
   0   1  29   20.62    4.97
   0  -1 -28 2170.41   71.43
   0   1  28 2106.61   69.73
   0  -1 -27   46.66    4.90
   0   1  27   31.45    5.86
   0  -1 -26  218.08    9.72
   0   1  26  242.56   11.27
   0  -1 -25   46.14    4.82
   0   1  25   30.04    5.64
   0  -1 -24 1800.27   59.79
   0   1  24 1818.07   60.53
   0  -1 -23   59.86    5.27
   0   1  23   49.99    5.12
   0  -1 -22  212.29    9.72
   0   1  22  213.11   10.16
   0  -1 -21   21.29    4.45
   0   1  21   18.40    5.41
   0  -1 -20 1558.45   52.07
   0   1  20 1871.47   62.16
   0  -1 -19    7.42    3.86
   0   1  19    9.20    4.30
   0  -1 -18 1282.51   43.10
   0   1  18 1376.72   46.29
   0  -1 -17   55.63    5.04
   0   1  17   45.32    5.27
   0  -1 -16  777.37   27.00
   0   1  16  822.62   28.63
   0  -1 -15   -1.34    3.63
   0   1  15    3.56    3.19
   0  -1 -14   94.35    5.86
   0   1  14  108.15    6.53
   0  -1 -13 2189.69   71.73
   0   1  13 2454.50   80.33
   0  -1 -12 1837.35   60.38
   0   1  12 1891.50   62.38
   0  -1 -11  946.49   32.04
   0   1  11  815.20   27.96
   0  -1 -10 3047.91   99.03
   0   1  10 2987.83   97.10
   0  -1  -9 1383.39   45.77
   0   1   9 1552.52   51.26
   0  -1  -8 1284.00   42.65
   0   1   8 1163.09   38.72
   0  -1  -7  102.07    6.08
   0   1   7   97.69    5.93
   0  -1  -6  110.15    5.79
   0   1   6   99.99    5.41
   0  -1  -5   12.91    3.34
   0   1   5   13.20    3.78
   0  -1  -4   60.68    4.01
   0   1   4   60.16    4.01
   0   1   3  980.61   32.04
   0  -1  -1   64.39    2.45
   0   1   1   67.72    2.60
   0  -1   1   66.98    3.04
   0   1  -1   59.34    3.04
   0  -1   3 1045.89   34.42
   0   1  -3 1049.60   34.64
   0  -1   4   61.49    5.12
   0   1  -4   60.45    5.04
   0  -1   5    9.20    4.82
   0   1  -5   11.72    4.60
   0  -1   6  107.78    6.38
   0   1  -6  107.85    6.68
   0  -1   7   89.01    6.38
   0   1  -7  111.64    6.90
   0  -1   8 1177.18   39.39
   0   1  -8 1153.45   38.57
   0  -1   9 1574.03   52.00
   0   1  -9 1467.95   48.59
   0  -1  10 2927.75   95.24
   0   1 -10 3036.79   98.80
   0  -1  11  958.36   32.64
   0   1 -11  910.15   30.86
   0  -1  12 1821.03   60.16
   0   1 -12 1854.41   61.05
   0  -1  13 2449.31   80.26
   0   1 -13 2252.74   73.88
   0  -1  14  112.90    7.20
   0   1 -14  120.17    7.05
   0  -1  15    7.94    5.04
   0   1 -15    2.00    4.01
   0  -1  16  772.18   27.22
   0   1 -16  742.51   25.81
   0  -1  17   44.21    5.79
   0   1 -17   46.88    5.34
   0  -1  18 1274.35   43.32
   0   1 -18 1344.08   45.17
   0  -1  19    1.19    5.19
   0   1 -19   -1.04    3.78
   0  -1  20 1827.71   60.97
   0   1 -20 1711.99   56.89
   0  -1  21   16.69    5.49
   0   1 -21   23.22    4.90
   0  -1  22  202.06   10.24
   0   1 -22  226.09   10.53
   0  -1  23   57.86    6.45
   0   1 -23   44.28    5.64
   0  -1  24 1868.51   62.23
   0   1 -24 1792.85   59.79
   0  -1  25   38.20    5.86
   0   1 -25   39.83    4.97
   0  -1  26  240.70   10.98
   0   1 -26  246.04   10.68
   0  -1  27   48.59    5.79
   0   1 -27   48.14    5.04
   0  -1  28 2122.19   70.25
   0   1 -28 2122.19   69.87
   0  -1  29    9.35    4.82
   0   1 -29   23.22    5.04
   0  -1  30   39.68    5.41
   0   1 -30   42.95    5.19
   0  -1  31   23.74    4.90
   0   1 -31   28.56    5.04
   0  -1  32  612.25   21.88
   0   1 -32  668.85   23.44
   0  -1  33   71.36    5.56
   0   1 -33   61.86    5.04
   0  -1  34  143.46    7.57
   0   1 -34  135.89    7.05
  -1  -1 -34   42.13    4.67
   1   1  34   29.89    4.75
  -1  -1 -33  849.32   29.08
   1   1  33  878.25   29.97
  -1  -1 -32  301.31   12.09
   1   1  32  289.96   11.87
  -1  -1 -31  329.64   13.06
   1   1  31  355.38   13.80
  -1  -1 -30   24.77    4.90
   1   1  30   19.73    4.01
  -1  -1 -29 1152.70   39.02
   1   1  29 1208.34   40.80
  -1  -1 -28   18.40    4.45
   1   1  28   12.24    5.19
  -1  -1 -27    9.49    3.93
   1   1  27   12.83    5.34
  -1  -1 -26   71.51    5.56
   1   1  26   67.28    5.79
  -1  -1 -25 1446.44   48.51
   1   1  25 1368.56   46.06
  -1  -1 -24   26.48    4.90
   1   1  24   28.48    5.71
  -1  -1 -23   51.85    5.64
   1   1  23   51.78    6.31
  -1  -1 -22  101.62    6.97
   1   1  22   91.01    6.23
  -1  -1 -21 1652.65   55.19
   1   1  21 1664.52   55.85
  -1  -1 -20   -1.78    3.86
   1   1  20    4.23    4.23
  -1  -1 -19  532.74   19.43
   1   1  19  520.72   19.36
  -1  -1 -18   62.16    5.71
   1   1  18   50.96    5.41
  -1  -1 -17  875.28   30.19
   1   1  17  867.87   30.12
  -1  -1 -16  119.57    6.45
   1   1  16  107.19    6.08
  -1  -1 -15  171.13    8.38
   1   1  15  163.93    8.38
  -1  -1 -14  264.29   10.90
   1   1  14  258.43   10.90
  -1  -1 -13  152.66    7.64
   1   1  13  139.53    7.20
  -1  -1 -12  286.91   11.27
   1   1  12  307.91   12.31
  -1  -1 -11  531.48   19.06
   1   1  11  474.43   17.51
  -1  -1 -10 1874.44   61.57
   1   1  10 1829.19   60.16
  -1  -1  -9 3283.05  106.44
   1   1   9 3245.97  105.40
  -1  -1  -8  845.61   28.71
   1   1   8  904.21   30.71
  -1  -1  -6  859.71   29.08
   1   1   6  743.99   25.52
  -1  -1  -5  280.61   10.90
   1   1   5  304.64   11.50
  -1  -1  -4  538.97   18.62
   1   1   4  496.69   17.28
  -1  -1  -2  103.11    4.67
   1   1   2  103.03    4.75
  -1  -1  -1   37.76    2.82
   1   1   1   37.76    2.67
  -1  -1   0  213.55    7.71
   1   1   0  213.85    7.64
  -1  -1   2   23.96    3.19
   1   1  -2   25.59    3.34
  -1  -1   3  743.25   24.85
   1   1  -3  751.41   25.29
  -1  -1   4  774.40   26.18
   1   1  -4  784.79   26.63
   1   1  -5 3197.01  103.70
  -1  -1   6 1114.13   37.46
   1   1  -6 1112.65   37.31
  -1  -1   7    7.05    4.82
   1   1  -7    4.38    4.52
  -1  -1   8  774.40   26.63
   1   1  -8  766.99   26.48
  -1  -1   9 1662.30   55.04
   1   1  -9 1681.58   55.63
  -1  -1  10  111.19    6.97
   1   1 -10  109.86    6.31
  -1  -1  11 2904.01   94.50
   1   1 -11 2874.34   93.61
  -1  -1  12  549.43   19.81
   1   1 -12  510.04   18.25
  -1  -1  13 2852.09   93.02
   1   1 -13 2748.24   89.75
  -1  -1  14  175.13    8.68
   1   1 -14  176.84    8.09
  -1  -1  15 2114.03   69.73
   1   1 -15 1932.30   63.64
  -1  -1  16   -2.37    4.82
   1   1 -16    0.45    3.63
  -1  -1  17 1816.58   60.38
   1   1 -17 1783.95   59.12
  -1  -1  18    8.98    3.78
   1   1 -18   15.87    4.60
  -1  -1  19  950.20   32.86
   1   1 -19  959.10   33.01
  -1  -1  20   -8.23    4.90
   1   1 -20    9.27    4.01
  -1  -1  21  418.88   16.39
   1   1 -21  413.68   16.10
  -1  -1  22    4.08    5.41
   1   1 -22   10.09    4.23
  -1  -1  23 2659.23   87.45
   1   1 -23 2700.77   88.72
  -1  -1  24   26.18    5.12
   1   1 -24   22.92    5.19
  -1  -1  25   84.64    5.93
   1   1 -25   82.78    6.16
  -1  -1  26   27.59    4.60
   1   1 -26   19.06    4.30
  -1  -1  27  400.78   15.50
   1   1 -27  374.52   14.54
  -1  -1  28    7.79    4.82
   1   1 -28    2.37    4.38
  -1  -1  29  149.02    8.53
   1   1 -29  152.66    8.16
  -1  -1  30  105.40    7.42
   1   1 -30   99.69    6.01
  -1  -1  31 1304.02   43.84
   1   1 -31 1275.84   42.95
  -1  -1  32    0.00    4.90
   1   1 -32    2.30    4.01
  -1  -1  33  269.41   11.35
   1   1 -33  263.55   10.68
  -1  -1  34  206.73    8.98
   1   1 -34  195.75    8.75
  -2  -1 -33    5.41    4.15
   2   1  33   10.38    4.23
  -2  -1 -32  195.38    8.83
   2   1  32  214.30    9.57
  -2  -1 -31    1.78    3.63
   2   1  31    4.30    4.75
  -2  -1 -30  435.19   16.39
   2   1  30  420.43   15.87
  -2  -1 -29   20.10    4.67
   2   1  29   30.26    4.97
  -2  -1 -28   28.19    4.90
   2   1  28   10.90    5.04
  -2  -1 -27  108.82    6.82
   2   1  27   95.69    6.68
  -2  -1 -26 1184.60   40.06
   2   1  26 1196.47   40.65
  -2  -1 -25   17.28    4.30
   2   1  25    7.20    5.19
  -2  -1 -24  127.06    7.49
   2   1  24  126.25    7.12
  -2  -1 -23  143.23    8.01
   2   1  23  136.04    8.23
  -2  -1 -22 1191.28   40.43
   2   1  22 1141.58   39.09
  -2  -1 -21    1.85    4.52
   2   1  21    6.90    5.27
  -2  -1 -20  896.05   31.08
   2   1  20  924.24   32.04
  -2  -1 -19   63.27    5.27
   2   1  19   50.66    5.79
  -2  -1 -18  104.59    6.90
   2   1  18   91.98    6.97
  -2  -1 -17   11.27    3.93
   2   1  17    8.31    4.23
  -2  -1 -16  171.94    8.53
   2   1  16  154.81    7.49
  -2  -1 -15  108.74    6.75
   2   1  15  107.26    6.16
  -2  -1 -14 1682.32   55.63
   2   1  14 1907.08   62.98
  -2  -1 -13  394.77   14.69
   2   1  13  346.33   13.50
   2   1  12 5573.63  180.03
  -2  -1 -11  488.90   17.80
   2   1  11  557.96   20.18
  -2  -1 -10 1169.02   39.09
   2   1  10 1089.65   36.87
  -2  -1  -9 2277.22   74.47
   2   1   9 2200.82   71.95
  -2  -1  -8 2435.22   79.29
   2   1   8 2358.81   77.07
  -2  -1  -7  965.04   32.49
   2   1   7  964.30   32.42
  -2  -1  -6 2792.75   90.79
   2   1   6 2971.51   96.50
  -2  -1  -5    6.38    3.19
   2   1   5    1.56    4.30
  -2  -1  -3  139.90    6.75
   2   1   3  140.64    6.75
  -2  -1  -2   -1.63    3.63
   2   1   2    0.74    3.26
  -2  -1  -1   74.47    4.52
   2   1   1   68.84    4.45
  -2  -1   1   11.79    3.41
   2   1  -1   15.65    3.41
  -2  -1   2   36.42    4.15
  -2  -1   3  226.83    9.12
  -2  -1   5  769.95   26.56
   2   1  -5  751.41   25.96
  -2  -1   6  477.47   17.51
   2   1  -6  521.24   18.84
  -2  -1   7   13.20    4.90
   2   1  -7   18.32    4.60
  -2  -1   8  500.32   17.95
   2   1  -8  471.76   17.13
  -2  -1   9  240.85    9.79
   2   1  -9  217.93    9.42
  -2  -1  10  651.57   22.85
   2   1 -10  699.04   24.33
  -2  -1  11  144.72    6.97
   2   1 -11  144.64    7.20
   2   1 -12 9999.00  321.26
  -2  -1  13  472.21   17.28
   2   1 -13  510.48   18.54
  -2  -1  14 2754.18   89.98
   2   1 -14 2555.38   83.60
  -2  -1  15  544.98   19.95
   2   1 -15  570.57   20.25
  -2  -1  16 1154.93   39.31
   2   1 -16 1178.67   39.68
  -2  -1  17   36.49    4.45
   2   1 -17   37.38    4.15
  -2  -1  18 1835.13   61.05
   2   1 -18 1754.28   58.23
  -2  -1  19   11.94    4.60
   2   1 -19   13.95    4.82
  -2  -1  20  351.60   14.24
   2   1 -20  347.22   13.72
  -2  -1  21    9.79    5.49
   2   1 -21   15.13    4.75
  -2  -1  22 1130.45   38.65
   2   1 -22  961.33   33.31
  -2  -1  23   18.69    4.90
   2   1 -23   11.65    4.82
  -2  -1  24  303.09   13.13
   2   1 -24  321.56   13.13
  -2  -1  25   15.13    5.49
   2   1 -25   12.91    4.82
  -2  -1  26 1881.12   62.53
   2   1 -26 2110.32   69.65
  -2  -1  27   31.53    4.60
   2   1 -27   30.34    4.75
  -2  -1  28  164.82    8.98
   2   1 -28  165.78    8.60
  -2  -1  29  265.40   11.94
   2   1 -29  253.54   10.76
  -2  -1  30  570.20   21.07
   2   1 -30  521.54   18.99
  -2  -1  31   24.26    4.75
   2   1 -31   37.98    5.27
  -2  -1  32   23.29    3.86
   2   1 -32   29.97    4.75
  -2  -1  33   21.66    4.45
   2   1 -33   17.51    3.71
  -2  -1  34  567.23   19.88
   2   1 -34  606.62   21.14
  -3  -1 -33  112.30    6.23
   3   1  33  125.88    6.75
  -3  -1 -32    0.74    3.56
   3   1  32   -2.60    3.93
  -3  -1 -31 2003.51   65.94
   3   1  31 2168.92   71.28
  -3  -1 -30   43.39    5.34
   3   1  30   45.69    5.71
  -3  -1 -29   40.57    4.97
   3   1  29   29.74    4.90
  -3  -1 -28   68.98    5.34
   3   1  28   71.06    6.82
  -3  -1 -27  340.62   13.57
   3   1  27  288.25   11.87
  -3  -1 -26   11.42    4.38
   3   1  26    0.22    5.04
  -3  -1 -25   25.59    3.93
   3   1  25   17.51    4.60
  -3  -1 -24  102.73    7.05
   3   1  24  105.55    7.49
  -3  -1 -23 1255.07   42.58
   3   1  23 1284.74   43.54
  -3  -1 -22   35.01    5.27
   3   1  22   40.20    5.93
  -3  -1 -21  492.01   18.40
   3   1  21  511.74   19.36
  -3  -1 -20  194.27    9.42
   3   1  20  201.24    9.49
  -3  -1 -19 1069.63   36.49
   3   1  19  953.17   32.93
  -3  -1 -18    6.90    4.67
   3   1  18    2.89    4.15
  -3  -1 -17 1401.20   46.95
   3   1  17 1510.98   50.74
  -3  -1 -16    0.59    3.19
   3   1  16    0.30    3.34
  -3  -1 -15 1825.49   60.38
   3   1  15 1952.33   64.46
  -3  -1 -14   51.11    4.45
   3   1  14   54.30    5.64
  -3  -1 -13  104.14    6.23
   3   1  13   88.27    6.01
  -3  -1 -12    5.34    4.38
   3   1  12    0.45    3.04
  -3  -1 -11 1109.68   37.31
   3   1  11 1132.68   38.13
  -3  -1 -10  952.43   32.27
   3   1  10  893.09   30.63
  -3  -1  -9  311.76   12.39
   3   1   9  282.24   11.27
  -3  -1  -8 1640.79   54.00
   3   1   8 1622.98   53.56
  -3  -1  -7  807.78   27.52
   3   1   7  891.60   30.26
  -3  -1  -6 1129.71   37.76
   3   1   6 1072.59   36.12
  -3  -1  -4  559.96   19.73
   3   1   4  530.29   18.99
  -3  -1  -3  343.66   13.13
   3   1   3  322.89   12.54
  -3  -1  -2   29.08    4.67
   3   1   2   41.54    5.19
  -3  -1   0   12.91    4.30
   3   1   0    3.04    4.15
  -3  -1   1    5.41    4.23
   3   1  -1    4.15    4.15
  -3  -1   2  160.00    7.42
   3   1  -2  166.38    7.86
  -3  -1   4  100.06    6.45
  -3  -1   4  107.93    6.68
  -3  -1   5  114.90    6.60
   3   1  -5  119.72    6.82
  -3  -1   6  434.38   16.10
   3   1  -6  433.27   16.02
  -3  -1   7 1953.81   64.24
   3   1  -7 2086.59   68.54
  -3  -1   8   62.75    5.19
   3   1  -8   59.86    5.56
  -3  -1   9 1799.52   59.34
   3   1  -9 1795.81   59.27
  -3  -1  10   11.65    4.45
   3   1 -10   11.65    4.75
  -3  -1  11 3313.47  107.70
   3   1 -11 3650.97  118.39
  -3  -1  12   45.47    4.67
   3   1 -12   46.43    4.67
  -3  -1  13  743.25   26.04
   3   1 -13  786.27   27.37
  -3  -1  14   39.17    5.27
   3   1 -14   35.83    4.90
  -3  -1  15 3096.13  101.03
   3   1 -15 2944.81   95.98
  -3  -1  16   44.88    5.71
   3   1 -16   47.10    4.75
  -3  -1  17 1620.76   54.07
   3   1 -17 1879.63   62.16
  -3  -1  18  106.74    6.45
   3   1 -18  102.36    6.53
  -3  -1  19  285.88   12.31
   3   1 -19  309.54   12.61
  -3  -1  20   40.95    5.71
   3   1 -20   27.15    4.45
  -3  -1  21 1772.08   59.04
   3   1 -21 1663.04   55.63
  -3  -1  22   68.32    6.31
   3   1 -22   65.79    6.08
  -3  -1  23   11.57    5.34
   3   1 -23    3.41    3.93
  -3  -1  24   67.87    5.56
   3   1 -24   71.80    6.23
  -3  -1  25 1366.33   46.29
   3   1 -25 1401.94   47.18
  -3  -1  26    7.49    4.52
   3   1 -26   10.76    4.45
  -3  -1  27  548.98   20.10
   3   1 -27  578.73   20.99
  -3  -1  28   42.80    6.08
   3   1 -28   36.05    5.41
  -3  -1  29  800.37   28.19
   3   1 -29  844.13   29.30
  -3  -1  30   14.54    4.08
   3   1 -30    6.38    4.30
  -3  -1  31   21.07    4.82
   3   1 -31    9.42    4.38
  -3  -1  32  285.36   11.87
   3   1 -32  283.43   11.50
  -3  -1  33  764.02   26.33
   3   1 -33  723.15   24.92
  -3  -1  34   25.15    3.56
   3   1 -34   19.14    4.30
  -4  -1 -33  245.67    9.94
   4   1  33  234.10   10.16
  -4  -1 -32  942.78   31.97
   4   1  32  901.25   30.56
  -4  -1 -31   86.71    6.38
   4   1  31   71.58    5.79
  -4  -1 -30   32.42    4.82
   4   1  30   35.23    5.56
  -4  -1 -29   27.30    4.30
   4   1  29   35.23    5.12
  -4  -1 -28  888.64   30.78
   4   1  28 1008.80   34.64
  -4  -1 -27   52.15    5.12
   4   1  27   58.75    4.97
  -4  -1 -26  104.96    6.68
   4   1  26   87.01    6.97
  -4  -1 -25   95.69    6.60
   4   1  25   97.47    6.75
  -4  -1 -24  948.72   32.86
   4   1  24  850.81   29.67
  -4  -1 -23    8.23    4.60
   4   1  23    2.52    5.34
  -4  -1 -22  239.44   10.76
   4   1  22  233.36   10.98
  -4  -1 -21  423.55   16.10
   4   1  21  356.72   14.39
  -4  -1 -20 1177.92   40.13
   4   1  20 1166.80   39.83
  -4  -1 -19  153.32    8.31
   4   1  19  157.77    8.53
  -4  -1 -18  397.66   15.13
   4   1  18  347.81   14.02
  -4  -1 -17    8.90    3.41
   4   1  17   14.02    5.19
  -4  -1 -16 2473.79   81.07
   4   1  16 2321.73   76.62
  -4  -1 -15    0.07    3.19
   4   1  15    6.31    4.01
  -4  -1 -14  854.51   29.60
   4   1  14  923.50   31.82
  -4  -1 -13  889.38   30.56
   4   1  13  835.23   29.15
  -4  -1 -12  135.08    7.42
   4   1  12  114.23    7.05
  -4  -1 -11 1559.19   51.78
   4   1  11 1538.42   51.03
   4   1  10 9835.81  316.29
  -4  -1  -9  930.17   31.60
   4   1   9  968.00   33.01
  -4  -1  -8   18.02    4.67
   4   1   8   25.37    4.15
  -4  -1  -7  271.56   10.76
   4   1   7  265.18   10.76
   4   1   6 4445.40  143.75
  -4  -1  -5   85.45    6.01
   4   1   5   93.24    5.93
  -4  -1  -4  513.67   18.47
   4   1   4  553.95   19.81
  -4  -1  -3    2.67    3.86
   4   1   3    4.67    4.60
   4   1   2 3317.92  107.78
  -4  -1  -1   -0.59    4.52
   4   1   1    5.41    4.60
  -4  -1   0   19.21    4.67
   4   1   0   24.11    4.82
  -4  -1   1   34.57    5.19
   4   1  -1   36.87    4.90
  -4  -1   3  663.21   23.22
   4   1  -3  661.73   23.14
  -4  -1   4 3490.01  113.34
  -4  -1   5  280.16   11.50
  -4  -1   5  261.55   11.05
  -4  -1   6  624.79   21.96
  -4  -1   6  614.33   21.66
  -4  -1   7    2.60    4.23
   4   1  -7   -0.30    3.26
  -4  -1   8   19.43    4.15
   4   1  -8   20.55    4.45
  -4  -1   9   86.12    5.86
   4   1  -9   85.53    6.01
  -4  -1  11  310.95   12.54
   4   1 -11  296.11   11.72
  -4  -1  12 2519.78   82.48
   4   1 -12 2314.31   75.96
  -4  -1  13 1809.91   59.79
   4   1 -13 1865.54   61.71
  -4  -1  14 1070.37   36.57
   4   1 -14 1051.08   35.60
  -4  -1  15  141.01    7.57
   4   1 -15  162.52    8.23
  -4  -1  16  684.13   24.18
   4   1 -16  675.60   23.88
  -4  -1  17  101.77    6.23
   4   1 -17  126.25    7.34
  -4  -1  18  870.83   30.26
   4   1 -18  775.89   27.30
  -4  -1  19   28.34    5.34
   4   1 -19   40.20    5.34
  -4  -1  20 1584.41   53.33
   4   1 -20 1519.14   51.03
  -4  -1  21    3.71    4.45
   4   1 -21    8.46    4.60
  -4  -1  22  239.89   10.83
   4   1 -22  227.57   10.68
  -4  -1  23    8.38    5.27
   4   1 -23    7.57    4.67
  -4  -1  24  974.68   33.68
   4   1 -24 1137.13   38.79
  -4  -1  25  172.61    9.20
   4   1 -25  166.30    8.16
  -4  -1  26  162.60    8.53
   4   1 -26  169.64    8.75
  -4  -1  27  448.10   17.13
   4   1 -27  441.87   16.69
  -4  -1  28  979.13   34.05
   4   1 -28  973.94   33.53
  -4  -1  29   11.65    4.01
   4   1 -29   18.54    4.30
  -4  -1  30   29.00    5.41
   4   1 -30   33.82    4.90
  -4  -1  31    0.37    4.90
   4   1 -31    0.67    3.56
  -4  -1  32  436.75   16.10
   4   1 -32  518.49   19.06
  -4  -1  33   10.46    4.60
   4   1 -33    6.08    3.78
  -4  -1  34    5.71    4.45
   4   1 -34    1.85    3.49
  -5  -1 -32   13.57    3.78
   5   1  32   16.24    4.67
  -5  -1 -31    1.85    4.38
   5   1  31    7.49    3.56
  -5  -1 -30  162.15    7.71
   5   1  30  176.24    8.83
  -5  -1 -29 1190.53   40.28
   5   1  29 1209.82   40.72
  -5  -1 -28    4.01    4.45
   5   1  28    3.04    4.97
  -5  -1 -27   25.59    4.60
   5   1  27   18.62    4.60
  -5  -1 -26   11.27    4.38
   5   1  26   22.99    5.19
  -5  -1 -25  678.12   24.03
   5   1  25  651.42   23.51
  -5  -1 -24   43.99    5.12
   5   1  24   27.96    5.27
  -5  -1 -23  110.37    7.27
   5   1  23   91.16    6.16
  -5  -1 -22  153.10    7.79
   5   1  22  167.49    8.75
  -5  -1 -21 1628.92   54.45
   5   1  21 1548.81   52.00
  -5  -1 -20  191.08    9.42
   5   1  20  167.19    8.75
  -5  -1 -19  451.07   17.13
   5   1  19  502.62   18.69
  -5  -1 -18   87.75    6.38
   5   1  18   69.21    6.38
  -5  -1 -17 3816.38  124.10
   5   1  17 3217.78  105.11
  -5  -1 -16  540.38   19.88
   5   1  16  523.69   19.51
  -5  -1 -15 2715.60   88.86
   5   1  15 2881.76   94.50
  -5  -1 -14  865.64   29.89
   5   1  14  876.77   30.49
  -5  -1 -13   78.85    6.16
   5   1  13   78.78    6.31
  -5  -1 -12  305.01   12.39
   5   1  12  300.93   12.39
  -5  -1 -11  460.78   17.13
   5   1  11  479.63   17.73
  -5  -1 -10   68.46    5.86
   5   1  10   47.47    4.67
  -5  -1  -9 3477.40  112.90
   5   1   9 3415.83  110.89
  -5  -1  -8   69.95    4.90
   5   1   8   54.22    5.56
   5   1   7 8040.74  258.88
  -5  -1  -6  204.28    9.05
   5   1   6  187.22    8.38
  -5  -1  -5  249.08   10.31
   5   1   5  240.48   10.09
  -5  -1  -4   35.23    4.45
   5   1   4   26.78    4.23
  -5  -1  -3 1979.03   64.83
   5   1   3 1901.89   62.53
  -5  -1  -2    5.93    3.78
   5   1   2    8.23    4.45
  -5  -1  -1   87.23    6.01
   5   1   1   74.62    5.49
  -5  -1   0    0.89    4.52
   5   1   0    6.75    4.15
  -5  -1   2  154.14    7.79
   5   1  -2  144.13    7.42
  -5  -1   3  833.00   28.71
   5   1  -3  856.74   29.23
  -5  -1   4  124.69    7.05
   5   1  -4  115.72    6.53
  -5  -1   6  261.55   11.05
  -5  -1   6  255.91   10.68
  -5  -1   7  887.89   30.34
  -5  -1   7  856.00   29.30
  -5  -1   8 1829.19   60.16
  -5  -1   8 1860.35   61.34
  -5  -1   9   91.39    5.71
   5   1  -9   89.31    5.86
  -5  -1  10  372.07   14.17
   5   1 -10  358.50   13.80
  -5  -1  11 1113.39   37.61
   5   1 -11 1126.00   38.13
  -5  -1  12  490.46   18.10
   5   1 -12  545.20   20.03
  -5  -1  13  160.37    8.23
   5   1 -13  158.37    7.86
  -5  -1  14  420.88   15.95
   5   1 -14  440.46   16.39
  -5  -1  15 1916.72   63.50
   5   1 -15 1747.60   57.93
  -5  -1  16  401.96   15.50
   5   1 -16  403.67   15.43
  -5  -1  17  850.06   29.52
   5   1 -17  915.34   31.60
  -5  -1  18  287.81   11.94
   5   1 -18  303.46   12.39
  -5  -1  19 1449.41   48.66
   5   1 -19 1556.22   52.29
  -5  -1  20    2.15    3.71
   5   1 -20    4.82    4.52
  -5  -1  21  145.16    8.38
   5   1 -21  137.67    7.86
  -5  -1  22   -5.04    5.12
   5   1 -22    4.08    4.30
  -5  -1  23 1487.98   50.07
   5   1 -23 1527.30   51.26
  -5  -1  24    0.22    4.67
   5   1 -24    4.45    4.45
  -5  -1  25   33.75    5.64
   5   1 -25   35.75    5.04
  -5  -1  26    3.12    3.63
   5   1 -26    1.85    4.23
  -5  -1  27  610.10   22.40
   5   1 -27  623.75   22.48
  -5  -1  28    7.71    3.86
   5   1 -28    4.97    4.60
  -5  -1  29   16.17    5.34
   5   1 -29   15.95    4.38
  -5  -1  30   -1.78    4.45
   5   1 -30    6.82    4.38
  -5  -1  31 1223.91   41.24
   5   1 -31 1264.71   42.35
  -5  -1  32   26.11    5.34
   5   1 -32   13.80    4.52
  -5  -1  33  411.23   15.13
   5   1 -33  411.16   15.35
  -5  -1  34   -5.56    4.38
   5   1 -34    8.38    3.49
  -6  -1 -32   12.31    3.86
   6   1  32   16.99    4.30
  -6  -1 -31   22.40    4.38
   6   1  31   23.37    4.90
  -6  -1 -30  266.66   10.83
   6   1  30  265.48   11.13
  -6  -1 -29   26.93    4.82
   6   1  29   28.26    4.75
  -6  -1 -28    0.82    3.93
   6   1  28   -2.74    5.04
  -6  -1 -27  100.29    6.90
   6   1  27  107.33    6.90
  -6  -1 -26 1004.35   34.20
   6   1  26  973.94   33.38
  -6  -1 -25    6.45    4.67
   6   1  25    1.78    4.97
  -6  -1 -24  184.55    8.90
   6   1  24  202.65   10.01
  -6  -1 -23   20.62    4.45
   6   1  23   23.81    5.41
  -6  -1 -22 1480.56   49.85
   6   1  22 1405.65   47.47
  -6  -1 -21    1.26    4.52
   6   1  21    3.49    5.34
  -6  -1 -20  570.94   20.77
   6   1  20  597.86   22.03
  -6  -1 -19   88.42    6.01
   6   1  19   95.76    6.75
  -6  -1 -18 1189.05   40.28
   6   1  18 1167.54   39.91
  -6  -1 -17   10.24    4.60
   6   1  17   14.76    5.12
  -6  -1 -16  464.57   17.65
   6   1  16  451.14   17.36
  -6  -1 -15   57.49    5.49
   6   1  15   47.99    5.27
  -6  -1 -14 4340.07  140.79
   6   1  14 4506.23  146.35
  -6  -1 -13  318.89   12.68
   6   1  13  320.52   12.98
  -6  -1 -12 4867.47  157.55
   6   1  12 4762.14  154.29
  -6  -1 -11  144.20    7.64
   6   1  11  149.99    7.64
  -6  -1 -10  143.16    7.12
   6   1  10  149.99    7.86
  -6  -1  -9   56.00    5.64
   6   1   9   56.30    5.12
  -6  -1  -8 2746.02   89.61
   6   1   8 2413.71   79.07
  -6  -1  -7   74.10    5.79
   6   1   7   68.54    5.64
  -6  -1  -6   30.56    4.52
   6   1   6   38.35    5.19
  -6  -1  -5   66.54    5.79
   6   1   5   74.62    6.01
  -6  -1  -4 2853.57   93.09
   6   1   4 2884.73   93.98
  -6  -1  -3  162.60    8.16
   6   1   3  167.56    8.31
  -6  -1  -2  134.85    7.27
   6   1   2  149.54    7.64
  -6  -1  -1    0.45    4.30
   6   1   1   -0.52    4.15
  -6  -1   0 3897.24  126.32
   6   1   0 3938.03  127.51
  -6  -1   1   33.23    4.82
   6   1  -1   26.78    4.52
  -6  -1   2  682.50   23.88
   6   1  -2  701.78   24.55
  -6  -1   3    3.34    4.30
   6   1  -3    4.52    4.45
  -6  -1   4 4289.63  138.86
   6   1  -4 4248.83  137.60
  -6  -1   5   75.88    5.41
   6   1  -5   69.65    5.71
  -6  -1   6  956.14   32.56
  -6  -1   6  954.65   32.34
  -6  -1   7  518.72   18.69
  -6  -1   7  539.63   19.51
  -6  -1   9 1326.28   44.36
  -6  -1   9 1440.51   47.99
  -6  -1  10 4319.30  139.90
  -6  -1  10 4233.26  137.30
  -6  -1  11 1090.40   36.94
  -6  -1  11 1140.09   38.57
  -6  -1  12 4260.70  138.12
   6   1 -12 4558.15  147.69
  -6  -1  13   64.46    5.27
   6   1 -13   67.35    5.41
  -6  -1  14 2318.02   76.25
   6   1 -14 2221.59   72.99
  -6  -1  15    2.37    4.75
   6   1 -15    5.49    4.01
  -6  -1  16  673.97   24.03
   6   1 -16  639.55   22.77
  -6  -1  17   76.11    6.01
   6   1 -17   76.92    5.64
  -6  -1  18 1275.84   43.32
   6   1 -18 1304.02   44.14
  -6  -1  19    5.79    4.97
   6   1 -19    2.52    3.78
  -6  -1  20  244.86   11.27
   6   1 -20  246.41   11.05
  -6  -1  21   39.91    5.79
   6   1 -21   35.31    4.97
  -6  -1  22 1399.71   47.32
   6   1 -22 1429.38   48.14
  -6  -1  23   42.13    4.82
   6   1 -23   41.02    4.67
  -6  -1  24  248.34   11.05
   6   1 -24  251.98   10.68
  -6  -1  25   32.04    5.56
   6   1 -25   13.43    3.86
  -6  -1  26 3280.83  107.11
   6   1 -26 3071.65  100.36
  -6  -1  27  126.03    7.86
   6   1 -27  129.44    7.57
  -6  -1  28  161.85    8.75
   6   1 -28  151.84    8.01
  -6  -1  29   11.57    4.67
   6   1 -29    6.16    4.08
  -6  -1  30  403.67   15.43
   6   1 -30  366.88   14.24
  -6  -1  31  110.15    6.60
   6   1 -31  109.86    6.68
  -6  -1  32  150.13    7.71
   6   1 -32  174.91    8.09
  -6  -1  33   10.83    4.60
   6   1 -33   12.31    4.38
  -6  -1  34 1019.93   34.20
   6   1 -34  978.39   32.79
  -7  -1 -31 1099.30   36.79
   7   1  31 1232.81   41.17
  -7  -1 -30    2.52    4.38
   7   1  30    7.86    4.01
  -7  -1 -29  200.94    8.98
   7   1  29  192.93    9.12
  -7  -1 -28   39.09    4.82
   7   1  28   33.82    5.49
  -7  -1 -27  538.97   19.81
   7   1  27  486.67   18.17
  -7  -1 -26   18.17    3.56
   7   1  26   22.03    4.01
  -7  -1 -25   44.06    5.34
   7   1  25   42.06    5.27
  -7  -1 -24   -1.04    4.45
   7   1  24    0.22    4.82
  -7  -1 -23 1548.06   51.78
   7   1  23 1473.89   49.48
  -7  -1 -22   70.84    5.79
   7   1  22   76.55    6.16
  -7  -1 -21  524.21   19.36
   7   1  21  547.05   20.03
  -7  -1 -20  158.66    8.31
   7   1  20  171.94    9.05
  -7  -1 -19 1844.77   61.27
   7   1  19 1847.00   61.57
  -7  -1 -18  218.60   10.01
   7   1  18  232.69   10.46
  -7  -1 -17 1775.79   58.90
   7   1  17 1611.86   54.15
  -7  -1 -16  279.20   11.65
   7   1  16  273.56   11.94
  -7  -1 -15   59.42    6.01
   7   1  15   40.06    5.04
  -7  -1 -14   26.04    4.01
   7   1  14    4.60    4.23
  -7  -1 -13   65.50    5.86
   7   1  13   57.49    6.16
  -7  -1 -12  287.58   12.31
   7   1  12  225.42   10.53
  -7  -1 -11  359.39   14.39
   7   1  11  295.15   12.24
  -7  -1 -10  884.93   30.49
   7   1  10  853.77   29.45
  -7  -1  -9 5394.86  174.31
   7   1   9 5195.33  168.08
  -7  -1  -8 1296.61   43.54
   7   1   8 1323.31   44.43
  -7  -1  -7   20.62    4.60
   7   1   7   23.74    4.97
  -7  -1  -6  402.70   15.13
   7   1   6  395.21   15.13
  -7  -1  -5 4878.59  157.70
   7   1   5 4923.10  159.18
  -7  -1  -4   -0.82    3.49
   7   1   4   -1.11    3.71
  -7  -1  -3   24.40    4.15
   7   1   3   32.04    4.67
  -7  -1  -2   22.25    4.08
   7   1   2   13.95    4.60
  -7  -1  -1 2872.12   93.68
   7   1   1 2936.65   95.76
  -7  -1   0   39.68    4.97
   7   1   0   42.13    5.12
  -7  -1   1    3.63    4.30
   7   1  -1   11.87    4.60
  -7  -1   2   13.20    4.75
   7   1  -2   23.14    4.67
  -7  -1   4    7.57    4.60
   7   1  -4   11.79    4.60
  -7  -1   5  534.59   19.36
   7   1  -5  534.59   19.29
  -7  -1   6   -0.07    4.15
   7   1  -6   -0.74    4.23
  -7  -1   8  933.14   31.90
  -7  -1   8  894.57   30.71
  -7  -1   9 1438.28   48.07
  -7  -1   9 1487.98   49.70
  -7  -1  10  295.37   12.16
  -7  -1  10  297.52   11.94
  -7  -1  11   88.57    6.31
  -7  -1  11   95.47    6.53
  -7  -1  12   50.74    4.90
  -7  -1  12   55.26    5.12
  -7  -1  13    8.01    4.23
  -7  -1  13    6.82    3.93
  -7  -1  14  798.14   27.67
  -7  -1  14  855.26   29.67
  -7  -1  15 1618.53   54.07
   7   1 -15 1672.68   55.63
  -7  -1  16  127.06    7.71
   7   1 -16  107.78    6.90
  -7  -1  17 2565.03   84.41
   7   1 -17 2616.95   85.97
  -7  -1  18   54.30    4.97
   7   1 -18   55.41    5.49
  -7  -1  19  136.56    7.86
   7   1 -19  122.84    6.97
  -7  -1  20    5.12    4.90
   7   1 -20    1.26    4.23
  -7  -1  21 1450.89   49.03
   7   1 -21 1450.89   48.88
  -7  -1  22   35.09    5.64
   7   1 -22   41.98    5.04
  -7  -1  23  219.79   10.16
   7   1 -23  234.92   10.46
  -7  -1  24   17.58    4.01
   7   1 -24   13.57    4.45
  -7  -1  25 1209.82   41.02
   7   1 -25 1164.57   39.54
  -7  -1  26  112.67    7.49
   7   1 -26  117.57    7.34
  -7  -1  27   75.07    6.08
   7   1 -27   69.65    6.01
  -7  -1  28   -0.30    4.30
   7   1 -28   -6.75    4.08
  -7  -1  29 1272.13   42.95
   7   1 -29 1345.56   45.10
  -7  -1  30    4.23    3.56
   7   1 -30    9.27    3.78
  -7  -1  31  425.03   16.17
   7   1 -31  413.53   15.65
  -7  -1  32  106.15    5.93
   7   1 -32  110.37    6.31
  -7  -1  33  229.65   10.01
   7   1 -33  211.18    8.90
  -8  -1 -30  295.89   11.57
   8   1  30  247.75   10.38
  -8  -1 -29   20.70    4.08
   8   1  29   10.98    5.04
  -8  -1 -28 1157.90   39.09
   8   1  28 1238.01   41.69
  -8  -1 -27   50.07    4.97
   8   1  27   43.91    5.34
  -8  -1 -26  227.13   10.09
   8   1  26  222.97   10.09
  -8  -1 -25    9.20    4.52
   8   1  25    9.20    4.60
  -8  -1 -24 1271.39   43.02
   8   1  24 1311.44   44.21
  -8  -1 -23   27.59    4.08
   8   1  23   38.42    5.19
  -8  -1 -22  545.35   19.88
   8   1  22  464.94   17.58
  -8  -1 -21  100.88    6.53
   8   1  21  107.19    7.27
  -8  -1 -20  389.95   14.98
   8   1  20  360.42   14.69
  -8  -1 -19   -1.19    3.86
   8   1  19    5.04    4.52
  -8  -1 -18  509.30   18.77
   8   1  18  490.46   18.77
  -8  -1 -17  193.30    9.12
   8   1  17  210.96   10.46
  -8  -1 -16  359.83   14.32
   8   1  16  343.44   14.32
  -8  -1 -15  382.08   14.91
   8   1  15  402.19   15.73
  -8  -1 -14 1339.63   45.17
   8   1  14 1434.57   48.21
  -8  -1 -13  151.39    7.64
   8   1  13  149.84    8.31
  -8  -1 -12  224.61   10.09
   8   1  12  198.94    9.94
  -8  -1 -11   60.45    5.64
   8   1  11   61.71    6.01
  -8  -1 -10 3779.30  122.84
   8   1  10 3615.37  117.72
  -8  -1  -9  407.08   15.35
   8   1   9  366.43   14.32
  -8  -1  -8   23.96    4.82
   8   1   8   24.55    5.04
  -8  -1  -7  130.62    7.34
   8   1   7  108.52    6.53
  -8  -1  -6 3857.92  125.21
   8   1   6 3976.61  129.07
  -8  -1  -5   14.61    4.60
   8   1   5   17.58    4.45
  -8  -1  -4  700.67   24.63
   8   1   4  670.93   23.66
  -8  -1  -3  302.86   11.94
   8   1   3  290.48   12.02
  -8  -1  -2 3679.90  119.35
   8   1   2 3918.01  127.21
  -8  -1  -1   -2.67    4.38
   8   1   1    2.15    4.01
  -8  -1   0   55.41    5.19
   8   1   0   48.36    5.19
  -8  -1   1   30.86    4.52
   8   1  -1   28.71    4.90
  -8  -1   2 5242.80  169.27
   8   1  -2 5275.44  170.38
  -8  -1   3  574.65   20.55
   8   1  -3  580.36   20.77
  -8  -1   4  812.98   28.04
   8   1  -4  847.10   29.08
  -8  -1   5  128.70    7.20
   8   1  -5  136.48    7.49
  -8  -1   6 3148.05  102.66
   8   1  -6 2993.77   97.62
  -8  -1   7  308.20   12.61
  -8  -1   7  292.48   11.94
  -8  -1   8  246.34   10.83
  -8  -1   8  213.11    9.49
  -8  -1   9   33.01    4.60
  -8  -1   9   44.88    5.04
  -8  -1  10 3047.17   99.47
  -8  -1  10 3113.19  101.47
  -8  -1  11    2.97    4.23
  -8  -1  11    4.01    4.08
  -8  -1  12 3288.99  107.04
  -8  -1  12 3212.59  104.89
  -8  -1  13  180.84    8.90
  -8  -1  13  167.27    8.46
  -8  -1  14    7.49    4.60
  -8  -1  14    8.53    4.23
  -8  -1  15  160.52    8.01
  -8  -1  15  186.85    9.42
  -8  -1  16 1250.62   42.43
  -8  -1  16 1309.96   43.99
  -8  -1  17  122.09    7.20
  -8  -1  17  111.26    7.49
  -8  -1  18  249.08   10.98
  -8  -1  18  234.25   10.31
  -8  -1  19   -2.30    4.30
   8   1 -19   -0.67    3.04
  -8  -1  20 1217.98   41.69
   8   1 -20 1177.92   40.20
  -8  -1  21   16.91    5.41
   8   1 -21   13.87    4.23
  -8  -1  22  489.79   18.69
   8   1 -22  468.20   17.51
  -8  -1  23    9.12    5.19
   8   1 -23    5.79    4.01
  -8  -1  24 1173.47   40.06
   8   1 -24 1305.51   43.91
  -8  -1  25  140.34    7.79
   8   1 -25  125.66    7.12
  -8  -1  26   29.82    4.23
   8   1 -26   22.25    4.67
  -8  -1  27  118.98    7.34
   8   1 -27  105.33    6.45
  -8  -1  28 1145.29   39.09
   8   1 -28 1034.76   35.16
  -8  -1  29   56.23    4.97
   8   1 -29   54.45    4.90
  -8  -1  30   22.03    4.67
   8   1 -30   12.68    3.71
  -8  -1  31  238.11   10.31
   8   1 -31  223.64    9.94
  -8  -1  32  689.99   23.74
   8   1 -32  655.50   23.14
  -8  -1  33  191.82    8.75
   8   1 -33  182.92    7.71
  -9  -1 -30    4.97    3.86
   9   1  30    0.59    4.52
  -9  -1 -29  315.32   12.46
   9   1  29  314.88   12.61
  -9  -1 -28   34.05    3.78
   9   1  28   30.19    4.82
  -9  -1 -27   95.69    6.01
   9   1  27   90.20    6.68
  -9  -1 -26    9.20    4.82
   9   1  26    5.19    4.60
  -9  -1 -25 1212.04   40.87
   9   1  25 1290.67   43.47
  -9  -1 -24   64.39    4.97
   9   1  24   77.74    6.23
  -9  -1 -23  262.07   11.27
   9   1  23  274.90   11.72
  -9  -1 -22   14.17    4.67
   9   1  22   13.06    5.19
  -9  -1 -21  655.13   23.37
   9   1  21  648.97   23.59
  -9  -1 -20   35.68    5.04
   9   1  20   33.45    5.27
  -9  -1 -19  718.62   25.59
   9   1  19  720.25   25.81
  -9  -1 -18  406.34   15.73
   9   1  18  413.24   16.02
  -9  -1 -17  724.48   25.67
   9   1  17  802.59   28.34
  -9  -1 -16  180.40    9.05
   9   1  16  176.99    9.64
  -9  -1 -15 2682.22   87.97
   9   1  15 2870.63   94.28
  -9  -1 -14   40.57    5.34
   9   1  14   45.32    6.16
  -9  -1 -13  261.10   11.05
   9   1  13  259.32   11.27
  -9  -1 -12  490.60   18.32
   9   1  12  469.17   17.80
  -9  -1 -11  583.40   21.29
   9   1  11  564.11   20.77
  -9  -1 -10   17.28    4.90
   9   1  10    8.90    5.04
  -9  -1  -9 3178.47  103.70
   9   1   9 3024.18   99.03
  -9  -1  -8    7.57    3.56
   9   1   8    8.53    4.08
  -9  -1  -7 4774.75  154.66
   9   1   7 5047.71  163.49
  -9  -1  -6   50.96    4.75
   9   1   6   44.14    4.90
  -9  -1  -5   38.35    4.01
   9   1   5   35.23    4.82
  -9  -1  -4  433.78   16.10
   9   1   4  392.10   14.98
  -9  -1  -3 2425.57   79.44
   9   1   3 2357.33   77.37
  -9  -1  -2   -1.41    3.86
   9   1   2   -1.34    4.15
  -9  -1  -1   -1.11    4.38
   9   1   1   -2.45    4.01
  -9  -1   0    3.26    4.45
   9   1   0    8.09    4.23
  -9  -1   1 3656.16  118.83
   9   1  -1 3581.99  116.46
  -9  -1   2  318.29   12.76
   9   1  -2  366.36   14.24
  -9  -1   3    1.34    4.45
   9   1  -3    0.07    4.08
  -9  -1   4   87.31    6.23
   9   1  -4   99.03    6.01
  -9  -1   5 2453.02   80.56
   9   1  -5 2416.67   79.15
  -9  -1   6  485.86   18.17
   9   1  -6  483.33   17.73
  -9  -1   7 2723.76   89.09
   9   1  -7 2724.50   89.01
  -9  -1   8  402.19   15.28
  -9  -1   8  411.90   15.50
  -9  -1   9   96.50    6.16
  -9  -1   9   96.73    6.60
  -9  -1  10  158.22    8.01
  -9  -1  10  153.84    8.01
  -9  -1  11    8.75    4.67
  -9  -1  11    1.34    3.78
  -9  -1  12    5.41    3.78
  -9  -1  12    7.12    4.38
  -9  -1  13 1475.37   49.18
  -9  -1  13 1654.88   55.19
  -9  -1  14  541.79   19.95
  -9  -1  14  547.57   19.88
  -9  -1  15 2562.80   83.97
  -9  -1  15 2685.19   88.27
  -9  -1  16  530.36   19.66
  -9  -1  16  503.14   18.69
  -9  -1  17  247.23   10.83
  -9  -1  17  248.64   11.05
  -9  -1  18  152.58    8.16
  -9  -1  18  169.86    8.68
  -9  -1  19 1278.06   43.54
  -9  -1  19 1385.62   46.66
  -9  -1  20   62.98    6.16
  -9  -1  20   52.15    5.79
  -9  -1  21  337.35   13.65
  -9  -1  21  330.23   13.50
  -9  -1  22    6.97    4.67
  -9  -1  22    0.82    3.56
  -9  -1  23  922.76   31.97
  -9  -1  23  957.62   33.23
  -9  -1  24   15.65    3.86
  -9  -1  24   21.07    4.97
  -9  -1  25   10.38    4.45
  -9  -1  25    1.56    4.08
  -9  -1  26    2.74    3.63
  -9  -1  26   -4.67    4.67
  -9  -1  27 1008.06   34.20
  -9  -1  27  973.94   33.68
  -9  -1  28  167.71    8.09
  -9  -1  28  182.18    8.83
  -9  -1  29   45.69    5.04
  -9  -1  29   51.33    4.60
  -9  -1  30  111.93    7.05
  -9  -1  30  108.82    6.31
  -9  -1  31  555.43   19.66
  -9  -1  31  582.66   20.70
  -9  -1  32   54.82    5.34
  -9  -1  32   59.12    4.38
  -9  -1  33  501.95   18.02
  -9  -1  33  511.08   17.88
 -10  -1 -29  314.21   11.94
  10   1  29  320.96   12.16
 -10  -1 -28    3.41    4.38
  10   1  28    4.52    3.93
 -10  -1 -27   36.72    4.75
  10   1  27   35.90    5.12
 -10  -1 -26  983.58   33.23
  10   1  26  983.58   33.53
 -10  -1 -25    4.52    4.38
  10   1  25    1.26    4.52
 -10  -1 -24  278.76   11.72
  10   1  24  291.29   12.16
 -10  -1 -23    7.86    4.90
  10   1  23   22.77    4.75
 -10  -1 -22  747.70   26.48
  10   1  22  709.87   25.29
 -10  -1 -21   10.09    4.30
  10   1  21   17.73    5.34
 -10  -1 -20  497.21   18.32
  10   1  20  513.97   19.21
 -10  -1 -19   -0.45    4.30
  10   1  19   -1.11    5.04
 -10  -1 -18  631.76   22.99
  10   1  18  578.43   21.29
 -10  -1 -17   35.38    5.34
  10   1  17   37.83    5.19
 -10  -1 -16  417.17   15.95
  10   1  16  386.76   15.21
 -10  -1 -15  119.65    7.34
  10   1  15  129.81    7.64
 -10  -1 -14 1740.92   57.93
  10   1  14 2057.66   68.24
 -10  -1 -13   94.72    6.53
  10   1  13   84.04    6.90
 -10  -1 -12  562.55   20.62
  10   1  12  556.77   20.77
 -10  -1 -11  252.20   10.68
  10   1  11  258.88   11.50
 -10  -1 -10  276.16   11.57
  10   1  10  266.59   11.42
 -10  -1  -9   20.99    4.30
  10   1   9    7.12    4.08
 -10  -1  -8  128.47    6.68
  10   1   8  123.13    7.42
 -10  -1  -7   34.34    5.04
  10   1   7   20.55    5.19
 -10  -1  -6  713.50   25.15
  10   1   6  740.88   26.11
 -10  -1  -5  233.88   10.38
  10   1   5  229.65   10.46
 -10  -1  -4 3349.81  109.04
  10   1   4 3191.08  104.14
 -10  -1  -3   23.81    4.67
  10   1   3   20.25    4.82
 -10  -1  -2   16.54    4.52
  10   1   2    5.56    4.15
 -10  -1  -1  149.84    7.71
  10   1   1  130.18    7.42
 -10  -1   0 2625.85   85.82
  10   1   0 2440.41   80.11
 -10  -1   1   81.15    5.64
  10   1  -1   85.75    6.01
 -10  -1   2 1215.75   40.87
  10   1  -2 1158.64   39.17
 -10  -1   3  887.89   30.63
  10   1  -3  878.25   30.41
 -10  -1   4  292.55   11.94
  10   1  -4  291.81   12.16
 -10  -1   5   45.99    5.12
  10   1  -5   51.48    5.41
 -10  -1   6  295.74   11.87
  10   1  -6  338.62   13.50
 -10  -1   7  417.76   15.73
  10   1  -7  451.22   17.13
 -10  -1   9  535.26   19.58
 -10  -1   9  519.38   18.92
 -10  -1  10  243.89   10.68
 -10  -1  10  266.29   11.42
 -10  -1  11 1378.20   46.14
 -10  -1  11 1385.62   46.58
 -10  -1  12  781.82   27.52
 -10  -1  12  810.01   27.89
 -10  -1  13   18.84    4.90
 -10  -1  13   17.95    4.38
 -10  -1  14 1688.26   56.15
 -10  -1  14 1704.58   56.97
 -10  -1  15  108.89    6.82
 -10  -1  15  108.45    6.82
 -10  -1  16  679.16   24.26
 -10  -1  16  649.71   23.44
 -10  -1  17   66.24    5.93
 -10  -1  17   61.42    5.79
 -10  -1  18 1343.34   45.25
 -10  -1  18 1364.85   46.14
 -10  -1  19   37.31    5.27
 -10  -1  19   34.12    4.82
 -10  -1  20  236.47   10.98
 -10  -1  20  222.60   10.24
 -10  -1  21   20.62    5.04
 -10  -1  21   18.84    5.12
 -10  -1  22 1298.09   43.99
 -10  -1  22 1203.14   41.02
 -10  -1  23  162.22    8.60
 -10  -1  23  165.49    8.60
 -10  -1  24  125.95    7.27
 -10  -1  24  118.53    7.42
 -10  -1  25   30.93    5.04
 -10  -1  25   32.49    5.34
 -10  -1  26 1232.81   41.46
 -10  -1  26 1113.39   38.05
 -10  -1  27  111.64    6.53
 -10  -1  27  118.01    7.42
 -10  -1  28  168.45    8.38
 -10  -1  28  168.16    8.46
 -10  -1  29    0.96    4.23
 -10  -1  29    2.15    3.34
 -10  -1  30  444.99   16.24
 -10  -1  30  462.64   17.21
 -10  -1  31   42.65    4.45
 -10  -1  31   49.18    5.34
 -10  -1  32    5.04    4.23
 -10  -1  32    7.49    3.26
 -11  -1 -28    1.56    3.63
  11   1  28   12.76    4.38
 -11  -1 -27  251.76   10.46
  11   1  27  280.91   11.72
 -11  -1 -26   19.14    4.52
  11   1  26    8.53    5.27
 -11  -1 -25   87.31    5.34
  11   1  25   68.98    6.16
 -11  -1 -24   42.80    4.23
  11   1  24   46.06    5.41
 -11  -1 -23  689.10   24.33
  11   1  23  689.47   24.48
 -11  -1 -22    1.19    4.60
  11   1  22   10.76    5.19
 -11  -1 -21   93.46    6.68
  11   1  21   97.32    7.12
 -11  -1 -20   94.87    6.45
  11   1  20   85.08    6.75
 -11  -1 -19 1174.96   39.76
  11   1  19 1256.55   42.58
 -11  -1 -18   38.20    4.90
  11   1  18   39.54    5.79
 -11  -1 -17 1241.72   42.06
  11   1  17 1207.59   41.02
 -11  -1 -16    7.57    4.75
  11   1  16   -1.19    4.75
 -11  -1 -15  236.25   10.76
  11   1  15  246.27   11.20
 -11  -1 -14  160.30    8.23
  11   1  14  143.16    7.86
 -11  -1 -13 1439.77   48.36
  11   1  13 1525.07   51.33
 -11  -1 -12  641.18   22.99
  11   1  12  609.81   22.48
 -11  -1 -11  219.71    9.49
  11   1  11  211.92   10.38
 -11  -1 -10  273.12   11.65
  11   1  10  260.06   11.57
 -11  -1  -9 5321.43  172.24
  11   1   9 5653.74  183.07
 -11  -1  -8   20.62    4.75
  11   1   8   31.82    5.04
 -11  -1  -7   18.84    4.38
  11   1   7   33.90    5.04
 -11  -1  -6  646.75   22.85
  11   1   6  589.33   21.59
 -11  -1  -5 1792.85   59.49
  11   1   5 1757.24   58.45
 -11  -1  -4    8.46    4.67
  11   1   4    1.63    4.52
 -11  -1  -3   -2.30    3.86
  11   1   3    6.08    4.75
 -11  -1  -2  154.51    8.09
  11   1   2  127.88    7.57
 -11  -1  -1 2556.87   83.82
  11   1   1 2622.88   86.04
 -11  -1   0    1.71    4.45
  11   1   0   -1.78    4.45
 -11  -1   1  460.56   17.21
  11   1  -1  469.46   17.65
 -11  -1   2   28.71    4.75
  11   1  -2   22.99    4.60
 -11  -1   3 1465.73   48.96
  11   1  -3 1490.95   49.92
 -11  -1   4   50.74    5.34
  11   1  -4   48.14    5.12
 -11  -1   5  250.35   10.76
  11   1  -5  244.49   10.76
 -11  -1   6 1476.86   49.40
  11   1  -6 1399.71   46.95
 -11  -1   7 2601.37   85.23
  11   1  -7 2586.54   84.78
 -11  -1   8  489.34   18.10
  11   1  -8  534.07   19.66
 -11  -1   9  458.04   17.06
 -11  -1   9  443.43   16.69
 -11  -1  10   11.50    4.45
 -11  -1  10    8.46    4.67
 -11  -1  11  348.48   13.72
 -11  -1  11  353.67   14.24
 -11  -1  12  120.83    6.97
 -11  -1  12  136.86    8.01
 -11  -1  13  294.85   12.16
 -11  -1  13  299.38   12.68
 -11  -1  14   58.38    5.41
 -11  -1  14   56.52    5.41
 -11  -1  15 1982.00   65.57
 -11  -1  15 1967.16   65.35
 -11  -1  16  245.90   10.90
 -11  -1  16  230.76   10.61
 -11  -1  17 2214.91   72.99
 -11  -1  17 2123.67   70.32
 -11  -1  18    2.89    4.30
 -11  -1  18   10.38    4.97
 -11  -1  19  190.49    9.49
 -11  -1  19  197.83    9.42
 -11  -1  20   81.37    6.16
 -11  -1  20   85.08    6.31
 -11  -1  21 1154.19   39.46
 -11  -1  21 1287.71   43.76
 -11  -1  22   35.46    5.34
 -11  -1  22   34.42    5.34
 -11  -1  23   24.92    4.97
 -11  -1  23   36.42    5.41
 -11  -1  24   11.94    4.60
 -11  -1  24    5.64    4.60
 -11  -1  25  234.47   10.61
 -11  -1  25  234.62   10.09
 -11  -1  26   91.24    6.68
 -11  -1  26   87.08    6.01
 -11  -1  27    1.56    4.67
 -11  -1  27   -2.15    4.38
 -11  -1  28   39.02    5.19
 -11  -1  28   46.43    5.27
 -11  -1  29 1994.61   65.50
 -11  -1  29 1995.35   65.65
 -11  -1  30   -5.71    3.78
 -11  -1  30    5.34    3.86
 -11  -1  31   18.69    4.30
 -11  -1  31   19.21    4.67
 -11  -1  32   13.72    4.15
 -11  -1  32    7.79    3.63
 -12  -1 -27    6.23    4.45
  12   1  27    6.75    4.38
 -12  -1 -26  297.74   11.79
  12   1  26  325.19   12.83
 -12  -1 -25   34.27    4.52
  12   1  25   38.13    5.49
 -12  -1 -24  444.84   16.32
  12   1  24  438.83   16.54
 -12  -1 -23   11.50    3.34
  12   1  23    2.30    4.45
 -12  -1 -22  152.80    7.86
  12   1  22  124.39    7.86
 -12  -1 -21   70.69    5.79
  12   1  21   64.76    6.38
 -12  -1 -20  470.35   17.43
  12   1  20  443.65   17.06
 -12  -1 -19   43.62    4.23
  12   1  19   33.68    5.56
 -12  -1 -18 1038.47   35.38
  12   1  18 1012.51   34.94
 -12  -1 -17   74.92    5.86
  12   1  17   75.66    6.38
 -12  -1 -16  686.13   24.63
  12   1  16  666.03   23.81
 -12  -1 -15  230.24   10.46
  12   1  15  222.23   10.38
 -12  -1 -14 2364.75   78.03
  12   1  14 2244.58   74.18
 -12  -1 -13  221.57   10.38
  12   1  13  223.86   10.76
 -12  -1 -12 2885.47   94.58
  12   1  12 2890.66   94.80
 -12  -1 -11  786.27   27.45
  12   1  11  753.63   26.78
 -12  -1 -10  260.21   11.20
  12   1  10  254.43   11.50
 -12  -1  -9   27.59    4.45
  12   1   9   27.96    5.86
 -12  -1  -8  536.22   19.66
  12   1   8  563.15   20.99
 -12  -1  -7  294.18   12.09
  12   1   7  305.01   12.91
 -12  -1  -6 1269.16   42.95
  12   1   6 1288.45   43.76
 -12  -1  -5  182.77    8.98
  12   1   5  184.63    9.20
 -12  -1  -4    2.97    4.75
  12   1   4   12.31    4.97
 -12  -1  -3  318.44   13.28
  12   1   3  308.95   13.06
 -12  -1  -2 2466.37   81.07
  12   1   2 2513.84   82.71
 -12  -1  -1   33.97    4.75
  12   1   1   24.70    4.23
 -12  -1   0  192.64    9.27
  12   1   0  171.87    8.68
 -12  -1   1   58.82    5.86
  12   1  -1   70.84    6.01
 -12  -1   2 2649.59   86.86
  12   1  -2 2728.96   89.53
 -12  -1   3  169.05    8.16
  12   1  -3  172.02    8.75
 -12  -1   4  328.60   13.20
  12   1  -4  333.65   13.57
 -12  -1   5   22.10    4.45
  12   1  -5   30.71    4.90
 -12  -1   6  258.88   10.83
  12   1  -6  267.78   11.57
 -12  -1   7  416.20   15.87
  12   1  -7  404.78   15.73
 -12  -1   8   37.01    5.27
  12   1  -8   34.49    5.34
 -12  -1   9    6.53    4.15
 -12  -1   9    6.90    4.01
 -12  -1  10  781.08   27.30
 -12  -1  10  766.24   27.07
 -12  -1  11  798.88   27.96
 -12  -1  11  834.49   29.30
 -12  -1  12 1266.94   42.95
 -12  -1  12 1256.55   42.43
 -12  -1  13   14.09    4.52
 -12  -1  13   12.83    4.52
 -12  -1  14  389.87   15.13
 -12  -1  14  402.04   15.73
 -12  -1  15    0.96    4.30
 -12  -1  15    4.52    3.78
 -12  -1  16  648.01   23.22
 -12  -1  16  652.01   23.59
 -12  -1  17   -0.96    4.30
 -12  -1  17    3.04    4.23
 -12  -1  18  371.85   14.76
 -12  -1  18  348.33   14.17
 -12  -1  19   82.11    6.45
 -12  -1  19   86.56    5.79
 -12  -1  20 1120.81   38.42
 -12  -1  20 1194.98   40.65
 -12  -1  21    0.59    4.67
 -12  -1  21    1.11    4.45
 -12  -1  22   44.51    5.34
 -12  -1  22   45.47    5.49
 -12  -1  23    7.57    4.30
 -12  -1  23   -0.74    3.78
 -12  -1  24 1278.06   42.95
 -12  -1  24 1318.12   44.28
 -12  -1  25   36.27    4.75
 -12  -1  25   39.68    5.04
 -12  -1  26  103.18    6.60
 -12  -1  26   99.54    6.60
 -12  -1  27   41.39    5.71
 -12  -1  27   42.65    5.27
 -12  -1  28  555.66   20.25
 -12  -1  28  587.11   21.29
 -12  -1  29    3.34    3.93
 -12  -1  29   10.83    4.60
 -12  -1  30  113.71    6.53
 -12  -1  30  118.76    6.31
 -12  -1  31   22.10    4.30
 -12  -1  31   17.06    4.08
 -13  -1 -26   -0.45    4.38
  13   1  26    2.52    3.56
 -13  -1 -25  662.92   22.99
  13   1  25  602.46   21.29
 -13  -1 -24    1.41    3.04
  13   1  24   -2.15    4.67
 -13  -1 -23  157.33    7.49
  13   1  23  136.19    7.86
 -13  -1 -22    9.20    3.86
  13   1  22    1.71    4.01
 -13  -1 -21  814.46   28.34
  13   1  21  876.03   30.56
 -13  -1 -20   -1.04    3.93
  13   1  20    7.71    4.82
 -13  -1 -19  401.59   15.13
  13   1  19  421.55   16.39
 -13  -1 -18  171.64    8.01
  13   1  18  187.00    9.35
 -13  -1 -17 1378.20   46.29
  13   1  17 1437.54   48.36
 -13  -1 -16  746.22   26.41
  13   1  16  775.15   27.30
 -13  -1 -15 1146.03   39.24
  13   1  15 1002.87   34.49
 -13  -1 -14   35.09    4.15
  13   1  14   40.35    5.41
 -13  -1 -13  392.76   15.35
  13   1  13  360.50   14.54
 -13  -1 -12  597.57   21.66
  13   1  12  537.34   20.25
 -13  -1 -11 1528.04   51.11
  13   1  11 1595.54   53.48
 -13  -1 -10  708.76   25.15
  13   1  10  700.75   25.29
 -13  -1  -9    7.27    4.23
  13   1   9    7.79    4.75
 -13  -1  -8  197.75    9.35
  13   1   8  167.56    8.83
 -13  -1  -7 2234.20   73.73
  13   1   7 2320.98   76.70
 -13  -1  -6  149.99    7.71
  13   1   6  147.46    8.38
 -13  -1  -5   41.17    4.67
  13   1   5   34.20    5.56
 -13  -1  -4  124.47    7.71
  13   1   4  124.32    7.71
 -13  -1  -3 1531.00   51.40
  13   1   3 1593.31   53.41
 -13  -1  -2   44.28    5.49
  13   1   2   51.78    5.93
 -13  -1  -1  164.97    8.53
  13   1   1  171.94    9.05
 -13  -1   0  135.89    7.64
  13   1   0  126.99    7.57
 -13  -1   1 1483.53   49.70
  13   1  -1 1479.82   49.77
 -13  -1   2   17.58    4.45
  13   1  -2   10.53    4.38
 -13  -1   3  178.99    8.98
  13   1  -3  189.15    9.20
 -13  -1   4   57.49    5.71
  13   1  -4   52.44    5.34
 -13  -1   5 3448.47  112.45
  13   1  -5 3441.79  112.30
 -13  -1   6   26.70    4.82
  13   1  -6   31.30    5.12
 -13  -1   7 6764.16  218.30
  13   1  -7 6096.57  197.09
 -13  -1   8  940.56   32.42
  13   1  -8 1010.28   34.79
 -13  -1   9 2162.99   71.28
 -13  -1   9 1933.04   64.16
 -13  -1  10  153.25    7.64
 -13  -1  10  141.31    7.49
 -13  -1  11 1118.58   37.98
 -13  -1  11 1113.39   38.13
 -13  -1  12  677.16   24.03
 -13  -1  12  697.33   24.92
 -13  -1  13 3438.08  112.08
 -13  -1  13 3266.74  106.74
 -13  -1  14   39.76    4.90
 -13  -1  14   40.43    4.60
 -13  -1  15 1582.19   52.89
 -13  -1  15 1467.95   49.48
 -13  -1  16  188.93    9.27
 -13  -1  16  158.96    8.16
 -13  -1  17  135.08    7.79
 -13  -1  17  150.13    7.86
 -13  -1  18   80.18    6.16
 -13  -1  18  101.99    6.45
 -13  -1  19 1111.91   38.05
 -13  -1  19 1183.12   40.20
 -13  -1  20    3.26    4.15
 -13  -1  20    6.82    4.52
 -13  -1  21   45.99    5.12
 -13  -1  21   55.19    5.41
 -13  -1  22   -3.63    3.41
 -13  -1  22   -1.04    3.63
 -13  -1  23 1252.10   42.06
 -13  -1  23 1271.39   42.73
 -13  -1  24   56.75    5.27
 -13  -1  24   55.85    5.12
 -13  -1  25    3.34    4.15
 -13  -1  25   -4.15    3.78
 -13  -1  26   60.68    5.64
 -13  -1  26   48.96    4.52
 -13  -1  28   92.65    6.01
 -13  -1  28   91.98    5.93
 -13  -1  29    0.30    3.26
 -13  -1  29   -6.16    4.15
 -13  -1  30  396.47   14.98
 -13  -1  30  372.29   14.09
 -14  -1 -25   24.48    3.56
  14   1  25   24.85    4.01
 -14  -1 -24  165.49    7.34
  14   1  24  182.85    8.38
 -14  -1 -23    3.34    3.71
  14   1  23   -1.19    4.82
 -14  -1 -22  599.27   21.51
  14   1  22  558.77   20.32
 -14  -1 -21    7.71    4.30
  14   1  21    8.60    4.90
 -14  -1 -20  296.34   12.24
  14   1  20  302.20   12.68
 -14  -1 -19    9.12    4.60
  14   1  19    8.68    5.12
 -14  -1 -18  329.42   12.91
  14   1  18  265.11   11.72
 -14  -1 -17  123.87    6.82
  14   1  17  137.52    8.09
 -14  -1 -16   35.38    4.30
  14   1  16   26.56    5.41
 -14  -1 -15    0.74    4.01
  14   1  15    2.30    5.04
 -14  -1 -14 1249.13   42.50
  14   1  14 1150.48   39.24
 -14  -1 -13  288.70   11.94
  14   1  13  302.71   12.68
 -14  -1 -12 1793.59   59.49
  14   1  12 1775.05   59.19
 -14  -1 -11   84.93    6.16
  14   1  11  103.70    7.34
 -14  -1 -10  309.91   12.46
  14   1  10  309.02   13.06
 -14  -1  -9   13.87    4.45
  14   1   9   10.90    4.97
 -14  -1  -8  602.17   21.73
  14   1   8  613.89   22.62
 -14  -1  -7  116.46    6.53
  14   1   7  103.18    7.27
 -14  -1  -6  289.51   12.24
  14   1   6  321.41   13.43
 -14  -1  -5   93.02    6.38
  14   1   5   93.98    6.90
 -14  -1  -4 1936.75   64.31
  14   1   4 1988.67   65.94
 -14  -1  -3   19.06    4.08
  14   1   3   29.67    5.12
 -14  -1  -2   60.68    5.41
  14   1   2   56.45    5.64
 -14  -1  -1  375.70   14.76
  14   1   1  361.83   14.54
 -14  -1   0 2159.28   71.36
  14   1   0 2220.85   73.36
 -14  -1   1   21.07    4.23
  14   1  -1   28.11    4.82
 -14  -1   2    5.41    3.56
  14   1  -2    8.60    4.60
 -14  -1   3  501.80   18.47
  14   1  -3  508.70   19.06
 -14  -1   4 2268.32   74.70
  14   1  -4 2205.27   72.84
 -14  -1   5   72.32    5.19
  14   1  -5   61.49    5.56
 -14  -1   6    4.01    3.86
  14   1  -6   10.38    4.08
 -14  -1   7  223.20    9.64
  14   1  -7  223.12   10.09
 -14  -1   8 1911.53   63.35
  14   1  -8 1939.72   64.31
 -14  -1   9   83.82    5.86
  14   1  -9  115.64    6.82
 -14  -1  10   12.46    3.86
 -14  -1  10    9.42    3.78
 -14  -1  11  183.14    8.53
 -14  -1  11  201.46    9.35
 -14  -1  12  100.51    6.75
 -14  -1  12  105.40    6.45
 -14  -1  13   28.41    4.67
 -14  -1  13   21.73    4.60
 -14  -1  14  952.43   32.93
 -14  -1  14  919.79   31.97
 -14  -1  15   62.31    5.79
 -14  -1  15   62.16    5.56
 -14  -1  16  273.64   11.72
 -14  -1  16  245.97   10.83
 -14  -1  17    5.27    4.23
 -14  -1  17    3.26    4.38
 -14  -1  18 1125.26   38.42
 -14  -1  18 1128.23   38.50
 -14  -1  19   -0.59    3.78
 -14  -1  19    4.23    4.15
 -14  -1  20   61.49    5.27
 -14  -1  20   69.95    5.49
 -14  -1  21   -1.63    3.63
 -14  -1  21   -0.82    4.23
 -14  -1  22 1367.07   45.92
 -14  -1  22 1453.12   48.44
 -14  -1  23   -1.41    4.01
 -14  -1  23    5.86    4.67
 -14  -1  24   73.06    5.34
 -14  -1  24   77.51    6.16
 -14  -1  25    3.63    4.38
 -14  -1  25    8.60    4.52
 -14  -1  26 1180.89   39.98
 -14  -1  26 1243.94   41.84
 -14  -1  27   54.96    5.56
 -14  -1  27   38.87    4.75
 -14  -1  28  364.95   14.02
 -14  -1  28  350.11   13.06
 -14  -1  29   97.84    6.23
 -14  -1  29   98.36    6.08
 -14  -1  30  128.55    6.38
 -15  -1 -24   10.61    4.30
  15   1  24    2.74    4.30
 -15  -1 -23  445.73   16.24
  15   1  23  463.46   16.69
 -15  -1 -22    0.89    4.23
  15   1  22    1.71    4.60
 -15  -1 -21  266.37   11.13
  15   1  21  231.65    9.87
 -15  -1 -20  113.64    6.45
  15   1  20  112.97    7.27
 -15  -1 -19 1127.48   38.13
  15   1  19 1143.80   38.72
 -15  -1 -18    3.04    4.30
  15   1  18    5.86    4.90
 -15  -1 -17  946.49   32.42
  15   1  17 1028.09   35.38
 -15  -1 -16   79.00    6.01
  15   1  16   48.96    6.16
 -15  -1 -15   90.87    6.60
  15   1  15   86.04    6.82
 -15  -1 -14   20.03    4.45
  15   1  14   17.28    5.19
 -15  -1 -13  910.15   31.38
  15   1  13  931.66   32.42
 -15  -1 -12   -3.12    4.30
  15   1  12    1.34    4.97
 -15  -1 -11  635.40   22.62
  15   1  11  634.73   22.92
 -15  -1 -10    4.97    3.63
  15   1  10   -3.93    4.97
 -15  -1  -9 1438.28   48.21
  15   1   9 1483.53   49.92
 -15  -1  -8  152.43    7.79
  15   1   8  179.66    9.27
 -15  -1  -7   40.95    5.12
  15   1   7   40.72    5.79
 -15  -1  -6    7.20    4.01
  15   1   6    3.26    4.82
 -15  -1  -5  967.26   33.45
  15   1   5  924.24   32.19
 -15  -1  -4   16.62    4.67
  15   1   4   11.05    4.75
 -15  -1  -3    4.08    3.71
  15   1   3    3.56    4.67
 -15  -1  -2   83.52    6.16
  15   1   2   77.74    6.38
 -15  -1  -1 1565.87   52.29
  15   1   1 1496.14   50.22
 -15  -1   0  196.35    9.12
  15   1   0  216.74   10.09
 -15  -1   1  102.73    6.38
  15   1  -1   99.40    6.68
 -15  -1   2    1.71    3.78
  15   1  -2   -2.97    4.23
 -15  -1   3 1882.60   62.23
  15   1  -3 2034.66   67.43
 -15  -1   4    1.48    3.71
  15   1  -4   -2.00    4.08
 -15  -1   5   31.82    4.23
  15   1  -5   37.01    5.04
 -15  -1   6  576.57   20.62
  15   1  -6  574.35   20.92
 -15  -1   7 1252.10   42.13
  15   1  -7 1204.63   40.80
 -15  -1   8  109.93    6.53
  15   1  -8  102.96    6.45
 -15  -1   9 2931.46   95.76
  15   1  -9 2796.46   91.53
 -15  -1  10   87.38    6.38
 -15  -1  10   92.35    6.16
 -15  -1  11  703.79   25.15
 -15  -1  11  703.05   24.85
 -15  -1  12  638.14   22.92
 -15  -1  12  605.21   22.03
 -15  -1  13 2537.58   83.30
 -15  -1  13 2677.77   87.97
 -15  -1  14   19.95    4.52
 -15  -1  14   24.77    4.45
 -15  -1  15  677.31   24.26
 -15  -1  15  607.58   22.10
 -15  -1  16   36.05    4.67
 -15  -1  16   42.28    5.12
 -15  -1  17 1022.89   35.01
 -15  -1  17  922.76   31.82
 -15  -1  18    7.05    4.15
 -15  -1  18   10.31    4.45
 -15  -1  19  110.60    6.60
 -15  -1  19  117.05    6.97
 -15  -1  20   52.96    5.04
 -15  -1  20   50.22    4.90
 -15  -1  21 1457.57   48.51
 -15  -1  21 1502.08   50.14
 -15  -1  22   28.71    4.60
 -15  -1  22   25.07    4.30
 -15  -1  23    8.23    4.23
 -15  -1  23    2.67    4.15
 -15  -1  24    3.93    4.23
 -15  -1  24    2.60    4.38
 -15  -1  25  589.48   21.29
 -15  -1  25  612.25   21.88
 -15  -1  26    3.34    3.78
 -15  -1  26   -0.89    4.15
 -15  -1  27  180.77    8.31
 -15  -1  27  165.64    7.64
 -15  -1  28   58.15    5.12
 -15  -1  28   64.61    4.45
 -15  -1  29 3109.48  100.88
 -15  -1  29 2892.89   93.61
 -16  -1 -22  174.17    7.57
  16   1  22  167.64    7.94
 -16  -1 -21   22.77    4.30
  16   1  21   14.39    4.82
 -16  -1 -20  270.67   11.05
  16   1  20  275.94   11.35
 -16  -1 -19    0.67    4.15
  16   1  19    2.74    4.82
 -16  -1 -18  224.01    9.72
  16   1  18  184.92    8.98
 -16  -1 -17   -6.16    4.08
  16   1  17    0.37    4.30
 -16  -1 -16  388.24   14.69
  16   1  16  425.33   16.24
 -16  -1 -15    0.22    2.97
  16   1  15    5.12    4.90
 -16  -1 -14 1319.60   44.36
  16   1  14 1311.44   44.43
 -16  -1 -13  303.01   12.54
  16   1  13  286.47   12.02
 -16  -1 -12   91.76    6.60
  16   1  12   99.69    6.68
 -16  -1 -11   87.83    5.79
  16   1  11   77.81    6.68
 -16  -1 -10  372.96   14.39
  16   1  10  416.43   16.32
 -16  -1  -9   90.35    6.23
  16   1   9   86.34    6.82
 -16  -1  -8   73.29    5.41
  16   1   8  104.29    6.97
 -16  -1  -7  119.13    6.90
  16   1   7  131.14    7.94
 -16  -1  -6 2314.31   76.33
  16   1   6 2330.63   76.85
 -16  -1  -5  182.25    8.83
  16   1   5  166.82    8.46
 -16  -1  -4   -2.30    4.23
  16   1   4    6.23    4.38
 -16  -1  -3    5.12    3.78
  16   1   3    0.07    3.71
 -16  -1  -2 1875.93   62.38
  16   1   2 1851.45   61.57
 -16  -1  -1    0.30    3.63
  16   1   1   -1.93    4.60
 -16  -1   0  106.15    6.60
  16   1   0  103.03    6.90
 -16  -1   1   35.01    4.23
  16   1  -1   38.42    4.60
 -16  -1   2 1599.99   53.41
  16   1  -2 1660.07   55.41
 -16  -1   3   95.54    5.93
  16   1  -3   85.53    6.23
 -16  -1   4 1148.25   38.87
  16   1  -4 1132.68   38.57
 -16  -1   5  161.56    7.94
  16   1  -5  176.17    8.68
 -16  -1   6  214.30    9.35
  16   1  -6  226.09   10.01
 -16  -1   7   20.47    3.78
  16   1  -7   15.50    4.38
 -16  -1   8  648.01   22.92
  16   1  -8  647.78   23.14
 -16  -1   9   15.13    4.23
  16   1  -9   17.43    4.30
 -16  -1  10 2461.92   81.07
 -16  -1  10 2201.56   72.40
 -16  -1  11    2.67    3.78
 -16  -1  11    0.37    3.56
 -16  -1  12 1651.17   55.19
 -16  -1  12 1640.04   54.74
 -16  -1  13   10.61    4.23
 -16  -1  13   10.76    4.30
 -16  -1  14  447.28   16.84
 -16  -1  14  456.78   17.06
 -16  -1  15   56.52    5.49
 -16  -1  15   44.73    4.97
 -16  -1  16  397.14   14.98
 -16  -1  16  381.19   14.84
 -16  -1  17  133.89    7.12
 -16  -1  17  132.18    7.05
 -16  -1  18  230.99    9.94
 -16  -1  18  218.60   10.09
 -16  -1  19   35.01    4.90
 -16  -1  19   27.45    4.38
 -16  -1  20  975.42   33.16
 -16  -1  20  990.26   33.90
 -16  -1  21    2.37    3.93
 -16  -1  21   -3.26    3.78
 -16  -1  22  186.41    8.75
 -16  -1  22  170.83    8.31
 -16  -1  23   34.79    5.12
 -16  -1  23   34.42    4.52
 -16  -1  24 1622.98   53.78
 -16  -1  24 1648.94   54.59
 -16  -1  25   -2.15    3.78
 -16  -1  25    2.97    3.71
 -16  -1  26    1.34    3.71
 -16  -1  26    6.45    3.71
 -16  -1  27   14.69    4.30
 -16  -1  27   16.69    3.12
 -16  -1  28   55.19    4.52
 -17  -1 -21  506.18   17.58
  17   1  21  528.66   18.77
 -17  -1 -20   16.24    3.34
  17   1  20   17.06    4.52
 -17  -1 -19  608.10   21.14
  17   1  19  727.38   25.07
 -17  -1 -18   95.91    5.64
  17   1  18   83.60    6.16
 -17  -1 -17  275.71   10.98
  17   1  17  296.93   12.39
 -17  -1 -16   42.80    4.30
  17   1  16   34.42    5.34
 -17  -1 -15  368.36   13.95
  17   1  15  335.35   13.43
 -17  -1 -14    9.79    3.63
  17   1  14    6.75    4.97
 -17  -1 -13   28.19    4.67
  17   1  13   24.26    5.27
 -17  -1 -12   17.73    4.67
  17   1  12   25.59    5.49
 -17  -1 -11  597.27   21.59
  17   1  11  595.42   21.96
 -17  -1 -10  216.67    9.49
  17   1  10  208.14   10.01
 -17  -1  -9   98.51    6.08
  17   1   9   95.98    7.12
 -17  -1  -8   25.89    4.52
  17   1   8   28.85    4.75
 -17  -1  -7 1890.76   62.68
  17   1   7 1907.82   63.35
 -17  -1  -6    0.52    2.89
  17   1   6   -1.04    4.23
 -17  -1  -5  101.25    6.68
  17   1   5  103.48    6.53
 -17  -1  -4   35.38    5.04
  17   1   4   31.38    5.19
 -17  -1  -3 1744.63   58.23
  17   1   3 1801.01   59.93
 -17  -1  -2   31.30    4.97
  17   1   2   35.53    5.27
 -17  -1  -1  237.88   10.46
  17   1   1  243.15   10.83
 -17  -1   0    1.04    3.78
  17   1   0    7.79    4.30
 -17  -1   1 1483.53   49.85
  17   1  -1 1348.53   45.47
 -17  -1   2  614.26   22.03
  17   1  -2  579.91   21.21
 -17  -1   3   16.47    3.93
  17   1  -3   11.87    4.38
 -17  -1   4    8.46    4.01
  17   1  -4   11.50    4.23
 -17  -1   5 2304.67   75.73
  17   1  -5 2380.33   78.33
 -17  -1   6  222.08    9.72
  17   1  -6  219.04   10.16
 -17  -1   7 1575.51   52.44
  17   1  -7 1579.22   52.81
 -17  -1   8   45.32    4.60
  17   1  -8   51.78    5.34
 -17  -1   9  481.70   17.80
  17   1  -9  480.22   18.02
 -17  -1  10   50.22    4.82
 -17  -1  10   58.75    5.27
 -17  -1  11  351.82   13.95
 -17  -1  11  349.67   13.72
 -17  -1  12   26.63    4.15
 -17  -1  12   24.63    4.23
 -17  -1  14    3.56    3.86
 -17  -1  14   15.21    4.38
 -17  -1  15  867.12   30.04
 -17  -1  15  894.57   30.63
 -17  -1  16   97.39    6.01
 -17  -1  16  112.38    6.53
 -17  -1  17  172.39    8.68
 -17  -1  17  170.09    8.23
 -17  -1  18   13.13    4.52
 -17  -1  18   12.39    3.93
 -17  -1  19  937.59   32.27
 -17  -1  19  858.22   29.45
 -17  -1  20   10.16    3.78
 -17  -1  20   13.72    4.08
 -17  -1  21   17.13    3.56
 -17  -1  21   22.77    4.52
 -17  -1  22   89.68    6.23
 -17  -1  22   88.27    5.79
 -17  -1  23  433.12   16.17
 -17  -1  23  434.08   16.02
 -17  -1  24   43.32    4.52
 -17  -1  24   48.59    4.45
 -17  -1  25  129.29    6.68
 -17  -1  25  114.38    6.16
 -17  -1  26    8.68    3.56
 -17  -1  26   13.13    4.08
 -18  -1 -19   16.62    3.19
  18   1  19   16.99    4.45
 -18  -1 -18  289.73   11.20
  18   1  18  285.36   11.57
 -18  -1 -17   20.10    3.34
  18   1  17   17.73    4.52
 -18  -1 -16  384.68   14.32
  18   1  16  402.78   15.35
 -18  -1 -15   63.94    4.60
  18   1  15   62.75    5.93
 -18  -1 -14  127.29    6.68
  18   1  14  150.21    8.16
 -18  -1 -13  129.22    6.75
  18   1  13  117.12    7.34
 -18  -1 -12 2170.41   71.28
  18   1  12 2354.36   77.44
 -18  -1 -11  180.25    8.83
  18   1  11  160.96    8.16
 -18  -1 -10   55.71    5.49
  18   1  10   46.58    5.56
 -18  -1  -9   48.29    5.19
  18   1   9   53.70    5.93
 -18  -1  -8  640.37   22.55
  18   1   8  698.30   24.77
 -18  -1  -7   35.31    3.78
  18   1   7   16.76    5.04
 -18  -1  -6  255.46   10.83
  18   1   6  273.19   11.72
 -18  -1  -5   13.20    4.38
  18   1   5   16.10    4.90
 -18  -1  -4 1826.97   60.68
  18   1   4 1856.64   61.79
 -18  -1  -3   54.52    5.04
  18   1   3   54.37    5.79
 -18  -1  -2   61.94    5.71
  18   1   2   71.88    5.86
 -18  -1  -1   36.12    4.97
  18   1   1   41.46    5.04
 -18  -1   0 1114.13   37.90
  18   1   0 1171.99   39.76
 -18  -1   1   13.06    4.15
  18   1  -1   12.83    4.01
 -18  -1   2  659.95   23.37
  18   1  -2  774.40   27.15
 -18  -1   3  231.95   10.09
  18   1  -3  238.77   10.53
 -18  -1   4  243.82   10.38
  18   1  -4  245.52   10.76
 -18  -1   5   15.50    4.08
  18   1  -5    7.20    4.30
 -18  -1   6   81.37    5.64
  18   1  -6   88.34    6.16
 -18  -1   7    8.75    3.78
  18   1  -7   12.76    4.30
 -18  -1   8 1065.92   36.27
  18   1  -8 1167.54   39.68
 -18  -1   9   41.02    4.60
  18   1  -9   33.38    4.60
 -18  -1  10  421.03   16.02
 -18  -1  10  442.98   16.32
 -18  -1  11   52.07    5.19
 -18  -1  11   58.08    4.67
 -18  -1  12  194.64    8.83
 -18  -1  12  202.50    9.57
 -18  -1  13   32.56    4.23
 -18  -1  13   29.08    4.60
 -18  -1  14  428.67   16.02
 -18  -1  14  394.10   15.21
 -18  -1  15   28.93    4.23
 -18  -1  15   36.20    4.97
 -18  -1  16  531.48   19.06
 -18  -1  16  524.87   19.06
 -18  -1  17    7.27    4.01
 -18  -1  17    8.53    3.86
 -18  -1  18  999.90   34.05
 -18  -1  18  890.12   30.63
 -18  -1  19   29.67    4.67
 -18  -1  19   38.13    4.38
 -18  -1  20   34.57    4.75
 -18  -1  20   37.16    4.75
 -18  -1  21   19.21    3.56
 -18  -1  21   16.91    4.45
 -18  -1  22  953.91   32.56
 -18  -1  22 1060.72   35.53
 -18  -1  23   -3.63    4.01
 -18  -1  23    3.93    3.63
 -18  -1  24   -0.52    3.78
 -18  -1  24   -2.37    3.86
 -18  -1  25  108.15    5.71
 -18  -1  25  106.07    5.86
 -19  -1 -17  879.73   29.82
  19   1  17  916.82   30.93
 -19  -1 -16    7.12    2.89
  19   1  16   10.76    3.78
 -19  -1 -15   55.85    4.30
  19   1  15   47.92    5.04
 -19  -1 -14   32.86    4.15
  19   1  14   25.22    4.52
 -19  -1 -13  342.03   13.06
  19   1  13  373.11   14.32
 -19  -1 -12   49.77    4.38
  19   1  12   52.67    4.97
 -19  -1 -11  783.30   27.00
  19   1  11  808.52   28.04
 -19  -1 -10   24.40    3.49
  19   1  10   22.99    5.04
 -19  -1  -9 1384.13   46.36
  19   1   9 1383.39   46.51
 -19  -1  -8  128.99    7.20
  19   1   8  131.59    7.27
 -19  -1  -7   -1.93    3.78
  19   1   7    0.52    4.45
 -19  -1  -6   -1.34    3.86
  19   1   6   -1.56    3.93
 -19  -1  -5 1038.47   35.23
  19   1   5 1094.10   37.31
 -19  -1  -4   65.87    5.27
  19   1   4   85.75    6.16
 -19  -1  -3   21.14    4.15
  19   1   3   27.22    4.75
 -19  -1  -2    4.38    3.63
  19   1   2   11.79    4.52
 -19  -1  -1  786.27   27.59
  19   1   1  744.73   26.33
 -19  -1   0    2.08    4.15
  19   1   0   -0.37    4.38
 -19  -1   1  143.75    7.86
  19   1  -1  131.59    7.57
 -19  -1   2   12.98    4.08
  19   1  -2    6.38    4.23
 -19  -1   3 1292.16   43.47
  19   1  -3 1203.89   40.87
 -19  -1   4   11.20    3.93
  19   1  -4   10.24    4.52
 -19  -1   5  756.60   26.41
  19   1  -5  763.28   26.85
 -19  -1   6   47.18    4.90
  19   1  -6   52.22    5.41
 -19  -1   7  196.20    8.90
  19   1  -7  172.24    8.31
 -19  -1   8   99.69    6.16
  19   1  -8   99.40    6.08
 -19  -1   9  446.47   16.54
  19   1  -9  456.93   16.91
 -19  -1  10   32.19    4.75
 -19  -1  10   38.79    4.45
 -19  -1  11  322.82   13.13
 -19  -1  11  329.57   12.91
 -19  -1  12   13.43    4.15
 -19  -1  12   19.95    4.01
 -19  -1  13  484.22   17.95
 -19  -1  13  449.96   16.69
 -19  -1  14  166.67    8.09
 -19  -1  14  179.66    8.68
 -19  -1  15  378.67   14.61
 -19  -1  15  372.07   14.32
 -19  -1  16    7.49    4.15
 -19  -1  16    4.52    4.15
 -19  -1  17  784.79   27.37
 -19  -1  17  775.89   27.15
 -19  -1  18   83.30    5.64
 -19  -1  18   84.71    6.08
 -19  -1  19   92.94    5.64
 -19  -1  19  110.52    6.75
 -19  -1  20    3.19    4.23
 -19  -1  20    0.67    3.41
 -19  -1  21  856.00   29.00
 -19  -1  21  844.13   29.00
 -19  -1  22    3.71    3.78
 -19  -1  22   17.51    4.23
 -19  -1  23    9.35    3.86
 -19  -1  23    2.60    3.86
 -20  -1 -15   15.58    4.45
  20   1  15   12.16    4.45
 -20  -1 -14 1045.89   34.94
  20   1  14  953.91   32.42
 -20  -1 -13    8.31    4.08
  20   1  13    2.08    3.78
 -20  -1 -12  164.75    8.01
  20   1  12  149.09    7.49
 -20  -1 -11  252.57   10.46
  20   1  11  213.18    9.64
 -20  -1 -10  551.73   20.10
  20   1  10  482.59   17.88
 -20  -1  -9   53.41    5.12
  20   1   9   42.95    5.27
 -20  -1  -8   11.65    4.15
  20   1   8    7.79    3.86
 -20  -1  -7    4.75    4.01
  20   1   7    2.60    4.38
 -20  -1  -6 1241.72   41.84
  20   1   6 1254.33   42.28
 -20  -1  -5  123.73    7.12
  20   1   5  135.52    7.57
 -20  -1  -4    8.38    3.86
  20   1   4   10.98    4.45
 -20  -1  -3   20.55    4.01
  20   1   3   38.79    5.12
 -20  -1  -2  840.42   28.78
  20   1   2  827.81   28.85
 -20  -1  -1   60.68    4.82
  20   1   1   45.62    5.12
 -20  -1   0  137.52    7.27
  20   1   0  139.38    7.64
 -20  -1   1   28.04    4.15
  20   1  -1   41.76    5.12
 -20  -1   2 1176.44   39.91
  20   1  -2 1172.73   39.61
 -20  -1   3    0.67    3.63
  20   1  -3    0.07    4.01
 -20  -1   4  506.40   18.77
  20   1  -4  494.76   18.17
 -20  -1   5  123.80    7.12
  20   1  -5  122.98    7.05
 -20  -1   6  955.39   33.08
  20   1  -6  912.37   31.38
 -20  -1   7    2.52    3.93
  20   1  -7    3.71    3.78
 -20  -1   8  466.57   17.28
  20   1  -8  453.37   16.76
 -20  -1   9   85.60    6.01
 -20  -1  10 1178.67   39.83
 -20  -1  10 1179.41   40.06
 -20  -1  11  490.08   18.10
 -20  -1  11  492.16   18.17
 -20  -1  12 1269.90   42.73
 -20  -1  12 1208.34   40.72
 -20  -1  13   -0.74    3.86
 -20  -1  13   -1.48    3.34
 -20  -1  14   96.87    6.01
 -20  -1  14  115.20    6.75
 -20  -1  15    0.00    3.86
 -20  -1  15    1.85    3.78
 -20  -1  16  531.85   19.14
 -20  -1  16  519.76   18.54
 -20  -1  17   97.10    5.86
 -20  -1  17  116.53    6.53
 -20  -1  18  141.01    7.20
 -20  -1  18  141.31    7.05
 -20  -1  19   10.98    4.01
 -20  -1  19    5.56    3.71
 -20  -1  20  726.86   25.15
 -20  -1  20  741.69   25.52
 -20  -1  21   45.03    4.60
 -20  -1  21   40.06    4.52
 -21  -1 -12   83.89    4.52
  21   1  12   90.72    6.08
 -21  -1 -11  593.78   20.70
  21   1  11  603.06   21.29
 -21  -1 -10   92.72    5.56
  21   1  10   93.83    6.23
 -21  -1  -9  138.86    6.75
  21   1   9  136.86    7.34
 -21  -1  -8   18.25    4.01
  21   1   8   14.69    4.45
 -21  -1  -7 1138.61   38.35
  21   1   7 1160.86   39.09
 -21  -1  -6    4.45    3.71
  21   1   6    4.08    4.52
 -21  -1  -5   11.35    3.86
  21   1   5   10.09    4.08
 -21  -1  -4   23.88    4.30
  21   1   4   21.81    4.60
 -21  -1  -3  716.10   25.15
  21   1   3  722.33   25.22
 -21  -1  -2   39.68    5.04
  21   1   2   32.04    4.97
 -21  -1  -1   34.94    4.67
  21   1   1   35.98    4.97
 -21  -1   0   42.50    4.67
  21   1   0   26.04    4.60
 -21  -1   1  899.02   30.63
  21   1  -1  987.29   33.60
 -21  -1   2    1.48    3.56
  21   1  -2    3.56    4.23
 -21  -1   3  204.80    8.90
  21   1  -3  195.46    9.05
 -21  -1   4   73.73    5.27
  21   1  -4   68.46    5.49
 -21  -1   5 1919.69   63.20
  21   1  -5 1702.35   56.37
 -21  -1   6    3.34    3.71
  21   1  -6    2.00    3.86
 -21  -1   7  216.60    9.42
  21   1  -7  245.60   10.38
 -21  -1   8   61.05    5.04
  21   1  -8   52.96    4.52
 -21  -1   9  246.64   10.24
 -21  -1   9  229.87    9.64
 -21  -1  10   33.38    4.23
 -21  -1  10   33.75    4.38
 -21  -1  11   25.59    4.08
 -21  -1  11   40.28    4.67
 -21  -1  12    8.98    3.56
 -21  -1  12    7.12    3.93
 -21  -1  13  518.05   18.40
 -21  -1  13  507.89   18.25
 -21  -1  14   -0.37    3.49
 -21  -1  14   -1.93    3.26
 -21  -1  15  893.09   30.26
 -21  -1  15  848.58   28.93
 -21  -1  16  101.10    5.86
 -21  -1  16  104.81    5.71
 -21  -1  17   96.73    5.86
 -21  -1  17   89.46    5.34
 -21  -1  18    0.00    3.63
 -21  -1  18   -0.52    3.19
 -21  -1  19  824.10   27.67
 -21  -1  19  832.26   28.11
 -22  -1  -9    8.68    2.60
  22   1   9   10.01    4.08
 -22  -1  -8  438.16   15.87
  22   1   8  464.05   16.69
 -22  -1  -7   -1.85    3.34
  22   1   7   -5.04    3.86
 -22  -1  -6   25.00    3.86
  22   1   6   13.20    4.23
 -22  -1  -5   24.11    4.08
  22   1   5   21.14    4.45
 -22  -1  -4  813.72   28.11
  22   1   4  779.60   27.00
 -22  -1  -3   26.78    4.23
  22   1   3   22.40    4.60
 -22  -1  -2    1.63    3.71
  22   1   2    6.90    3.56
 -22  -1  -1   65.42    4.82
  22   1   1   75.73    5.86
 -22  -1   0  961.33   32.56
  22   1   0  907.18   31.08
 -22  -1   1   -2.00    3.41
  22   1  -1    2.30    4.01
 -22  -1   2  129.07    7.05
  22   1  -2  119.80    6.90
 -22  -1   3   35.46    4.75
  22   1  -3   31.45    4.75
 -22  -1   4  311.32   12.39
  22   1  -4  328.08   12.83
 -22  -1   5   11.05    3.56
  22   1  -5    3.78    3.86
 -22  -1   6    5.12    3.93
  22   1  -6    7.34    3.78
 -22  -1   7  101.84    6.16
  22   1  -7   84.64    5.79
 -22  -1   8 1332.95   44.43
  22   1  -8 1316.63   43.99
 -22  -1   9   35.90    4.45
 -22  -1   9   48.81    4.90
 -22  -1  10 1816.58   59.93
 -22  -1  10 1746.12   57.71
 -22  -1  11  140.05    7.12
 -22  -1  11  151.17    7.57
 -22  -1  12   31.53    3.86
 -22  -1  12   37.76    4.38
 -22  -1  13   48.21    4.60
 -22  -1  13   49.55    4.52
 -22  -1  14  313.54   12.24
 -22  -1  14  297.30   11.50
 -22  -1  15   29.52    3.78
 -22  -1  15   20.99    3.71
 -22  -1  16  110.52    5.56
 -22  -1  16  120.69    6.01
 -23  -1  -5  435.34   15.58
 -23  -1  -4   -3.41    3.34
  23   1   4    0.30    3.78
 -23  -1  -3   -5.93    2.97
  23   1   3   -1.04    3.56
 -23  -1  -2   18.17    3.41
  23   1   2   19.88    4.38
 -23  -1  -1  470.95   16.84
  23   1   1  468.13   16.84
 -23  -1   0    0.96    3.71
  23   1   0    4.08    3.86
 -23  -1   1   40.57    4.45
  23   1  -1   41.17    4.60
 -23  -1   2   95.84    5.41
  23   1  -2  101.47    5.86
 -23  -1   3  531.92   18.69
  23   1  -3  524.80   18.84
 -23  -1   4    3.56    3.34
  23   1  -4   -2.30    3.86
 -23  -1   5  223.49    8.83
  23   1  -5  213.78    9.20
 -23  -1   6  148.80    6.82
  23   1  -6  130.55    6.75
 -23  -1   7  404.11   14.61
  23   1  -7  426.07   15.58
 -23  -1   8    9.87    3.19
  23   1  -8   16.62    3.56
 -23  -1   9    6.97    3.56
 -23  -1   9   -1.34    3.41
 -23  -1  10    3.86    3.19
 -23  -1  10    5.49    3.26
 -23  -1  11  312.73   11.72
 -23  -1  11  321.56   12.02
 -23  -1  12   23.51    3.63
 -23  -1  12   29.67    3.93
 -23   2  10   16.54    3.93
 -23   2   8   77.14    4.82
 -23   2   8   83.82    5.41
  23  -2  -7  208.36    8.75
 -23   2   7  194.05    8.31
  23  -2  -6   -2.74    3.34
 -23   2   6    4.52    2.89
  23  -2  -5  428.30   15.50
 -23   2   5  387.87   14.17
  23  -2  -4   50.37    4.82
 -23   2   4   43.99    4.38
  23  -2  -3   64.16    5.04
 -23   2   3   64.98    4.60
  23  -2  -2    6.45    4.15
 -23   2   2    4.97    3.12
  23  -2  -1  545.49   19.29
 -23   2   1  611.21   21.14
  23  -2   0   13.57    4.08
 -23   2   0    6.68    3.63
  23  -2   1   36.79    4.45
 -23   2  -1   43.10    3.93
  23  -2   2   85.53    5.71
 -23   2  -2   88.12    5.12
 -22   2  15   22.99    4.01
 -22   2  15   22.48    4.60
 -22   2  14   34.71    4.15
 -22   2  14   34.71    4.01
 -22   2  13  241.96    9.94
 -22   2  13  264.44   10.31
 -22   2  12  386.16   14.39
 -22   2  12  381.04   14.09
 -22   2  11   28.41    4.45
 -22   2  11   28.85    4.01
 -22   2  10  382.16   14.46
 -22   2  10  392.54   14.46
 -22   2   9  204.58    8.83
 -22   2   9  210.88    9.20
  22  -2  -8  269.56   10.76
 -22   2   8  254.80   10.01
  22  -2  -7   24.33    4.30
 -22   2   7   14.17    3.93
  22  -2  -6  586.37   20.84
 -22   2   6  591.41   20.92
  22  -2  -5   22.55    4.38
 -22   2   5   25.29    3.56
  22  -2  -4   98.06    6.23
 -22   2   4  107.56    6.01
  22  -2  -3    4.15    4.01
 -22   2   3   -0.15    3.63
  22  -2  -2  846.35   29.15
 -22   2   2  874.54   29.67
  22  -2  -1    4.45    4.23
 -22   2   1    2.82    3.56
  22  -2   0  115.86    6.82
 -22   2   0   97.02    5.49
  22  -2   1    6.01    4.38
 -22   2  -1    5.27    2.82
  22  -2   2 1422.71   47.25
 -22   2  -2 1335.92   44.36
  22  -2   3  137.60    7.20
 -22   2  -3  146.50    7.12
  22  -2   4   52.15    5.12
 -22   2  -4   57.49    4.82
  22  -2   5   88.86    5.71
 -22   2  -5   87.83    5.56
  22  -2   6  752.89   25.81
 -22   2  -6  736.05   25.07
  22  -2   7    8.90    3.78
 -22   2  -7    2.60    2.60
 -22   2  -8   15.87    3.86
 -21   2  18  173.72    8.01
 -21   2  18  175.06    7.79
 -21   2  17  657.80   22.92
 -21   2  17  669.00   23.07
 -21   2  16    7.86    3.56
 -21   2  16    3.41    4.08
 -21   2  15  242.48   10.09
 -21   2  15  260.14   10.24
 -21   2  14  145.02    7.34
 -21   2  14  140.64    6.97
 -21   2  13  233.51    9.94
 -21   2  13  251.01   10.24
 -21   2  12   42.87    5.04
 -21   2  12   29.74    4.23
 -21   2  11  284.69   11.87
 -21   2  11  262.14   10.53
 -21   2  10   11.13    3.63
 -21   2  10    0.67    3.63
 -21   2   9  308.87   12.24
 -21   2   9  297.97   11.79
  21  -2  -8    5.12    4.01
 -21   2   8    5.71    3.19
  21  -2  -7  479.85   17.58
 -21   2   7  457.30   16.76
  21  -2  -6   16.69    4.23
 -21   2   6   31.75    4.45
  21  -2  -5  316.73   12.61
 -21   2   5  304.94   12.16
  21  -2  -4   -7.42    4.38
 -21   2   4   -6.45    3.71
  21  -2  -3 1063.69   36.20
 -21   2   3 1035.50   35.09
  21  -2  -2   73.14    5.86
 -21   2   2   56.75    5.04
  21  -2  -1   60.23    5.49
 -21   2   1   70.91    5.04
  21  -2   0  124.39    7.05
 -21   2   0  128.40    6.60
  21  -2   1  852.29   29.37
 -21   2  -1  857.48   29.30
  21  -2   2    1.78    4.23
 -21   2  -2    0.96    3.63
  21  -2   3   18.84    4.82
 -21   2  -3   12.54    3.93
  21  -2   4   26.48    4.97
 -21   2  -4   34.49    4.45
  21  -2   5  996.93   33.97
 -21   2  -5 1021.41   34.64
  21  -2   6   45.03    5.34
 -21   2  -6   53.04    5.19
  21  -2   7   22.40    4.75
 -21   2  -7   24.77    4.15
  21  -2   8    1.19    4.23
 -21   2  -8    3.56    3.26
  21  -2   9  620.26   21.81
 -21   2  -9  608.77   21.07
  21  -2  10   10.46    3.93
 -21   2 -10   25.67    3.26
  21  -2  11   37.38    4.52
 -21   2 -11   35.38    3.93
 -20   2  20  401.89   14.54
 -20   2  20  407.45   15.21
 -20   2  19   83.52    5.56
 -20   2  19   82.56    5.34
 -20   2  18  428.44   15.80
 -20   2  18  392.32   14.54
 -20   2  17   57.71    5.12
 -20   2  17   56.23    4.75
 -20   2  16  142.72    7.49
 -20   2  16  144.79    7.12
 -20   2  15  109.11    6.60
 -20   2  15  111.49    6.38
 -20   2  14  836.71   28.93
 -20   2  14  843.39   28.93
 -20   2  13   32.19    4.82
 -20   2  13   27.89    4.30
 -20   2  12  548.91   19.58
 -20   2  12  504.92   18.47
 -20   2  11  194.86    8.83
 -20   2  11  220.75    9.49
 -20   2  10   93.31    6.31
 -20   2  10   77.89    5.49
 -20   2   9    6.08    4.15
 -20   2   9    6.16    3.56
  20  -2  -8  514.93   18.69
 -20   2   8  487.56   17.65
  20  -2  -7   80.56    5.71
 -20   2   7   74.47    5.27
  20  -2  -6  243.82   10.38
 -20   2   6  226.54    9.79
  20  -2  -5  108.97    6.38
 -20   2   5  115.72    6.60
  20  -2  -4  644.67   22.92
 -20   2   4  613.51   21.73
  20  -2  -3   13.65    4.45
 -20   2   3   10.01    4.01
  20  -2  -2   97.62    6.45
 -20   2   2  100.88    6.08
  20  -2  -1    2.60    4.30
 -20   2   1   -2.08    3.56
  20  -2   0  683.61   24.18
 -20   2   0  595.79   21.07
  20  -2   1  286.54   11.94
 -20   2  -1  304.64   11.94
  20  -2   2   89.98    6.45
 -20   2  -2   89.61    5.71
  20  -2   3  227.87   10.31
 -20   2  -3  226.61    9.72
  20  -2   4  864.90   29.97
 -20   2  -4  759.57   26.41
  20  -2   5  208.66    9.64
 -20   2  -5  232.99   10.01
  20  -2   6   -0.96    4.38
 -20   2  -6    1.85    3.78
  20  -2   7   50.07    5.12
 -20   2  -7   50.44    4.90
  20  -2   8  890.86   30.63
 -20   2  -8  907.92   30.93
  20  -2   9  296.48   12.09
 -20   2  -9  277.20   11.35
  20  -2  10   38.94    5.04
 -20   2 -10   34.42    4.67
  20  -2  11  151.10    7.86
 -20   2 -11  136.48    6.97
  20  -2  12  556.70   19.95
 -20   2 -12  567.60   20.03
  20  -2  13   59.19    5.49
 -20   2 -13   58.30    4.60
  20  -2  14   61.57    5.71
 -20   2 -14   56.60    4.08
 -19   2  22   36.20    4.90
 -19   2  22   35.38    4.15
 -19   2  21   37.98    4.60
 -19   2  21   38.79    4.45
 -19   2  20   20.47    4.38
 -19   2  20   26.26    4.38
 -19   2  19  549.72   19.81
 -19   2  19  571.01   20.25
 -19   2  17  196.20    8.90
 -19   2  17  197.98    8.90
 -19   2  16  527.25   19.29
 -19   2  16  476.36   17.43
 -19   2  15  939.82   32.19
 -19   2  15  867.12   29.67
 -19   2  14   99.92    6.23
 -19   2  14  100.44    6.08
 -19   2  13  446.32   16.47
 -19   2  13  407.67   15.58
 -19   2  12    9.35    4.23
 -19   2  12   13.13    3.86
 -19   2  11  768.47   26.78
 -19   2  11  766.99   26.70
 -19   2  10  102.96    6.38
 -19   2  10   93.02    6.01
  19  -2  -8  100.36    6.38
 -19   2   8  112.38    6.45
  19  -2  -7  313.47   12.61
 -19   2   7  348.56   13.50
  19  -2  -6   -1.78    3.93
 -19   2   6    5.93    3.26
  19  -2  -5  542.75   19.66
 -19   2   5  501.66   18.10
  19  -2  -4  463.53   17.21
 -19   2   4  446.02   16.32
  19  -2  -3  527.02   19.36
 -19   2   3  526.28   18.92
  19  -2  -2  342.25   13.50
 -19   2   2  325.71   12.68
  19  -2  -1  941.30   32.27
 -19   2   1  963.55   32.86
  19  -2   0   91.24    6.31
 -19   2   0   95.76    6.16
  19  -2   1   44.06    5.12
 -19   2  -1   34.49    4.67
  19  -2   2   20.47    4.67
 -19   2  -2   14.09    4.08
  19  -2   3 1115.62   37.90
 -19   2  -3 1079.27   36.64
  19  -2   4  141.31    7.49
 -19   2  -4  146.42    7.12
  19  -2   5   25.59    4.75
 -19   2  -5   20.84    3.93
  19  -2   6   31.82    5.12
 -19   2  -6   36.57    4.30
  19  -2   7 1714.22   56.89
 -19   2  -7 1671.94   55.48
  19  -2   8    8.09    4.67
 -19   2  -8   16.24    4.01
  19  -2   9   15.21    4.38
 -19   2  -9    3.12    3.71
  19  -2  10   25.89    4.97
 -19   2 -10   28.11    4.15
  19  -2  11  595.42   21.36
 -19   2 -11  609.14   21.51
  19  -2  12   32.34    5.04
 -19   2 -12   30.19    3.71
  19  -2  13   80.70    5.86
 -19   2 -13   74.92    4.82
  19  -2  14  147.98    7.49
 -19   2 -14  142.05    7.05
  19  -2  15  343.44   13.13
 -19   2 -15  360.20   13.50
  19  -2  16   -2.15    3.86
 -19   2 -16    0.00    3.93
 -18   2  24  781.82   26.78
 -18   2  24  750.67   25.67
 -18   2  23  433.12   15.95
 -18   2  23  408.12   15.21
 -18   2  22    4.82    3.86
 -18   2  22    6.68    4.01
 -18   2  21   76.77    5.41
 -18   2  21   80.18    5.64
 -18   2  20  623.60   22.18
 -18   2  20  616.26   21.81
 -18   2  19  146.20    7.86
 -18   2  19  148.06    7.57
 -18   2  18  174.39    8.23
 -18   2  18  173.87    8.16
 -18   2  17   41.02    4.67
 -18   2  17   37.61    4.52
 -18   2  16  531.99   19.43
 -18   2  16  491.57   17.88
 -18   2  15   47.18    4.75
 -18   2  15   41.91    4.52
 -18   2  13  129.96    7.05
 -18   2  13  139.90    7.64
 -18   2  12  504.03   18.54
 -18   2  12  544.38   19.95
 -18   2  11   48.21    4.97
 -18   2  11   41.39    5.27
 -18   2  10  457.08   17.21
 -18   2  10  493.35   18.17
 -18   2   9  163.56    8.09
 -18   2   9  148.28    7.57
  18  -2  -8  588.59   21.21
 -18   2   8  576.57   20.70
  18  -2  -7   39.39    4.90
 -18   2   7   33.82    4.15
  18  -2  -6  758.08   26.63
 -18   2   6  793.69   27.45
  18  -2  -5  143.23    7.71
 -18   2   5  138.12    7.12
  18  -2  -4   97.99    6.31
 -18   2   4  103.48    6.23
  18  -2  -3   32.86    4.82
 -18   2   3   41.09    4.60
  18  -2  -2  946.49   32.49
 -18   2   2  948.72   32.42
  18  -2  -1  164.30    8.31
 -18   2   1  164.60    8.16
  18  -2   0  180.92    8.90
 -18   2   0  173.50    8.60
  18  -2   1   32.71    4.82
 -18   2  -1   40.80    5.04
  18  -2   2 3378.74  110.08
 -18   2  -2 3329.04  108.67
  18  -2   3   95.32    6.23
 -18   2  -3   77.22    5.64
  18  -2   4    5.49    4.23
 -18   2  -4   -0.37    4.01
  18  -2   5  216.22    9.94
 -18   2  -5  225.13   10.24
  18  -2   6  858.22   29.89
 -18   2  -6  856.74   29.82
  18  -2   7  146.42    8.16
 -18   2  -7  140.64    7.42
  18  -2   8   22.70    4.67
 -18   2  -8   19.29    3.93
  18  -2   9  114.83    7.12
 -18   2  -9  111.93    6.01
  18  -2  10  900.50   31.08
 -18   2 -10  911.63   31.08
  18  -2  11  219.64   10.01
 -18   2 -11  176.10    8.01
  18  -2  12  145.16    7.94
 -18   2 -12  158.14    7.57
  18  -2  13   89.09    6.45
 -18   2 -13   80.93    5.27
  18  -2  14  431.93   16.24
 -18   2 -14  493.20   17.88
  18  -2  15   44.73    5.49
 -18   2 -15   43.69    4.75
  18  -2  16  200.43    9.27
 -18   2 -16  188.56    8.60
  18  -2  17  227.80    9.87
 -18   2 -17  228.46    9.57
  18  -2  18  402.19   14.84
 -18   2 -18  396.03   14.46
 -17   2  25  701.64   24.03
 -17   2  25  704.08   24.40
 -17   2  24   -1.34    3.78
 -17   2  24    3.56    4.38
 -17   2  23  223.35    9.49
 -17   2  23  242.41   10.31
 -17   2  22    4.90    4.08
 -17   2  22    1.11    3.63
 -17   2  21  536.82   19.43
 -17   2  21  485.86   17.88
 -17   2  20  443.06   16.84
 -17   2  20  454.70   16.84
 -17   2  19  117.87    6.90
 -17   2  19  107.85    6.38
 -17   2  18  106.44    6.31
 -17   2  18  106.37    6.08
 -17   2  17 1248.39   41.91
 -17   2  17 1148.99   39.02
 -17   2  16   47.84    4.97
 -17   2  16   47.47    5.12
 -17   2  15  503.14   18.69
 -17   2  15  527.47   19.43
 -17   2  14  182.18    8.75
 -17   2  14  213.85    9.94
 -17   2  13  342.62   13.50
 -17   2  13  383.34   14.98
 -17   2  12  114.75    6.82
 -17   2  12  122.76    7.05
 -17   2  11  344.33   13.65
 -17   2  11  330.60   13.06
 -17   2  10  324.60   12.76
 -17   2  10  349.00   13.72
  17  -2  -8    5.71    3.93
 -17   2   8    0.00    3.49
  17  -2  -7  503.21   18.47
 -17   2   7  528.06   19.06
  17  -2  -6  223.86    9.87
 -17   2   6  214.00    9.42
  17  -2  -5  765.50   26.78
 -17   2   5  835.97   28.93
  17  -2  -4  136.93    7.27
 -17   2   4  110.75    6.31
  17  -2  -3 1146.77   38.94
 -17   2   3 1100.04   37.46
  17  -2  -2  614.48   22.10
 -17   2   2  628.79   22.70
  17  -2  -1   55.11    5.49
 -17   2   1   69.95    5.64
  17  -2   0   -0.96    4.30
 -17   2   0   -2.52    4.08
  17  -2   1  657.13   23.59
 -17   2  -1  665.14   23.88
  17  -2   2  475.10   17.95
 -17   2  -2  471.47   17.65
  17  -2   3   18.69    4.60
 -17   2  -3    9.87    4.38
  17  -2   4  234.84   10.38
 -17   2  -4  267.48   11.42
  17  -2   5  303.60   12.54
 -17   2  -5  304.20   12.31
  17  -2   6  891.60   30.93
 -17   2  -6  893.09   31.01
  17  -2   7   73.14    6.38
 -17   2  -7   76.03    6.16
  17  -2   8  482.74   18.25
 -17   2  -8  437.64   16.47
  17  -2   9  798.14   28.11
 -17   2  -9  828.55   28.63
  17  -2  10   -0.89    4.75
 -17   2 -10   -1.63    2.74
  17  -2  11    0.82    4.60
 -17   2 -11    4.60    2.89
  17  -2  12   65.57    5.71
 -17   2 -12   68.91    4.90
  17  -2  13  573.46   20.77
 -17   2 -13  630.28   22.18
  17  -2  14   26.26    4.90
 -17   2 -14   22.62    3.71
  17  -2  15  153.03    8.09
 -17   2 -15  133.37    6.75
  17  -2  16   61.27    5.64
 -17   2 -16   57.93    4.97
  17  -2  17  432.82   16.24
 -17   2 -17  442.46   16.47
  17  -2  18   44.51    5.34
 -17   2 -18   45.84    4.97
  17  -2  19  175.58    8.46
 -17   2 -19  201.02    8.60
  17  -2  20  437.86   15.95
 -17   2 -20  422.81   15.21
 -16   2  27   19.43    4.30
 -16   2  27   13.43    4.08
 -16   2  26  541.12   19.14
 -16   2  26  518.27   18.62
 -16   2  25   38.05    4.97
 -16   2  25   38.05    4.67
 -16   2  24   15.50    4.82
 -16   2  24    9.27    4.23
 -16   2  23   79.37    5.86
 -16   2  23   89.90    6.01
 -16   2  21    0.96    3.93
 -16   2  21    1.34    3.93
 -16   2  20  317.10   12.68
 -16   2  20  341.66   13.35
 -16   2  19   10.24    4.60
 -16   2  19   13.20    4.08
 -16   2  17   11.35    4.38
 -16   2  17   11.94    4.30
 -16   2  16   76.48    5.56
 -16   2  16   73.81    5.64
 -16   2  15  162.45    8.23
 -16   2  15  154.51    8.09
 -16   2  13  274.45   11.57
 -16   2  13  251.46   10.83
 -16   2  12  593.64   21.36
 -16   2  12  611.36   21.81
 -16   2  11  360.79   14.24
 -16   2  11  343.88   13.35
 -16   2  10  720.03   25.52
 -16   2  10  690.81   24.03
 -16   2   9   16.99    3.63
 -16   2   9   10.16    3.63
  16  -2  -8  843.39   29.30
 -16   2   8  848.58   29.23
  16  -2  -7  182.18    8.75
 -16   2   7  191.75    8.68
  16  -2  -6  585.25   21.21
 -16   2   6  564.85   20.70
  16  -2  -5   97.76    6.31
 -16   2   5   99.54    6.38
  16  -2  -4  593.78   21.59
 -16   2   4  595.56   21.59
  16  -2  -3   39.68    5.12
 -16   2   3   49.33    5.12
  16  -2  -2  608.32   21.88
 -16   2   2  613.81   22.33
  16  -2  -1  436.38   16.62
 -16   2   1  426.81   16.39
  16  -2   0  938.33   32.49
 -16   2   0  871.57   30.34
  16  -2   1 1936.01   64.09
 -16   2  -1 1831.42   60.75
  16  -2   2  128.47    7.20
 -16   2  -2  119.65    6.97
  16  -2   3  363.39   14.32
 -16   2  -3  387.80   14.98
  16  -2   4  924.98   31.90
 -16   2  -4  900.50   31.15
  16  -2   5   10.01    4.75
 -16   2  -5   10.31    4.30
  16  -2   6  163.34    8.60
 -16   2  -6  169.72    8.01
  16  -2   7   -0.37    4.30
 -16   2  -7    0.74    4.30
  16  -2   8 1666.01   55.71
 -16   2  -8 1624.47   54.00
  16  -2   9    5.56    4.90
 -16   2  -9    6.97    3.63
  16  -2  10   47.62    5.56
 -16   2 -10   48.73    4.15
  16  -2  11  200.87    9.79
 -16   2 -11  202.95    8.90
  16  -2  12  919.05   31.97
 -16   2 -12  921.27   31.53
  16  -2  13   54.82    5.71
 -16   2 -13   49.77    5.04
  16  -2  14  125.80    7.42
 -16   2 -14  134.63    7.49
  16  -2  15  182.47    8.98
 -16   2 -15  178.25    8.53
  16  -2  16  769.95   26.85
 -16   2 -16  730.71   25.52
  16  -2  17   40.43    5.56
 -16   2 -17   46.95    4.23
  16  -2  18  618.71   22.25
 -16   2 -18  606.91   21.44
  16  -2  19   18.17    4.15
 -16   2 -19   20.40    4.45
  16  -2  20   70.47    5.93
 -16   2 -20   60.90    5.04
  16  -2  21   37.90    4.67
 -16   2 -21   41.61    4.67
 -16   2 -22  148.06    6.68
 -15   2  28    9.64    3.86
 -15   2  28   14.24    4.08
 -15   2  27  739.32   25.44
 -15   2  27  772.92   26.56
 -15   2  26   21.51    4.01
 -15   2  26   22.18    4.23
 -15   2  25   12.46    4.08
 -15   2  25   20.32    4.60
 -15   2  24  217.71    9.49
 -15   2  24  235.07   10.09
 -15   2  23  596.08   21.51
 -15   2  23  635.92   22.48
 -15   2  22  141.01    7.71
 -15   2  22  131.74    7.20
 -15   2  21   -4.38    4.23
 -15   2  21    7.34    3.93
 -15   2  20    4.82    4.01
 -15   2  20    6.23    4.23
 -15   2  19 1403.42   47.10
 -15   2  19 1464.25   49.03
 -15   2  18  722.70   25.37
 -15   2  18  694.89   24.77
 -15   2  17 1030.31   35.31
 -15   2  17 1057.76   36.12
 -15   2  16  494.76   18.32
 -15   2  16  493.50   18.25
 -15   2  15  841.90   29.37
 -15   2  15  836.71   29.08
 -15   2  14  116.98    6.97
 -15   2  14   97.91    6.08
 -15   2  13 2050.98   67.87
 -15   2  13 2252.00   73.81
 -15   2  12   32.93    4.45
 -15   2  12   25.96    4.15
 -15   2  11 1827.71   60.75
 -15   2  11 1706.80   56.67
 -15   2  10   25.15    4.15
 -15   2  10   22.25    4.23
  15  -2  -8  146.13    7.57
 -15   2   8  150.43    7.79
  15  -2  -7  465.38   17.43
 -15   2   7  456.71   17.06
  15  -2  -6   45.32    4.97
 -15   2   6   45.77    4.90
  15  -2  -5 1695.68   56.45
 -15   2   5 1683.07   56.08
  15  -2  -4  635.32   22.85
 -15   2   4  618.93   22.25
  15  -2  -3  463.83   17.51
 -15   2   3  427.85   16.24
  15  -2  -2  177.73    8.75
 -15   2   2  192.34    8.98
  15  -2  -1 3528.58  114.97
 -15   2   1 3708.09  120.61
  15  -2   0  148.13    7.71
 -15   2   0  151.47    7.79
  15  -2   1  120.61    7.20
 -15   2  -1  115.72    6.45
  15  -2   2  669.96   23.88
 -15   2  -2  604.91   21.81
  15  -2   3 2422.61   79.67
 -15   2  -3 2582.83   84.93
  15  -2   4  390.84   15.28
 -15   2  -4  388.02   14.84
  15  -2   5   11.35    4.82
 -15   2  -5   14.32    4.08
  15  -2   6  158.44    8.46
 -15   2  -6  166.53    7.71
  15  -2   7 2047.27   67.65
 -15   2  -7 2025.02   66.83
  15  -2   8   52.29    5.64
 -15   2  -8   59.86    5.27
  15  -2   9  319.78   13.20
 -15   2  -9  310.80   12.16
  15  -2  10  223.20   10.46
 -15   2 -10  204.06    9.05
  15  -2  11  800.37   28.19
 -15   2 -11  861.19   29.74
  15  -2  12   17.21    5.19
 -15   2 -12   32.56    4.82
  15  -2  13  354.86   14.32
 -15   2 -13  326.82   12.98
  15  -2  14   22.10    5.41
 -15   2 -14   47.47    5.12
  15  -2  15  536.96   19.81
 -15   2 -15  570.86   20.62
  15  -2  16   18.99    5.27
 -15   2 -16   17.58    4.75
  15  -2  17  285.13   12.24
 -15   2 -17  255.09   10.76
  15  -2  18   24.33    5.12
 -15   2 -18   38.65    4.97
  15  -2  19  640.89   22.70
 -15   2 -19  686.21   24.18
  15  -2  20   17.58    4.97
 -15   2 -20   13.06    3.41
  15  -2  21  643.11   22.55
 -15   2 -21  636.29   22.03
  15  -2  22   33.23    5.04
 -15   2 -22   40.06    4.97
  15  -2  23   -3.49    4.30
 -15   2 -23   -0.15    3.63
 -14   2  29   16.10    4.60
 -14   2  29   18.84    4.38
 -14   2  28  584.21   20.55
 -14   2  28  560.70   19.88
 -14   2  27   -6.45    4.15
 -14   2  27    0.30    4.01
 -14   2  26   10.68    4.60
 -14   2  26   11.13    4.67
 -14   2  25    9.49    4.60
 -14   2  25    8.83    4.38
 -14   2  24 1021.41   34.86
 -14   2  24 1009.54   34.34
 -14   2  23  105.48    6.60
 -14   2  23   96.80    6.38
 -14   2  22   17.13    4.30
 -14   2  22   12.91    4.45
 -14   2  21  565.82   20.47
 -14   2  21  570.64   20.62
 -14   2  20  316.88   12.83
 -14   2  20  329.34   13.28
 -14   2  19   24.77    4.23
 -14   2  19   24.40    4.75
 -14   2  18   92.35    6.45
 -14   2  18   99.77    6.60
 -14   2  17  110.08    6.75
 -14   2  17  103.92    6.23
 -14   2  16  650.68   23.37
 -14   2  16  625.16   22.18
 -14   2  15  119.35    7.20
 -14   2  15  118.53    6.45
 -14   2  14  368.06   14.54
 -14   2  14  409.08   15.35
 -14   2  13  170.83    8.31
 -14   2  13  165.34    8.09
 -14   2  12 1372.27   46.29
 -14   2  12 1332.21   44.73
 -14   2  11    2.23    3.78
 -14   2  11    1.93    3.93
 -14   2  10 1123.77   38.42
 -14   2  10 1019.19   35.01
 -14   2   9  108.22    6.75
 -14   2   9  113.19    6.90
  14  -2  -8  603.80   21.51
 -14   2   8  626.35   22.55
  14  -2  -7  116.38    6.60
 -14   2   7  114.23    6.97
  14  -2  -6 1429.38   47.84
 -14   2   6 1351.50   45.69
  14  -2  -5   67.06    5.34
 -14   2   5   71.21    5.79
  14  -2  -4  242.85   10.38
 -14   2   4  252.27   10.83
  14  -2  -3   32.27    4.52
 -14   2   3   28.41    4.45
  14  -2  -2 1355.95   45.54
 -14   2   2 1328.50   44.80
  14  -2  -1  139.38    7.71
 -14   2   1  132.92    7.20
  14  -2   0  130.03    7.42
 -14   2   0  126.69    7.12
  14  -2   1  414.80   15.87
 -14   2  -1  408.56   15.65
  14  -2   2 3894.27  126.62
 -14   2  -2 3745.17  121.65
  14  -2   3  314.43   12.91
 -14   2  -3  299.23   11.72
  14  -2   4   32.79    5.19
 -14   2  -4   32.27    4.30
  14  -2   5  375.19   14.84
 -14   2  -5  364.50   13.87
  14  -2   6  198.72    9.64
 -14   2  -6  216.15    9.27
  14  -2   7   45.92    5.34
 -14   2  -7   51.78    5.27
  14  -2   8  189.52    9.35
 -14   2  -8  174.54    7.94
  14  -2   9   10.38    4.90
 -14   2  -9    8.09    3.93
  14  -2  10  508.41   18.99
 -14   2 -10  489.27   18.02
  14  -2  11   54.22    5.79
 -14   2 -11   66.02    4.82
  14  -2  12  281.50   12.16
 -14   2 -12  275.05   11.27
  14  -2  13   37.98    5.93
 -14   2 -13   44.58    5.12
  14  -2  14  827.81   29.08
 -14   2 -14  848.58   29.52
  14  -2  15   12.68    5.27
 -14   2 -15   23.22    5.12
  14  -2  16  797.40   28.04
 -14   2 -16  856.74   29.97
  14  -2  17    8.60    5.04
 -14   2 -17   11.20    4.67
  14  -2  18  355.01   14.09
 -14   2 -18  357.16   13.65
  14  -2  19  419.84   16.10
 -14   2 -19  477.85   17.36
  14  -2  20  385.42   14.91
 -14   2 -20  405.52   15.28
  14  -2  21    3.86    4.52
 -14   2 -21    5.27    4.30
  14  -2  22   99.47    6.68
 -14   2 -22   97.99    6.08
  14  -2  23   89.01    6.38
 -14   2 -23  104.81    5.79
  14  -2  24  968.00   32.71
 -14   2 -24 1007.32   33.68
 -13   2  30    5.41    4.30
 -13   2  30    4.38    3.93
 -13   2  29  691.84   23.96
 -13   2  29  739.99   25.44
 -13   2  28  137.37    7.20
 -13   2  28  122.39    6.90
 -13   2  27   -1.63    4.52
 -13   2  27    6.01    4.01
 -13   2  26  225.72   10.24
 -13   2  26  235.14   10.31
 -13   2  25  923.50   31.75
 -13   2  25  999.90   33.97
 -13   2  24   18.62    4.67
 -13   2  24   21.73    4.52
 -13   2  23   19.88    4.23
 -13   2  23   29.08    4.82
 -13   2  21  703.27   24.85
 -13   2  21  704.83   25.07
 -13   2  20 1033.28   35.38
 -13   2  20  986.55   33.90
 -13   2  19   24.33    4.60
 -13   2  19   24.40    4.82
 -13   2  18  844.13   29.52
 -13   2  18  930.92   31.90
 -13   2  17 2384.03   78.55
 -13   2  17 2539.06   83.00
 -13   2  16  381.12   14.91
 -13   2  16  416.50   15.65
 -13   2  15  180.69    8.68
 -13   2  15  157.48    7.94
 -13   2  14    4.15    4.08
 -13   2  14    5.86    3.78
 -13   2  13  698.82   24.85
 -13   2  13  677.60   24.03
 -13   2  12  350.34   13.95
 -13   2  12  334.39   13.50
 -13   2  11 1143.06   38.79
 -13   2  11 1151.22   39.31
 -13   2   9  305.53   12.24
 -13   2   9  290.85   12.09
  13  -2  -8   43.47    4.60
 -13   2   8   38.72    4.67
  13  -2  -7  912.37   31.23
 -13   2   7  912.37   31.53
  13  -2  -6  256.50   10.68
 -13   2   6  274.82   11.72
  13  -2  -5  277.64   11.42
 -13   2   5  305.09   12.61
  13  -2  -4  167.19    8.23
 -13   2   4  165.78    8.38
  13  -2  -3 1039.21   35.46
 -13   2   3 1060.72   36.27
  13  -2  -2   10.90    4.38
 -13   2   2   16.54    4.38
  13  -2  -1  114.60    6.90
 -13   2   1  108.22    6.60
  13  -2   0 1074.82   36.64
 -13   2   0 1148.99   38.79
  13  -2   1  347.29   13.72
 -13   2  -1  329.42   12.91
  13  -2   2  651.86   23.22
 -13   2  -2  657.80   23.07
  13  -2   3  367.25   14.39
 -13   2  -3  408.79   15.35
  13  -2   4   88.42    6.45
 -13   2  -4   86.27    6.01
  13  -2   5 2213.43   72.99
 -13   2  -5 2043.56   67.20
  13  -2   6  210.29   10.01
 -13   2  -6  193.45    8.75
  13  -2   7  295.30   12.54
 -13   2  -7  307.68   12.09
  13  -2   8  629.31   22.85
 -13   2  -8  644.45   23.07
  13  -2   9 1620.02   54.22
 -13   2  -9 1599.25   53.26
  13  -2  10   13.13    5.04
 -13   2 -10    8.68    4.30
  13  -2  11  160.89    8.53
 -13   2 -11  144.72    7.57
  13  -2  12  114.90    7.57
 -13   2 -12  134.70    7.05
  13  -2  13 1001.38   34.71
 -13   2 -13 1022.15   35.09
  13  -2  14    0.96    4.82
 -13   2 -14   -4.60    4.15
  13  -2  15  652.61   23.59
 -13   2 -15  657.13   23.66
  13  -2  16    5.12    4.97
 -13   2 -16   -1.85    4.45
  13  -2  17 1257.29   42.73
 -13   2 -17 1252.84   42.58
  13  -2  18   13.28    5.04
 -13   2 -18   15.13    4.23
  13  -2  19  537.11   19.81
 -13   2 -19  514.86   18.54
  13  -2  20  361.17   14.39
 -13   2 -20  384.01   14.61
  13  -2  21  556.40   20.25
 -13   2 -21  560.70   20.40
  13  -2  22   30.19    4.75
 -13   2 -22   27.96    4.52
  13  -2  23  953.17   32.71
 -13   2 -23  967.26   32.64
  13  -2  24   37.38    5.19
 -13   2 -24   39.31    5.04
  13  -2  25   91.24    5.93
 -13   2 -25   98.95    5.86
 -12   2  30  795.91   27.22
 -12   2  30  856.00   29.15
 -12   2  29   55.41    4.45
 -12   2  29   50.22    5.41
 -12   2  28    2.23    3.93
 -12   2  28    1.26    4.38
 -12   2  27    6.45    4.60
 -12   2  27   16.32    4.60
 -12   2  26  818.17   28.34
 -12   2  26  832.26   28.78
 -12   2  25  243.15   10.53
 -12   2  25  231.13   10.01
 -12   2  24    5.93    4.45
 -12   2  24   14.46    4.30
 -12   2  23  321.33   12.91
 -12   2  23  329.64   13.13
 -12   2  22 1100.04   37.46
 -12   2  22 1088.91   37.24
 -12   2  21   20.10    4.75
 -12   2  21   19.51    4.67
 -12   2  20  423.84   16.32
 -12   2  20  408.34   15.73
 -12   2  19  156.74    8.01
 -12   2  19  164.75    7.94
 -12   2  18 1035.50   35.60
 -12   2  18 1001.38   34.12
 -12   2  17    5.64    4.15
 -12   2  17   -3.19    4.08
 -12   2  16  212.52    9.72
 -12   2  16  214.59    9.49
 -12   2  15  198.13    9.20
 -12   2  15  189.45    8.90
 -12   2  14 1797.30   59.71
 -12   2  14 1879.63   62.38
 -12   2  13   59.04    5.04
 -12   2  13   71.95    5.71
 -12   2  12 2491.59   81.59
 -12   2  12 2363.27   77.74
 -12   2  11   42.50    4.75
 -12   2  11   45.84    5.04
 -12   2  10  846.35   29.15
 -12   2  10  818.17   28.63
 -12   2   9   23.07    4.08
 -12   2   9   27.59    4.75
  12  -2  -8 1625.95   54.15
 -12   2   8 1546.58   51.78
  12  -2  -7  521.24   18.92
 -12   2   7  622.64   22.40
  12  -2  -6   21.51    4.38
 -12   2   6   19.29    4.45
  12  -2  -5   94.80    6.16
 -12   2   5   94.87    6.23
  12  -2  -4  688.58   24.26
 -12   2   4  689.62   24.26
  12  -2  -3  193.68    9.05
 -12   2   3  174.02    8.16
  12  -2  -2 1614.82   53.78
 -12   2   2 1702.35   56.30
  12  -2  -1   55.41    5.27
 -12   2   1   68.24    5.19
  12  -2   0 1130.45   38.42
 -12   2   0 1114.87   37.61
  12  -2   1   91.76    6.38
 -12   2  -1   91.16    6.08
  12  -2   2    6.31    4.38
 -12   2  -2    8.75    4.08
  12  -2   3 1025.86   35.09
 -12   2  -3 1001.38   34.05
  12  -2   4  929.43   32.04
 -12   2  -4  919.79   31.45
  12  -2   5  105.48    6.53
 -12   2  -5  116.09    6.31
  12  -2   6  267.33   11.42
 -12   2  -6  269.93   11.13
  12  -2   7  177.21    9.05
 -12   2  -7  174.91    8.60
  12  -2   8 1156.41   39.54
 -12   2  -8 1238.75   41.76
  12  -2   9   61.79    6.23
 -12   2  -9   55.71    5.04
  12  -2  10  553.43   20.55
 -12   2 -10  579.84   20.99
  12  -2  11    5.93    4.45
 -12   2 -11   14.76    4.75
  12  -2  12 1368.56   46.21
 -12   2 -12 1346.30   45.32
  12  -2  13   -5.27    4.82
 -12   2 -13    8.68    4.01
  12  -2  14  397.96   15.80
 -12   2 -14  414.20   16.32
  12  -2  15  414.42   16.32
 -12   2 -15  420.80   16.32
  12  -2  16  720.40   25.59
 -12   2 -16  757.34   26.93
  12  -2  17  113.71    7.64
 -12   2 -17  116.01    7.42
  12  -2  18  376.15   15.06
 -12   2 -18  396.77   15.50
  12  -2  19   29.74    4.90
 -12   2 -19   17.13    3.71
  12  -2  20  191.08    9.64
 -12   2 -20  184.40    8.31
  12  -2  21    8.90    4.60
 -12   2 -21   10.31    4.52
  12  -2  22  611.51   21.88
 -12   2 -22  602.83   21.81
  12  -2  23  326.30   13.28
 -12   2 -23  322.89   12.39
  12  -2  24  269.71   11.57
 -12   2 -24  278.53   11.42
  12  -2  25  189.30    8.98
 -12   2 -25  200.72    9.05
  12  -2  26  760.31   26.18
 -12   2 -26  784.05   26.56
 -12   2 -27    4.75    4.15
 -11   2  31  579.54   20.62
 -11   2  31  588.67   20.62
 -11   2  30   73.95    5.86
 -11   2  30   68.76    5.64
 -11   2  29    7.20    3.56
 -11   2  29   11.50    4.82
 -11   2  28   30.34    4.38
 -11   2  28   24.18    4.82
 -11   2  27  998.42   34.27
 -11   2  27  988.03   33.82
 -11   2  26   77.96    6.16
 -11   2  26   96.95    6.45
 -11   2  25  198.57    9.49
 -11   2  25  177.95    8.68
 -11   2  24  307.91   12.83
 -11   2  24  282.61   11.94
 -11   2  23  799.62   28.04
 -11   2  23  884.93   30.86
 -11   2  22   13.72    4.30
 -11   2  22   12.68    4.60
 -11   2  21    2.60    3.86
 -11   2  21   -0.30    4.23
 -11   2  20  738.72   26.18
 -11   2  20  661.58   23.22
 -11   2  19 2353.62   77.59
 -11   2  19 2448.57   80.26
 -11   2  18   40.95    5.12
 -11   2  18   42.95    4.97
 -11   2  17  715.80   25.37
 -11   2  17  670.11   23.66
 -11   2  16  357.38   14.24
 -11   2  16  308.28   12.76
 -11   2  15  137.82    7.49
 -11   2  15  127.58    7.27
 -11   2  14    4.90    3.71
 -11   2  14   -1.11    3.93
 -11   2  13  481.55   17.65
 -11   2  13  456.41   17.21
 -11   2  12    1.26    3.56
 -11   2  12    7.05    4.30
 -11   2  11  400.78   15.13
 -11   2  11  405.15   15.65
 -11   2  10    2.52    3.49
 -11   2  10    8.16    3.93
 -11   2   8  186.55    8.23
 -11   2   8  205.02    9.12
  11  -2  -7  109.48    6.38
 -11   2   7  118.46    6.60
  11  -2  -6  151.84    7.49
 -11   2   6  160.15    7.71
  11  -2  -5 1345.56   44.95
 -11   2   5 1323.31   44.14
  11  -2  -4  934.62   31.82
 -11   2   4  933.88   31.75
  11  -2  -3  804.82   27.74
 -11   2   3  819.65   28.11
  11  -2  -2 1120.81   37.76
 -11   2   2 1114.13   37.46
  11  -2  -1 1437.54   47.92
 -11   2   1 1343.34   44.58
  11  -2   0    4.90    3.63
 -11   2   0    1.56    3.56
  11  -2   1  263.70   11.05
 -11   2  -1  260.21   10.38
  11  -2   2   79.74    5.93
 -11   2  -2   74.10    5.12
  11  -2   3 2471.56   81.15
 -11   2  -3 2459.69   80.33
  11  -2   4 1143.80   38.79
 -11   2  -4 1138.61   38.35
  11  -2   5   25.07    4.60
 -11   2  -5   26.85    4.60
  11  -2   6 1797.30   59.64
 -11   2  -6 1855.90   61.34
  11  -2   7 1256.55   42.50
 -11   2  -7 1284.00   43.17
  11  -2   8   40.65    5.12
 -11   2  -8   44.43    5.04
  11  -2   9 1036.99   35.46
 -11   2  -9 1031.05   35.23
  11  -2  10  284.10   12.16
 -11   2 -10  318.14   13.13
  11  -2  11 1031.05   35.53
 -11   2 -11  983.58   33.90
  11  -2  12    8.09    4.52
 -11   2 -12    2.45    4.23
  11  -2  13  969.49   33.60
 -11   2 -13  901.25   31.60
  11  -2  14   19.95    5.41
 -11   2 -14   22.40    4.97
  11  -2  15  498.99   18.99
 -11   2 -15  507.52   19.21
  11  -2  16    4.08    5.04
 -11   2 -16   14.54    4.82
  11  -2  17  508.33   19.06
 -11   2 -17  467.61   17.65
  11  -2  18  427.70   16.62
 -11   2 -18  450.33   17.43
  11  -2  19  736.35   26.04
 -11   2 -19  762.54   26.85
  11  -2  20   62.61    6.38
 -11   2 -20   63.50    5.34
  11  -2  21 1071.11   36.64
 -11   2 -21 1091.88   36.87
  11  -2  22   62.31    6.16
 -11   2 -22   62.75    5.86
  11  -2  23  121.72    7.64
 -11   2 -23  124.47    7.27
  11  -2  24  219.27   10.24
 -11   2 -24  202.72    8.68
  11  -2  25  408.49   15.73
 -11   2 -25  378.23   14.61
  11  -2  26   17.43    5.12
 -11   2 -26   11.13    3.12
  11  -2  27  299.60   12.16
 -11   2 -27  306.20   11.94
 -10   2  32  415.91   15.43
 -10   2  32  453.59   16.47
 -10   2  31   37.31    5.41
 -10   2  31   36.20    4.75
 -10   2  30   11.94    4.67
 -10   2  30   15.13    4.67
 -10   2  29   29.52    4.08
 -10   2  29   21.44    4.90
 -10   2  28  704.45   24.70
 -10   2  28  693.33   24.33
 -10   2  27   38.28    5.19
 -10   2  27   31.30    5.41
 -10   2  26   -4.08    4.67
 -10   2  26    4.75    4.38
 -10   2  25    3.12    4.60
 -10   2  25    4.01    4.67
 -10   2  23    1.71    4.30
 -10   2  23    6.53    4.60
 -10   2  22    1.41    4.45
 -10   2  22    6.60    4.52
 -10   2  21   55.04    5.71
 -10   2  21   56.08    4.90
 -10   2  19   13.65    4.15
 -10   2  19    5.86    4.01
 -10   2  18  111.12    7.05
 -10   2  18  102.51    6.53
 -10   2  16  604.39   21.59
 -10   2  16  614.18   22.10
 -10   2  15 1127.48   38.05
 -10   2  15 1045.89   35.75
 -10   2  14  397.51   14.91
 -10   2  14  369.33   14.54
 -10   2  13  371.62   14.17
 -10   2  13  373.33   14.69
 -10   2  12  870.83   29.89
 -10   2  12  837.45   29.08
 -10   2  11   76.11    5.27
 -10   2  11   84.19    5.64
 -10   2  10 1074.82   36.27
 -10   2  10 1049.60   35.53
 -10   2   9  278.01   11.27
 -10   2   9  285.95   11.50
 -10   2   8  160.00    7.64
 -10   2   8  155.10    7.64
  10  -2  -7   29.89    4.30
 -10   2   7   40.13    4.52
  10  -2  -6 1249.88   41.76
 -10   2   6 1230.59   41.17
  10  -2  -5   48.07    4.67
 -10   2   5   56.60    4.67
  10  -2  -4    5.41    3.63
 -10   2   4    4.38    3.49
  10  -2  -3  387.28   14.54
 -10   2   3  391.43   14.54
  10  -2  -2 2251.26   73.73
 -10   2   2 2179.31   71.36
  10  -2  -1    9.87    4.01
 -10   2   1    6.38    3.49
  10  -2   0  189.82    8.60
 -10   2   0  187.07    8.31
  10  -2   1  226.68    9.64
 -10   2  -1  251.68   10.38
  10  -2   2 5296.21  171.20
 -10   2  -2 5188.65  167.64
  10  -2   3    5.34    3.86
 -10   2  -3   16.24    4.15
  10  -2   4  116.31    6.75
 -10   2  -4  115.20    6.31
  10  -2   5  338.76   13.50
 -10   2  -5  369.92   13.95
  10  -2   6 2260.90   74.47
 -10   2  -6 2144.44   70.39
  10  -2   7  134.70    7.27
 -10   2  -7  124.39    6.90
  10  -2   8    6.31    4.23
 -10   2  -8    5.86    4.45
  10  -2   9   -2.97    4.38
 -10   2  -9    3.34    4.45
  10  -2  10 1914.50   63.50
 -10   2 -10 1913.01   63.35
  10  -2  11    2.45    4.30
 -10   2 -11   -6.97    4.75
  10  -2  12  408.19   16.10
 -10   2 -12  423.55   16.32
  10  -2  13  159.55    8.68
 -10   2 -13  158.14    7.94
  10  -2  14 1095.59   37.53
 -10   2 -14 1154.19   39.61
  10  -2  15  148.13    8.16
 -10   2 -15  133.37    7.94
  10  -2  16 1065.18   36.72
 -10   2 -16 1158.64   39.83
  10  -2  17  472.73   18.17
 -10   2 -17  479.48   18.25
  10  -2  18  927.21   32.34
 -10   2 -18  880.48   30.49
  10  -2  19  191.45    9.79
 -10   2 -19  180.10    8.46
  10  -2  20  164.08    8.60
 -10   2 -20  157.40    7.94
  10  -2  21   -1.04    4.97
 -10   2 -21   -2.00    4.38
  10  -2  22  910.15   31.67
 -10   2 -22  929.43   31.75
  10  -2  23    2.97    5.19
 -10   2 -23    6.08    4.67
  10  -2  24  920.53   31.82
 -10   2 -24  893.09   30.71
  10  -2  25  280.16   11.94
 -10   2 -25  281.87   11.35
  10  -2  26   42.43    5.79
 -10   2 -26   49.85    5.34
  10  -2  27   17.43    5.19
 -10   2 -27    5.34    2.97
  10  -2  28  426.29   15.80
 -10   2 -28  425.77   15.87
  -9   2  32   29.23    4.23
  -9   2  32   36.12    4.82
  -9   2  31   56.89    5.71
  -9   2  31   54.96    5.34
  -9   2  30    7.71    4.08
  -9   2  30   -0.52    4.38
  -9   2  29  861.93   29.82
  -9   2  29  821.88   28.41
  -9   2  28  116.46    7.27
  -9   2  28  125.28    7.05
  -9   2  27    3.19    4.01
  -9   2  27    1.63    4.08
  -9   2  26  118.46    6.82
  -9   2  26  124.39    7.49
  -9   2  25  729.75   25.74
  -9   2  25  778.85   27.52
  -9   2  23   10.24    4.60
  -9   2  23    7.64    4.82
  -9   2  22  162.89    8.60
  -9   2  22  168.60    8.16
  -9   2  21 1045.89   35.98
  -9   2  21 1103.75   37.38
  -9   2  20 1121.55   38.20
  -9   2  20 1134.90   38.50
  -9   2  19 1022.89   35.16
  -9   2  19 1045.89   35.60
  -9   2  18  197.68    9.35
  -9   2  18  181.29    9.05
  -9   2  16   35.53    5.19
  -9   2  16   37.98    4.45
  -9   2  15  767.73   26.63
  -9   2  15  722.41   25.67
  -9   2  14   22.03    4.01
  -9   2  14   24.70    4.60
  -9   2  13  867.87   29.74
  -9   2  13  830.04   28.63
  -9   2  12    6.31    3.78
  -9   2  12    3.49    3.49
  -9   2  11 1208.34   40.72
  -9   2  11 1197.21   40.28
  -9   2  10  148.35    7.57
  -9   2  10  145.31    7.42
  -9   2   9  202.21    8.83
  -9   2   9  199.31    8.90
  -9   2   8    6.60    3.41
  -9   2   8    9.42    3.41
   9  -2  -7 1180.15   39.68
  -9   2   7 1157.90   38.57
   9  -2  -6  143.31    7.05
  -9   2   6  140.12    6.53
   9  -2  -5  155.55    7.27
  -9   2   5  150.58    6.82
   9  -2  -4  289.51   11.27
  -9   2   4  297.60   11.35
   9  -2  -3 3671.00  119.05
  -9   2   3 3671.00  118.76
   9  -2  -2  424.88   15.58
  -9   2   2  405.08   14.76
   9  -2  -1  154.29    7.42
  -9   2   1  159.26    7.27
   9  -2   0  258.80   10.46
  -9   2   0  249.53   10.09
   9  -2   1 1134.90   38.20
  -9   2  -1 1119.32   37.53
   9  -2   2  919.05   31.30
  -9   2  -2  853.03   29.15
   9  -2   3  199.98    8.83
  -9   2  -3  220.75    9.57
   9  -2   4  410.72   15.35
  -9   2  -4  412.72   15.43
   9  -2   5 2809.07   91.68
  -9   2  -5 2830.58   92.42
   9  -2   6  728.27   25.37
  -9   2  -6  702.97   24.63
   9  -2   7 1487.24   49.70
  -9   2  -7 1576.25   52.37
   9  -2   8  130.33    7.42
  -9   2  -8  147.39    7.79
   9  -2   9  719.14   25.44
  -9   2  -9  723.22   25.44
   9  -2  10   45.69    5.27
  -9   2 -10   53.48    5.27
   9  -2  11  436.90   16.54
  -9   2 -11  465.31   17.65
   9  -2  12  185.81    9.27
  -9   2 -12  212.66   10.09
   9  -2  13 1077.79   37.01
  -9   2 -13 1199.43   40.80
   9  -2  14   -2.00    4.97
  -9   2 -14    3.04    4.01
   9  -2  15  356.72   14.54
  -9   2 -15  345.66   14.09
   9  -2  16  233.58   11.05
  -9   2 -16  213.48   10.01
   9  -2  17  676.42   24.33
  -9   2 -17  696.81   24.85
   9  -2  18  408.42   16.24
  -9   2 -18  405.97   15.58
   9  -2  19  221.42   10.01
  -9   2 -19  228.61   10.16
   9  -2  20 1262.48   42.80
  -9   2 -20 1304.77   43.99
   9  -2  21  690.73   24.92
  -9   2 -21  696.67   24.26
   9  -2  22   91.09    6.97
  -9   2 -22   98.88    6.38
   9  -2  23  335.28   13.72
  -9   2 -23  340.92   13.65
   9  -2  24    9.20    4.75
  -9   2 -24   13.57    4.45
   9  -2  25  178.84    8.98
  -9   2 -25  171.20    8.38
   9  -2  26  134.04    7.71
  -9   2 -26  130.85    6.75
   9  -2  27  502.99   18.54
  -9   2 -27  516.94   18.62
   9  -2  28  699.93   24.48
  -9   2 -28  741.77   25.44
   9  -2  29    6.16    3.34
  -9   2 -29    6.16    4.23
   8  -2 -32  131.52    6.68
  -8   2  32  114.53    6.82
   8  -2 -31   16.39    3.49
  -8   2  31   18.92    4.90
   8  -2 -30  723.96   25.29
  -8   2  30  725.15   25.52
   8  -2 -29   60.31    5.56
  -8   2  29   56.89    5.79
   8  -2 -28   -2.60    3.93
  -8   2  28    1.78    3.49
   8  -2 -27    1.48    4.01
  -8   2  27    2.08    4.90
   8  -2 -26  975.42   33.31
  -8   2  26  877.51   30.63
   8  -2 -25  241.15   10.61
  -8   2  25  249.16   10.76
   8  -2 -24   63.27    4.97
  -8   2  24   75.29    5.71
  -8   2  23   20.32    4.52
  -8   2  23   10.83    4.67
  -8   2  22 3628.72  118.24
  -8   2  22 3769.65  122.39
  -8   2  21   93.61    6.68
  -8   2  21   96.21    6.45
  -8   2  20  365.47   14.61
  -8   2  20  398.77   15.28
  -8   2  19  378.52   14.69
  -8   2  19  350.78   14.09
  -8   2  18 2750.47   90.12
  -8   2  18 2766.04   90.50
  -8   2  17  170.38    8.31
  -8   2  17  166.08    8.60
  -8   2  15 1011.03   34.27
  -8   2  15  967.26   33.23
  -8   2  14 2033.18   66.98
  -8   2  14 1967.16   64.76
  -8   2  13  105.78    6.31
  -8   2  13  111.04    6.45
  -8   2  11  132.48    6.97
  -8   2  11  123.13    6.60
  -8   2  10  390.47   14.69
  -8   2  10  419.69   15.28
  -8   2   9    2.08    3.41
  -8   2   9    4.52    3.26
  -8   2   8 2226.04   72.47
  -8   2   8 2270.54   74.18
  -8   2   7  190.71    8.01
  -8   2   7  214.67    8.90
   8  -2  -6  231.95    9.42
  -8   2   6  257.32   10.16
   8  -2  -5   32.86    4.08
  -8   2   5   31.60    3.86
   8  -2  -4 3762.98  121.80
  -8   2   4 3732.56  120.91
   8  -2  -3  114.31    6.01
  -8   2   3  123.58    6.31
   8  -2  -2  984.32   33.16
  -8   2   2  994.71   33.60
   8  -2  -1   51.03    4.38
  -8   2   1   49.40    4.38
   8  -2   0 2792.01   90.87
  -8   2   0 2885.47   93.98
   8  -2   1  654.90   22.77
  -8   2  -1  607.36   21.44
   8  -2   2   66.61    4.90
  -8   2  -2   62.98    4.82
   8  -2   3  309.54   12.09
  -8   2  -3  302.49   11.79
   8  -2   4 1723.86   56.89
  -8   2  -4 1773.56   58.45
   8  -2   5  147.02    7.27
  -8   2  -5  161.78    7.64
   8  -2   6  424.73   15.80
  -8   2  -6  439.72   16.54
   8  -2   7   36.64    4.52
  -8   2  -7   48.73    5.19
   8  -2   8 1137.87   38.57
  -8   2  -8 1126.00   38.13
   8  -2   9 1002.13   34.20
  -8   2  -9 1070.37   36.35
   8  -2  10  286.40   12.02
  -8   2 -10  306.72   12.46
   8  -2  11  262.14   11.13
  -8   2 -11  275.05   11.87
   8  -2  12 1189.05   40.57
  -8   2 -12 1205.37   40.87
   8  -2  13   47.32    5.64
  -8   2 -13   48.14    5.71
   8  -2  14  344.03   14.09
  -8   2 -14  379.34   15.35
   8  -2  15 1161.60   39.76
  -8   2 -15 1120.81   38.50
   8  -2  16  573.38   21.21
  -8   2 -16  597.94   21.96
   8  -2  17   54.82    5.93
  -8   2 -17   51.48    5.27
   8  -2  18 1335.92   45.32
  -8   2 -18 1330.73   44.88
   8  -2  19    7.71    5.56
  -8   2 -19    5.64    4.45
   8  -2  20  271.86   11.79
  -8   2 -20  275.86   11.50
   8  -2  21  197.98    9.12
  -8   2 -21  208.96    9.12
   8  -2  22 1832.90   60.82
  -8   2 -22 1921.17   63.50
   8  -2  23  141.01    7.49
  -8   2 -23  148.06    7.34
   8  -2  24  151.99    7.79
  -8   2 -24  147.61    8.16
   8  -2  25   15.65    4.45
  -8   2 -25   24.48    3.71
   8  -2  26 1036.99   35.38
  -8   2 -26 1062.21   36.05
   8  -2  27   60.82    6.38
  -8   2 -27   53.48    4.67
   8  -2  28   34.86    4.90
  -8   2 -28   42.95    4.67
   8  -2  29   24.18    4.45
  -8   2 -29   24.77    4.52
   8  -2  30  102.96    6.53
  -8   2 -30  101.62    5.56
   7  -2 -33  178.10    8.38
  -7   2  33  186.92    8.16
   7  -2 -32   23.81    4.30
  -7   2  32   70.76    6.01
   7  -2 -31  730.34   25.44
  -7   2  31  788.50   27.22
   7  -2 -30   30.26    4.67
  -7   2  30   19.06    5.12
   7  -2 -29   18.69    4.30
  -7   2  29   14.17    4.45
   7  -2 -28   86.56    6.08
  -7   2  28   92.20    6.75
   7  -2 -27 1215.01   40.95
  -7   2  27 1270.64   42.80
   7  -2 -26   35.68    4.52
  -7   2  26   27.00    5.41
   7  -2 -25  401.37   15.35
  -7   2  25  374.74   14.84
   7  -2 -24   20.99    4.08
  -7   2  24    6.16    4.08
   7  -2 -23  991.00   33.90
  -7   2  23  895.31   31.15
   7  -2 -22  107.41    6.68
  -7   2  22  103.48    7.05
   7  -2 -21  160.59    7.79
  -7   2  21  172.53    8.90
   7  -2 -20  284.84   11.87
  -7   2  20  288.92   12.31
   7  -2 -19 2407.03   79.22
  -7   2  19 2079.91   68.76
   7  -2 -18  640.81   22.77
  -7   2  18  649.79   23.14
   7  -2 -17  354.64   13.87
  -7   2  17  315.99   12.39
  -7   2  16  755.86   26.18
  -7   2  16  751.41   26.48
  -7   2  15 1275.84   42.73
  -7   2  15 1368.56   45.69
  -7   2  14  164.60    7.94
  -7   2  14  173.42    8.16
  -7   2  13  156.22    7.64
  -7   2  13  154.73    7.57
  -7   2  12  140.56    7.12
  -7   2  12  143.01    6.90
  -7   2  11 1073.33   35.83
  -7   2  11 1003.61   33.75
  -7   2  10    3.78    3.19
  -7   2  10    1.11    2.97
  -7   2   9 2306.89   75.14
  -7   2   9 2148.90   70.25
  -7   2   8    7.57    3.26
  -7   2   8    6.16    3.12
  -7   2   7  623.31   21.66
  -7   2   7  637.55   22.03
  -7   2   6   66.46    4.60
  -7   2   6   72.10    4.60
  -7   2   5 4256.25  137.52
   7  -2  -4 2045.05   66.76
  -7   2   4 1970.13   64.46
   7  -2  -3   12.24    3.41
  -7   2   3    2.82    3.19
   7  -2  -2 1548.81   51.03
  -7   2   2 1570.32   51.70
   7  -2   0  165.49    7.49
  -7   2   0  163.93    7.42
   7  -2   1   -0.45    3.41
  -7   2  -1    2.37    3.49
   7  -2   2  808.52   27.52
  -7   2  -2  826.33   28.34
   7  -2   4 1551.77   51.26
  -7   2  -4 1660.81   54.96
   7  -2   5  318.37   12.39
  -7   2  -5  359.24   13.72
   7  -2   6  108.52    6.08
  -7   2  -6   96.80    6.01
   7  -2   7 2728.96   89.01
  -7   2  -7 2718.57   88.79
   7  -2   8  158.81    7.86
  -7   2  -8  169.35    8.46
   7  -2   9   28.63    4.90
  -7   2  -9   16.69    4.75
   7  -2  10  289.96   11.87
  -7   2 -10  262.73   10.68
   7  -2  11 1740.92   57.86
  -7   2 -11 1810.65   60.16
   7  -2  12    4.30    3.78
  -7   2 -12   17.95    4.67
   7  -2  13  642.89   22.92
  -7   2 -13  616.56   22.18
   7  -2  14   58.38    5.56
  -7   2 -14   60.68    5.04
   7  -2  15  599.27   21.88
  -7   2 -15  612.10   22.10
   7  -2  16  180.92    9.27
  -7   2 -16  203.61    9.57
   7  -2  17  567.52   20.99
  -7   2 -17  551.13   20.55
   7  -2  18  222.01   10.01
  -7   2 -18  213.18    9.79
   7  -2  19  731.53   26.18
  -7   2 -19  726.71   25.67
   7  -2  20  847.84   29.89
  -7   2 -20  874.54   30.34
   7  -2  21 1972.35   65.42
  -7   2 -21 1951.59   64.31
   7  -2  22   42.35    5.86
  -7   2 -22   43.84    5.27
   7  -2  23   -1.04    5.19
  -7   2 -23   -1.78    3.26
   7  -2  24  203.76    9.79
  -7   2 -24  219.79   10.24
   7  -2  25  913.86   31.45
  -7   2 -25  886.41   30.56
   7  -2  26   41.76    4.97
  -7   2 -26   42.35    5.12
   7  -2  27   86.27    6.68
  -7   2 -27   82.86    6.38
   7  -2  28   53.41    5.41
  -7   2 -28   47.55    4.23
   7  -2  29  832.26   28.71
  -7   2 -29  828.55   28.56
   7  -2  30  134.48    7.27
  -7   2 -30  159.55    7.71
  -7   2 -31   -0.22    2.89
   6  -2 -33   10.90    4.30
  -6   2  33    1.71    4.45
   6  -2 -32  544.16   19.58
  -6   2  32  519.90   18.62
   6  -2 -31   12.91    4.45
  -6   2  31   16.99    5.34
   6  -2 -30   14.17    4.52
  -6   2  30   19.81    4.52
   6  -2 -29    9.35    4.38
  -6   2  29    4.90    4.90
   6  -2 -28  698.37   24.70
  -6   2  28  741.77   26.04
   6  -2 -27  232.84   10.16
  -6   2  27  237.66   10.46
   6  -2 -26    5.56    4.08
  -6   2  26    4.97    4.82
   6  -2 -25   79.81    6.01
  -6   2  25   84.78    6.38
   6  -2 -24  595.12   21.36
  -6   2  24  653.27   23.37
   6  -2 -23  153.10    8.09
  -6   2  23  154.44    8.46
   6  -2 -22    4.60    4.08
  -6   2  22    7.57    4.08
   6  -2 -21 1263.23   42.73
  -6   2  21 1286.22   43.62
   6  -2 -20  128.77    7.27
  -6   2  20  142.27    8.01
   6  -2 -19  571.53   20.77
  -6   2  19  453.00   17.13
   6  -2 -18  111.56    6.68
  -6   2  18  145.24    7.64
   6  -2 -17   40.65    4.45
  -6   2  17   41.54    4.67
   6  -2 -16 1344.08   44.95
  -6   2  16 1479.82   49.25
   6  -2 -15  102.88    5.93
  -6   2  15   95.17    6.16
   6  -2 -14 2170.41   71.14
  -6   2  14 2148.90   70.62
  -6   2  13  592.74   20.84
  -6   2  13  578.95   20.62
  -6   2  12  899.02   30.49
  -6   2  12  995.45   33.31
  -6   2  11   60.31    4.52
  -6   2  11   54.22    4.15
  -6   2  10 2226.04   72.69
  -6   2  10 2401.10   78.18
  -6   2   8  336.46   12.46
  -6   2   8  324.82   12.09
  -6   2   7  223.57    8.83
  -6   2   7  208.14    8.53
  -6   2   6 3348.33  108.30
  -6   2   6 3308.27  107.11
   6  -2  -5  289.81   10.90
  -6   2   5  320.96   11.94
   6  -2  -4   11.50    3.12
  -6   2   4   17.80    3.41
   6  -2  -3  870.09   29.08
  -6   2   3  881.96   29.67
   6  -2  -2 1523.59   49.92
  -6   2   2 1556.97   51.18
   6  -2  -1  211.11    8.53
  -6   2   1  222.23    8.98
   6  -2   0 2434.47   79.07
  -6   2   0 2441.15   79.44
   6  -2   1  269.48   10.38
  -6   2  -1  284.24   10.76
  -6   2  -2 5075.16  163.63
   6  -2   3   81.67    5.34
  -6   2  -3   78.03    5.04
   6  -2   4   10.31    3.71
  -6   2  -4   19.29    3.78
   6  -2   5   82.19    5.34
  -6   2  -5   99.92    6.08
   6  -2   6 5118.18  165.27
  -6   2  -6 5113.73  165.19
   6  -2   7 1097.07   36.87
  -6   2  -7 1146.03   38.42
   6  -2   8   13.20    4.15
  -6   2  -8    8.68    3.93
   6  -2   9 1098.55   37.31
  -6   2  -9 1028.09   34.94
   6  -2  10 2710.41   88.57
  -6   2 -10 2760.85   90.35
   6  -2  11   12.98    4.60
  -6   2 -11   13.87    4.15
   6  -2  12  309.32   12.61
  -6   2 -12  306.50   12.24
   6  -2  13  178.99    8.90
  -6   2 -13  199.76    9.12
   6  -2  14 1829.19   60.82
  -6   2 -14 1795.07   59.49
   6  -2  15   35.31    4.97
  -6   2 -15   31.01    4.75
   6  -2  16  933.88   32.49
  -6   2 -16  983.58   34.05
   6  -2  17   89.38    6.53
  -6   2 -17   95.17    6.38
   6  -2  18  759.57   26.85
  -6   2 -18  714.91   25.29
   6  -2  19   -2.97    4.38
  -6   2 -19    3.93    4.45
   6  -2  20  867.87   30.49
  -6   2 -20  876.03   30.19
   6  -2  21  121.58    7.42
  -6   2 -21  119.80    6.97
   6  -2  22  717.51   25.37
  -6   2 -22  721.37   25.37
   6  -2  23   71.58    6.08
  -6   2 -23   50.89    5.12
   6  -2  24  993.22   34.27
  -6   2 -24  989.52   34.12
   6  -2  25  204.28    9.94
  -6   2 -25  186.70    8.60
   6  -2  26   35.60    4.30
  -6   2 -26   30.56    4.82
   6  -2  27  229.43   10.38
  -6   2 -27  251.24   10.90
   6  -2  28  660.25   23.37
  -6   2 -28  616.85   22.03
   6  -2  29   57.71    6.01
  -6   2 -29   69.13    5.12
   6  -2  30   -1.71    4.01
  -6   2 -30    4.30    4.45
   6  -2  31   18.40    4.75
  -6   2 -31   15.95    4.38
   5  -2 -33  645.78   22.70
  -5   2  33  669.74   23.44
   5  -2 -32   40.06    4.67
  -5   2  32   33.01    5.04
   5  -2 -31   56.60    5.56
  -5   2  31   44.28    4.45
   5  -2 -30   20.32    4.38
  -5   2  30   14.02    5.34
   5  -2 -29 1203.14   40.80
  -5   2  29 1123.03   38.20
   5  -2 -28  186.92    8.75
  -5   2  28  198.64    9.12
   5  -2 -27   95.98    6.31
  -5   2  27   98.36    6.97
   5  -2 -26  276.98   11.79
  -5   2  26  252.50   11.20
   5  -2 -25  446.39   16.84
  -5   2  25  527.47   19.43
   5  -2 -24  111.64    6.68
  -5   2  24  110.00    7.42
   5  -2 -23   87.45    6.16
  -5   2  23  100.88    6.23
   5  -2 -22   -3.12    3.93
  -5   2  22    3.93    4.82
   5  -2 -21  574.72   20.77
  -5   2  21  609.51   22.18
   5  -2 -20  187.37    8.98
  -5   2  20  186.11    9.20
   5  -2 -19  266.52   11.27
  -5   2  19  217.19   10.09
   5  -2 -18 1222.43   41.17
  -5   2  18 1286.96   43.24
   5  -2 -17  893.83   30.63
  -5   2  17  915.34   31.30
   5  -2 -16   95.69    6.08
  -5   2  16  104.00    6.08
   5  -2 -15  655.50   22.99
  -5   2  15  668.33   23.51
   5  -2 -14  456.33   16.62
  -5   2  14  457.74   16.91
   5  -2 -13 1923.40   63.20
  -5   2  13 1865.54   61.42
   5  -2 -12  261.25   10.38
  -5   2  12  253.91   10.09
   5  -2 -11 2514.59   81.89
  -5   2  11 2686.68   87.38
  -5   2  10  137.75    6.45
  -5   2  10  156.59    7.20
  -5   2   9  925.72   30.93
  -5   2   9  914.60   30.78
  -5   2   8  180.55    7.49
  -5   2   8  193.38    8.09
  -5   2   7 2998.22   97.02
  -5   2   7 2986.35   96.87
  -5   2   6 1022.89   33.90
  -5   2   6 1007.32   33.60
  -5   2   5  314.58   11.35
  -5   2   5  351.67   12.83
   5  -2  -4 1734.25   56.52
  -5   2   4 1689.00   55.26
   5  -2  -3 3105.77  100.29
  -5   2   3 3183.66  103.03
   5  -2  -2  890.12   29.60
  -5   2   2  874.54   29.23
   5  -2  -1  180.55    7.34
  -5   2   1  172.83    7.20
   5  -2   0   10.83    2.97
  -5   2   0   18.40    3.41
   5  -2   1 3408.41  110.15
   5  -2   2  334.61   12.24
  -5   2  -2  357.01   12.98
   5  -2   3   16.84    3.41
  -5   2  -3   16.76    3.34
   5  -2   4 1906.34   62.38
  -5   2  -4 1861.83   60.82
   5  -2   5 5672.28  182.92
   5  -2   6   55.04    4.82
  -5   2  -6   61.27    4.97
   5  -2   7   74.77    4.97
  -5   2  -7   88.86    5.71
   5  -2   8  901.25   30.71
  -5   2  -8  916.82   31.15
   5  -2   9 1890.02   62.23
  -5   2  -9 1821.03   60.01
   5  -2  10   -0.59    3.86
  -5   2 -10    6.23    4.45
   5  -2  11  378.75   14.24
  -5   2 -11  403.82   15.43
   5  -2  12  314.21   12.54
  -5   2 -12  320.37   12.83
   5  -2  13 1184.60   40.13
  -5   2 -13 1193.50   40.43
   5  -2  14   49.25    5.41
  -5   2 -14   62.75    5.86
   5  -2  15  503.07   18.84
  -5   2 -15  456.41   16.84
   5  -2  16    8.75    3.71
  -5   2 -16    6.16    4.75
   5  -2  17 1176.44   39.98
  -5   2 -17 1206.11   40.80
   5  -2  18  443.28   16.99
  -5   2 -18  446.02   16.91
   5  -2  19 2361.78   77.89
  -5   2 -19 2542.77   83.45
   5  -2  20  784.79   27.59
  -5   2 -20  792.95   27.67
   5  -2  21 1450.15   48.88
  -5   2 -21 1419.74   47.47
   5  -2  22  597.34   21.88
  -5   2 -22  604.54   21.66
   5  -2  23 1180.15   40.20
  -5   2 -23 1180.15   40.13
   5  -2  24   53.93    4.97
  -5   2 -24   61.71    5.56
   5  -2  25  392.76   15.43
  -5   2 -25  379.04   14.76
   5  -2  26   20.70    4.82
  -5   2 -26   30.93    4.97
   5  -2  27  973.94   33.45
  -5   2 -27 1050.34   35.60
   5  -2  28  112.60    6.82
  -5   2 -28   98.88    6.38
   5  -2  29   30.41    5.56
  -5   2 -29   34.57    4.23
   5  -2  30  130.11    6.82
  -5   2 -30  132.48    7.49
   5  -2  31  361.91   14.02
  -5   2 -31  381.19   14.09
   5  -2  32   14.24    4.52
  -5   2 -32   14.32    4.15
   4  -2 -33    8.46    4.30
  -4   2  33    6.38    3.56
   4  -2 -32  113.56    6.82
  -4   2  32  112.97    6.75
   4  -2 -31   12.24    4.45
  -4   2  31   17.65    4.97
   4  -2 -30  838.94   29.00
  -4   2  30  835.97   29.23
   4  -2 -29   39.02    4.90
  -4   2  29   42.35    5.04
   4  -2 -28  148.43    7.79
  -4   2  28  134.48    7.57
   4  -2 -27    7.12    4.15
  -4   2  27    2.89    5.19
   4  -2 -26 1126.74   38.28
  -4   2  26 1180.15   40.20
   4  -2 -25  628.05   22.48
  -4   2  25  663.88   23.74
   4  -2 -24  608.03   22.03
  -4   2  24  654.61   23.44
   4  -2 -23 1950.10   64.68
  -4   2  23 1788.40   59.64
   4  -2 -22 3205.91  104.74
  -4   2  22 3719.95  121.13
   4  -2 -21  499.28   18.54
  -4   2  21  501.73   18.92
   4  -2 -20  966.52   33.23
  -4   2  20  943.53   32.64
   4  -2 -19    6.53    4.08
  -4   2  19   11.94    4.30
   4  -2 -18 2328.40   76.40
  -4   2  18 2494.56   81.82
   4  -2 -17  182.92    8.53
  -4   2  17  148.43    7.57
   4  -2 -16  305.76   12.16
  -4   2  16  319.18   12.31
   4  -2 -15 1031.05   34.86
  -4   2  15 1157.90   38.94
   4  -2 -14 2573.93   83.97
  -4   2  14 3041.98   99.10
   4  -2 -13   88.72    5.41
  -4   2  13   87.16    5.12
   4  -2 -12 1200.92   40.06
  -4   2  12 1175.70   39.24
   4  -2 -11  418.43   15.13
  -4   2  11  402.04   14.61
   4  -2 -10 1517.65   49.99
  -4   2  10 1599.99   52.59
   4  -2  -9   54.22    4.01
  -4   2   9   55.48    3.93
  -4   2   8 4472.85  144.35
  -4   2   7   68.24    4.15
  -4   2   7   70.47    4.45
  -4   2   6   26.41    3.04
  -4   2   6   33.08    3.34
  -4   2   5  111.93    5.04
  -4   2   5  104.22    5.04
  -4   2   4  428.44   14.76
  -4   2   4  440.16   15.06
   4  -2  -2   21.88    2.82
  -4   2   2   21.88    2.67
   4  -2  -1  141.53    5.93
  -4   2   1  136.56    5.56
   4  -2   1 2137.03   69.43
  -4   2  -1 2115.52   68.69
   4  -2   2   20.32    3.26
  -4   2  -2   17.95    3.12
   4  -2   3 1648.20   54.00
  -4   2  -3 1641.53   53.70
  -4   2  -4 4453.56  143.68
   4  -2   5 1675.65   54.96
  -4   2  -5 1611.86   52.81
   4  -2   6   23.66    4.15
  -4   2  -6   20.47    3.93
   4  -2   7  273.04   10.76
  -4   2  -7  285.80   11.35
   4  -2   8 5527.64  178.32
   4  -2   9    4.60    4.01
  -4   2  -9    7.49    3.34
   4  -2  10  601.87   21.29
  -4   2 -10  622.79   21.81
   4  -2  11  354.34   13.65
  -4   2 -11  370.29   14.17
   4  -2  12 1122.29   37.98
  -4   2 -12 1120.81   37.76
   4  -2  13   92.05    5.64
  -4   2 -13  100.14    6.45
   4  -2  14 1395.26   46.81
  -4   2 -14 1354.46   45.40
   4  -2  15  394.47   15.50
  -4   2 -15  405.67   15.65
   4  -2  16  358.20   14.39
  -4   2 -16  337.50   12.98
   4  -2  17  950.20   33.01
  -4   2 -17  936.85   32.34
   4  -2  18 1163.09   39.68
  -4   2 -18 1095.59   37.16
   4  -2  19  181.58    9.12
  -4   2 -19  180.84    8.68
   4  -2  20    3.86    3.71
  -4   2 -20    5.41    4.45
   4  -2  21  292.48   12.68
  -4   2 -21  313.69   12.83
   4  -2  22  326.82   13.57
  -4   2 -22  332.46   13.28
   4  -2  23  158.81    7.94
  -4   2 -23  166.01    8.46
   4  -2  24   -6.68    5.04
  -4   2 -24   -2.52    4.52
   4  -2  25  215.93    9.64
  -4   2 -25  220.16   10.31
   4  -2  26 1881.86   62.38
  -4   2 -26 1856.64   61.34
   4  -2  27   54.07    5.56
  -4   2 -27   59.79    4.90
   4  -2  28   11.20    4.38
  -4   2 -28    1.93    3.26
   4  -2  29    8.31    5.12
  -4   2 -29    6.68    3.71
   4  -2  30  569.68   20.25
  -4   2 -30  624.20   22.18
   4  -2  31   37.83    5.04
  -4   2 -31   37.83    4.82
   4  -2  32    1.04    4.38
  -4   2 -32    8.90    4.38
   3  -2 -33   47.99    4.67
  -3   2  33   47.77    5.64
   3  -2 -32   36.94    4.75
  -3   2  32   38.13    5.34
   3  -2 -31  746.96   26.18
  -3   2  31  709.57   24.92
   3  -2 -30   69.21    5.64
  -3   2  30   55.93    5.34
   3  -2 -29   -1.63    3.78
  -3   2  29    9.72    3.71
   3  -2 -28  341.58   13.65
  -3   2  28  365.32   14.39
   3  -2 -27  926.47   31.90
  -3   2  27  942.04   32.64
   3  -2 -26    8.16    3.71
  -3   2  26    4.52    5.12
   3  -2 -25   37.09    5.04
  -3   2  25   51.11    6.01
   3  -2 -24    7.20    4.23
  -3   2  24   13.20    5.04
   3  -2 -23   62.38    5.64
  -3   2  23   62.38    5.56
   3  -2 -22  993.97   34.05
  -3   2  22  889.38   30.86
   3  -2 -21  128.92    7.27
  -3   2  21  146.28    8.38
   3  -2 -20  120.09    7.05
  -3   2  20  139.01    8.16
   3  -2 -19  499.36   18.32
  -3   2  19  470.28   17.51
   3  -2 -18  305.68   12.16
  -3   2  18  366.95   14.09
   3  -2 -17 1856.64   61.34
  -3   2  17 1875.18   61.86
   3  -2 -16  562.11   20.10
  -3   2  16  614.92   21.73
   3  -2 -15 1509.49   50.14
  -3   2  15 1594.80   53.04
   3  -2 -14    6.16    3.41
  -3   2  14    6.53    3.71
   3  -2 -13 2028.73   66.54
  -3   2  13 1995.35   65.50
   3  -2 -12  911.63   30.71
  -3   2  12  952.43   32.12
   3  -2 -11 1934.52   63.27
  -3   2  11 2376.62   77.51
   3  -2 -10   63.64    4.45
  -3   2  10   54.30    4.23
   3  -2  -9 3083.52   99.84
  -3   2   9 2835.03   91.83
   3  -2  -8   57.34    4.01
  -3   2   8   54.30    3.93
   3  -2  -7 1189.05   39.09
  -3   2   7 1220.95   40.06
  -3   2   6    1.19    2.37
  -3   2   6    1.85    2.37
  -3   2   3  503.88   16.84
  -3   2   3  479.70   16.10
   3  -2  -2  533.03   17.80
  -3   2   2  543.19   18.10
   3  -2  -1  257.24    9.12
  -3   2   1  254.50    8.98
   3  -2   0 1041.44   34.20
  -3   2   0 1065.18   34.86
   3  -2   1 1504.30   49.03
  -3   2  -1 1571.80   51.11
   3  -2   2  150.28    6.45
  -3   2  -2  152.43    6.23
   3  -2   3 1060.72   35.16
  -3   2  -3 1066.66   35.31
   3  -2   4  819.65   27.59
  -3   2  -4  775.89   26.18
   3  -2   5    1.56    3.41
  -3   2  -5    5.41    3.41
   3  -2   6  310.87   11.72
  -3   2  -6  281.95   10.61
   3  -2   7 4749.52  153.40
  -3   2  -7 4601.91  148.50
   3  -2   8    1.26    3.93
  -3   2  -8    3.34    3.26
   3  -2   9  575.02   20.40
  -3   2  -9  580.51   20.25
   3  -2  10  111.34    6.75
  -3   2 -10  102.44    6.08
   3  -2  11 1872.96   61.71
  -3   2 -11 1882.60   61.86
   3  -2  12   -3.49    4.15
  -3   2 -12    7.05    4.30
   3  -2  13 1045.15   35.53
  -3   2 -13 1105.97   37.16
   3  -2  14   58.30    5.64
  -3   2 -14   61.12    5.34
   3  -2  15  416.35   16.17
  -3   2 -15  451.74   16.99
   3  -2  16    1.26    4.67
  -3   2 -16    3.49    3.71
   3  -2  17   22.70    4.08
  -3   2 -17   29.00    3.86
   3  -2  18  877.51   30.49
  -3   2 -18  856.74   29.60
   3  -2  19  150.73    8.83
  -3   2 -19  150.13    7.94
   3  -2  20  596.31   21.59
  -3   2 -20  574.65   20.99
   3  -2  21 1020.67   35.38
  -3   2 -21  984.32   33.90
   3  -2  22    9.42    4.01
  -3   2 -22    8.83    4.60
   3  -2  23   -4.30    5.12
  -3   2 -23    5.71    3.86
   3  -2  24    6.45    3.86
  -3   2 -24    4.38    4.01
   3  -2  25  876.03   30.56
  -3   2 -25  915.34   31.60
   3  -2  26   29.67    5.64
  -3   2 -26   34.86    4.38
   3  -2  27   38.13    4.45
  -3   2 -27   41.61    4.45
   3  -2  28   18.32    5.04
  -3   2 -28   23.81    4.82
   3  -2  29 1107.46   37.61
  -3   2 -29 1025.86   34.94
   3  -2  30   19.21    4.75
  -3   2 -30   26.04    4.45
   3  -2  31    8.01    3.56
  -3   2 -31    7.79    4.38
   3  -2  32   59.04    5.34
  -3   2 -32   62.68    5.34
   2  -2 -33   39.02    4.52
  -2   2  33   32.56    4.01
   2  -2 -32  646.82   22.77
  -2   2  32  629.98   22.03
   2  -2 -31   34.12    4.82
  -2   2  31   27.52    4.30
   2  -2 -30    3.49    4.30
  -2   2  30    4.82    3.71
   2  -2 -29   15.06    4.15
  -2   2  29   13.50    4.67
   2  -2 -28  755.12   26.56
  -2   2  28  720.25   25.59
   2  -2 -27    3.26    4.01
  -2   2  27   -3.56    4.38
   2  -2 -26   52.07    5.34
  -2   2  26   39.91    5.19
   2  -2 -25  113.12    6.90
  -2   2  25  105.33    6.75
   2  -2 -24 2234.20   73.66
  -2   2  24 1841.06   61.12
   2  -2 -23  167.19    8.53
  -2   2  23  147.61    8.09
   2  -2 -22 1554.00   51.92
  -2   2  22 1454.60   48.81
   2  -2 -21 1304.02   43.99
  -2   2  21 1424.93   48.07
   2  -2 -20  899.76   31.08
  -2   2  20  838.20   29.37
   2  -2 -19  362.13   14.02
  -2   2  19  362.13   14.24
   2  -2 -18  735.02   25.67
  -2   2  18  635.03   22.62
   2  -2 -17  285.28   11.72
  -2   2  17  333.87   13.06
   2  -2 -16 1243.20   41.69
  -2   2  16 1511.72   50.22
   2  -2 -15  146.94    7.12
  -2   2  15  142.27    7.64
   2  -2 -14 3160.66  102.73
  -2   2  14 2897.34   94.50
   2  -2 -13  454.78   16.39
  -2   2  13  431.34   15.87
   2  -2 -12  987.29   33.16
  -2   2  12  914.60   31.01
   2  -2 -11   52.37    4.30
  -2   2  11   58.53    4.23
   2  -2 -10 2008.70   65.57
  -2   2  10 2114.03   68.91
   2  -2  -9  135.97    6.23
  -2   2   9  122.91    5.79
   2  -2  -8 1186.82   39.09
  -2   2   8 1287.71   42.28
   2  -2  -7   12.83    2.82
  -2   2   7   14.61    2.82
   2  -2  -5   67.87    3.49
  -2   2   5   56.60    3.19
  -2   2   4  732.20   24.11
  -2   2   4  781.82   25.67
  -2   2   3  548.83   18.17
  -2   2   3  545.27   18.10
   2  -2   3  233.43    8.98
  -2   2  -3  234.55    8.83
   2  -2   4  213.48    8.53
  -2   2  -4  209.85    8.38
   2  -2   5  942.78   31.53
  -2   2  -5  924.24   30.93
   2  -2   6 3142.86  101.84
  -2   2  -6 3197.01  103.48
   2  -2   7    8.75    3.34
  -2   2  -7   13.72    3.34
   2  -2   8 1024.38   34.42
  -2   2  -8 1032.54   34.71
   2  -2   9  729.97   25.22
  -2   2  -9  746.22   25.67
   2  -2  10 1272.13   42.58
  -2   2 -10 1268.42   42.21
   2  -2  11   91.01    6.16
  -2   2 -11   91.09    5.71
   2  -2  12  897.54   30.86
  -2   2 -12  905.70   30.86
   2  -2  13  100.58    6.45
  -2   2 -13  103.18    6.08
   2  -2  14  880.48   30.19
  -2   2 -14  872.32   29.67
   2  -2  15    2.74    4.52
  -2   2 -15   22.10    4.01
   2  -2  16  582.51   21.14
  -2   2 -16  573.53   20.47
   2  -2  17   97.69    6.60
  -2   2 -17   99.99    6.01
   2  -2  18   13.80    4.60
  -2   2 -18    5.64    3.86
   2  -2  19    5.79    5.12
  -2   2 -19    0.59    3.86
   2  -2  20  378.97   14.84
  -2   2 -20  376.52   14.69
   2  -2  21  171.20    9.35
  -2   2 -21  153.40    8.09
   2  -2  22 1832.16   61.12
  -2   2 -22 1743.89   58.15
   2  -2  23   -4.08    3.71
  -2   2 -23    5.41    4.82
   2  -2  24 1294.38   43.84
  -2   2 -24 1251.36   42.65
   2  -2  25  238.77   11.13
  -2   2 -25  254.35   11.27
   2  -2  26  149.76    7.79
  -2   2 -26  147.02    7.71
   2  -2  27  240.63   10.68
  -2   2 -27  251.53   10.61
   2  -2  28 1139.35   38.79
  -2   2 -28 1067.40   36.35
   2  -2  29   24.70    5.34
  -2   2 -29   34.42    5.12
   2  -2  30   -2.89    4.75
  -2   2 -30   -2.15    4.23
   2  -2  31   47.25    5.27
  -2   2 -31   47.18    5.27
   2  -2  32  747.70   25.59
  -2   2 -32  779.60   26.70
   2  -2  33   12.54    3.49
  -2   2 -33    1.93    3.63
   1  -2 -33  461.30   16.99
  -1   2  33  450.70   16.62
   1  -2 -32   69.21    5.56
  -1   2  32   64.76    5.93
   1  -2 -31   12.39    4.30
  -1   2  31   11.20    5.27
   1  -2 -30   67.65    5.64
  -1   2  30   65.20    6.23
   1  -2 -29 1073.33   36.42
  -1   2  29 1032.54   35.23
   1  -2 -28    5.79    4.23
  -1   2  28   -2.00    4.30
   1  -2 -27  211.25    9.27
  -1   2  27  209.25    9.42
   1  -2 -26   54.52    5.41
  -1   2  26   64.61    5.79
   1  -2 -25 1794.33   59.64
  -1   2  25 1739.44   58.01
   1  -2 -24    0.96    4.30
  -1   2  24    6.38    5.12
   1  -2 -23  162.67    8.46
  -1   2  23  169.79    9.05
   1  -2 -22  495.80   18.47
  -1   2  22  539.49   19.95
   1  -2 -21 3678.42  119.72
  -1   2  21 3538.96  115.42
   1  -2 -20 1023.64   34.94
  -1   2  20  993.22   34.20
   1  -2 -19  119.20    6.97
  -1   2  19  123.80    7.27
   1  -2 -18   43.39    4.90
  -1   2  18   54.22    5.56
   1  -2 -17 1371.52   45.92
  -1   2  17 1288.45   43.17
   1  -2 -16   21.73    4.15
  -1   2  16   21.29    3.71
   1  -2 -15 2162.25   70.99
  -1   2  15 2045.05   67.20
   1  -2 -14   14.69    3.63
  -1   2  14   10.31    3.49
   1  -2 -13  953.17   32.27
  -1   2  13  946.49   32.12
   1  -2 -12   42.13    4.08
  -1   2  12   37.83    4.15
   1  -2 -11 1934.52   63.35
  -1   2  11 1788.40   58.75
   1  -2 -10  131.66    6.31
  -1   2  10  141.08    6.45
   1  -2  -9 1798.04   58.75
  -1   2   9 1721.64   56.23
   1  -2  -8   27.74    3.19
  -1   2   8   26.11    3.19
  -1   2   7 2852.83   92.28
   1  -2  -6 1146.77   37.61
  -1   2   6 1223.91   39.98
   1  -2  -5   17.13    2.37
  -1   2   5   19.66    2.37
   1  -2  -4  855.26   28.04
  -1   2   4  856.74   28.04
   1  -2  -3  102.14    3.86
  -1   2   3  113.34    4.15
   1  -2   4 2869.89   92.94
  -1   2  -4 3041.24   98.36
   1  -2   6   76.55    4.82
  -1   2  -6   76.62    4.97
   1  -2   7 1548.06   50.96
  -1   2  -7 1500.59   49.25
   1  -2   8  239.37    9.87
  -1   2  -8  255.98   10.31
   1  -2   9 2014.64   66.09
  -1   2  -9 2044.31   66.91
   1  -2  10  147.61    6.97
  -1   2 -10  151.25    7.27
   1  -2  11 1148.25   38.65
  -1   2 -11 1100.78   36.87
   1  -2  12  364.36   13.95
  -1   2 -12  389.35   14.76
   1  -2  13  497.95   18.32
  -1   2 -13  470.50   17.13
   1  -2  14   14.46    4.82
  -1   2 -14   15.50    4.01
   1  -2  15 1065.92   36.20
  -1   2 -15 1111.16   37.61
   1  -2  16   21.59    4.60
  -1   2 -16   26.18    4.23
   1  -2  17 1151.22   39.24
  -1   2 -17 1128.97   38.05
   1  -2  18   32.12    5.34
  -1   2 -18   44.73    5.27
   1  -2  19 3519.68  114.68
  -1   2 -19 3501.88  114.16
   1  -2  20  208.96   10.01
  -1   2 -20  230.76   10.46
   1  -2  21   57.12    6.38
  -1   2 -21   41.69    4.97
   1  -2  22  341.14   14.32
  -1   2 -22  358.79   14.24
   1  -2  23  752.89   26.85
  -1   2 -23  795.17   28.11
   1  -2  24  118.61    7.42
  -1   2 -24  122.54    7.79
   1  -2  25    5.12    3.86
  -1   2 -25    6.01    4.67
   1  -2  26   72.92    5.64
  -1   2 -26   58.75    5.49
   1  -2  27 1360.40   45.77
  -1   2 -27 1373.75   45.77
   1  -2  28   62.75    6.45
  -1   2 -28   69.21    5.49
   1  -2  29  -13.43    5.19
  -1   2 -29    2.00    3.93
   1  -2  30   41.02    5.71
  -1   2 -30   38.57    4.45
   1  -2  31  799.62   27.74
  -1   2 -31  831.52   28.63
   1  -2  32   36.27    5.34
  -1   2 -32   35.01    4.30
   1  -2  33    9.49    4.23
  -1   2 -33    6.53    3.78
   0  -2 -33   36.57    4.52
   0   2  33   37.83    4.67
   0  -2 -32   45.25    4.82
   0   2  32   38.28    5.19
   0  -2 -31   63.94    5.49
   0   2  31   64.53    6.08
   0  -2 -30  808.52   28.04
   0   2  30  830.04   28.93
   0  -2 -29    8.68    4.52
   0   2  29   12.31    4.97
   0  -2 -28   33.82    5.04
   0   2  28   47.84    4.67
   0  -2 -27   30.78    4.82
   0   2  27   26.18    4.75
   0  -2 -26 1363.37   45.84
   0   2  26 1579.96   52.89
   0  -2 -25  175.72    8.90
   0   2  25  149.84    8.53
   0  -2 -24   10.90    4.60
   0   2  24    7.49    4.60
   0  -2 -23 3744.43  121.95
   0   2  23 2995.99   98.06
   0  -2 -22  249.46   10.98
   0   2  22  280.09   12.39
   0  -2 -21  510.63   19.14
   0   2  21  442.31   16.62
   0  -2 -20  338.99   13.57
   0   2  20  383.64   15.28
   0  -2 -19  173.35    8.60
   0   2  19  153.62    7.86
   0  -2 -18  419.91   15.95
   0   2  18  417.54   16.02
   0  -2 -17  160.15    8.09
   0   2  17  189.60    8.75
   0  -2 -16 1808.42   59.93
   0   2  16 1786.17   58.90
   0  -2 -15   14.32    4.01
   0   2  15    8.31    3.86
   0  -2 -14 1637.08   54.15
   0   2  14 1582.19   52.37
   0  -2 -13   27.45    4.01
   0   2  13   25.59    3.26
   0  -2 -12 1098.55   36.72
   0   2  12 1086.69   36.42
   0  -2 -11  359.53   13.20
   0   2  11  333.05   12.68
   0  -2 -10 1740.18   57.04
   0   2  10 1578.48   52.00
   0  -2  -9  154.88    6.82
   0   2   9  151.25    6.60
   0  -2  -8 2130.35   69.28
   0   2   8 2636.23   85.45
   0  -2  -7  189.00    7.64
   0   2   7  186.48    7.49
   0  -2  -6  332.16   11.79
   0   2   6  326.82   11.57
   0  -2  -5    0.30    2.08
   0   2   5    3.93    2.23
   0  -2  -4  618.86   20.55
   0   2   4  591.48   19.66
   0  -2  -3    1.41    1.71
   0   2   3    1.63    1.63
   0  -2  -2  122.98    4.52
   0   2   2  115.86    4.30
   0  -2   1 1097.81   35.83
   0   2  -1 1074.08   35.09
   0  -2   2  109.48    5.12
   0   2  -2  111.04    4.90
   0  -2   3    4.90    2.97
   0   2  -3    0.37    2.67
   0  -2   4  627.68   21.44
   0   2  -4  575.02   19.73
   0  -2   5    5.64    3.12
   0   2  -5   -1.04    3.26
   0  -2   6  346.78   12.98
   0   2  -6  338.32   12.68
   0  -2   7  192.41    8.16
   0   2  -7  175.21    7.71
   0  -2   8 2533.87   82.56
   0   2  -8 2539.06   82.63
   0  -2   9  161.56    7.86
   0   2  -9  168.08    8.01
   0  -2  10 1663.78   55.04
   0   2 -10 1621.50   53.48
   0  -2  11  333.65   13.13
   0   2 -11  354.64   13.28
   0  -2  12 1102.26   37.24
   0   2 -12 1105.23   37.16
   0  -2  13   25.81    4.67
   0   2 -13   28.71    4.67
   0  -2  14 1676.39   55.56
   0   2 -14 1553.26   51.40
   0  -2  15   15.58    4.23
   0   2 -15   14.84    4.01
   0  -2  16 1749.08   58.08
   0   2 -16 1789.14   59.27
   0  -2  17  218.75    9.87
   0   2 -17  207.62    9.20
   0  -2  18  420.58   16.10
   0   2 -18  415.61   15.87
   0  -2  19  194.86    9.42
   0   2 -19  163.11    8.38
   0  -2  20  347.81   14.17
   0   2 -20  321.78   13.13
   0  -2  21  444.76   17.21
   0   2 -21  441.50   17.06
   0  -2  22  257.62   11.65
   0   2 -22  256.95   11.35
   0  -2  23 3335.72  109.04
   0   2 -23 3338.69  109.11
   0  -2  24    2.89    5.27
   0   2 -24    4.38    4.90
   0  -2  25  154.06    8.75
   0   2 -25  144.42    8.09
   0  -2  26 1604.44   53.63
   0   2 -26 1533.23   51.03
   0  -2  27   30.71    5.49
   0   2 -27   18.92    3.78
   0  -2  28   41.84    5.86
   0   2 -28   38.42    5.04
   0  -2  29   13.13    5.27
   0   2 -29   13.80    4.60
   0  -2  30  916.08   31.45
   0   2 -30  877.51   30.04
   0  -2  31   62.09    6.08
   0   2 -31   62.53    5.56
   0  -2  32   44.65    5.64
   0   2 -32   39.76    4.30
   0  -2  33   42.35    5.34
   0   2 -33   41.24    4.15
  -1  -2 -33    3.86    4.23
   1   2  33    9.42    4.45
  -1  -2 -32   28.26    4.60
   1   2  32   34.05    4.23
  -1  -2 -31  771.44   26.70
   1   2  31  758.83   26.26
  -1  -2 -30   41.32    4.82
   1   2  30   34.42    5.64
  -1  -2 -29    5.49    3.93
   1   2  29    0.52    4.97
  -1  -2 -28   71.36    5.93
   1   2  28   58.75    5.12
  -1  -2 -27 1437.54   48.14
   1   2  27 1370.04   46.06
  -1  -2 -26   63.42    5.79
   1   2  26   54.74    6.08
  -1  -2 -25   11.42    4.45
   1   2  25    6.23    3.71
  -1  -2 -24  110.23    6.75
   1   2  24  114.01    7.64
  -1  -2 -23  823.36   28.78
   1   2  23  792.95   27.89
  -1  -2 -22  374.00   14.69
   1   2  22  344.85   14.24
  -1  -2 -21   54.30    5.49
   1   2  21   33.60    4.30
  -1  -2 -20  213.41    9.94
   1   2  20  232.25   10.76
  -1  -2 -19 3283.05  107.04
   1   2  19 3309.02  108.08
  -1  -2 -18   36.35    4.67
   1   2  18   36.57    4.15
  -1  -2 -17 1065.18   36.27
   1   2  17 1055.53   36.12
  -1  -2 -16   29.23    4.23
   1   2  16   24.63    4.45
  -1  -2 -15 1074.82   36.42
   1   2  15  980.61   33.23
  -1  -2 -14   23.29    3.78
   1   2  14   20.92    3.63
  -1  -2 -13  518.42   18.62
   1   2  13  453.59   16.69
  -1  -2 -12  369.77   13.80
   1   2  12  370.29   13.65
  -1  -2 -11 1044.41   34.94
   1   2  11 1089.65   36.49
  -1  -2 -10  152.88    7.05
   1   2  10  134.63    6.60
  -1  -2  -9 1973.84   64.46
   1   2   9 2082.88   68.02
  -1  -2  -8  225.94    8.98
   1   2   8  226.83    8.90
  -1  -2  -7 1453.86   47.70
   1   2   7 1554.00   50.89
  -1  -2  -6   75.44    4.45
   1   2   6   83.89    4.60
   1   2   1 2576.89   83.23
  -1  -2   2 1060.72   35.01
  -1  -2   2 1072.59   35.31
  -1  -2   3  104.22    5.41
   1   2  -3  100.95    4.97
  -1  -2   4  877.51   29.45
   1   2  -4  867.87   29.15
  -1  -2   5   18.17    3.63
   1   2  -5   24.18    3.86
  -1  -2   6 1131.19   37.68
   1   2  -6 1189.05   39.54
  -1  -2   7 2884.73   93.61
   1   2  -7 2810.55   91.24
  -1  -2   8   27.96    4.01
   1   2  -8   26.56    4.23
  -1  -2   9 1836.61   60.45
   1   2  -9 1867.77   61.42
  -1  -2  10  142.64    6.90
   1   2 -10  149.69    7.34
  -1  -2  11 1739.44   57.49
   1   2 -11 1684.55   55.48
  -1  -2  12   43.10    5.04
   1   2 -12   32.64    4.67
  -1  -2  13  917.56   31.38
   1   2 -13  906.44   30.93
  -1  -2  14    8.23    3.93
   1   2 -14   14.54    3.63
  -1  -2  15 2138.51   70.62
   1   2 -15 2085.84   68.46
  -1  -2  16   23.81    4.60
   1   2 -16   29.00    4.90
  -1  -2  17 1376.72   46.14
   1   2 -17 1303.28   43.84
  -1  -2  18   44.14    5.64
   1   2 -18   47.99    4.82
  -1  -2  19  123.58    7.79
   1   2 -19  118.68    7.27
  -1  -2  20 1000.64   34.64
   1   2 -20  965.04   33.38
  -1  -2  21 3785.97  123.28
   1   2 -21 3489.27  114.01
  -1  -2  22  550.69   20.18
   1   2 -22  553.73   20.62
  -1  -2  23  163.86    8.68
   1   2 -23  155.99    8.53
  -1  -2  24   -1.04    4.97
   1   2 -24    4.75    4.45
  -1  -2  25 1921.17   63.79
   1   2 -25 1783.95   59.42
  -1  -2  26   63.05    6.53
   1   2 -26   60.23    4.97
  -1  -2  27  196.12    9.79
   1   2 -27  222.16    9.79
  -1  -2  28   -2.30    5.04
   1   2 -28    4.97    4.52
  -1  -2  29 1172.73   39.68
   1   2 -29 1062.21   36.20
  -1  -2  30   70.62    5.71
   1   2 -30   61.05    4.90
  -1  -2  31    4.82    3.63
   1   2 -31   22.18    4.75
  -1  -2  32   71.51    5.04
   1   2 -32   58.23    5.27
  -1  -2  33  512.11   18.10
   1   2 -33  512.93   18.17
  -2  -2 -33    8.98    4.30
   2   2  33    8.60    4.82
  -2  -2 -32  691.25   24.11
   2   2  32  721.44   25.29
  -2  -2 -31   37.68    5.12
   2   2  31   42.21    4.82
  -2  -2 -30    2.74    4.15
   2   2  30   -3.19    5.04
  -2  -2 -29   27.67    4.30
   2   2  29   16.39    5.19
  -2  -2 -28 1163.09   39.39
   2   2  28 1163.09   39.31
  -2  -2 -27  277.72   11.79
   2   2  27  264.59   11.79
  -2  -2 -26  149.61    8.09
   2   2  26  130.11    6.97
  -2  -2 -25  228.98   10.24
   2   2  25  217.49   10.16
  -2  -2 -24 1185.34   40.28
   2   2  24 1234.30   41.76
  -2  -2 -23    2.08    4.67
   2   2  23   -1.93    4.97
  -2  -2 -22 1821.03   60.45
   2   2  22 1815.84   60.60
  -2  -2 -21  172.68    8.60
   2   2  21  153.77    7.86
  -2  -2 -20  358.05   14.17
   2   2  20  333.79   13.57
  -2  -2 -19    2.45    3.63
   2   2  19   -6.01    4.82
  -2  -2 -18    8.23    4.52
   2   2  18    7.42    4.60
  -2  -2 -17   90.57    6.08
   2   2  17   82.86    6.31
  -2  -2 -16  627.39   22.33
   2   2  16  585.77   21.14
  -2  -2 -15   12.39    4.38
   2   2  15   18.02    3.93
  -2  -2 -14  814.46   28.11
   2   2  14  872.32   29.82
  -2  -2 -13   99.92    6.16
   2   2  13   90.50    5.93
  -2  -2 -12  849.32   29.00
   2   2  12  919.05   31.30
  -2  -2 -11  109.63    5.93
   2   2  11   91.61    5.71
  -2  -2 -10 1603.70   52.81
   2   2  10 1318.86   43.84
  -2  -2  -9  694.81   23.81
   2   2   9  708.83   24.40
  -2  -2  -8 1120.81   37.31
   2   2   8 1019.19   34.12
  -2  -2  -7   13.06    3.41
   2   2   7    9.64    3.26
   2   2   6 3326.08  107.56
  -2  -2  -5  898.28   29.89
   2   2   5  917.56   30.56
  -2  -2  -4  217.86    8.38
   2   2   4  247.23    9.42
  -2  -2  -3  268.37    9.87
   2   2   3  256.95    9.57
  -2  -2   2 3173.27  102.66
  -2  -2   3  543.57   18.84
  -2  -2   3  511.08   17.73
  -2  -2   4  754.38   25.67
   2   2  -4  723.44   24.63
  -2  -2   5   73.14    5.04
   2   2  -5   77.66    5.12
   2   2  -6 5261.34  169.64
  -2  -2   7   16.69    4.08
   2   2  -7   16.69    3.86
  -2  -2   8 1147.51   38.42
   2   2  -8 1177.18   39.31
  -2  -2   9  134.33    7.20
   2   2  -9  129.51    6.60
  -2  -2  10 2038.37   66.98
   2   2 -10 2167.44   71.06
  -2  -2  11   50.89    4.82
   2   2 -11   48.44    4.67
  -2  -2  12  947.23   32.34
   2   2 -12  963.55   32.93
  -2  -2  13  426.07   15.80
   2   2 -13  432.82   16.02
  -2  -2  14 2790.52   91.16
   2   2 -14 2710.41   88.42
  -2  -2  15  145.91    8.09
   2   2 -15  139.30    7.34
  -2  -2  16 1386.36   46.43
   2   2 -16 1353.72   45.47
  -2  -2  17  335.65   13.65
   2   2 -17  327.71   12.91
  -2  -2  18  704.68   24.85
   2   2 -18  698.67   24.70
  -2  -2  19  375.70   15.06
   2   2 -19  373.33   14.91
  -2  -2  20  927.21   32.19
   2   2 -20  924.24   32.34
  -2  -2  21 1440.51   48.44
   2   2 -21 1441.99   48.66
  -2  -2  22 1431.61   48.29
   2   2 -22 1455.34   49.10
  -2  -2  23  171.94    9.27
   2   2 -23  174.31    9.12
  -2  -2  24 2077.69   68.76
   2   2 -24 1986.45   65.94
  -2  -2  25  106.52    6.90
   2   2 -25   98.14    6.68
  -2  -2  26   43.39    6.01
   2   2 -26   37.53    4.38
  -2  -2  27    0.15    5.19
   2   2 -27    3.26    4.23
  -2  -2  28  789.24   27.67
   2   2 -28  824.10   28.85
  -2  -2  29   13.95    3.86
   2   2 -29   12.02    4.01
  -2  -2  30    3.19    3.71
   2   2 -30    5.93    4.23
  -2  -2  31   32.79    5.19
   2   2 -31   32.93    4.82
  -2  -2  32  624.05   22.18
   2   2 -32  639.77   22.33
  -2  -2  33   32.64    4.97
   2   2 -33   38.50    4.52
  -3  -2 -32   68.17    5.64
   3   2  32   56.30    5.86
  -3  -2 -31    2.30    3.93
   3   2  31   10.01    4.82
  -3  -2 -30   25.00    4.01
   3   2  30   18.54    4.52
  -3  -2 -29 1166.06   39.54
   3   2  29 1111.91   37.83
  -3  -2 -28   19.43    4.52
   3   2  28   22.70    4.67
  -3  -2 -27   50.22    4.90
   3   2  27   50.81    5.93
  -3  -2 -26   36.94    5.19
   3   2  26   39.61    4.97
  -3  -2 -25  939.82   32.34
   3   2  25  937.59   32.42
  -3  -2 -24   14.46    4.67
   3   2  24   -5.04    4.90
  -3  -2 -23    7.57    4.52
   3   2  23    7.27    4.15
  -3  -2 -22    3.78    4.23
   3   2  22    2.60    4.15
  -3  -2 -21  987.29   33.97
   3   2  21  990.26   34.34
  -3  -2 -20  544.68   19.95
   3   2  20  569.23   20.92
  -3  -2 -19  138.71    7.20
   3   2  19  149.24    8.23
  -3  -2 -18  875.28   30.34
   3   2  18  895.31   31.01
  -3  -2 -17   26.70    4.97
   3   2  17   26.70    4.52
  -3  -2 -16    2.60    4.23
   3   2  16    2.74    4.52
  -3  -2 -15  465.16   17.43
   3   2  15  436.23   16.47
  -3  -2 -14   64.09    5.49
   3   2  14   57.71    4.97
  -3  -2 -13 1157.15   38.87
   3   2  13 1111.91   37.38
  -3  -2 -12    6.23    3.86
   3   2  12    2.89    3.26
  -3  -2 -11 1793.59   58.97
   3   2  11 1801.75   59.34
  -3  -2 -10  114.60    6.23
   3   2  10  101.10    5.93
  -3  -2  -9  569.16   19.95
   3   2   9  619.52   21.59
  -3  -2  -8    6.82    3.63
   3   2   8   -1.19    3.41
  -3  -2  -6  277.05   10.68
   3   2   6  301.23   11.42
  -3  -2  -5    6.82    3.34
   3   2   5    6.01    3.41
  -3  -2  -4  819.65   27.52
   3   2   4  815.20   27.52
  -3  -2  -3 1066.66   35.38
   3   2   3 1094.10   36.35
  -3  -2  -2  143.68    6.45
   3   2   2  150.06    6.75
  -3  -2  -1 1564.38   51.26
   3   2   1 1579.96   51.85
  -3  -2   0 1025.12   34.05
   3   2   0 1031.80   34.34
  -3  -2   1  263.48   10.16
   3   2  -1  279.87   10.76
  -3  -2   2  551.28   19.14
   3   2  -2  540.52   18.84
  -3  -2   3  490.23   17.28
  -3  -2   3  503.58   17.80
  -3  -2   4 3234.84  104.81
  -3  -2   5 4734.69  152.80
  -3  -2   6   -0.37    3.49
   3   2  -6    3.19    3.34
  -3  -2   7 1205.37   40.28
   3   2  -7 1217.98   40.72
  -3  -2   8   52.07    4.75
   3   2  -8   51.92    4.90
  -3  -2   9 2837.25   92.50
   3   2  -9 2836.51   92.35
  -3  -2  10   61.64    5.41
   3   2 -10   60.23    5.12
  -3  -2  11 2042.08   67.13
   3   2 -11 1999.06   65.72
  -3  -2  12  917.56   31.45
   3   2 -12  912.37   31.38
  -3  -2  13 2102.91   69.21
   3   2 -13 2068.04   68.17
  -3  -2  14    7.57    4.60
   3   2 -14   13.35    3.71
  -3  -2  15 1461.28   48.96
   3   2 -15 1518.39   50.66
  -3  -2  16  562.63   20.70
   3   2 -16  549.35   19.88
  -3  -2  17 2108.10   69.58
   3   2 -17 2064.33   68.17
  -3  -2  18  337.73   13.57
   3   2 -18  345.07   14.02
  -3  -2  19  463.83   17.73
   3   2 -19  502.47   19.06
  -3  -2  20  146.57    7.71
   3   2 -20  153.99    8.60
  -3  -2  21  115.42    7.64
   3   2 -21  131.74    7.86
  -3  -2  22  946.49   32.71
   3   2 -22  969.49   33.68
  -3  -2  23   72.10    6.60
   3   2 -23   58.38    5.41
  -3  -2  24    7.12    5.19
   3   2 -24   14.61    4.97
  -3  -2  25   51.40    4.97
   3   2 -25   48.29    5.27
  -3  -2  26    2.67    5.04
   3   2 -26    9.35    3.71
  -3  -2  27 1008.80   34.71
   3   2 -27  930.92   31.97
  -3  -2  28  373.63   14.39
   3   2 -28  364.58   14.32
  -3  -2  29   -0.15    4.15
   3   2 -29    1.41    4.23
  -3  -2  30   62.16    6.38
   3   2 -30   60.60    5.19
  -3  -2  31  716.32   25.07
   3   2 -31  714.25   25.00
  -3  -2  32   44.73    4.45
   3   2 -32   38.87    4.90
  -3  -2  33   35.75    4.67
   3   2 -33   47.47    4.15
  -4  -2 -32    4.01    4.15
   4   2  32    3.49    3.93
  -4  -2 -31   33.38    4.30
   4   2  31   27.82    5.41
  -4  -2 -30  593.78   21.36
   4   2  30  631.24   22.33
  -4  -2 -29    5.86    3.78
   4   2  29    3.86    5.12
  -4  -2 -28    8.16    4.45
   4   2  28    4.52    3.63
  -4  -2 -27   65.20    5.79
   4   2  27   49.92    6.08
  -4  -2 -26 1913.76   63.27
   4   2  26 1857.38   61.64
  -4  -2 -25  197.68    9.49
   4   2  25  221.12    9.87
  -4  -2 -24    1.56    4.01
   4   2  24    1.41    4.67
  -4  -2 -23  146.57    8.01
   4   2  23  135.59    7.94
  -4  -2 -22  322.07   13.28
   4   2  22  315.92   13.20
  -4  -2 -21  308.28   12.39
   4   2  21  317.70   13.43
  -4  -2 -20    4.45    4.38
   4   2  20    7.71    5.12
  -4  -2 -19  188.19    9.35
   4   2  19  191.23    9.35
  -4  -2 -18 1019.93   35.01
   4   2  18 1119.32   38.13
  -4  -2 -17  945.75   32.64
   4   2  17  905.70   31.45
  -4  -2 -16  346.18   13.80
   4   2  16  335.43   13.28
  -4  -2 -15  412.35   15.73
   4   2  15  412.20   15.87
  -4  -2 -14 1307.73   43.91
   4   2  14 1453.86   48.81
  -4  -2 -13   99.54    6.45
   4   2  13  108.52    6.31
  -4  -2 -12 1097.07   37.01
   4   2  12 1156.41   39.02
  -4  -2 -11  378.97   14.32
   4   2  11  347.15   13.28
  -4  -2 -10  632.13   22.10
   4   2  10  618.34   21.66
  -4  -2  -9   12.68    3.63
   4   2   9    3.93    3.78
  -4  -2  -8 5273.95  170.24
   4   2   8 5752.39  185.44
  -4  -2  -7  266.52   10.53
   4   2   7  259.25   10.31
  -4  -2  -6   25.96    3.56
   4   2   6   19.73    4.01
  -4  -2  -5 1664.52   54.67
   4   2   5 1650.43   54.37
  -4  -2  -3 1640.04   53.78
   4   2   3 1637.82   53.78
  -4  -2  -2   17.13    3.49
   4   2   2   13.57    3.56
  -4  -2  -1 2100.68   68.46
   4   2   1 2109.58   68.84
  -4  -2   0 2383.29   77.59
   4   2   0 2447.83   79.67
  -4  -2   1  148.28    6.97
   4   2  -1  136.41    6.53
  -4  -2   2   26.78    4.30
   4   2  -2   21.36    4.01
  -4  -2   3 3584.21  116.01
  -4  -2   4  424.66   15.43
  -4  -2   4  460.12   16.54
  -4  -2   5  118.68    6.45
  -4  -2   5  102.22    5.86
  -4  -2   6   22.92    4.23
  -4  -2   6   27.00    4.23
  -4  -2   7   67.72    5.19
  -4  -2   7   61.64    5.12
  -4  -2   8 4492.13  145.31
   4   2  -8 4441.69  143.75
  -4  -2   9   55.48    4.82
   4   2  -9   56.45    4.97
  -4  -2  10 1634.11   54.22
   4   2 -10 1653.40   54.67
  -4  -2  11  406.71   15.43
   4   2 -11  393.65   14.84
  -4  -2  12 1355.21   45.32
   4   2 -12 1331.47   44.73
  -4  -2  13   87.08    6.31
   4   2 -13   87.60    5.71
  -4  -2  14 2740.82   89.68
   4   2 -14 2788.30   90.94
  -4  -2  15 1107.46   37.61
   4   2 -15 1143.80   38.94
  -4  -2  16  307.31   12.31
   4   2 -16  331.87   13.28
  -4  -2  17  168.45    8.09
   4   2 -17  178.17    8.68
  -4  -2  18 2675.55   87.75
   4   2 -18 2556.12   84.04
  -4  -2  19   13.20    5.19
   4   2 -19   17.21    4.75
  -4  -2  20  988.03   34.20
   4   2 -20 1019.93   35.23
  -4  -2  21  491.64   18.40
   4   2 -21  452.48   17.28
  -4  -2  22 3725.15  121.43
   4   2 -22 3691.03  120.39
  -4  -2  23 1878.89   62.46
   4   2 -23 1857.38   61.79
  -4  -2  24  652.90   23.81
   4   2 -24  689.03   24.55
  -4  -2  25  643.18   23.07
   4   2 -25  630.95   22.48
  -4  -2  26 1094.10   37.46
   4   2 -26 1068.88   36.27
  -4  -2  27    6.01    4.45
   4   2 -27   -1.34    4.23
  -4  -2  28  151.47    7.94
   4   2 -28  135.37    7.57
  -4  -2  29   50.96    6.08
   4   2 -29   49.62    5.12
  -4  -2  30  850.81   29.45
   4   2 -30  845.61   29.15
  -4  -2  31   16.69    4.45
   4   2 -31   21.51    4.52
  -4  -2  32  114.53    7.27
   4   2 -32  119.28    6.75
  -4  -2  33    5.27    4.01
   4   2 -33   12.39    4.23
  -5  -2 -32   14.24    4.60
   5   2  32   13.43    4.97
  -5  -2 -31  357.23   13.65
   5   2  31  386.68   14.54
  -5  -2 -30  140.64    7.64
   5   2  30  124.39    7.34
  -5  -2 -29   27.37    4.23
   5   2  29   38.05    5.71
  -5  -2 -28  124.17    7.34
   5   2  28  101.77    6.23
  -5  -2 -27  979.13   33.45
   5   2  27  997.67   34.42
  -5  -2 -26   23.07    4.90
   5   2  26   26.56    5.64
  -5  -2 -25  388.69   14.91
   5   2  25  353.90   14.39
  -5  -2 -24   66.91    5.49
   5   2  24   41.02    5.19
  -5  -2 -23 1174.96   39.98
   5   2  23 1093.36   37.31
  -5  -2 -22  560.40   20.47
   5   2  22  566.34   20.55
  -5  -2 -21 1543.61   51.70
   5   2  21 1320.34   44.58
  -5  -2 -20  783.30   27.52
   5   2  20  788.50   27.96
  -5  -2 -19 2477.50   81.37
   5   2  19 2506.43   82.56
  -5  -2 -18  401.96   15.65
   5   2  18  450.62   17.06
  -5  -2 -17 1278.06   43.10
   5   2  17 1195.73   40.95
  -5  -2 -16    9.64    3.41
   5   2  16    9.05    4.60
  -5  -2 -15  429.33   16.24
   5   2  15  464.20   17.21
  -5  -2 -14   55.71    5.04
   5   2  14   58.67    5.56
  -5  -2 -13 1192.02   40.35
   5   2  13 1218.72   41.46
  -5  -2 -12  305.38   12.31
   5   2  12  315.47   12.83
  -5  -2 -11  362.20   13.95
   5   2  11  410.79   15.50
  -5  -2 -10    2.89    3.41
   5   2  10    4.52    3.86
  -5  -2  -9 2027.25   66.61
   5   2   9 1890.02   62.31
  -5  -2  -8  789.98   27.15
   5   2   8  865.64   29.52
  -5  -2  -7   84.49    5.19
   5   2   7   74.99    5.34
  -5  -2  -6   58.82    4.90
   5   2   6   60.97    4.90
  -5  -2  -4 1895.95   62.23
   5   2   4 1924.88   63.12
  -5  -2  -3   12.76    3.56
   5   2   3   11.05    3.86
  -5  -2  -2  389.87   14.46
   5   2   2  361.76   13.50
  -5  -2  -1 3394.32  110.00
   5   2   1 3450.69  111.86
  -5  -2   0   15.21    3.78
   5   2   0   11.20    3.93
  -5  -2   1  172.68    7.94
   5   2  -1  181.96    8.09
  -5  -2   2  861.93   29.30
   5   2  -2  847.10   28.78
  -5  -2   3 3176.24  103.11
   5   2  -3 3189.59  103.48
  -5  -2   4 1628.18   53.70
  -5  -2   5  347.22   13.28
  -5  -2   5  336.17   12.91
  -5  -2   6 1088.91   36.72
  -5  -2   6 1007.32   34.05
  -5  -2   7 3059.78   99.47
  -5  -2   7 2943.33   95.84
  -5  -2   8  191.60    8.60
  -5  -2   8  196.79    8.60
  -5  -2   9  844.87   29.00
  -5  -2   9  844.87   29.00
  -5  -2  10  134.93    7.12
   5   2 -10  138.78    7.20
  -5  -2  11 2461.92   80.63
   5   2 -11 2384.78   78.26
  -5  -2  12  252.35   10.76
   5   2 -12  258.58   10.61
  -5  -2  13 1938.23   64.01
   5   2 -13 2095.49   69.06
  -5  -2  14  514.12   18.99
   5   2 -14  484.00   18.02
  -5  -2  15  742.51   26.18
   5   2 -15  684.35   24.33
  -5  -2  16   95.61    5.93
   5   2 -16   98.43    6.53
  -5  -2  17  855.26   29.60
   5   2 -17  871.57   30.41
  -5  -2  18 1246.17   42.13
   5   2 -18 1250.62   42.50
  -5  -2  19  236.10   10.38
   5   2 -19  250.72   11.20
  -5  -2  20  210.22    9.87
   5   2 -20  197.61    9.79
  -5  -2  21  624.49   22.77
   5   2 -21  620.93   22.48
  -5  -2  22   -2.37    4.52
   5   2 -22    0.45    3.71
  -5  -2  23  103.70    6.90
   5   2 -23   97.54    6.16
  -5  -2  24  118.68    7.86
   5   2 -24  107.56    6.68
  -5  -2  25  511.15   18.84
   5   2 -25  510.85   18.69
  -5  -2  26  268.52   11.79
   5   2 -26  277.05   11.57
  -5  -2  27   95.98    6.16
   5   2 -27   87.31    6.38
  -5  -2  28  228.02   10.61
   5   2 -28  219.41    9.79
  -5  -2  29 1238.01   41.76
   5   2 -29 1104.49   37.31
  -5  -2  30   25.22    5.27
   5   2 -30   20.55    4.75
  -5  -2  31   50.89    5.71
   5   2 -31   48.07    4.45
  -5  -2  32   44.28    4.82
   5   2 -32   43.69    4.90
  -5  -2  33  701.71   24.40
   5   2 -33  685.98   23.81
  -6  -2 -31   15.58    3.93
   6   2  31   14.98    4.15
  -6  -2 -30    7.05    4.38
   6   2  30    3.86    4.67
  -6  -2 -29   81.22    5.71
   6   2  29   71.21    5.71
  -6  -2 -28  563.59   20.32
   6   2  28  634.21   22.62
  -6  -2 -27  225.65   10.16
   6   2  27  192.27    9.57
  -6  -2 -26   32.34    4.08
   6   2  26   33.01    5.64
  -6  -2 -25  194.57    9.35
   6   2  25  200.35    9.64
  -6  -2 -24  896.05   30.93
   6   2  24 1007.32   34.64
  -6  -2 -23   63.87    5.04
   6   2  23   60.08    6.23
  -6  -2 -22  687.62   24.40
   6   2  22  697.63   25.07
  -6  -2 -21  122.98    7.42
   6   2  21  102.88    7.34
  -6  -2 -20  786.27   27.82
   6   2  20  907.18   31.45
  -6  -2 -19   -4.38    4.60
   6   2  19    2.89    4.90
  -6  -2 -18  705.12   25.00
   6   2  18  729.38   25.96
  -6  -2 -17   98.36    6.31
   6   2  17   85.75    6.97
  -6  -2 -16  904.95   31.23
   6   2  16  889.38   31.01
  -6  -2 -15   46.51    5.49
   6   2  15   22.40    5.04
  -6  -2 -14 1831.42   60.60
   6   2  14 1775.05   58.82
  -6  -2 -13  180.40    8.46
   6   2  13  168.90    8.46
  -6  -2 -12  315.25   12.61
   6   2  12  305.68   12.68
  -6  -2 -11   11.79    3.93
   6   2  11   13.20    3.93
  -6  -2 -10 2525.71   82.63
   6   2  10 2665.91   87.23
  -6  -2  -9 1028.09   34.79
   6   2   9 1040.70   35.38
  -6  -2  -8    7.20    4.15
   6   2   8    7.12    4.23
  -6  -2  -7 1172.73   39.24
   6   2   7 1188.31   39.98
  -6  -2  -6 5092.96  164.45
   6   2   6 5454.20  176.10
  -6  -2  -5   91.31    5.71
   6   2   5   99.32    6.08
  -6  -2  -4   11.35    4.01
   6   2   4   20.40    4.23
  -6  -2  -3   86.04    5.49
   6   2   3   83.97    5.56
   6   2   2 5284.34  170.53
  -6  -2  -1  286.40   11.50
   6   2   1  273.79   11.05
  -6  -2   0 2489.37   81.30
   6   2   0 2392.19   78.11
  -6  -2   1  221.49    9.49
   6   2  -1  218.60    9.35
  -6  -2   2 1587.38   52.44
   6   2  -2 1535.45   50.81
  -6  -2   3  897.54   30.63
   6   2  -3  901.25   30.71
  -6  -2   4    8.38    4.23
   6   2  -4   18.84    4.30
  -6  -2   5  290.03   11.50
  -6  -2   5  313.84   12.46
  -6  -2   6 3286.76  106.96
  -6  -2   6 3168.82  102.96
  -6  -2   7  201.02    8.83
  -6  -2   7  232.69   10.16
  -6  -2   8  344.77   13.57
  -6  -2   8  315.25   12.46
  -6  -2   9  260.51   10.90
  -6  -2   9  255.24   10.68
  -6  -2  10 2440.41   79.96
  -6  -2  10 2248.29   73.73
  -6  -2  12  947.98   32.42
  -6  -2  12  950.94   32.49
  -6  -2  13  566.41   20.55
   6   2 -13  617.07   22.18
  -6  -2  14 2105.13   69.50
   6   2 -14 2076.94   68.61
  -6  -2  15   79.89    5.79
   6   2 -15   98.14    6.01
  -6  -2  16 1437.54   48.21
   6   2 -16 1385.62   46.58
  -6  -2  17   30.12    5.41
   6   2 -17   34.20    5.19
  -6  -2  18  130.92    7.79
   6   2 -18  135.08    7.71
  -6  -2  19  499.95   18.92
   6   2 -19  492.53   18.69
  -6  -2  20  133.74    8.09
   6   2 -20  130.03    7.64
  -6  -2  21 1172.73   39.98
   6   2 -21 1211.30   41.17
  -6  -2  22    2.52    4.23
   6   2 -22    4.67    4.38
  -6  -2  23  142.86    7.57
   6   2 -23  147.54    7.79
  -6  -2  24  618.93   22.62
   6   2 -24  630.80   22.55
  -6  -2  25   70.10    6.23
   6   2 -25   79.89    5.93
  -6  -2  26   12.54    4.52
   6   2 -26   12.91    4.52
  -6  -2  27  215.33   10.31
   6   2 -27  203.02    9.57
  -6  -2  28  739.17   25.96
   6   2 -28  738.87   25.74
  -6  -2  29    5.71    5.12
   6   2 -29    4.08    4.08
  -6  -2  30   14.46    3.63
   6   2 -30   16.84    4.67
  -6  -2  31   19.29    5.19
   6   2 -31   22.85    4.38
  -6  -2  32  617.00   21.59
   6   2 -32  580.43   20.40
  -6  -2  33   16.84    4.52
   6   2 -33   14.02    4.23
   7   2  31    2.67    4.90
  -7  -2 -30  144.57    7.42
   7   2  30  129.96    7.34
  -7  -2 -29  871.57   29.82
   7   2  29  856.00   29.37
  -7  -2 -28   54.96    5.19
   7   2  28   39.83    5.56
  -7  -2 -27   87.08    6.23
   7   2  27   76.11    6.53
  -7  -2 -26   41.76    4.30
   7   2  26   38.28    5.41
  -7  -2 -25  931.66   32.04
   7   2  25  917.56   31.67
  -7  -2 -24  208.96    9.87
   7   2  24  209.99    9.87
  -7  -2 -23    8.09    4.60
   7   2  23   10.53    4.90
  -7  -2 -22   37.46    4.90
   7   2  22   36.79    5.79
  -7  -2 -21 2030.95   67.28
   7   2  21 1977.55   65.57
  -7  -2 -20  923.50   31.97
   7   2  20  863.42   30.26
  -7  -2 -19  750.67   26.41
   7   2  19  765.50   27.15
  -7  -2 -18  205.47    9.57
   7   2  18  218.52   10.31
  -7  -2 -17  554.02   20.32
   7   2  17  576.28   21.07
  -7  -2 -16  171.87    8.38
   7   2  16  218.15   10.24
  -7  -2 -15  571.90   20.84
   7   2  15  602.39   22.10
  -7  -2 -14   51.70    5.12
   7   2  14   68.76    5.93
  -7  -2 -13  656.83   23.37
   7   2  13  625.83   22.62
  -7  -2 -12    5.49    4.38
   7   2  12   12.16    4.08
  -7  -2 -11 2026.50   66.98
   7   2  11 1884.08   62.31
  -7  -2 -10  276.98   11.42
   7   2  10  260.88   11.05
  -7  -2  -9   18.25    4.52
   7   2   9   20.55    4.82
  -7  -2  -8  165.56    7.86
   7   2   8  171.27    8.38
  -7  -2  -7 2930.72   95.47
   7   2   7 2834.29   92.50
  -7  -2  -6  113.49    6.53
   7   2   6   94.43    6.01
  -7  -2  -5  353.23   13.50
   7   2   5  328.38   12.91
  -7  -2  -4 1777.27   58.67
   7   2   4 1732.02   57.41
  -7  -2  -2  856.74   29.37
   7   2   2  839.68   28.93
  -7  -2  -1    2.37    3.86
   7   2   1   -0.07    4.01
  -7  -2   0  163.34    7.94
   7   2   0  186.03    8.75
  -7  -2   1 6213.03  200.28
  -7  -2   2 1517.65   50.29
   7   2  -2 1545.84   51.40
  -7  -2   3    6.90    4.01
   7   2  -3    3.41    4.08
  -7  -2   4 1933.04   63.57
   7   2  -4 1987.19   65.35
  -7  -2   5 4256.25  137.89
   7   2  -5 4417.96  143.01
  -7  -2   6   65.79    5.27
  -7  -2   6   77.89    5.79
  -7  -2   7  609.29   21.59
  -7  -2   7  604.02   21.44
  -7  -2   8    9.20    4.08
  -7  -2   8    6.23    4.08
  -7  -2   9 2406.29   78.92
  -7  -2   9 2467.11   80.85
  -7  -2  10    6.97    4.38
  -7  -2  10    1.63    3.56
  -7  -2  11 1080.01   36.64
  -7  -2  11 1031.80   35.16
  -7  -2  12  157.25    7.94
  -7  -2  12  155.40    7.86
  -7  -2  13  166.38    8.23
  -7  -2  13  156.07    8.09
  -7  -2  14  162.67    8.31
  -7  -2  14  171.42    8.60
  -7  -2  15 1466.47   49.03
  -7  -2  15 1514.69   50.74
  -7  -2  16  744.73   26.33
   7   2 -16  857.48   29.97
  -7  -2  17  288.47   12.09
   7   2 -17  300.19   12.61
  -7  -2  18  681.61   24.48
   7   2 -18  713.73   25.67
  -7  -2  19 2250.52   74.32
   7   2 -19 2042.08   67.72
  -7  -2  20  307.98   12.98
   7   2 -20  286.02   12.02
  -7  -2  21  184.63    9.64
   7   2 -21  171.94    8.60
  -7  -2  22  102.73    7.20
   7   2 -22  107.78    6.60
  -7  -2  23  947.23   32.79
   7   2 -23  900.50   31.01
  -7  -2  24   11.72    3.78
   7   2 -24   12.09    3.63
  -7  -2  25  416.80   16.17
   7   2 -25  380.08   14.61
  -7  -2  26   27.67    5.34
   7   2 -26   41.09    4.97
  -7  -2  27 1271.39   42.87
   7   2 -27 1178.67   39.98
  -7  -2  28   87.90    6.82
   7   2 -28   79.74    5.27
  -7  -2  29   15.35    3.71
   7   2 -29    8.83    3.78
  -7  -2  30   26.93    5.12
   7   2 -30   18.92    4.38
  -7  -2  31  746.96   26.04
   7   2 -31  790.72   27.37
  -7  -2  32   34.49    4.90
   7   2 -32   36.72    4.01
  -7  -2  33  190.93    8.31
   7   2 -33  180.92    7.71
  -8  -2 -30  105.70    6.08
   8   2  30  106.81    6.68
  -8  -2 -29   22.48    4.15
   8   2  29   16.62    4.90
  -8  -2 -28   23.14    4.67
   8   2  28   34.27    5.34
  -8  -2 -27   47.40    4.75
   8   2  27   52.44    6.01
  -8  -2 -26 1175.70   39.68
   8   2  26 1068.88   36.42
  -8  -2 -25   27.22    4.82
   8   2  25   28.48    5.49
  -8  -2 -24  135.89    7.64
   8   2  24  148.58    8.60
  -8  -2 -23  133.30    7.49
   8   2  23  125.95    7.86
  -8  -2 -22 1730.54   57.49
   8   2  22 1895.95   62.83
  -8  -2 -21  190.86    9.12
   8   2  21  180.17    9.20
  -8  -2 -20  268.22   11.50
   8   2  20  266.59   11.72
  -8  -2 -19   -0.52    4.45
   8   2  19   -3.56    4.60
  -8  -2 -18 1310.70   44.28
   8   2  18 1271.39   43.24
  -8  -2 -17   48.96    5.34
   8   2  17   53.18    6.01
  -8  -2 -16  583.25   21.07
   8   2  16  576.87   21.29
  -8  -2 -15 1278.06   43.24
   8   2  15 1137.13   38.87
  -8  -2 -14  408.71   15.65
   8   2  14  382.31   15.21
  -8  -2 -13   44.58    4.45
   8   2  13   45.25    5.27
  -8  -2 -12 1147.51   39.02
   8   2  12 1179.41   40.20
  -8  -2 -11  252.65   10.76
   8   2  11  252.87   11.05
  -8  -2 -10  311.84   12.31
   8   2  10  294.78   12.09
  -8  -2  -9 1043.66   35.68
   8   2   9 1061.47   36.20
  -8  -2  -8 1202.40   40.57
   8   2   8 1161.60   39.39
  -8  -2  -7   50.29    5.27
   8   2   7   48.07    5.27
  -8  -2  -6  453.96   16.99
   8   2   6  448.92   16.69
  -8  -2  -5  172.31    8.38
   8   2   5  151.10    7.71
  -8  -2  -4 1690.48   55.93
   8   2   4 1813.62   59.93
  -8  -2  -3  307.02   12.16
   8   2   3  306.79   12.24
  -8  -2  -2   80.18    5.56
   8   2   2   75.51    5.56
  -8  -2  -1  661.28   23.37
   8   2   1  648.82   22.77
  -8  -2   0 2910.69   94.87
   8   2   0 2939.62   95.84
  -8  -2   1   51.33    5.12
   8   2  -1   49.03    4.90
  -8  -2   2  989.52   33.60
   8   2  -2  952.43   32.42
  -8  -2   3  118.16    6.90
   8   2  -3  118.91    6.60
  -8  -2   4 3860.89  125.36
   8   2  -4 3837.90  124.47
  -8  -2   5   31.67    4.75
   8   2  -5   32.19    4.67
  -8  -2   6  250.35   10.68
   8   2  -6  295.00   11.94
  -8  -2   7  200.72    9.35
  -8  -2   7  204.21    9.05
  -8  -2   8 2261.64   74.25
  -8  -2   8 2255.71   74.10
  -8  -2   9    6.75    4.23
  -8  -2   9    2.97    4.23
  -8  -2  10  457.82   17.06
  -8  -2  10  472.36   17.58
  -8  -2  11  126.40    7.05
  -8  -2  11  136.56    7.57
  -8  -2  12 1512.46   50.59
  -8  -2  12 1520.62   50.81
  -8  -2  13  105.18    6.68
  -8  -2  13  100.36    6.38
  -8  -2  14 1973.84   65.35
  -8  -2  14 1906.34   62.98
  -8  -2  15 1007.32   34.49
  -8  -2  15  988.77   33.97
  -8  -2  16   19.29    4.90
  -8  -2  16   21.29    5.12
  -8  -2  17  165.34    8.38
  -8  -2  17  169.49    8.68
  -8  -2  18 2781.62   91.16
  -8  -2  18 2777.17   91.16
  -8  -2  19  378.45   15.13
  -8  -2  19  377.34   15.06
  -8  -2  20  414.13   16.17
  -8  -2  20  427.92   16.10
  -8  -2  21  104.74    7.34
   8   2 -21  128.62    7.57
  -8  -2  22 3977.35  129.44
   8   2 -22 3777.81  122.76
  -8  -2  23   10.31    5.19
   8   2 -23    4.52    4.01
  -8  -2  24   65.57    6.23
   8   2 -24   75.22    5.71
  -8  -2  25  233.51   10.46
   8   2 -25  260.88   11.05
  -8  -2  26  987.29   33.82
   8   2 -26 1018.44   34.94
  -8  -2  27    5.49    4.97
   8   2 -27    6.45    3.34
  -8  -2  28    4.45    4.30
   8   2 -28    5.27    3.49
  -8  -2  29   61.86    5.41
   8   2 -29   63.72    5.12
  -8  -2  30  749.18   26.11
   8   2 -30  761.05   26.26
  -8  -2  31   15.21    3.71
   8   2 -31   22.55    4.38
  -8  -2  32  100.51    6.53
   8   2 -32  114.01    6.45
  -9  -2 -29    4.23    4.30
   9   2  29    7.05    4.23
  -9  -2 -28  702.38   24.33
   9   2  28  705.49   24.70
  -9  -2 -27  552.91   19.81
   9   2  27  535.93   19.43
  -9  -2 -26  138.78    7.57
   9   2  26  138.34    8.01
  -9  -2 -25  166.38    8.46
   9   2  25  156.14    8.46
  -9  -2 -24   11.13    4.30
   9   2  24    7.49    5.27
  -9  -2 -23  359.90   13.95
   9   2  23  350.04   14.32
  -9  -2 -22  117.87    6.38
   9   2  22  104.14    6.75
  -9  -2 -21  746.96   26.18
   9   2  21  658.32   23.66
  -9  -2 -20 1114.87   37.98
   9   2  20 1242.46   42.21
  -9  -2 -19  212.96    9.72
   9   2  19  220.08   10.24
  -9  -2 -18  401.96   15.58
   9   2  18  405.15   15.95
  -9  -2 -17  740.28   26.11
   9   2  17  709.13   25.52
  -9  -2 -16  220.45    9.64
   9   2  16  206.14   10.09
  -9  -2 -15  385.87   15.21
   9   2  15  361.68   14.54
  -9  -2 -14    4.45    3.34
   9   2  14    4.67    4.52
  -9  -2 -13 1217.98   41.32
   9   2  13 1108.94   37.98
  -9  -2 -12  223.72   10.38
   9   2  12  196.05    9.42
  -9  -2 -11  455.22   17.36
   9   2  11  456.33   17.51
  -9  -2 -10   48.59    5.56
   9   2  10   38.79    5.49
  -9  -2  -9  781.82   27.30
   9   2   9  710.09   25.22
  -9  -2  -8  138.34    7.34
   9   2   8  134.63    7.49
  -9  -2  -7 1599.99   53.26
   9   2   7 1555.48   51.92
  -9  -2  -6  694.22   24.63
   9   2   6  687.77   24.40
  -9  -2  -5 2901.05   94.80
   9   2   5 2998.96   97.99
  -9  -2  -4  427.92   15.95
   9   2   4  462.12   17.51
  -9  -2  -3  207.47    9.20
   9   2   3  222.46    9.87
  -9  -2  -2  834.49   28.78
   9   2   2  910.15   31.45
  -9  -2  -1 1166.06   39.31
   9   2   1 1255.07   42.35
  -9  -2   0  252.87   10.76
   9   2   0  267.11   11.20
  -9  -2   1  150.21    7.71
   9   2  -1  166.67    8.23
  -9  -2   2  406.27   15.43
   9   2  -2  417.39   15.87
  -9  -2   3 3935.07  127.73
   9   2  -3 3865.34  125.66
  -9  -2   4  279.72   11.65
   9   2  -4  304.35   12.54
  -9  -2   5  150.06    7.64
   9   2  -5  157.25    8.23
  -9  -2   6  152.28    7.94
   9   2  -6  155.18    7.94
  -9  -2   7 1062.95   36.27
  -9  -2   7 1075.56   36.49
  -9  -2   8    5.19    4.38
  -9  -2   8    9.64    4.23
  -9  -2   9  214.59    9.87
  -9  -2   9  201.54    9.35
  -9  -2  10  136.34    7.49
  -9  -2  10  152.88    7.71
  -9  -2  11 1210.56   40.87
  -9  -2  11 1193.50   40.35
  -9  -2  12    5.04    4.15
  -9  -2  12    7.57    4.15
  -9  -2  13  845.61   29.23
  -9  -2  13  808.52   28.26
  -9  -2  14   31.01    4.97
  -9  -2  14   15.65    4.60
  -9  -2  15  720.11   25.52
  -9  -2  15  696.44   25.00
  -9  -2  16   47.99    5.49
  -9  -2  16   34.42    4.67
  -9  -2  17 1231.33   41.84
  -9  -2  17 1167.54   39.68
  -9  -2  18  147.98    8.31
  -9  -2  18  161.19    8.53
  -9  -2  19 1044.41   35.83
  -9  -2  19 1062.95   36.35
  -9  -2  20 1086.69   37.16
  -9  -2  20 1060.72   36.35
  -9  -2  21 1086.69   37.16
  -9  -2  21 1131.19   38.65
  -9  -2  22  190.26    9.57
  -9  -2  22  182.85    9.12
  -9  -2  23    7.12    4.60
  -9  -2  23   13.13    3.63
  -9  -2  24   40.20    5.34
  -9  -2  24   44.14    4.52
  -9  -2  25  798.88   27.82
  -9  -2  25  836.71   29.15
  -9  -2  26  114.31    6.75
  -9  -2  26  105.63    7.12
  -9  -2  27    0.15    4.15
  -9  -2  27    2.74    4.90
  -9  -2  28  125.66    7.27
  -9  -2  28  123.87    6.75
  -9  -2  29  828.55   28.48
  -9  -2  29  773.66   26.85
  -9  -2  30    8.01    4.01
  -9  -2  30   19.36    4.90
  -9  -2  31   60.08    5.19
  -9  -2  31   65.79    4.82
  -9  -2  32   33.16    4.75
  -9  -2  32   33.08    4.97
 -10  -2 -28  348.48   13.50
  10   2  28  449.66   16.47
 -10  -2 -27   10.38    4.38
  10   2  27   15.80    4.01
 -10  -2 -26   44.80    4.67
  10   2  26   47.99    5.41
 -10  -2 -25  260.66   10.61
  10   2  25  272.38   11.50
 -10  -2 -24  861.93   29.74
  10   2  24  876.77   30.34
 -10  -2 -23    5.79    4.52
  10   2  23    5.71    5.27
 -10  -2 -22  879.73   30.41
  10   2  22  923.50   31.97
 -10  -2 -21    5.71    4.45
  10   2  21    4.38    4.90
 -10  -2 -20  164.82    8.53
  10   2  20  157.48    8.68
 -10  -2 -19  179.06    8.68
  10   2  19  167.34    8.90
 -10  -2 -18  861.93   29.82
  10   2  18  835.97   29.15
 -10  -2 -17  493.20   18.40
  10   2  17  432.89   16.62
 -10  -2 -16 1251.36   42.28
  10   2  16 1133.42   38.79
 -10  -2 -15  142.94    7.64
  10   2  15  149.39    8.23
 -10  -2 -14 1181.63   40.28
  10   2  14 1068.88   36.72
 -10  -2 -13  141.08    7.71
  10   2  13  160.00    8.83
 -10  -2 -12  394.40   15.21
  10   2  12  415.83   16.24
 -10  -2 -11    7.49    4.30
  10   2  11    2.23    4.75
 -10  -2 -10 2036.15   67.35
  10   2  10 1913.76   63.57
 -10  -2  -9   -2.00    3.86
  10   2   9    3.63    4.67
 -10  -2  -8    8.83    4.01
  10   2   8   11.05    4.82
 -10  -2  -7  146.65    8.16
  10   2   7  137.60    7.71
 -10  -2  -6 2223.81   73.14
  10   2   6 2333.59   77.00
 -10  -2  -5  364.43   14.39
  10   2   5  376.89   14.98
 -10  -2  -4  129.29    7.27
  10   2   4  124.76    7.34
 -10  -2  -3   13.50    4.45
  10   2   3    9.20    4.45
 -10  -2  -2 5314.01  171.94
  10   2   2 5400.05  174.76
 -10  -2  -1  240.55   10.46
  10   2   1  236.47   10.31
 -10  -2   0  228.76   10.09
  10   2   0  213.33    9.72
 -10  -2   1    6.53    4.15
  10   2  -1   -1.19    3.78
 -10  -2   2 2206.75   72.69
  10   2  -2 2293.54   75.36
 -10  -2   3  416.28   15.80
  10   2  -3  397.14   15.13
 -10  -2   4    4.97    4.60
  10   2  -4    6.16    4.38
 -10  -2   5   55.41    5.41
  10   2  -5   54.45    5.34
 -10  -2   6 1266.94   42.80
  10   2  -6 1347.79   45.32
 -10  -2   7   43.99    5.04
  10   2  -7   40.87    4.45
 -10  -2   8  159.26    8.16
 -10  -2   8  160.22    8.31
 -10  -2   9  287.73   12.09
 -10  -2   9  258.21   11.05
 -10  -2  10 1117.84   37.98
 -10  -2  10 1097.81   37.31
 -10  -2  11   86.71    5.93
 -10  -2  11   75.73    5.56
 -10  -2  12  809.27   28.19
 -10  -2  12  823.36   28.71
 -10  -2  13  382.97   14.91
 -10  -2  13  374.89   14.91
 -10  -2  14  370.59   14.54
 -10  -2  14  343.59   13.87
 -10  -2  15 1030.31   35.23
 -10  -2  15 1036.99   35.60
 -10  -2  16  622.86   22.55
 -10  -2  16  667.81   24.11
 -10  -2  17  677.53   24.18
 -10  -2  17  685.69   24.48
 -10  -2  18  103.18    6.75
 -10  -2  18  117.12    7.27
 -10  -2  19    5.71    4.30
 -10  -2  19   -3.71    4.52
 -10  -2  20  203.54    9.72
 -10  -2  20  218.08   10.31
 -10  -2  21   57.86    5.93
 -10  -2  21   62.16    5.64
 -10  -2  22   -0.45    4.15
 -10  -2  22    0.22    4.01
 -10  -2  23    9.94    4.75
 -10  -2  23    3.86    4.08
 -10  -2  24 1035.50   35.31
 -10  -2  24  962.07   33.16
 -10  -2  25    4.30    4.45
 -10  -2  25    0.22    4.67
 -10  -2  26    0.37    4.08
 -10  -2  26    1.78    4.82
 -10  -2  27   32.42    4.75
 -10  -2  27   41.61    5.41
 -10  -2  28  715.14   25.07
 -10  -2  28  755.86   26.33
 -10  -2  29   22.55    4.45
 -10  -2  29   28.71    4.52
 -10  -2  30   18.84    4.75
 -10  -2  30   18.92    4.45
 -10  -2  31   33.75    4.38
 -10  -2  31   36.72    4.45
 -11  -2 -27  293.22   11.65
  11   2  27  265.77   10.90
 -11  -2 -26    6.97    4.30
  11   2  26   15.28    4.75
 -11  -2 -25  360.35   13.95
  11   2  25  368.36   14.17
 -11  -2 -24  196.86    8.90
  11   2  24  193.45    9.05
 -11  -2 -23  120.83    6.53
  11   2  23  115.79    7.27
 -11  -2 -22   51.92    4.52
  11   2  22   59.56    5.86
 -11  -2 -21 1051.08   35.75
  11   2  21 1109.68   37.76
 -11  -2 -20   58.53    5.19
  11   2  20   49.25    5.93
 -11  -2 -19  765.50   26.93
  11   2  19  749.92   26.70
 -11  -2 -18  427.48   16.32
  11   2  18  452.25   17.28
 -11  -2 -17  516.71   18.99
  11   2  17  487.19   18.40
 -11  -2 -16   16.32    3.56
  11   2  16   21.73    5.12
 -11  -2 -15  514.71   19.29
  11   2  15  515.01   19.29
 -11  -2 -14   23.44    3.71
  11   2  14   15.06    4.97
 -11  -2 -13  950.20   33.01
  11   2  13  830.78   29.30
 -11  -2 -12    1.78    3.71
  11   2  12   -2.89    4.67
 -11  -2 -11  962.81   33.08
  11   2  11 1095.59   37.83
 -11  -2 -10  307.46   12.83
  11   2  10  286.17   12.39
 -11  -2  -9 1091.88   37.31
  11   2   9 1067.40   36.72
 -11  -2  -8   44.14    5.49
  11   2   8   38.50    5.19
 -11  -2  -7 1349.27   45.40
  11   2   7 1306.25   44.28
 -11  -2  -6 1813.62   60.16
  11   2   6 1890.02   62.90
 -11  -2  -5   29.00    5.12
  11   2   5   31.30    5.27
 -11  -2  -4 1144.54   38.94
  11   2   4 1164.57   39.76
 -11  -2  -3 2551.67   83.75
  11   2   3 2625.85   86.34
 -11  -2  -2   80.18    6.31
  11   2   2   76.85    6.31
 -11  -2  -1  271.86   11.50
  11   2   1  273.34   11.79
 -11  -2   0    7.49    4.52
  11   2   0    4.82    4.30
 -11  -2   1 1548.81   51.70
  11   2  -1 1460.54   49.10
 -11  -2   2 1123.77   38.28
  11   2  -2 1193.50   40.72
 -11  -2   3  832.26   29.08
  11   2  -3  855.26   29.89
 -11  -2   4  939.08   32.42
  11   2  -4  899.02   31.23
 -11  -2   5 1263.23   42.65
  11   2  -5 1353.72   45.84
 -11  -2   6  176.17    8.46
  11   2  -6  165.86    8.46
 -11  -2   7  130.77    7.49
  11   2  -7  133.00    7.27
 -11  -2   8  204.43    9.57
 -11  -2   8  208.07    9.35
 -11  -2   9 1421.96   47.62
 -11  -2   9 1303.28   43.99
 -11  -2  10    0.67    4.45
 -11  -2  10    0.15    4.15
 -11  -2  11  424.73   16.39
 -11  -2  11  433.64   16.47
 -11  -2  12    5.34    4.45
 -11  -2  12    3.71    3.49
 -11  -2  13  460.71   17.36
 -11  -2  13  465.61   17.58
 -11  -2  14   -2.08    4.15
 -11  -2  14    4.01    4.01
 -11  -2  15  137.60    7.71
 -11  -2  15  144.13    7.71
 -11  -2  16  319.92   13.13
 -11  -2  16  311.99   12.83
 -11  -2  17  669.07   23.96
 -11  -2  17  671.15   24.03
 -11  -2  18   39.83    5.27
 -11  -2  18   37.46    4.90
 -11  -2  19 2438.18   80.26
 -11  -2  19 2399.61   79.22
 -11  -2  20  685.69   24.48
 -11  -2  20  669.00   24.11
 -11  -2  21    0.89    3.93
 -11  -2  21    7.64    4.45
 -11  -2  22   16.02    4.82
 -11  -2  22    7.64    4.23
 -11  -2  23  876.03   30.34
 -11  -2  23  959.84   33.01
 -11  -2  24  279.20   11.50
 -11  -2  24  262.73   11.13
 -11  -2  26   76.85    6.16
 -11  -2  26   86.56    6.45
 -11  -2  27  982.10   33.68
 -11  -2  27 1029.57   35.09
 -11  -2  28   29.08    4.52
 -11  -2  28   22.33    4.30
 -11  -2  29    2.89    4.30
 -11  -2  29   10.53    3.41
 -11  -2  30   74.18    5.49
 -11  -2  30   83.67    5.93
 -11  -2  31  585.25   20.47
 -11  -2  31  598.23   21.07
 -12  -2 -26  691.47   23.96
  12   2  26  724.56   25.15
 -12  -2 -25  191.45    8.90
  12   2  25  186.55    8.83
 -12  -2 -24  276.68   11.50
  12   2  24  274.38   11.42
 -12  -2 -23  287.81   11.72
  12   2  23  297.82   12.09
 -12  -2 -22  639.25   22.85
  12   2  22  675.23   24.33
 -12  -2 -21    5.93    4.15
  12   2  21   13.87    4.52
 -12  -2 -20  189.74    9.12
  12   2  20  179.43    9.42
 -12  -2 -19   35.75    5.19
  12   2  19   24.92    4.90
 -12  -2 -18  358.87   14.09
  12   2  18  379.71   14.98
 -12  -2 -17  107.41    6.45
  12   2  17  126.17    7.71
 -12  -2 -16  751.41   26.26
  12   2  16  738.21   26.18
 -12  -2 -15  405.15   15.95
  12   2  15  403.45   16.02
 -12  -2 -14  365.17   14.39
  12   2  14  394.55   15.58
 -12  -2 -13    9.12    4.52
  12   2  13   -2.82    4.38
 -12  -2 -12 1444.22   48.51
  12   2  12 1404.16   47.47
 -12  -2 -11    6.90    4.45
  12   2  11    4.97    4.60
 -12  -2 -10  599.49   21.66
  12   2  10  579.62   21.36
 -12  -2  -9   56.52    4.97
  12   2   9   49.10    5.93
 -12  -2  -8 1292.90   43.54
  12   2   8 1157.90   39.76
 -12  -2  -7  190.56    8.75
  12   2   7  192.64    9.72
 -12  -2  -6  284.91   11.57
  12   2   6  268.15   11.72
 -12  -2  -5  112.15    6.75
  12   2   5  108.67    7.12
 -12  -2  -4  902.73   31.30
  12   2   4  934.62   32.56
 -12  -2  -3 1013.25   34.79
  12   2   3 1014.74   34.94
 -12  -2  -2    8.90    4.67
  12   2   2    5.49    4.45
 -12  -2  -1   87.75    6.31
  12   2   1   93.76    6.75
 -12  -2   0 1173.47   39.83
  12   2   0 1249.88   42.50
 -12  -2   1   88.34    6.38
  12   2  -1   69.80    6.16
 -12  -2   2 1657.10   55.26
  12   2  -2 1706.80   56.97
 -12  -2   3  210.29    9.94
  12   2  -3  195.31    9.42
 -12  -2   4  685.54   24.40
  12   2  -4  687.84   24.55
 -12  -2   5   89.83    6.53
  12   2  -5   85.90    6.31
 -12  -2   6   21.36    4.23
  12   2  -6   20.10    4.97
 -12  -2   7  612.62   22.10
  12   2  -7  629.83   22.70
 -12  -2   8 1506.53   50.44
 -12  -2   8 1552.52   51.92
 -12  -2   9   22.99    4.23
 -12  -2   9   28.63    4.97
 -12  -2  10  815.94   28.41
 -12  -2  10  819.65   28.63
 -12  -2  11   39.54    4.82
 -12  -2  11   42.87    5.04
 -12  -2  12 2361.04   77.81
 -12  -2  12 2371.42   77.96
 -12  -2  13   61.12    5.49
 -12  -2  13   61.79    5.41
 -12  -2  14 1881.86   62.53
 -12  -2  14 1843.29   61.27
 -12  -2  15  190.11    9.05
 -12  -2  15  171.42    8.38
 -12  -2  16  194.19    9.35
 -12  -2  16  215.78   10.01
 -12  -2  17    1.56    4.08
 -12  -2  17    2.74    3.19
 -12  -2  18  961.33   33.31
 -12  -2  18  972.45   33.53
 -12  -2  19  158.14    8.23
 -12  -2  19  168.16    8.98
 -12  -2  20  420.73   16.10
 -12  -2  20  412.57   15.95
 -12  -2  21   15.95    4.75
 -12  -2  21   16.39    4.30
 -12  -2  22 1131.93   38.50
 -12  -2  22 1060.72   36.12
 -12  -2  23  340.17   13.35
 -12  -2  23  311.62   12.31
 -12  -2  24    2.00    4.15
 -12  -2  24    5.49    3.34
 -12  -2  25  219.86    9.94
 -12  -2  25  231.88   10.01
 -12  -2  26  786.27   27.30
 -12  -2  26  830.04   29.00
 -12  -2  27   11.42    3.86
 -12  -2  27   17.80    4.60
 -12  -2  28   -1.34    3.93
 -12  -2  28    3.71    4.52
 -12  -2  29   51.92    5.19
 -12  -2  29   56.89    5.04
 -12  -2  30  885.67   30.04
 -12  -2  30  873.06   29.52
 -13  -2 -25   79.81    5.79
  13   2  25   84.93    5.86
 -13  -2 -24   52.89    5.12
  13   2  24   40.13    5.19
 -13  -2 -23  879.73   30.19
  13   2  23  860.45   29.67
 -13  -2 -22   21.21    4.45
  13   2  22   23.14    4.90
 -13  -2 -21  564.56   20.47
  13   2  21  597.57   21.73
 -13  -2 -20  389.06   14.91
  13   2  20  378.52   14.98
 -13  -2 -19  543.57   19.95
  13   2  19  544.83   20.03
 -13  -2 -18    9.35    4.60
  13   2  18   18.84    5.34
 -13  -2 -17 1277.32   42.95
  13   2  17 1239.49   42.13
 -13  -2 -16    2.60    3.12
  13   2  16    3.78    4.97
 -13  -2 -15  625.01   22.55
  13   2  15  643.63   23.22
 -13  -2 -14   -2.45    4.30
  13   2  14    9.27    5.04
 -13  -2 -13  930.17   32.19
  13   2  13  996.19   34.49
 -13  -2 -12  127.58    7.64
  13   2  12  123.28    7.64
 -13  -2 -11  148.50    7.79
  13   2  11  147.98    8.53
 -13  -2 -10   12.83    4.23
  13   2  10   10.16    4.67
 -13  -2  -9 1739.44   57.93
  13   2   9 1701.61   56.89
 -13  -2  -8  654.24   23.29
  13   2   8  644.67   23.44
 -13  -2  -7  308.28   12.16
  13   2   7  310.95   13.20
 -13  -2  -6  180.40    8.46
  13   2   6  202.21    9.72
 -13  -2  -5 2091.78   69.13
  13   2   5 1984.96   65.79
 -13  -2  -4   98.21    6.38
  13   2   4   79.59    6.31
 -13  -2  -3  380.23   14.69
  13   2   3  385.94   15.21
 -13  -2  -2  729.60   25.96
  13   2   2  639.70   23.07
 -13  -2  -1  362.80   14.46
  13   2   1  324.30   13.35
 -13  -2   0 1192.02   40.57
  13   2   0 1217.98   41.54
 -13  -2   1  117.87    7.49
  13   2  -1  111.04    7.27
 -13  -2   2    9.27    4.82
  13   2  -2   15.21    4.38
 -13  -2   3 1143.80   39.09
  13   2  -3 1197.95   40.80
 -13  -2   4  159.85    8.01
  13   2  -4  164.38    8.68
 -13  -2   5  332.09   13.43
  13   2  -5  329.79   13.50
 -13  -2   6  268.00   11.57
  13   2  -6  244.26   10.90
 -13  -2   7  867.87   29.97
  13   2  -7  933.14   32.34
 -13  -2   8   31.90    4.52
  13   2  -8   44.88    4.38
 -13  -2   9  298.12   12.16
 -13  -2   9  294.85   12.16
 -13  -2  10  213.85    9.57
 -13  -2  10  225.65   10.16
 -13  -2  11 1103.75   37.46
 -13  -2  11 1076.30   36.94
 -13  -2  12  328.82   13.20
 -13  -2  12  339.21   13.43
 -13  -2  13  676.79   24.18
 -13  -2  13  685.24   24.40
 -13  -2  14   10.90    4.30
 -13  -2  14    1.93    3.93
 -13  -2  15  160.81    8.31
 -13  -2  15  167.27    8.60
 -13  -2  16  427.55   16.39
 -13  -2  16  391.06   15.28
 -13  -2  17 2653.30   87.16
 -13  -2  17 2575.41   84.78
 -13  -2  18  891.60   30.93
 -13  -2  18  853.03   29.89
 -13  -2  19   23.07    4.82
 -13  -2  19   29.52    4.45
 -13  -2  20  957.62   32.93
 -13  -2  20  949.46   32.64
 -13  -2  21  745.47   26.18
 -13  -2  21  713.73   25.29
 -13  -2  22  225.94    9.94
 -13  -2  22  228.98   10.16
 -13  -2  23   27.74    4.52
 -13  -2  23   27.74    4.97
 -13  -2  24   33.01    4.82
 -13  -2  24   32.27    5.19
 -13  -2  25 1016.22   34.79
 -13  -2  25 1048.86   35.68
 -13  -2  26  221.79    9.94
 -13  -2  26  234.25    9.94
 -13  -2  27    0.00    4.01
 -13  -2  27    6.68    3.41
 -13  -2  28  125.73    7.05
 -13  -2  28  136.04    7.05
 -13  -2  29  792.21   27.07
 -13  -2  29  730.49   25.15
 -13  -2  30    2.37    3.78
 -13  -2  30    4.15    4.45
 -14  -2 -24  984.32   33.08
  14   2  24  907.18   30.63
 -14  -2 -23   83.89    5.34
  14   2  23   92.13    6.45
 -14  -2 -22   91.31    5.49
  14   2  22   86.79    6.38
 -14  -2 -21    0.07    2.97
  14   2  21   -6.38    4.52
 -14  -2 -20  431.93   16.02
  14   2  20  440.46   16.69
 -14  -2 -19  418.06   15.73
  14   2  19  435.19   16.91
 -14  -2 -18  394.10   15.21
  14   2  18  345.89   14.09
 -14  -2 -17   22.62    4.75
  14   2  17   14.76    4.97
 -14  -2 -16  833.00   28.85
  14   2  16  858.22   29.82
 -14  -2 -15   23.44    3.71
  14   2  15   12.76    4.52
 -14  -2 -14  853.77   29.67
  14   2  14  867.87   30.26
 -14  -2 -13   36.79    5.12
  14   2  13   28.34    5.12
 -14  -2 -12  279.20   11.57
  14   2  12  300.86   12.68
 -14  -2 -11   70.69    6.01
  14   2  11   64.46    6.01
 -14  -2 -10  526.36   19.21
  14   2  10  526.65   19.73
 -14  -2  -9   10.01    4.23
  14   2   9    5.34    4.60
 -14  -2  -8  198.13    9.05
  14   2   8  193.75    9.57
 -14  -2  -7   51.85    4.97
  14   2   7   44.95    5.64
 -14  -2  -6  248.79   10.98
  14   2   6  236.33   10.83
 -14  -2  -5  355.08   14.02
  14   2   5  389.58   15.35
 -14  -2  -4   39.17    4.97
  14   2   4   42.06    5.27
 -14  -2  -3  342.25   13.65
  14   2   3  312.13   12.83
 -14  -2  -2 3740.72  121.80
  14   2   2 3714.76  121.13
 -14  -2  -1  367.69   14.39
  14   2   1  392.91   15.43
 -14  -2   0  137.15    7.34
  14   2   0  131.07    7.57
 -14  -2   1  129.07    6.97
  14   2  -1  139.45    7.49
 -14  -2   2 1298.83   43.91
  14   2  -2 1382.65   46.73
 -14  -2   3   33.08    4.67
  14   2  -3   27.30    4.67
 -14  -2   4  246.41   10.53
  14   2  -4  246.27   10.83
 -14  -2   5   60.01    5.27
  14   2  -5   61.49    5.71
 -14  -2   6 1315.89   44.36
  14   2  -6 1332.95   45.03
 -14  -2   7  109.04    6.68
  14   2  -7  121.35    6.75
 -14  -2   8  621.23   22.33
  14   2  -8  604.98   21.88
 -14  -2   9   90.20    6.16
 -14  -2   9  102.36    6.38
 -14  -2  10 1037.73   35.46
 -14  -2  10  979.87   33.68
 -14  -2  11   -2.52    3.71
 -14  -2  11   -3.93    3.93
 -14  -2  12 1286.22   43.39
 -14  -2  12 1299.57   43.99
 -14  -2  13  168.68    8.68
 -14  -2  13  166.97    8.31
 -14  -2  14  370.22   14.54
 -14  -2  14  372.89   14.61
 -14  -2  15  123.06    7.20
 -14  -2  15  121.06    7.34
 -14  -2  16  633.17   22.70
 -14  -2  16  667.89   24.03
 -14  -2  17  101.77    6.38
 -14  -2  17  100.29    6.60
 -14  -2  18  108.67    6.97
 -14  -2  18   85.90    6.38
 -14  -2  19   32.71    4.82
 -14  -2  19   43.62    5.27
 -14  -2  20  374.96   14.46
 -14  -2  20  365.32   14.46
 -14  -2  21  580.73   20.92
 -14  -2  21  536.37   19.51
 -14  -2  22    7.27    4.08
 -14  -2  22   13.35    4.08
 -14  -2  23  100.14    6.38
 -14  -2  23   91.98    6.08
 -14  -2  24 1068.14   36.20
 -14  -2  24 1104.49   37.61
 -14  -2  25    6.31    4.01
 -14  -2  25    3.49    3.78
 -14  -2  26   12.54    4.23
 -14  -2  26    4.38    4.30
 -14  -2  27   -2.37    3.93
 -14  -2  27   -2.08    4.30
 -14  -2  28  596.60   20.77
 -14  -2  28  600.24   20.99
 -14  -2  29   13.72    3.78
 -14  -2  29   14.46    4.23
 -15  -2 -23    9.72    3.71
  15   2  23    1.41    3.86
 -15  -2 -22   35.09    4.45
  15   2  22   36.27    5.12
 -15  -2 -21  634.58   22.33
  15   2  21  616.41   21.88
 -15  -2 -20   17.65    4.30
  15   2  20    6.38    4.75
 -15  -2 -19  600.68   21.44
  15   2  19  630.06   22.48
 -15  -2 -18   25.29    4.30
  15   2  18   30.71    5.34
 -15  -2 -17  290.77   11.72
  15   2  17  269.41   11.79
 -15  -2 -16   24.03    3.78
  15   2  16   24.85    5.27
 -15  -2 -15  543.42   19.73
  15   2  15  555.36   20.55
 -15  -2 -14   30.63    4.90
  15   2  14   34.20    5.34
 -15  -2 -13  337.73   13.50
  15   2  13  337.35   13.80
 -15  -2 -12   20.40    4.30
  15   2  12   24.18    4.97
 -15  -2 -11  867.87   30.49
  15   2  11  798.14   28.04
 -15  -2 -10  207.92    9.42
  15   2  10  209.85   10.01
 -15  -2  -9  337.80   13.43
  15   2   9  316.51   13.06
 -15  -2  -8   58.82    4.52
  15   2   8   64.83    6.01
 -15  -2  -7 2209.72   72.84
  15   2   7 1956.04   64.90
 -15  -2  -6  153.92    7.57
  15   2   6  168.16    8.75
 -15  -2  -5   10.24    4.38
  15   2   5   18.84    4.97
 -15  -2  -4  356.49   14.24
  15   2   4  365.02   14.46
 -15  -2  -3 2563.54   84.34
  15   2   3 2499.75   82.26
 -15  -2  -2  695.33   24.92
  15   2   2  680.57   24.40
 -15  -2  -1  109.26    6.45
  15   2   1  107.33    6.68
 -15  -2   0  148.20    8.01
  15   2   0  149.24    7.94
 -15  -2   1 3788.94  123.43
  15   2  -1 3796.36  123.50
 -15  -2   2  177.58    8.60
  15   2  -2  196.20    9.20
 -15  -2   3  443.87   16.91
  15   2  -3  441.72   16.76
 -15  -2   4  637.70   22.85
  15   2  -4  605.50   21.88
 -15  -2   5 1611.11   53.78
  15   2  -5 1617.05   54.07
 -15  -2   6   42.06    4.75
  15   2  -6   45.25    5.04
 -15  -2   7  516.64   18.92
  15   2  -7  485.11   18.17
 -15  -2   8  140.12    7.49
  15   2  -8  135.52    7.49
 -15  -2   9 1194.24   40.35
 -15  -2   9 1154.19   39.31
 -15  -2  10   25.96    4.60
 -15  -2  10   26.85    4.08
 -15  -2  11 1650.43   54.96
 -15  -2  11 1725.35   57.56
 -15  -2  12   25.44    4.30
 -15  -2  12   27.37    4.52
 -15  -2  13 2240.13   73.88
 -15  -2  13 2217.14   73.29
 -15  -2  14  106.44    6.53
 -15  -2  14   98.65    6.53
 -15  -2  15  859.71   29.89
 -15  -2  15  839.68   29.30
 -15  -2  16  515.82   18.99
 -15  -2  16  479.70   18.02
 -15  -2  17 1075.56   36.64
 -15  -2  17 1006.58   34.34
 -15  -2  18  678.72   24.11
 -15  -2  18  687.99   24.33
 -15  -2  19 1579.96   52.52
 -15  -2  19 1417.51   47.47
 -15  -2  20   -1.04    4.01
 -15  -2  20    1.93    4.45
 -15  -2  21   -3.12    4.08
 -15  -2  21    0.67    4.45
 -15  -2  22  146.20    7.79
 -15  -2  22  121.72    7.34
 -15  -2  23  659.58   23.44
 -15  -2  23  638.44   22.62
 -15  -2  24  240.18   10.46
 -15  -2  24  218.97    9.57
 -15  -2  25    4.30    4.08
 -15  -2  25   17.36    4.75
 -15  -2  26   26.63    4.75
 -15  -2  26   29.30    4.45
 -15  -2  27  784.05   26.70
 -15  -2  27  708.24   24.26
 -15  -2  28    8.31    3.71
 -15  -2  28   10.09    3.78
 -16  -2 -21   37.38    4.15
  16   2  21   33.31    4.60
 -16  -2 -20   67.06    5.04
  16   2  20   62.23    5.49
 -16  -2 -19   28.93    4.08
  16   2  19   22.18    5.04
 -16  -2 -18  621.75   21.96
  16   2  18  619.08   22.10
 -16  -2 -17   41.54    4.75
  16   2  17   35.23    4.75
 -16  -2 -16  778.11   27.15
  16   2  16  720.92   25.44
 -16  -2 -15  175.13    8.68
  16   2  15  179.43    9.05
 -16  -2 -14  120.54    6.82
  16   2  14  139.01    8.16
 -16  -2 -13   39.83    4.15
  16   2  13   68.46    5.93
 -16  -2 -12 1004.35   34.42
  16   2  12  884.93   30.78
 -16  -2 -11  215.85   10.24
  16   2  11  210.74   10.24
 -16  -2 -10   65.57    5.27
  16   2  10   60.97    6.01
 -16  -2  -9    9.94    3.71
  16   2   9   11.13    4.75
 -16  -2  -8 1560.67   52.00
  16   2   8 1686.03   56.15
 -16  -2  -7   -1.26    2.74
  16   2   7   -1.19    4.45
 -16  -2  -6  187.59    8.98
  16   2   6  169.35    8.60
 -16  -2  -5    7.05    3.71
  16   2   5    0.59    4.15
 -16  -2  -4  949.46   32.79
  16   2   4  975.42   33.53
 -16  -2  -3  383.05   14.91
  16   2   3  371.18   14.61
 -16  -2  -2  110.23    6.82
  16   2   2  113.27    6.97
 -16  -2  -1 1909.30   63.42
  16   2   1 1950.84   64.61
 -16  -2   0  884.93   30.86
  16   2   0  925.72   32.12
 -16  -2   1  451.44   17.21
  16   2  -1  425.85   16.47
 -16  -2   2  608.40   22.03
  16   2  -2  605.87   21.96
 -16  -2   3   62.38    5.56
  16   2  -3   57.56    5.34
 -16  -2   4  603.95   21.73
  16   2  -4  634.28   22.92
 -16  -2   5  100.73    6.23
  16   2  -5   96.58    6.31
 -16  -2   6  524.58   19.14
  16   2  -6  546.01   20.03
 -16  -2   7  181.81    8.75
  16   2  -7  164.45    8.31
 -16  -2   8  825.59   28.63
  16   2  -8  838.94   29.23
 -16  -2   9   11.50    4.15
 -16  -2   9    9.42    4.15
 -16  -2  10  657.28   23.37
 -16  -2  10  667.89   23.88
 -16  -2  11  346.03   13.65
 -16  -2  11  318.89   13.06
 -16  -2  13  273.56   11.57
 -16  -2  13  264.37   11.20
 -16  -2  14  843.39   29.23
 -16  -2  14  939.08   32.42
 -16  -2  15  148.13    7.71
 -16  -2  15  141.16    7.49
 -16  -2  16   79.00    5.71
 -16  -2  16   78.55    5.86
 -16  -2  17   13.35    3.86
 -16  -2  17   12.54    4.15
 -16  -2  18 1050.34   35.68
 -16  -2  18 1112.65   37.90
 -16  -2  19   20.10    4.30
 -16  -2  19   13.06    4.38
 -16  -2  20  345.14   13.80
 -16  -2  20  362.95   14.09
 -16  -2  21   -3.34    4.15
 -16  -2  21    3.26    4.45
 -16  -2  22 1324.05   44.36
 -16  -2  22 1402.68   46.88
 -16  -2  23   76.33    5.64
 -16  -2  23   67.20    5.71
 -16  -2  24   12.91    4.15
 -16  -2  24    8.23    4.38
 -16  -2  25   43.62    4.82
 -16  -2  25   45.25    5.04
 -16  -2  26  553.88   19.36
 -16  -2  26  516.34   18.40
 -16  -2  27    5.93    3.71
 -16  -2  27    7.49    3.71
 -17  -2 -20  426.22   15.65
  17   2  20  392.47   14.54
 -17  -2 -19  175.87    8.16
  17   2  19  178.39    8.38
 -17  -2 -18   38.05    4.75
  17   2  18   33.82    5.04
 -17  -2 -17  416.13   15.58
  17   2  17  438.31   16.32
 -17  -2 -16   60.31    5.41
  17   2  16   55.11    5.34
 -17  -2 -15  130.85    7.12
  17   2  15  120.54    7.12
 -17  -2 -14   17.21    4.15
  17   2  14   19.51    4.82
 -17  -2 -13  635.69   22.48
  17   2  13  655.57   23.44
 -17  -2 -12   62.09    4.67
  17   2  12   70.17    6.01
 -17  -2 -11   -1.85    4.08
  17   2  11    2.23    4.75
 -17  -2 -10   -0.37    4.30
  17   2  10   -1.34    4.45
 -17  -2  -9  818.17   28.41
  17   2   9  838.20   29.37
 -17  -2  -8  442.46   16.47
  17   2   8  458.11   17.28
 -17  -2  -7   67.50    5.49
  17   2   7   54.82    5.79
 -17  -2  -6  845.61   29.15
  17   2   6  905.70   31.38
 -17  -2  -5  332.98   13.06
  17   2   5  300.64   12.61
 -17  -2  -4  256.58   11.05
  17   2   4  263.10   11.50
 -17  -2  -3    8.31    3.93
  17   2   3   12.16    4.60
 -17  -2  -2  473.84   17.80
  17   2   2  462.79   17.43
 -17  -2  -1  654.16   23.59
  17   2   1  602.24   21.81
 -17  -2   0    3.86    3.63
  17   2   0   -0.96    4.30
 -17  -2   1   55.34    5.19
  17   2  -1   54.52    5.56
 -17  -2   2  642.44   23.22
  17   2  -2  598.98   21.66
 -17  -2   3 1117.10   38.05
  17   2  -3 1143.80   38.87
 -17  -2   4  130.18    7.05
  17   2  -4  128.92    7.27
 -17  -2   5  857.48   29.67
  17   2  -5  820.39   28.63
 -17  -2   6  219.93    9.64
  17   2  -6  222.75   10.09
 -17  -2   7  505.44   18.47
  17   2  -7  540.01   19.73
 -17  -2   8   -1.11    3.56
  17   2  -8    7.49    3.78
 -17  -2   9  534.96   19.73
 -17  -2   9  533.48   19.43
 -17  -2  10  348.78   13.57
 -17  -2  10  342.47   13.65
 -17  -2  11  333.28   13.20
 -17  -2  11  322.37   13.06
 -17  -2  12  122.61    6.97
 -17  -2  12   99.17    6.38
 -17  -2  13  343.07   13.28
 -17  -2  13  372.51   14.84
 -17  -2  14  180.40    8.75
 -17  -2  14  174.02    8.38
 -17  -2  15  488.38   17.80
 -17  -2  15  495.80   18.17
 -17  -2  16   42.95    4.67
 -17  -2  16   45.40    4.67
 -17  -2  17 1305.51   43.99
 -17  -2  17 1255.81   42.06
 -17  -2  18  111.34    6.90
 -17  -2  18  106.81    6.60
 -17  -2  19  123.36    7.12
 -17  -2  19  129.29    7.42
 -17  -2  20  471.10   17.51
 -17  -2  20  462.79   17.28
 -17  -2  21  548.02   19.81
 -17  -2  21  541.34   19.43
 -17  -2  22    6.45    4.01
 -17  -2  22   -1.93    4.38
 -17  -2  23  226.39    9.87
 -17  -2  23  230.10    9.79
 -17  -2  24   -0.67    4.15
 -17  -2  24   10.24    3.63
 -17  -2  25  795.17   27.15
 -17  -2  25  729.23   24.92
 -18  -2 -18  391.06   14.17
  18   2  18  408.05   14.98
 -18  -2 -17  265.11   10.90
  18   2  17  224.16    9.72
 -18  -2 -16  216.22    9.35
  18   2  16  199.76    9.35
 -18  -2 -15   43.32    4.97
  18   2  15   42.50    5.41
 -18  -2 -14  479.40   17.51
  18   2  14  501.80   18.47
 -18  -2 -13   86.79    5.71
  18   2  13   76.03    6.08
 -18  -2 -12  168.45    7.79
  18   2  12  159.03    8.38
 -18  -2 -11  191.38    8.46
  18   2  11  193.16    9.49
 -18  -2 -10  873.06   29.97
  18   2  10  995.45   34.27
 -18  -2  -9  101.99    6.53
  18   2   9  108.67    6.75
 -18  -2  -8   27.37    4.82
  18   2   8   22.85    5.04
 -18  -2  -7  140.79    7.34
  18   2   7  147.24    7.71
 -18  -2  -6  833.74   28.71
  18   2   6  860.45   29.89
 -18  -2  -5  199.91    9.05
  18   2   5  215.48   10.01
 -18  -2  -4    2.89    3.93
  18   2   4    5.86    4.30
 -18  -2  -3   79.29    5.79
  18   2   3   83.00    6.08
 -18  -2  -2 3444.76  112.30
  18   2   2 3363.17  109.63
 -18  -2  -1   36.20    4.75
  18   2   1   34.57    5.04
 -18  -2   0  208.88    9.79
  18   2   0  179.06    8.75
 -18  -2   1  171.35    8.60
  18   2  -1  169.49    8.53
 -18  -2   2  919.05   31.82
  18   2  -2 1025.86   35.16
 -18  -2   3   31.97    4.30
  18   2  -3   35.31    4.97
 -18  -2   4  105.48    6.75
  18   2  -4  110.00    6.97
 -18  -2   5  140.34    7.34
  18   2  -5  143.68    7.64
 -18  -2   6  807.04   28.11
  18   2  -6  775.15   27.07
 -18  -2   7   39.02    4.90
  18   2  -7   44.95    4.67
 -18  -2   8  596.01   21.36
  18   2  -8  602.76   21.73
 -18  -2   9  131.22    7.05
 -18  -2   9  141.83    7.79
 -18  -2  10  481.03   17.88
 -18  -2  10  511.74   18.77
 -18  -2  11   49.62    4.82
 -18  -2  11   52.07    4.90
 -18  -2  12  523.09   19.06
 -18  -2  12  510.71   18.77
 -18  -2  13  126.99    6.97
 -18  -2  13  113.49    6.68
 -18  -2  14  792.95   27.52
 -18  -2  14  727.82   25.59
 -18  -2  15   43.10    4.52
 -18  -2  15   36.12    4.90
 -18  -2  16  490.08   18.10
 -18  -2  16  523.32   19.06
 -18  -2  17   41.02    4.90
 -18  -2  17   36.05    4.82
 -18  -2  18  190.41    8.83
 -18  -2  18  180.62    8.60
 -18  -2  19  140.64    6.97
 -18  -2  19  134.19    7.12
 -18  -2  20  648.08   22.55
 -18  -2  20  681.91   23.81
 -18  -2  21   81.89    5.56
 -18  -2  21   74.25    5.41
 -18  -2  22   -7.49    3.71
 -18  -2  22   -3.49    3.56
 -18  -2  23  373.92   13.72
 -18  -2  23  368.06   13.72
 -18  -2  24  771.44   25.96
 -18  -2  24  764.76   26.11
 -19  -2 -16   -6.16    4.15
  19   2  16    4.75    4.38
 -19  -2 -15  365.84   13.87
  19   2  15  349.67   13.50
 -19  -2 -14  135.97    6.97
  19   2  14  131.44    7.34
 -19  -2 -13   80.63    5.93
  19   2  13   82.04    6.16
 -19  -2 -12   26.04    4.38
  19   2  12   25.59    5.04
 -19  -2 -11  634.73   22.48
  19   2  11  640.89   22.77
 -19  -2 -10   27.00    4.60
  19   2  10   23.51    4.52
 -19  -2  -9   11.42    3.71
  19   2   9   19.14    4.15
 -19  -2  -8    8.90    3.56
  19   2   8    2.37    4.45
 -19  -2  -7 1792.11   59.27
  19   2   7 1693.45   56.15
 -19  -2  -6   31.45    4.45
  19   2   6   38.13    5.34
 -19  -2  -5   27.30    4.52
  19   2   5   28.34    4.97
 -19  -2  -4  151.25    7.71
  19   2   4  143.53    7.86
 -19  -2  -3 1055.53   35.83
  19   2   3 1003.61   34.42
 -19  -2  -2   13.87    4.01
  19   2   2   10.31    4.30
 -19  -2  -1   36.57    4.23
  19   2   1   44.36    5.34
 -19  -2   0   75.96    5.49
  19   2   0   93.83    6.60
 -19  -2   1  962.07   32.93
  19   2  -1  933.88   32.27
 -19  -2   2  316.81   12.68
  19   2  -2  344.18   13.80
 -19  -2   3  528.73   19.43
  19   2  -3  533.40   19.73
 -19  -2   4  455.96   17.21
  19   2  -4  429.56   16.47
 -19  -2   5  512.49   18.84
  19   2  -5  530.96   19.66
 -19  -2   6    3.78    4.15
  19   2  -6    6.01    4.23
 -19  -2   7  347.74   13.80
  19   2  -7  370.59   14.61
 -19  -2   8  108.59    6.68
  19   2  -8  114.83    6.82
 -19  -2   9  433.12   16.54
 -19  -2   9  450.77   16.76
 -19  -2  10  105.92    6.16
 -19  -2  10   99.17    6.23
 -19  -2  11  735.24   25.81
 -19  -2  11  773.66   27.07
 -19  -2  12   14.09    4.30
 -19  -2  12    8.83    3.56
 -19  -2  14  118.53    6.82
 -19  -2  14   97.99    6.08
 -19  -2  15  813.72   28.26
 -19  -2  15  869.35   30.04
 -19  -2  16  473.77   17.36
 -19  -2  16  479.55   17.58
 -19  -2  17  221.79    9.49
 -19  -2  17  226.09    9.87
 -19  -2  19  611.14   21.59
 -19  -2  19  586.74   20.84
 -19  -2  20   18.17    4.08
 -19  -2  20   20.32    4.08
 -19  -2  21   39.54    4.38
 -19  -2  21   37.24    4.01
 -19  -2  22   31.60    4.01
 -19  -2  22   35.31    4.30
 -20  -2 -14   64.53    4.97
  20   2  14   60.90    5.27
 -20  -2 -13   62.23    4.67
  20   2  13   75.29    5.64
 -20  -2 -12  580.06   20.18
  20   2  12  589.33   20.84
 -20  -2 -11  131.81    6.82
  20   2  11  124.76    7.12
 -20  -2 -10   39.83    4.23
  20   2  10   33.68    4.90
 -20  -2  -9  285.65   11.27
  20   2   9  264.37   11.05
 -20  -2  -8  874.54   30.04
  20   2   8  906.44   31.15
 -20  -2  -7   56.23    4.97
  20   2   7   63.12    5.79
 -20  -2  -6   -0.15    3.63
  20   2   6   -0.74    4.08
 -20  -2  -5  231.88   10.01
  20   2   5  232.69   10.38
 -20  -2  -4  799.62   27.89
  20   2   4  800.37   27.74
 -20  -2  -3  229.72   10.09
  20   2   3  202.28    9.35
 -20  -2  -2   82.26    6.16
  20   2   2   78.55    6.01
 -20  -2  -1  329.05   13.06
  20   2   1  285.80   11.87
 -20  -2   0  653.94   23.07
  20   2   0  651.27   23.22
 -20  -2   1   -2.23    3.71
  20   2  -1   -1.19    4.15
 -20  -2   2  113.05    6.53
  20   2  -2  107.70    6.68
 -20  -2   3   15.80    4.08
  20   2  -3    4.60    4.08
 -20  -2   4  590.82   21.14
  20   2  -4  654.83   23.37
 -20  -2   5  118.39    6.68
  20   2  -5  110.89    6.60
 -20  -2   6  244.12   10.46
  20   2  -6  203.91    9.35
 -20  -2   7   82.78    5.71
  20   2  -7   81.52    5.79
 -20  -2   8  488.45   18.02
  20   2  -8  460.56   16.99
 -20  -2   9    0.74    3.71
 -20  -2   9    1.04    3.34
 -20  -2  10   78.48    5.41
 -20  -2  10   82.78    5.34
 -20  -2  11  212.44    9.35
 -20  -2  11  188.85    8.83
 -20  -2  12  586.59   20.70
 -20  -2  12  573.90   20.55
 -20  -2  13   18.17    4.01
 -20  -2  13   27.22    3.93
 -20  -2  14  791.46   27.22
 -20  -2  14  807.04   27.82
 -20  -2  16  146.57    7.42
 -20  -2  16  138.86    7.20
 -20  -2  17   62.83    5.19
 -20  -2  17   55.56    4.67
 -20  -2  18  406.56   14.98
 -20  -2  18  385.20   14.24
 -20  -2  19   78.33    5.19
 -20  -2  19   73.43    4.97
 -20  -2  20  373.92   13.87
 -20  -2  20  375.85   13.72
 -21  -2 -11   42.50    4.67
  21   2  11   41.09    4.60
 -21  -2 -10   22.70    4.08
  21   2  10   26.04    4.30
 -21  -2  -9  615.07   21.66
  21   2   9  640.81   22.25
 -21  -2  -8    2.67    4.01
  21   2   8   -0.74    3.86
 -21  -2  -7   26.11    4.30
  21   2   7   24.11    4.45
 -21  -2  -6   43.10    4.60
  21   2   6   34.12    4.67
 -21  -2  -5  981.36   33.45
  21   2   5 1009.54   34.34
 -21  -2  -4   26.63    4.38
  21   2   4   24.85    4.67
 -21  -2  -3   13.80    3.93
  21   2   3   14.61    4.23
 -21  -2  -2    0.22    3.63
  21   2   2    2.67    4.15
 -21  -2  -1  873.06   29.89
  21   2   1  932.40   31.90
 -21  -2   0  119.72    6.60
  21   2   0  128.77    6.82
 -21  -2   1   59.71    4.97
  21   2  -1   57.34    5.34
 -21  -2   2   56.75    4.97
  21   2  -2   58.15    5.34
 -21  -2   3 1050.34   35.75
  21   2  -3 1048.11   35.53
 -21  -2   4   -1.19    3.93
  21   2  -4   -0.30    3.71
 -21  -2   5  294.18   11.94
  21   2  -5  311.84   12.46
 -21  -2   6   13.87    3.71
  21   2  -6   18.77    4.30
 -21  -2   7  445.80   16.54
  21   2  -7  494.98   18.02
 -21  -2   8    0.59    3.86
 -21  -2   9  315.84   12.31
 -21  -2   9  282.46   11.50
 -21  -2  10   12.61    4.01
 -21  -2  10    6.68    3.93
 -21  -2  11  282.76   11.35
 -21  -2  11  269.04   11.20
 -21  -2  12   32.93    4.52
 -21  -2  12   39.91    4.60
 -21  -2  13  244.93    9.94
 -21  -2  13  268.67   10.90
 -21  -2  14  137.75    6.90
 -21  -2  14  133.22    6.68
 -21  -2  15  239.89    9.72
 -21  -2  15  254.87   10.46
 -21  -2  16    4.67    3.41
 -21  -2  16    5.34    3.26
 -21  -2  17  693.11   23.81
 -21  -2  17  712.09   24.33
 -21  -2  18  179.43    8.09
 -21  -2  18  164.89    7.27
 -22  -2  -7    4.67    3.26
  22   2   7    1.41    3.86
 -22  -2  -6  740.13   25.44
  22   2   6  671.52   23.22
 -22  -2  -5   90.05    5.71
  22   2   5   83.67    5.49
 -22  -2  -4   48.44    4.38
  22   2   4   51.48    4.52
 -22  -2  -3  133.67    6.31
  22   2   3  143.01    7.27
 -22  -2  -2 1410.10   46.66
  22   2   2 1407.87   46.81
 -22  -2  -1   10.09    3.86
  22   2   1    6.68    4.01
 -22  -2   0  102.36    6.16
  22   2   0  101.03    6.08
 -22  -2   1    0.07    4.01
  22   2  -1    5.27    4.01
 -22  -2   2  858.96   29.45
  22   2  -2  901.99   30.93
 -22  -2   3    2.89    3.34
  22   2  -3   -0.45    3.63
 -22  -2   4  110.37    6.23
  22   2  -4  116.98    6.45
 -22  -2   5   16.91    3.93
  22   2  -5   20.70    4.08
 -22  -2   6  558.40   19.73
  22   2  -6  602.31   21.29
 -22  -2   7   19.66    3.86
  22   2  -7   18.10    3.93
 -22  -2   8  243.52   10.01
 -22  -2   8  257.69   10.38
 -22  -2   9  197.83    8.46
 -22  -2   9  200.50    8.53
 -22  -2  10  393.14   14.54
 -22  -2  10  376.37   14.09
 -22  -2  12  398.33   14.69
 -22  -2  12  437.27   15.95
 -22  -2  13  267.63   10.68
 -22  -2  13  252.27   10.09
 -22  -2  14   36.87    3.56
 -22  -2  14   36.64    4.23
 -22  -2  15   25.74    3.71
 -23  -2  -2   81.89    5.49
  23   2   2   71.43    5.27
 -23  -2  -1   31.01    4.23
  23   2   1   31.08    3.78
 -23  -2   0    8.16    3.49
  23   2   0    9.42    3.93
 -23  -2   1  627.98   21.73
  23   2  -1  642.96   22.25
 -23  -2   2    3.86    3.63
  23   2  -2    5.34    3.71
 -23  -2   3   46.06    4.08
  23   2  -3   48.51    4.45
 -23  -2   4   37.76    3.56
  23   2  -4   39.46    4.08
 -23  -2   5  416.06   14.76
  23   2  -5  452.40   16.17
 -23  -2   6    1.04    3.04
  23   2  -6   -6.23    3.34
 -23  -2   7  203.91    8.23
  23   2  -7  195.75    8.31
 -23  -2   8   82.04    4.90
 -23  -2   8   74.10    4.90
 -23  -2   9  103.85    5.34
 -23  -2   9  110.37    6.16
 -22   3  11  351.89   13.20
 -22   3  11  351.52   13.28
 -22   3  10  316.81   11.94
 -22   3  10  312.28   11.94
 -22   3   9   65.20    4.82
 -22   3   9   66.09    4.97
 -22   3   8  462.57   16.84
 -22   3   8  407.82   14.84
  22  -3  -7  224.09    9.35
 -22   3   7  222.53    9.20
  22  -3  -6  143.31    7.05
 -22   3   6  129.81    6.60
  22  -3  -5   10.16    4.23
 -22   3   5   13.72    3.78
  22  -3  -4  543.27   19.51
 -22   3   4  601.65   20.99
  22  -3  -3  126.40    6.90
 -22   3   3  116.90    5.93
  22  -3  -2   20.40    4.45
 -22   3   2   24.33    3.49
  22  -3  -1    8.38    4.23
 -22   3   1   15.43    3.71
  22  -3   0  490.90   17.80
 -22   3   0  461.90   16.54
  22  -3   1  103.11    6.01
 -22   3  -1  104.22    5.79
  22  -3   2   10.38    4.15
 -22   3  -2    5.56    3.34
  22  -3   3   90.50    6.08
 -22   3  -3   78.03    4.75
  22  -3   4  343.59   13.57
 -22   3  -4  362.65   13.43
 -21   3  15  377.19   13.95
 -21   3  15  415.46   15.13
 -21   3  14   17.36    3.93
 -21   3  14    5.56    3.49
 -21   3  12  138.49    6.90
 -21   3  12  136.48    7.05
 -21   3  11  524.21   18.92
 -21   3  11  524.80   18.62
 -21   3  10   19.51    4.30
 -21   3  10   10.46    3.63
 -21   3   9  186.41    8.23
 -21   3   9  193.75    8.68
 -21   3   8   -1.04    3.56
 -21   3   8    8.60    4.01
  21  -3  -7  275.12   11.27
 -21   3   7  283.80   11.13
  21  -3  -6   35.75    4.67
 -21   3   6   40.72    4.38
  21  -3  -5  468.65   17.28
 -21   3   5  470.35   17.06
  21  -3  -4  263.55   10.90
 -21   3   4  255.54   10.38
  21  -3  -3   88.86    6.16
 -21   3   3   82.41    5.49
  21  -3  -2    8.98    4.30
 -21   3   2   12.91    3.86
  21  -3  -1  677.60   23.81
 -21   3   1  673.37   23.44
  21  -3   0   31.08    4.75
 -21   3   0   27.15    4.15
  21  -3   1   30.26    4.60
 -21   3  -1   30.78    4.08
  21  -3   2   22.77    4.52
 -21   3  -2   18.47    3.93
  21  -3   3  494.91   17.88
 -21   3  -3  501.80   17.88
  21  -3   4   72.54    5.49
 -21   3  -4   72.92    4.97
  21  -3   5   16.17    4.45
 -21   3  -5   29.23    3.93
  21  -3   6   56.23    5.19
 -21   3  -6   67.20    5.04
  21  -3   7  681.24   23.66
 -21   3  -7  716.47   24.55
  21  -3   8  144.57    7.34
 -21   3  -8  150.58    7.27
 -21   3  -9   43.54    4.38
 -20   3  18   37.46    4.15
 -20   3  18   32.71    4.30
 -20   3  17  127.21    6.38
 -20   3  17  134.04    6.97
 -20   3  16  508.78   18.02
 -20   3  16  499.43   18.02
 -20   3  15    4.08    3.93
 -20   3  15    1.48    3.63
 -20   3  14  141.90    7.27
 -20   3  14  154.58    7.27
 -20   3  13   61.64    5.27
 -20   3  13   58.67    4.45
 -20   3  12  441.50   16.32
 -20   3  12  413.39   15.28
 -20   3  11  117.27    6.75
 -20   3  11   95.98    5.93
 -20   3  10  953.17   32.49
 -20   3  10 1043.66   35.16
 -20   3   9 1036.25   34.94
 -20   3   9  979.13   33.45
  20  -3  -7  296.26   11.87
 -20   3   7  347.44   13.35
  20  -3  -6  401.74   15.13
 -20   3   6  453.07   16.69
  20  -3  -5   -0.15    3.86
 -20   3   5    5.71    3.78
  20  -3  -4  502.25   18.40
 -20   3   4  490.46   17.88
  20  -3  -3   32.86    4.82
 -20   3   3   26.33    4.30
  20  -3  -2  405.23   15.35
 -20   3   2  415.31   15.43
  20  -3  -1  304.35   12.16
 -20   3   1  299.52   11.94
  20  -3   0   53.33    5.19
 -20   3   0   52.74    4.75
  20  -3   1   40.57    4.97
 -20   3  -1   48.73    4.67
  20  -3   2  531.92   19.36
 -20   3  -2  545.87   19.51
  20  -3   3  163.41    8.16
 -20   3  -3  162.08    7.86
  20  -3   4   48.36    5.12
 -20   3  -4   40.95    4.82
  20  -3   5  209.40    9.49
 -20   3  -5  190.11    8.60
  20  -3   6  862.67   29.74
 -20   3  -6  851.55   29.00
  20  -3   7    5.19    4.30
 -20   3  -7   -2.97    3.34
  20  -3   8   86.79    6.23
 -20   3  -8   83.52    5.04
  20  -3   9    6.75    4.38
 -20   3  -9    2.37    3.41
  20  -3  10  652.98   22.85
 -20   3 -10  619.75   21.59
  20  -3  11  471.99   17.21
 -20   3 -11  439.79   15.95
  20  -3  12  462.42   16.84
 -20   3 -12  484.74   17.36
 -19   3  21  356.72   13.87
 -19   3  20   21.88    3.93
 -19   3  20   12.61    4.23
 -19   3  19   97.76    5.79
 -19   3  19  104.81    6.31
 -19   3  18   35.38    4.67
 -19   3  18   35.23    4.30
 -19   3  17  405.82   15.21
 -19   3  17  439.05   15.95
 -19   3  16   45.47    4.90
 -19   3  16   47.77    4.52
 -19   3  15  141.16    7.34
 -19   3  15  127.66    6.82
 -19   3  14  248.79   10.46
 -19   3  14  256.50   10.83
 -19   3  13  495.50   18.17
 -19   3  13  493.35   17.95
 -19   3  11  126.77    6.97
 -19   3  11  121.58    6.75
 -19   3  10    1.93    3.63
 -19   3  10    6.31    3.78
 -19   3   9  502.25   18.17
 -19   3   9  524.58   19.14
 -19   3   8    5.79    3.63
 -19   3   8   12.46    3.34
  19  -3  -7  161.48    7.86
 -19   3   7  174.54    8.01
  19  -3  -6  426.44   15.87
 -19   3   6  461.75   16.84
  19  -3  -5  417.09   15.73
 -19   3   5  432.52   15.95
  19  -3  -4  885.67   30.56
 -19   3   4  881.96   30.19
  19  -3  -3  836.71   29.00
 -19   3   3  834.49   28.71
  19  -3  -2  199.68    9.12
 -19   3   2  185.00    8.46
  19  -3  -1  170.01    8.38
 -19   3   1  182.47    8.46
  19  -3   0  108.22    6.75
 -19   3   0  110.97    6.45
  19  -3   1  742.51   26.04
 -19   3  -1  774.40   26.93
  19  -3   2  150.88    8.09
 -19   3  -2  150.43    7.49
  19  -3   3    9.79    4.45
 -19   3  -3   11.72    3.93
  19  -3   4   22.92    4.75
 -19   3  -4   22.03    4.15
  19  -3   5  812.23   28.19
 -19   3  -5  829.29   28.48
  19  -3   6  198.57    9.27
 -19   3  -6  213.48    9.35
  19  -3   7   39.39    4.90
 -19   3  -7   31.53    4.60
  19  -3   8  199.98    9.20
 -19   3  -8  199.31    9.05
  19  -3   9  196.72    9.35
 -19   3  -9  213.41    9.49
  19  -3  10    8.31    4.90
 -19   3 -10    7.42    4.30
  19  -3  11  160.74    8.16
 -19   3 -11  165.34    8.01
  19  -3  12  131.96    7.49
 -19   3 -12  125.14    6.38
  19  -3  13  167.94    8.31
 -19   3 -13  166.97    7.42
  19  -3  14   14.46    4.45
 -19   3 -14   19.81    3.71
 -18   3  22  519.38   18.40
 -18   3  22  519.90   18.54
 -18   3  21   52.52    5.19
 -18   3  21   52.00    4.82
 -18   3  20   63.94    5.27
 -18   3  20   57.71    5.04
 -18   3  19   60.45    4.97
 -18   3  19   63.87    5.34
 -18   3  18  569.82   20.47
 -18   3  18  564.78   20.10
 -18   3  17    1.11    3.86
 -18   3  17    2.15    3.71
 -18   3  16   99.25    6.31
 -18   3  16   91.68    5.86
 -18   3  15   65.79    5.19
 -18   3  15   71.58    5.41
 -18   3  14  751.41   26.33
 -18   3  14  763.28   26.63
 -18   3  13  298.34   12.02
 -18   3  13  342.03   13.28
 -18   3  12  603.13   21.44
 -18   3  12  631.47   22.40
 -18   3  11 1232.81   41.32
 -18   3  11 1206.11   40.57
 -18   3  10  155.18    7.49
 -18   3  10  134.48    6.90
 -18   3   9   51.33    4.75
 -18   3   9   64.01    4.97
  18  -3  -7   29.45    4.45
 -18   3   7   44.58    4.60
  18  -3  -6    9.20    4.08
 -18   3   6   15.65    4.01
  18  -3  -5   14.69    4.15
 -18   3   5   10.53    3.86
  18  -3  -4  637.33   22.70
 -18   3   4  600.53   21.44
  18  -3  -3  133.30    7.27
 -18   3   3  141.68    7.12
  18  -3  -2    3.56    4.01
 -18   3   2   -4.90    3.19
  18  -3  -1  179.88    8.60
 -18   3   1  172.83    8.01
  18  -3   0 1209.82   40.80
 -18   3   0 1246.17   41.76
  18  -3   1   39.98    4.90
 -18   3  -1   43.47    4.38
  18  -3   2   25.29    4.75
 -18   3  -2    6.68    3.19
  18  -3   3    6.82    4.30
 -18   3  -3   -4.60    3.12
  18  -3   4  652.83   23.22
 -18   3  -4  621.75   22.03
  18  -3   5  287.88   11.94
 -18   3  -5  304.94   12.09
  18  -3   6   14.17    4.67
 -18   3  -6   20.40    4.23
  18  -3   7   91.16    6.45
 -18   3  -7  100.66    6.38
  18  -3   8  529.10   19.29
 -18   3  -8  553.13   19.88
  18  -3   9   60.08    5.79
 -18   3  -9   66.39    5.49
  18  -3  10  227.05   10.09
 -18   3 -10  248.27   10.61
  18  -3  11   52.81    5.71
 -18   3 -11   47.32    5.12
  18  -3  12  873.80   30.19
 -18   3 -12  820.39   28.11
  18  -3  13  158.22    8.38
 -18   3 -13  164.67    7.71
  18  -3  14   94.28    6.31
 -18   3 -14  110.82    5.71
  18  -3  15  478.81   17.51
 -18   3 -15  498.10   17.80
  18  -3  16  185.74    8.68
 -18   3 -16  198.35    8.83
 -18   3 -17  289.66   11.65
 -17   3  24    5.86    3.49
 -17   3  24    7.49    4.01
 -17   3  23  492.90   17.88
 -17   3  23  547.57   19.29
 -17   3  21   29.30    4.67
 -17   3  21   25.29    4.15
 -17   3  20  179.66    8.38
 -17   3  20  178.39    8.38
 -17   3  19  600.61   21.51
 -17   3  19  598.16   21.29
 -17   3  18   17.95    4.45
 -17   3  18   26.56    4.38
 -17   3  17  133.00    7.20
 -17   3  17  110.60    6.60
 -17   3  16  179.28    8.53
 -17   3  16  188.41    8.75
 -17   3  15  702.23   24.55
 -17   3  15  625.68   22.18
 -17   3  14   53.26    5.04
 -17   3  14   51.18    4.67
 -17   3  13  162.67    8.09
 -17   3  13  183.88    8.38
 -17   3  12  491.72   18.02
 -17   3  12  461.53   17.13
 -17   3  11   87.31    5.64
 -17   3  11   98.06    6.16
 -17   3  10  119.35    6.82
 -17   3  10  113.86    6.60
 -17   3   9  778.85   27.30
 -17   3   9  770.69   26.78
  17  -3  -8  389.06   14.91
 -17   3   8  381.71   14.46
  17  -3  -7  256.65   10.76
 -17   3   7  235.81    9.87
  17  -3  -6   50.51    4.82
 -17   3   6   50.74    4.52
  17  -3  -5 1091.14   37.01
 -17   3   5 1143.80   38.50
  17  -3  -4  507.74   18.54
 -17   3   4  522.20   18.84
  17  -3  -3   98.14    6.16
 -17   3   3  101.33    6.16
  17  -3  -2  258.51   10.83
 -17   3   2  258.43   10.68
  17  -3  -1 1063.69   36.12
 -17   3   1 1125.26   38.13
  17  -3   0   98.88    6.45
 -17   3   0   94.20    5.93
  17  -3   1   35.38    4.82
 -17   3  -1   38.57    4.15
  17  -3   2   25.59    4.82
 -17   3  -2   35.75    4.67
  17  -3   3  745.47   26.18
 -17   3  -3  718.18   25.37
  17  -3   4   62.31    5.56
 -17   3  -4   66.17    5.19
  17  -3   5  120.46    7.27
 -17   3  -5  124.39    6.90
  17  -3   6   21.36    4.75
 -17   3  -6   14.69    4.30
  17  -3   7  584.36   21.21
 -17   3  -7  578.35   20.99
  17  -3   8  125.43    7.42
 -17   3  -8  120.76    7.20
  17  -3   9   33.90    5.04
 -17   3  -9   40.72    5.04
  17  -3  10  778.11   27.30
 -17   3 -10  845.61   29.30
  17  -3  11  278.68   11.65
 -17   3 -11  290.55   11.94
  17  -3  12  246.12   10.68
 -17   3 -12  246.27   10.53
  17  -3  13   91.24    6.82
 -17   3 -13   89.46    6.23
  17  -3  14   13.80    5.12
 -17   3 -14   18.32    4.15
  17  -3  15  527.10   19.43
 -17   3 -15  491.05   17.73
  17  -3  16    8.38    4.90
 -17   3 -16    6.68    3.71
  17  -3  17  157.18    8.23
 -17   3 -17  137.23    7.05
  17  -3  18  137.82    7.20
 -17   3 -18  147.54    7.20
 -16   3  25  111.04    6.53
 -16   3  25  107.26    6.08
 -16   3  23  158.81    8.01
 -16   3  23  141.60    7.12
 -16   3  22   78.40    5.79
 -16   3  22   99.69    6.23
 -16   3  21  197.24    8.90
 -16   3  21  187.82    8.90
 -16   3  20  784.05   27.22
 -16   3  20  752.89   26.18
 -16   3  19   64.39    5.27
 -16   3  19   60.45    5.19
 -16   3  17  155.40    7.57
 -16   3  17  176.32    8.31
 -16   3  16  430.08   16.17
 -16   3  16  455.37   16.69
 -16   3  15   28.78    4.30
 -16   3  15   29.00    4.38
 -16   3  14  374.96   14.39
 -16   3  14  372.14   14.39
 -16   3  13   47.62    4.97
 -16   3  13   52.44    5.04
 -16   3  11   56.23    4.90
 -16   3  11   54.07    4.75
 -16   3  10 1698.64   56.37
 -16   3  10 1651.91   54.74
 -16   3   9   28.19    4.23
 -16   3   9   26.78    3.93
  16  -3  -8  243.89   10.53
 -16   3   8  216.08    9.27
  16  -3  -7  626.79   22.33
 -16   3   7  624.49   22.03
  16  -3  -6 1009.54   34.49
 -16   3   6  972.45   33.01
  16  -3  -5  364.65   14.17
 -16   3   5  380.45   14.46
  16  -3  -4  161.56    8.16
 -16   3   4  141.16    7.20
  16  -3  -3    0.15    3.93
 -16   3   3    4.38    3.71
  16  -3  -2 1021.41   35.01
 -16   3   2  982.10   33.68
  16  -3  -1  991.00   33.97
 -16   3   1  984.32   33.75
  16  -3   0   15.43    4.38
 -16   3   0    9.94    3.71
  16  -3   1   -1.34    4.08
 -16   3  -1    0.52    3.78
  16  -3   2  534.07   19.51
 -16   3  -2  537.85   19.58
  16  -3   3  382.08   14.98
 -16   3  -3  392.39   15.21
  16  -3   4   12.83    4.60
 -16   3  -4   15.65    4.30
  16  -3   5   88.20    6.08
 -16   3  -5   98.21    6.16
  16  -3   6 1059.98   36.27
 -16   3  -6 1025.12   35.01
  16  -3   7   35.60    5.04
 -16   3  -7   27.74    4.90
  16  -3   8    0.82    4.82
 -16   3  -8    7.79    4.45
  16  -3   9   40.65    5.49
 -16   3  -9   49.92    5.12
  16  -3  10 1245.42   42.06
 -16   3 -10 1146.03   38.87
  16  -3  11  457.82   17.43
 -16   3 -11  451.59   16.76
  16  -3  12  707.42   25.00
 -16   3 -12  705.57   24.63
  16  -3  13  502.32   18.69
 -16   3 -13  479.18   17.58
  16  -3  14  378.30   14.91
 -16   3 -14  391.95   14.98
  16  -3  15   60.75    6.01
 -16   3 -15   69.73    5.93
  16  -3  16  525.10   19.29
 -16   3 -16  530.66   19.14
  16  -3  17    5.27    4.67
 -16   3 -17    7.34    3.19
  16  -3  18  331.12   12.98
 -16   3 -18  320.37   12.31
  16  -3  19    0.15    4.45
 -16   3 -19   -1.71    4.01
  16  -3  20  460.04   16.76
 -16   3 -20  462.27   16.47
 -15   3  27    3.26    4.52
 -15   3  26   35.60    4.30
 -15   3  26   38.79    4.52
 -15   3  25  717.44   24.92
 -15   3  25  652.46   22.62
 -15   3  24    1.63    3.71
 -15   3  24    8.90    4.08
 -15   3  23   13.28    4.45
 -15   3  23    4.97    4.08
 -15   3  22   71.21    5.86
 -15   3  22   84.71    5.86
 -15   3  21  734.79   25.74
 -15   3  21  716.17   25.00
 -15   3  20   65.05    5.41
 -15   3  20   69.87    5.49
 -15   3  19  212.44    9.42
 -15   3  19  202.58    9.05
 -15   3  18  198.42    9.05
 -15   3  18  174.46    8.01
 -15   3  17  410.79   15.35
 -15   3  17  397.07   14.98
 -15   3  16  150.88    7.64
 -15   3  16  167.49    8.16
 -15   3  15   83.82    5.49
 -15   3  15   89.09    6.08
 -15   3  14  716.10   25.07
 -15   3  14  695.33   24.48
 -15   3  13 1393.78   46.51
 -15   3  13 1418.26   47.47
 -15   3  12    7.42    3.71
 -15   3  12   12.54    3.41
 -15   3  11   14.69    3.86
 -15   3  11   14.39    3.41
 -15   3  10  291.51   11.79
 -15   3  10  291.14   11.72
 -15   3   9  213.41    9.42
 -15   3   9  216.82    9.35
 -15   3   8  628.94   22.40
 -15   3   8  715.14   25.07
  15  -3  -7   28.93    4.23
 -15   3   7   32.19    4.45
  15  -3  -6  974.68   33.38
 -15   3   6 1017.70   34.71
  15  -3  -5   18.54    4.30
 -15   3   5   20.84    3.93
  15  -3  -4  764.76   26.70
 -15   3   4  729.75   25.52
  15  -3  -3  640.37   22.85
 -15   3   3  648.53   22.99
  15  -3  -2   16.24    4.23
 -15   3   2   16.32    4.08
  15  -3  -1   41.39    4.97
 -15   3   1   39.09    4.30
  15  -3   0   46.36    5.19
 -15   3   0   50.89    4.82
  15  -3   1 1045.15   35.83
 -15   3  -1 1002.87   34.20
  15  -3   2  370.66   14.46
 -15   3  -2  403.89   15.35
  15  -3   3    9.05    4.30
 -15   3  -3    1.34    3.41
  15  -3   4   44.58    5.19
 -15   3  -4   45.03    4.60
  15  -3   5 1193.50   40.43
 -15   3  -5 1091.88   36.79
  15  -3   6  258.36   11.35
 -15   3  -6  246.79   10.61
  15  -3   7    6.82    4.67
 -15   3  -7    7.20    4.08
  15  -3   8  348.70   13.95
 -15   3  -8  333.05   13.06
  15  -3   9  579.76   21.07
 -15   3  -9  568.49   20.32
  15  -3  10  468.65   17.80
 -15   3 -10  473.77   17.51
  15  -3  11  114.75    7.34
 -15   3 -11  133.37    7.20
  15  -3  12  130.11    7.79
 -15   3 -12  138.71    7.27
  15  -3  13  584.29   21.21
 -15   3 -13  576.20   20.62
  15  -3  14  138.41    7.79
 -15   3 -14  128.40    6.97
  15  -3  15   61.64    5.93
 -15   3 -15   52.37    4.90
  15  -3  16  311.47   12.83
 -15   3 -16  312.43   12.31
  15  -3  17  316.81   12.83
 -15   3 -17  332.39   13.06
  15  -3  18   20.18    4.90
 -15   3 -18   14.02    4.67
  15  -3  19  232.47   10.53
 -15   3 -19  236.40    9.94
  15  -3  20  382.23   14.46
 -15   3 -20  349.45   12.98
  15  -3  21  209.25    9.35
 -15   3 -21  206.14    8.98
  15  -3  22    7.94    4.23
 -15   3 -22    7.57    3.63
 -14   3  28  120.31    6.97
 -14   3  27   30.49    4.82
 -14   3  27   39.68    4.75
 -14   3  26  476.29   17.36
 -14   3  26  436.23   15.95
 -14   3  25  180.25    8.60
 -14   3  25  173.57    8.23
 -14   3  24    4.45    4.30
 -14   3  24   15.06    4.30
 -14   3  23  310.13   12.39
 -14   3  23  292.92   12.16
 -14   3  21   14.39    4.60
 -14   3  21   14.54    4.23
 -14   3  20  140.34    7.27
 -14   3  20  139.45    7.49
 -14   3  19  339.80   13.13
 -14   3  19  301.08   12.02
 -14   3  17   15.80    3.93
 -14   3  17   17.95    4.23
 -14   3  15   36.72    4.45
 -14   3  15   36.49    4.08
 -14   3  14  653.27   22.85
 -14   3  14  616.18   21.81
 -14   3  13    6.01    3.56
 -14   3  13    3.26    3.63
 -14   3  12  350.48   13.50
 -14   3  12  369.18   14.02
 -14   3  11  383.94   14.54
 -14   3  11  421.17   15.65
 -14   3  10  454.70   16.84
 -14   3  10  470.65   17.21
 -14   3   9  256.80   10.68
 -14   3   9  270.45   11.20
 -14   3   8 2068.78   68.24
 -14   3   8 2090.30   68.98
  14  -3  -7   80.04    5.41
 -14   3   7   83.67    5.71
  14  -3  -6  623.45   22.18
 -14   3   6  586.22   20.99
  14  -3  -5  239.29   10.38
 -14   3   5  246.64   10.46
  14  -3  -4 2246.07   73.88
 -14   3   4 2269.80   74.55
  14  -3  -3  457.60   16.91
 -14   3   3  457.67   16.84
  14  -3  -2  100.66    6.23
 -14   3   2  113.56    6.23
  14  -3  -1    4.01    3.93
 -14   3   1    3.71    3.26
  14  -3   0 1786.17   59.27
 -14   3   0 1807.68   59.56
  14  -3   1  245.67   10.76
 -14   3  -1  236.03    9.79
  14  -3   2   31.45    4.75
 -14   3  -2   37.98    4.30
  14  -3   3  217.63   10.09
 -14   3  -3  202.21    8.83
  14  -3   4 1493.92   50.07
 -14   3  -4 1463.50   48.73
  14  -3   5  120.54    7.42
 -14   3  -5  112.38    6.53
  14  -3   6   18.54    4.75
 -14   3  -6   23.96    4.15
  14  -3   7  430.37   16.47
 -14   3  -7  429.70   15.87
  14  -3   8 2129.61   70.32
 -14   3  -8 2285.38   74.92
  14  -3   9  176.32    8.75
 -14   3  -9  159.03    7.94
  14  -3  10   57.93    6.01
 -14   3 -10   54.96    4.82
  14  -3  11  450.03   17.06
 -14   3 -11  441.42   16.17
  14  -3  12 2111.81   69.80
 -14   3 -12 2070.27   68.17
  14  -3  13    5.41    4.38
 -14   3 -13    3.19    3.12
  14  -3  14  134.11    7.71
 -14   3 -14  140.27    7.05
  14  -3  15  617.00   22.33
 -14   3 -15  593.78   21.36
  14  -3  16  533.55   19.73
 -14   3 -16  528.36   19.29
  14  -3  17    7.49    4.60
 -14   3 -17   16.99    4.97
  14  -3  18  259.02   11.27
 -14   3 -18  262.96   11.27
  14  -3  19   33.90    5.34
 -14   3 -19   30.12    3.71
  14  -3  20  431.19   16.24
 -14   3 -20  438.83   16.10
  14  -3  21   -3.34    4.67
 -14   3 -21   -0.07    4.08
  14  -3  22  307.02   12.02
 -14   3 -22  300.12   11.42
  14  -3  23  125.28    6.90
 -14   3 -23  112.08    6.08
 -13   3  28  456.41   16.84
 -13   3  28  427.11   15.58
 -13   3  27  109.78    6.75
 -13   3  27  130.03    6.97
 -13   3  26    9.87    4.60
 -13   3  26   14.69    4.23
 -13   3  25    4.75    4.45
 -13   3  25   12.54    4.67
 -13   3  24   62.61    5.64
 -13   3  24   68.39    5.71
 -13   3  23  809.27   28.19
 -13   3  23  890.86   30.71
 -13   3  21   65.72    5.04
 -13   3  21   57.93    4.97
 -13   3  20  570.34   20.40
 -13   3  20  572.49   20.62
 -13   3  19  421.99   15.73
 -13   3  19  465.90   17.28
 -13   3  18   76.25    5.56
 -13   3  18   81.74    5.79
 -13   3  17   24.92    4.15
 -13   3  17   32.04    4.23
 -13   3  16  262.21   10.83
 -13   3  16  249.83   10.16
 -13   3  15 1013.25   34.49
 -13   3  15  997.67   33.82
 -13   3  14   10.53    3.71
 -13   3  14   13.13    3.71
 -13   3  13  360.05   13.87
 -13   3  13  348.33   13.43
 -13   3  12  283.13   11.50
 -13   3  12  263.33   11.05
 -13   3  11  220.75    9.79
 -13   3  11  205.62    9.12
 -13   3  10  219.56    9.64
 -13   3  10  235.58    9.94
 -13   3   9 2119.22   69.80
 -13   3   9 2041.34   67.13
 -13   3   8  971.71   33.08
 -13   3   8 1013.99   34.42
  13  -3  -7  171.42    8.16
 -13   3   7  182.55    8.23
  13  -3  -6    6.38    3.56
 -13   3   6    7.94    3.19
  13  -3  -5 1386.36   46.43
 -13   3   5 1342.60   44.80
  13  -3  -4  178.91    8.31
 -13   3   4  177.36    8.01
  13  -3  -3  408.49   15.35
 -13   3   3  418.80   15.35
  13  -3  -2    0.82    3.71
 -13   3   2    0.00    3.12
  13  -3  -1 1693.45   56.23
 -13   3   1 1654.88   54.67
  13  -3   0  115.12    6.90
 -13   3   0  106.59    5.86
  13  -3   1   72.25    5.71
 -13   3  -1   86.64    5.34
  13  -3   2  203.84    9.35
 -13   3  -2  192.78    8.53
  13  -3   3 1759.47   58.45
 -13   3  -3 1858.86   61.34
  13  -3   4   52.15    5.49
 -13   3  -4   47.55    4.45
  13  -3   5    0.52    4.60
 -13   3  -5    4.90    3.41
  13  -3   6   15.35    4.60
 -13   3  -6    8.98    3.93
  13  -3   7 1556.97   52.07
 -13   3  -7 1529.52   51.03
  13  -3   8  761.05   26.85
 -13   3  -8  780.34   27.37
  13  -3   9   83.45    6.45
 -13   3  -9   98.65    6.60
  13  -3  10  110.30    7.12
 -13   3 -10  102.73    6.23
  13  -3  11  472.95   18.02
 -13   3 -11  463.01   17.21
  13  -3  12   56.37    5.79
 -13   3 -12   57.04    4.82
  13  -3  13  667.14   23.88
 -13   3 -13  634.06   22.55
  13  -3  14  317.25   13.20
 -13   3 -14  309.09   12.46
  13  -3  15  263.92   11.50
 -13   3 -15  267.93   11.35
  13  -3  16   78.11    6.53
 -13   3 -16   85.67    6.53
  13  -3  17  897.54   31.15
 -13   3 -17  924.98   32.04
  13  -3  18  318.81   13.06
 -13   3 -18  337.73   13.65
  13  -3  19  358.35   14.46
 -13   3 -19  363.61   13.95
  13  -3  20  258.95   11.13
 -13   3 -20  248.94   10.68
  13  -3  21  498.02   18.40
 -13   3 -21  464.05   17.06
  13  -3  22  249.75   10.68
 -13   3 -22  248.49   10.09
  13  -3  23  157.92    7.86
 -13   3 -23  155.03    7.64
  13  -3  24   22.33    4.90
 -13   3 -24   27.82    4.08
 -12   3  29  176.24    8.16
 -12   3  29  181.88    8.31
 -12   3  28  510.19   18.62
 -12   3  28  484.00   17.43
 -12   3  27  276.46   11.57
 -12   3  27  262.29   10.76
 -12   3  26   -0.37    4.45
 -12   3  26    5.19    4.38
 -12   3  25  426.74   16.10
 -12   3  25  481.03   17.80
 -12   3  24  475.25   17.58
 -12   3  24  499.36   18.40
 -12   3  23   14.76    4.38
 -12   3  23   17.43    4.67
 -12   3  22   27.67    4.75
 -12   3  22   20.55    4.52
 -12   3  21  597.49   21.44
 -12   3  21  539.86   19.58
 -12   3  20  858.96   29.74
 -12   3  20  811.49   28.04
 -12   3  19   25.15    4.52
 -12   3  19   33.60    4.60
 -12   3  18  195.53    8.98
 -12   3  18  200.20    8.83
 -12   3  17  136.63    6.97
 -12   3  17  151.17    7.49
 -12   3  16 1088.17   36.79
 -12   3  16 1054.05   35.60
 -12   3  15  539.78   19.43
 -12   3  15  526.21   19.14
 -12   3  14  522.05   18.84
 -12   3  14  543.64   19.73
 -12   3  13    8.90    3.56
 -12   3  13    1.11    3.78
 -12   3  12 2435.96   79.74
 -12   3  12 2261.64   74.32
 -12   3  11  312.65   12.46
 -12   3  11  341.29   13.06
 -12   3  10   89.38    5.49
 -12   3  10  103.77    6.23
 -12   3   9   79.81    5.27
 -12   3   9   71.21    4.90
 -12   3   8 1579.96   52.44
 -12   3   8 1673.42   55.41
  12  -3  -7  121.06    6.45
 -12   3   7  124.32    6.31
  12  -3  -6  395.44   14.84
 -12   3   6  371.33   13.80
  12  -3  -5  191.00    8.46
 -12   3   5  172.83    7.57
  12  -3  -4   84.34    5.56
 -12   3   4   87.83    5.04
  12  -3  -3    4.75    3.71
 -12   3   3    1.93    2.89
  12  -3  -2 1589.60   52.67
 -12   3   2 1542.87   51.03
  12  -3  -1  170.09    8.01
 -12   3   1  163.11    7.42
  12  -3   0  231.36    9.87
 -12   3   0  231.36    9.72
  12  -3   1  435.86   16.24
 -12   3  -1  436.53   16.02
  12  -3   2 1778.01   58.90
 -12   3  -2 1772.82   58.60
  12  -3   3  258.58   10.83
 -12   3  -3  247.16   10.24
  12  -3   4   75.29    5.71
 -12   3  -4   70.84    5.04
  12  -3   5  571.46   20.77
 -12   3  -5  604.24   21.51
  12  -3   6 1866.28   61.79
 -12   3  -6 1825.49   60.60
  12  -3   7   21.14    4.97
 -12   3  -7   25.00    4.15
  12  -3   8   14.39    4.45
 -12   3  -8   17.13    4.67
  12  -3   9    6.45    4.38
 -12   3  -9    7.71    4.38
  12  -3  10 2833.54   92.94
 -12   3 -10 2737.86   89.83
  12  -3  11  235.51   10.98
 -12   3 -11  231.73   10.38
  12  -3  12  132.85    7.64
 -12   3 -12  137.30    7.64
  12  -3  13  598.83   21.88
 -12   3 -13  618.63   22.48
  12  -3  14 1798.78   59.93
 -12   3 -14 1787.66   59.64
  12  -3  15   96.87    7.05
 -12   3 -15   97.76    6.45
  12  -3  16  224.09   10.53
 -12   3 -16  230.10   10.31
  12  -3  17   16.02    5.34
 -12   3 -17   10.61    4.38
  12  -3  18  520.87   19.29
 -12   3 -18  501.14   18.84
  12  -3  19   11.35    5.34
 -12   3 -19   15.35    4.52
  12  -3  20  531.55   19.43
 -12   3 -20  528.88   19.21
  12  -3  21  164.82    8.75
 -12   3 -21  162.08    8.38
  12  -3  22  246.79   10.53
 -12   3 -22  236.70   10.01
  12  -3  23   11.35    4.52
 -12   3 -23   12.98    4.23
  12  -3  24  404.93   15.21
 -12   3 -24  390.32   14.54
  12  -3  25  337.80   13.06
 -12   3 -25  332.76   12.61
 -11   3  30   74.10    4.75
 -11   3  30   58.01    5.27
 -11   3  29  434.16   16.17
 -11   3  29  400.63   14.98
 -11   3  28  101.25    6.68
 -11   3  28  101.84    6.31
 -11   3  27    7.64    4.38
 -11   3  27    5.41    4.45
 -11   3  26  105.48    6.53
 -11   3  26  105.78    6.82
 -11   3  25  704.68   24.63
 -11   3  25  701.41   24.77
 -11   3  24   51.33    5.04
 -11   3  24   46.06    5.04
 -11   3  23   56.08    4.90
 -11   3  23   69.73    5.41
 -11   3  22  361.91   14.17
 -11   3  22  407.38   15.43
 -11   3  21 1232.07   41.39
 -11   3  21 1224.66   41.39
 -11   3  20   -1.56    4.15
 -11   3  20   -4.67    3.93
 -11   3  19  286.02   11.57
 -11   3  19  275.34   11.13
 -11   3  18  137.97    7.27
 -11   3  18  145.39    7.42
 -11   3  17  642.22   22.62
 -11   3  17  662.55   23.29
 -11   3  16  250.27   10.38
 -11   3  16  238.03   10.16
 -11   3  15  845.61   29.15
 -11   3  15  922.01   31.75
 -11   3  14  627.90   22.25
 -11   3  14  640.81   22.55
 -11   3  13  673.82   23.59
 -11   3  13  647.34   22.85
 -11   3  12  541.34   19.36
 -11   3  12  603.28   21.59
 -11   3  11 1554.74   51.63
 -11   3  11 1510.98   50.22
 -11   3  10  818.17   28.04
 -11   3  10  782.56   27.00
 -11   3   9    8.60    3.19
 -11   3   9   12.46    3.19
 -11   3   8  211.40    8.83
 -11   3   8  204.95    8.83
 -11   3   7 2111.06   69.13
 -11   3   7 2021.31   66.39
  11  -3  -6 3047.91   99.25
 -11   3   6 3167.34  102.88
  11  -3  -5  296.11   11.65
 -11   3   5  288.40   11.35
  11  -3  -4 1266.94   42.35
 -11   3   4 1321.83   43.99
  11  -3  -3 1438.28   47.77
 -11   3   3 1396.00   46.36
  11  -3  -2  122.47    6.53
 -11   3   2  110.45    6.01
  11  -3  -1  588.37   20.84
 -11   3   1  638.14   22.40
  11  -3   0  726.56   25.22
 -11   3   0  703.49   24.33
  11  -3   1 2668.13   87.08
 -11   3  -1 2532.39   82.71
  11  -3   2   30.26    4.30
 -11   3  -2   19.51    4.08
  11  -3   3   53.63    4.82
 -11   3  -3   58.01    5.12
  11  -3   4  169.27    8.16
 -11   3  -4  158.07    7.94
  11  -3   5 1143.80   38.79
 -11   3  -5 1178.67   39.98
  11  -3   6  821.13   28.56
 -11   3  -6  807.04   28.19
  11  -3   7   24.92    4.38
 -11   3  -7   27.37    4.15
  11  -3   8 1345.56   45.32
 -11   3  -8 1265.45   42.95
  11  -3   9 1954.55   64.68
 -11   3  -9 1979.03   65.72
  11  -3  10  346.63   13.95
 -11   3 -10  345.37   14.02
  11  -3  11  532.74   19.66
 -11   3 -11  532.74   19.73
  11  -3  12  438.24   16.99
 -11   3 -12  453.81   17.51
  11  -3  13 1000.64   34.42
 -11   3 -13 1014.74   35.09
  11  -3  14  160.44    8.46
 -11   3 -14  165.86    8.68
  11  -3  15  255.32   11.27
 -11   3 -15  263.92   11.79
  11  -3  16  604.54   21.96
 -11   3 -16  616.33   22.48
  11  -3  17   97.62    7.12
 -11   3 -17  104.89    7.05
  11  -3  18   14.02    5.27
 -11   3 -18   20.77    3.86
  11  -3  19  247.53   10.83
 -11   3 -19  241.37   10.76
  11  -3  20  115.57    7.42
 -11   3 -20  137.37    7.42
  11  -3  21  212.29   10.01
 -11   3 -21  209.92    9.35
  11  -3  22   -2.97    4.90
 -11   3 -22   -4.67    4.52
  11  -3  23  495.72   18.25
 -11   3 -23  490.83   17.73
  11  -3  24  229.50   10.46
 -11   3 -24  240.55   10.24
  11  -3  25  109.19    6.82
 -11   3 -25  110.08    5.86
  11  -3  26   74.70    5.93
 -11   3 -26   72.03    5.41
 -10   3  30  875.28   29.82
 -10   3  30  867.87   29.52
 -10   3  29    1.26    4.67
 -10   3  29    2.97    4.38
 -10   3  28   11.35    4.67
 -10   3  28    9.27    4.60
 -10   3  27   13.35    3.49
 -10   3  27   13.06    4.75
 -10   3  25  449.96   16.99
 -10   3  25  457.00   17.06
 -10   3  24   69.65    5.49
 -10   3  24   74.18    6.01
 -10   3  23  227.28   10.09
 -10   3  23  230.39   10.31
 -10   3  22 1352.98   45.40
 -10   3  22 1426.42   47.77
 -10   3  21   31.82    4.82
 -10   3  21   34.20    4.67
 -10   3  20  262.59   10.90
 -10   3  20  280.24   11.20
 -10   3  19  151.39    7.34
 -10   3  19  152.14    7.57
 -10   3  18 1016.22   34.57
 -10   3  18 1034.76   35.09
 -10   3  17   20.25    4.01
 -10   3  17   27.96    4.45
 -10   3  16 1023.64   34.94
 -10   3  16  995.45   33.90
 -10   3  15   45.17    4.60
 -10   3  15   55.11    4.97
 -10   3  14  700.60   24.55
 -10   3  14  743.25   25.96
 -10   3  13  296.63   11.79
 -10   3  13  288.77   11.57
 -10   3  12  874.54   29.89
 -10   3  12  889.38   30.19
 -10   3  11  913.11   30.78
 -10   3  11  896.79   30.56
 -10   3  10 1574.77   52.07
 -10   3  10 1551.77   51.18
 -10   3   9  172.24    7.71
 -10   3   9  185.29    8.09
 -10   3   8 2446.34   79.89
 -10   3   8 2332.85   76.18
 -10   3   7    7.12    3.19
 -10   3   7    8.53    3.49
  10  -3  -6 1088.91   36.49
 -10   3   6 1140.09   38.20
  10  -3  -5   10.98    3.34
 -10   3   5    4.38    3.12
  10  -3  -4 1576.99   52.15
 -10   3   4 1561.42   51.70
  10  -3  -3  235.14    9.64
 -10   3   3  231.21    9.64
  10  -3  -2   17.58    3.78
 -10   3   2   19.29    3.93
  10  -3  -1  418.06   15.43
 -10   3   1  452.40   16.62
  10  -3   0 2412.96   78.92
 -10   3   0 2249.77   73.88
  10  -3   1   20.77    4.08
 -10   3  -1   14.54    3.71
  10  -3   2   -1.19    3.63
 -10   3  -2    9.12    3.86
  10  -3   3  721.37   25.15
 -10   3  -3  729.53   25.52
  10  -3   4 1625.21   54.00
 -10   3  -4 1657.85   54.96
  10  -3   5  175.87    8.38
 -10   3  -5  203.54    9.35
  10  -3   6   11.87    3.93
 -10   3  -6   11.50    4.23
  10  -3   7   39.68    5.12
 -10   3  -7   39.46    4.67
  10  -3   8  845.61   29.30
 -10   3  -8  823.36   28.85
  10  -3   9   50.66    5.12
 -10   3  -9   71.06    5.41
  10  -3  10  158.07    8.38
 -10   3 -10  195.31    9.49
  10  -3  11   99.47    6.90
 -10   3 -11  101.03    7.05
  10  -3  12   73.21    5.79
 -10   3 -12   62.61    5.86
  10  -3  13  377.04   15.06
 -10   3 -13  378.82   15.21
  10  -3  14  119.65    7.79
 -10   3 -14  115.49    7.64
  10  -3  15 1018.44   35.01
 -10   3 -15  979.13   33.75
  10  -3  16   95.69    7.05
 -10   3 -16  108.59    6.90
  10  -3  17   37.31    5.41
 -10   3 -17   37.98    4.90
  10  -3  18  882.70   30.78
 -10   3 -18  888.64   31.01
  10  -3  19  149.24    8.46
 -10   3 -19  147.17    7.79
  10  -3  20  324.23   13.50
 -10   3 -20  320.52   12.76
  10  -3  21   -4.23    5.04
 -10   3 -21   -0.15    4.23
  10  -3  22  478.51   18.02
 -10   3 -22  467.98   17.21
  10  -3  23  149.39    8.38
 -10   3 -23  145.09    8.01
  10  -3  24  110.08    7.34
 -10   3 -24  112.30    6.45
  10  -3  25    1.71    5.04
 -10   3 -25   -3.63    4.08
  10  -3  26  659.73   23.22
 -10   3 -26  708.98   24.55
  10  -3  27  328.97   12.83
 -10   3 -27  324.37   12.24
  -9   3  31  331.27   12.68
  -9   3  31  315.25   12.02
  -9   3  30  251.46   10.76
  -9   3  30  253.76   10.46
  -9   3  29   86.42    6.45
  -9   3  29   78.70    5.79
  -9   3  28  181.44    8.68
  -9   3  28  164.30    8.23
  -9   3  27  832.26   28.85
  -9   3  27  883.44   30.41
  -9   3  26   72.03    5.79
  -9   3  26   76.48    6.01
  -9   3  25    0.82    3.71
  -9   3  25   -0.89    4.08
  -9   3  24    3.86    4.30
  -9   3  24   -1.04    4.30
  -9   3  23 1332.21   44.80
  -9   3  23 1467.21   49.10
  -9   3  22  128.62    7.34
  -9   3  22  156.07    8.09
  -9   3  21  167.86    8.31
  -9   3  21  158.89    7.79
  -9   3  20  152.58    7.71
  -9   3  20  163.56    8.01
  -9   3  19 1051.82   35.60
  -9   3  19 1059.98   35.83
  -9   3  18   92.57    5.93
  -9   3  18   93.31    6.31
  -9   3  15 1253.58   42.06
  -9   3  15 1203.89   40.65
  -9   3  14  439.50   16.17
  -9   3  14  399.81   14.91
  -9   3  13 1459.05   48.51
  -9   3  13 1542.87   50.96
  -9   3  12    1.04    3.34
  -9   3  12    5.19    3.19
  -9   3  11 1626.69   53.70
  -9   3  11 1755.02   57.71
  -9   3  10  720.77   24.77
  -9   3  10  719.81   24.70
  -9   3   9 1925.62   63.27
  -9   3   9 1894.47   62.09
  -9   3   8 2418.16   79.07
  -9   3   8 2306.15   75.22
  -9   3   7  188.11    8.01
  -9   3   7  206.29    8.46
   9  -3  -6   37.09    3.56
  -9   3   6   37.38    3.86
   9  -3  -5 1057.02   35.31
  -9   3   5 1082.24   36.20
   9  -3  -4  694.81   23.74
  -9   3   4  695.11   23.81
   9  -3  -3   35.83    3.63
  -9   3   3   46.58    4.15
   9  -3  -2  110.30    5.71
  -9   3   2  120.61    6.23
   9  -3  -1 2056.92   67.35
  -9   3   1 2093.26   68.61
   9  -3   0   61.20    4.67
  -9   3   0   57.78    4.52
   9  -3   1   11.05    3.63
  -9   3  -1    6.60    3.34
   9  -3   2  423.77   15.65
  -9   3  -2  462.57   16.91
   9  -3   3 1630.40   54.00
  -9   3  -3 1618.53   53.78
   9  -3   4  148.65    7.34
  -9   3  -4  155.25    7.79
   9  -3   5  316.66   12.61
  -9   3  -5  301.82   12.16
   9  -3   6   45.77    4.75
  -9   3  -6   44.95    4.82
   9  -3   7 1729.06   57.26
  -9   3  -7 1699.39   56.37
   9  -3   8 2100.68   69.21
  -9   3  -8 2133.32   70.47
   9  -3   9  982.10   33.68
  -9   3  -9 1039.96   35.60
   9  -3  10 1167.54   39.54
  -9   3 -10 1159.38   39.54
   9  -3  11 1971.61   65.28
  -9   3 -11 1878.89   62.38
   9  -3  12  124.32    7.34
  -9   3 -12  130.85    7.64
   9  -3  13 1632.63   54.52
  -9   3 -13 1624.47   54.22
   9  -3  14   52.59    5.86
  -9   3 -14   64.24    5.86
   9  -3  15 1229.11   41.76
  -9   3 -15 1201.66   40.80
   9  -3  16  229.80   10.24
  -9   3 -16  228.98   10.01
   9  -3  17  423.47   16.32
  -9   3 -17  450.18   16.91
   9  -3  18  864.16   30.26
  -9   3 -18  865.64   30.12
   9  -3  19  493.57   18.54
  -9   3 -19  468.57   17.28
   9  -3  20  256.43   11.27
  -9   3 -20  255.17   10.76
   9  -3  21  548.98   20.40
  -9   3 -21  567.38   20.32
   9  -3  22   70.39    6.45
  -9   3 -22   85.45    6.16
   9  -3  23  191.60    9.49
  -9   3 -23  201.24    8.83
   9  -3  24   61.86    6.08
  -9   3 -24   58.82    5.71
   9  -3  25  827.07   28.85
  -9   3 -25  847.10   29.08
   9  -3  26   16.54    5.12
  -9   3 -26   14.84    4.30
   9  -3  27    8.83    4.75
  -9   3 -27   23.44    4.30
   9  -3  28   41.91    4.67
  -9   3 -28   50.44    4.15
  -8   3  31    5.19    4.01
  -8   3  31   -1.63    4.08
  -8   3  30   46.21    5.41
  -8   3  30   55.41    5.49
  -8   3  29    0.22    4.30
  -8   3  29   -2.52    4.23
  -8   3  27  415.17   15.73
  -8   3  27  397.07   15.28
  -8   3  26   -1.93    4.45
  -8   3  26    0.30    4.08
  -8   3  25  196.27    8.98
  -8   3  25  187.82    8.83
  -8   3  24 1032.54   35.31
  -8   3  24 1052.57   35.98
  -8   3  23   87.38    6.23
  -8   3  23   94.87    6.38
  -8   3  22  349.37   13.65
  -8   3  22  385.94   14.54
  -8   3  21  125.28    6.97
  -8   3  21  110.23    6.53
  -8   3  20 1479.82   49.18
  -8   3  20 1347.79   45.03
  -8   3  19    2.15    3.78
  -8   3  19    2.74    4.01
  -8   3  18  598.83   21.36
  -8   3  18  598.75   21.51
  -8   3  16  534.89   19.51
  -8   3  16  482.67   17.58
  -8   3  15   21.88    4.08
  -8   3  15   13.50    3.86
  -8   3  13 1562.16   51.70
  -8   3  13 1436.06   47.55
  -8   3  12 1278.80   42.50
  -8   3  12 1348.53   44.80
  -8   3  11   -1.93    2.97
  -8   3  11    2.45    3.19
  -8   3  10  506.18   17.65
  -8   3  10  546.61   19.21
  -8   3   9 2027.25   66.31
  -8   3   9 2088.81   68.17
  -8   3   8  672.56   22.99
  -8   3   8  741.77   25.29
  -8   3   7  293.81   10.90
  -8   3   7  270.37   10.53
  -8   3   6 1280.29   42.21
  -8   3   6 1300.32   43.17
   8  -3  -5  437.86   15.50
  -8   3   5  475.84   16.99
   8  -3  -4    4.08    2.97
  -8   3   4    2.30    3.04
   8  -3  -3  218.60    8.60
  -8   3   3  224.98    9.27
   8  -3  -2 1723.86   56.45
  -8   3   2 1755.76   57.71
   8  -3  -1  504.70   17.73
  -8   3   1  491.35   17.51
   8  -3   0   95.69    5.34
  -8   3   0  109.71    5.79
   8  -3   1  365.76   13.43
  -8   3  -1  333.13   12.46
   8  -3   2 2085.84   68.17
  -8   3  -2 2157.80   70.62
   8  -3   3   53.63    4.38
  -8   3  -3   57.93    4.45
   8  -3   4  167.12    7.86
  -8   3  -4  159.03    7.27
   8  -3   5  386.83   14.54
  -8   3  -5  406.41   15.13
   8  -3   6 1035.50   35.16
  -8   3  -6 1059.98   35.98
   8  -3   7    5.71    4.08
  -8   3  -7   -2.97    3.26
   8  -3   8  664.77   23.44
  -8   3  -8  715.21   24.92
   8  -3   9   39.31    4.67
  -8   3  -9   45.32    4.52
   8  -3  10 1490.95   49.85
  -8   3 -10 1410.84   47.32
   8  -3  11  445.13   16.84
  -8   3 -11  421.77   16.17
   8  -3  12   86.12    6.31
  -8   3 -12   87.08    6.16
   8  -3  13 2061.37   68.17
  -8   3 -13 2117.74   69.87
   8  -3  14 1506.53   50.51
  -8   3 -14 1450.89   48.51
   8  -3  15  452.77   17.28
  -8   3 -15  453.81   16.99
   8  -3  16  546.98   20.10
  -8   3 -16  547.05   20.10
   8  -3  17  131.81    7.94
  -8   3 -17  132.26    6.75
   8  -3  18  226.46   10.01
  -8   3 -18  237.88   10.53
   8  -3  19    8.31    5.41
  -8   3 -19    6.23    3.71
   8  -3  20 1230.59   41.91
  -8   3 -20 1159.38   39.17
   8  -3  21    2.15    4.82
  -8   3 -21    9.87    3.19
   8  -3  22   91.90    6.45
  -8   3 -22   88.49    6.23
   8  -3  23    5.12    4.15
  -8   3 -23    0.22    3.78
   8  -3  24  926.47   31.90
  -8   3 -24  908.66   31.15
   8  -3  25   81.15    6.45
  -8   3 -25   82.04    6.01
   8  -3  26    2.82    5.34
  -8   3 -26   -0.37    3.71
   8  -3  27  142.86    7.94
  -8   3 -27  133.96    7.05
   8  -3  28  276.09   10.90
  -8   3 -28  274.97   10.98
   8  -3  29    2.37    4.60
  -8   3 -29    5.27    3.71
   7  -3 -32  176.76    8.60
  -7   3  32  180.32    8.09
   7  -3 -31    6.31    3.93
  -7   3  31    8.75    4.82
   7  -3 -30  126.99    6.90
  -7   3  30  118.24    6.68
   7  -3 -29 1169.76   39.39
  -7   3  29 1059.98   36.05
   7  -3 -28    6.01    3.71
  -7   3  28   -2.89    4.67
   7  -3 -27   23.44    4.38
  -7   3  27   21.59    4.45
   7  -3 -26   13.72    3.86
  -7   3  26   18.62    4.75
   7  -3 -25  936.11   32.04
  -7   3  25  909.40   31.38
   7  -3 -24  269.93   11.05
  -7   3  24  236.03   10.46
   7  -3 -23  258.43   10.90
  -7   3  23  242.19   10.61
   7  -3 -22    9.57    3.34
  -7   3  22   15.95    3.86
  -7   3  21 1076.30   36.42
  -7   3  21 1021.41   34.71
  -7   3  20   13.87    4.30
  -7   3  20    4.60    4.15
  -7   3  19  352.93   13.80
  -7   3  19  350.48   13.87
  -7   3  18  617.45   21.81
  -7   3  18  638.07   22.70
  -7   3  17  424.81   15.87
  -7   3  17  400.26   15.28
  -7   3  16   12.98    3.78
  -7   3  16    8.98    3.86
  -7   3  15  280.91   10.98
  -7   3  15  281.35   11.13
  -7   3  14  355.08   13.35
  -7   3  14  344.18   12.91
  -7   3  13  151.02    7.05
  -7   3  13  145.39    6.75
  -7   3  12  292.40   11.35
  -7   3  12  282.84   10.76
  -7   3  11 1187.57   39.54
  -7   3  11 1246.91   41.32
  -7   3  10  416.06   14.84
  -7   3  10  451.81   16.17
  -7   3   8  141.31    6.01
  -7   3   8  137.00    6.38
  -7   3   7 4287.41  138.27
  -7   3   7 4137.57  133.81
  -7   3   6  554.77   18.92
  -7   3   6  528.88   18.40
  -7   3   5  486.23   16.91
  -7   3   5  474.21   16.32
   7  -3  -4  108.45    5.19
  -7   3   4  102.44    5.04
   7  -3  -3  654.98   22.25
  -7   3   3  711.87   24.03
   7  -3  -2  108.52    5.34
  -7   3   2  122.84    5.71
   7  -3  -1  165.86    7.05
  -7   3   1  156.14    6.68
   7  -3   0  347.81   12.61
  -7   3   0  344.11   12.46
   7  -3   1 2268.32   73.88
  -7   3  -1 2234.20   72.84
   7  -3   2   72.47    4.60
  -7   3  -2   77.07    4.67
   7  -3   3   37.83    4.01
  -7   3  -3   37.98    3.71
   7  -3   4    9.20    3.41
  -7   3  -4    8.68    3.19
   7  -3   5 1403.42   46.51
  -7   3  -5 1405.65   46.43
   7  -3   6  272.97   10.83
  -7   3  -6  298.63   11.65
   7  -3   7  185.29    8.31
  -7   3  -7  190.93    8.60
   7  -3   8 1556.22   51.63
  -7   3  -8 1565.87   51.92
   7  -3   9  903.47   30.93
  -7   3  -9  864.90   29.52
   7  -3  10  976.16   33.38
  -7   3 -10  958.36   32.64
   7  -3  11  585.62   21.14
  -7   3 -11  584.66   21.07
   7  -3  12    4.90    4.52
  -7   3 -12    6.08    3.71
   7  -3  13  792.95   27.74
  -7   3 -13  760.31   26.26
   7  -3  14  605.28   22.03
  -7   3 -14  589.48   21.14
   7  -3  15 1606.66   53.78
  -7   3 -15 1571.80   52.29
   7  -3  16 1456.09   48.81
  -7   3 -16 1424.19   47.62
   7  -3  17   98.21    7.20
  -7   3 -17  102.73    6.90
   7  -3  18    7.42    4.52
  -7   3 -18    2.37    3.49
   7  -3  19  704.45   25.07
  -7   3 -19  676.34   23.96
   7  -3  20   54.96    5.79
  -7   3 -20   56.97    4.90
   7  -3  21   33.31    5.64
  -7   3 -21   42.35    4.67
   7  -3  22   10.31    5.04
  -7   3 -22   21.36    4.75
   7  -3  23  719.22   25.44
  -7   3 -23  803.33   27.82
   7  -3  24    9.94    3.71
  -7   3 -24   14.84    4.30
   7  -3  25   65.05    5.56
  -7   3 -25   68.98    5.86
   7  -3  26   68.24    6.16
  -7   3 -26   70.02    5.71
   7  -3  27  621.97   22.25
  -7   3 -27  611.81   21.59
   7  -3  28  207.77    8.90
  -7   3 -28  193.38    8.53
   7  -3  29   26.11    4.97
  -7   3 -29   22.92    4.67
   6  -3 -32   13.72    3.93
  -6   3  32    6.01    4.30
   6  -3 -31   41.54    4.75
  -6   3  31   37.53    4.08
   6  -3 -30  448.77   16.62
  -6   3  30  449.58   16.76
   6  -3 -29   51.63    5.12
  -6   3  29   47.70    5.49
   6  -3 -28    2.67    4.15
  -6   3  28    5.93    4.01
   6  -3 -27   60.31    4.97
  -6   3  27   68.98    6.08
   6  -3 -26 1085.20   36.87
  -6   3  26 1068.14   36.49
   6  -3 -25  287.14   11.65
  -6   3  25  260.58   11.05
   6  -3 -24   19.14    4.08
  -6   3  24   13.28    4.75
   6  -3 -23   81.37    5.86
  -6   3  23   69.43    5.49
   6  -3 -22  996.93   34.05
  -6   3  22  920.53   31.67
   6  -3 -21    6.31    3.71
  -6   3  21    1.48    3.86
   6  -3 -20   42.58    4.60
  -6   3  20   58.53    5.41
   6  -3 -19  398.55   15.21
  -6   3  19  386.01   14.69
   6  -3 -18 1103.01   37.31
  -6   3  18 1154.93   38.87
   6  -3 -17  107.56    5.93
  -6   3  17  112.08    6.38
  -6   3  16  496.46   17.65
  -6   3  16  509.37   18.40
  -6   3  14 1315.15   43.62
  -6   3  14 1248.39   41.61
  -6   3  12  641.18   22.10
  -6   3  12  568.12   19.81
  -6   3  11 2366.97   77.22
  -6   3  11 2121.45   69.21
  -6   3  10 2407.77   78.55
  -6   3  10 2528.68   82.11
  -6   3   9  617.96   21.29
  -6   3   9  623.38   21.14
  -6   3   8  711.80   24.11
  -6   3   8  664.84   22.40
  -6   3   7  321.85   11.42
  -6   3   7  332.09   11.87
  -6   3   6  792.95   26.33
  -6   3   6  755.12   25.22
  -6   3   5  246.04    8.98
  -6   3   5  254.43    9.35
   6  -3  -4 1660.81   54.07
  -6   3   4 1671.94   54.52
   6  -3  -3 1525.07   49.77
  -6   3   3 1474.63   48.14
   6  -3  -2   78.03    4.01
  -6   3   2   80.93    4.15
   6  -3  -1  308.50   11.05
  -6   3   1  289.81   10.38
   6  -3   0 3067.94   99.25
  -6   3   0 3046.43   98.51
   6  -3   1  410.27   14.46
  -6   3  -1  382.75   13.43
   6  -3   2   70.47    4.30
  -6   3  -2   63.27    3.93
   6  -3   3  834.49   28.04
  -6   3  -3  810.01   27.22
   6  -3   4 1321.08   43.69
  -6   3  -4 1307.73   43.17
   6  -3   5   42.87    4.08
  -6   3  -5   29.45    3.56
   6  -3   6  251.53   10.24
  -6   3  -6  245.67    9.49
   6  -3   7  188.85    8.53
  -6   3  -7  190.26    8.16
   6  -3   8  520.20   18.69
  -6   3  -8  551.87   19.58
   6  -3   9 1009.54   34.12
  -6   3  -9  960.59   32.56
   6  -3  10  227.28    9.64
  -6   3 -10  221.79    9.05
   6  -3  11  672.56   23.81
  -6   3 -11  678.34   23.59
   6  -3  12  542.01   19.88
  -6   3 -12  551.50   19.88
   6  -3  13  216.45    9.72
  -6   3 -13  238.85   10.16
   6  -3  14 1038.47   35.46
  -6   3 -14 1034.76   35.01
   6  -3  15  988.77   34.12
  -6   3 -15  975.42   33.31
   6  -3  16  652.16   23.51
  -6   3 -16  651.05   22.99
   6  -3  17   13.06    5.34
  -6   3 -17   15.80    4.30
   6  -3  18 1000.64   34.49
  -6   3 -18 1004.35   34.49
   6  -3  19  102.59    6.68
  -6   3 -19  104.00    6.16
   6  -3  20  191.30    9.05
  -6   3 -20  207.92    9.35
   6  -3  21  104.00    6.97
  -6   3 -21   99.10    6.53
   6  -3  22  514.71   19.14
  -6   3 -22  503.21   18.54
   6  -3  23  119.13    7.64
  -6   3 -23  117.35    6.60
   6  -3  24  181.88    9.27
  -6   3 -24  164.82    8.31
   6  -3  25   32.56    4.82
  -6   3 -25   33.97    5.04
   6  -3  26  601.28   21.59
  -6   3 -26  598.98   21.36
   6  -3  27  254.94   11.13
  -6   3 -27  251.24   10.46
   6  -3  28    0.07    3.49
  -6   3 -28   -0.52    3.71
   6  -3  29  190.56    8.98
  -6   3 -29  190.78    8.46
   6  -3  30  400.78   14.61
  -6   3 -30  402.11   14.84
   5  -3 -32   30.41    4.52
  -5   3  32   31.01    4.82
   5  -3 -31  939.82   31.90
  -5   3  31 1085.20   36.79
   5  -3 -30  268.96   11.13
  -5   3  30  237.44   10.46
   5  -3 -29    0.37    3.93
  -5   3  29   -2.74    3.86
   5  -3 -28  458.93   17.28
  -5   3  28  405.52   15.35
   5  -3 -27  794.43   27.59
  -5   3  27  881.96   30.49
   5  -3 -26   13.87    3.86
  -5   3  26   15.73    5.04
   5  -3 -25    4.30    4.23
  -5   3  25    7.64    4.38
   5  -3 -24   98.43    6.45
  -5   3  24   99.17    6.31
   5  -3 -23  424.29   16.10
  -5   3  23  483.48   18.17
   5  -3 -22  130.77    7.27
  -5   3  22   97.62    6.53
   5  -3 -21    6.68    4.15
  -5   3  21    5.56    3.63
   5  -3 -20  159.33    8.09
  -5   3  20  139.16    7.57
   5  -3 -19 1336.66   44.80
  -5   3  19 1439.03   47.92
   5  -3 -18    7.42    3.56
  -5   3  18    4.67    3.93
   5  -3 -17  480.74   17.36
  -5   3  17  435.49   16.02
   5  -3 -16 1284.00   42.95
  -5   3  16 1157.15   38.79
   5  -3 -15  436.08   15.80
  -5   3  15  424.59   15.58
   5  -3 -14  589.78   20.62
  -5   3  14  636.58   22.18
   5  -3 -13  352.19   12.98
  -5   3  13  331.20   12.46
  -5   3  12   14.24    3.12
  -5   3  12   11.35    3.19
  -5   3  11 2002.77   65.28
  -5   3  11 1973.10   64.61
  -5   3  10  256.80    9.57
  -5   3  10  285.95   10.83
  -5   3   9 1298.83   42.58
  -5   3   9 1309.96   43.10
  -5   3   7  480.07   16.32
  -5   3   7  528.58   17.95
  -5   3   6  769.21   25.44
  -5   3   6  812.98   26.93
  -5   3   5 1850.71   60.01
  -5   3   5 2045.79   66.39
  -5   3   4  492.31   16.54
  -5   3   4  515.38   17.36
   5  -3  -3    1.78    2.00
  -5   3   3    4.97    1.93
   5  -3  -2  271.49    9.64
  -5   3   2  291.37   10.24
   5  -3  -1 1689.74   54.96
  -5   3   1 1668.23   54.22
   5  -3   0  467.76   16.02
  -5   3   0  452.03   15.43
   5  -3   1   57.19    3.63
  -5   3  -1   67.43    3.71
   5  -3   2  238.77    9.05
  -5   3  -2  222.23    8.46
   5  -3   3 1333.69   43.99
  -5   3  -3 1263.97   41.46
   5  -3   4  154.81    6.75
  -5   3  -4  158.37    6.68
   5  -3   5  313.62   11.87
  -5   3  -5  287.88   10.76
   5  -3   6 1121.55   37.46
  -5   3  -6 1085.94   36.20
   5  -3   7  243.22   10.01
  -5   3  -7  259.99   10.01
   5  -3   8   35.68    4.15
  -5   3  -8   37.16    3.93
   5  -3   9 1006.58   34.12
  -5   3  -9 1028.83   34.71
   5  -3  10  612.77   21.73
  -5   3 -10  582.88   20.62
   5  -3  11 3510.03  114.16
  -5   3 -11 3389.13  110.00
   5  -3  12  362.95   14.24
  -5   3 -12  347.74   13.28
   5  -3  13  626.35   22.62
  -5   3 -13  603.06   21.29
   5  -3  14   35.38    4.52
  -5   3 -14   42.21    4.82
   5  -3  15 2630.30   86.19
  -5   3 -15 2573.93   84.19
   5  -3  16  101.40    7.20
  -5   3 -16  115.34    6.53
   5  -3  17  682.87   24.33
  -5   3 -17  636.81   22.55
   5  -3  18  540.52   19.95
  -5   3 -18  529.99   19.66
   5  -3  19  241.37   10.68
  -5   3 -19  251.83   10.76
   5  -3  20   13.20    4.67
  -5   3 -20   23.44    4.30
   5  -3  21  458.71   17.65
  -5   3 -21  443.80   16.39
   5  -3  22  275.27   12.16
  -5   3 -22  262.51   11.13
   5  -3  23  364.87   14.46
  -5   3 -23  368.51   14.46
   5  -3  24   93.09    6.60
  -5   3 -24   94.65    6.82
   5  -3  25  766.99   27.07
  -5   3 -25  728.56   25.74
   5  -3  26   -2.52    3.41
  -5   3 -26    3.63    4.08
   5  -3  27   41.98    5.64
  -5   3 -27   38.20    4.45
   5  -3  28   17.21    3.93
  -5   3 -28   26.26    4.23
   5  -3  29  503.73   18.40
  -5   3 -29  506.63   18.10
   5  -3  30  478.66   17.28
  -5   3 -30  501.36   18.10
   5  -3  31    5.41    4.45
  -5   3 -31   11.79    3.93
   4  -3 -32  363.32   13.87
  -4   3  32  355.97   13.80
   4  -3 -31   39.76    4.90
  -4   3  31   35.38    4.82
   4  -3 -30   16.24    4.30
  -4   3  30    4.38    4.23
   4  -3 -29    2.37    4.15
  -4   3  29   -3.93    4.08
   4  -3 -28  290.40   11.72
  -4   3  28  283.58   11.79
   4  -3 -27  568.04   20.55
  -4   3  27  513.01   18.92
   4  -3 -26   44.88    5.04
  -4   3  26   49.77    5.64
   4  -3 -25  560.55   20.40
  -4   3  25  555.29   20.55
   4  -3 -24  542.08   19.66
  -4   3  24  551.50   20.25
   4  -3 -23    3.86    3.86
  -4   3  23   -1.85    4.38
   4  -3 -22   36.64    4.67
  -4   3  22   35.23    4.60
   4  -3 -21  189.52    8.98
  -4   3  21  191.45    8.83
   4  -3 -20 1899.66   62.83
  -4   3  20 1528.78   50.96
   4  -3 -19   61.05    4.97
  -4   3  19   50.14    5.12
   4  -3 -18  243.15   10.09
  -4   3  18  225.05    9.64
   4  -3 -17  118.53    6.38
  -4   3  17  112.38    6.31
   4  -3 -16  660.62   23.07
  -4   3  16  686.58   23.81
   4  -3 -15    6.16    3.34
  -4   3  15    7.49    3.34
   4  -3 -14  356.94   13.43
  -4   3  14  328.16   12.46
   4  -3 -13  763.28   26.04
  -4   3  13  756.60   25.89
   4  -3 -12   13.28    2.97
  -4   3  12   16.39    3.12
   4  -3 -11  384.53   13.72
  -4   3  11  381.79   13.57
  -4   3  10  904.21   29.97
  -4   3  10  923.50   30.86
  -4   3   9  385.57   13.43
  -4   3   9  407.16   14.17
  -4   3   8   25.37    2.37
  -4   3   8   23.81    2.60
  -4   3   7  238.40    8.53
  -4   3   7  220.75    8.01
  -4   3   6 1339.63   43.69
  -4   3   6 1392.29   45.40
  -4   3   5 1405.65   45.69
  -4   3   5 1463.50   47.62
  -4   3   4  235.29    8.16
  -4   3   4  245.90    8.60
  -4   3   3  426.00   14.24
  -4   3   3  426.37   14.32
   4  -3  -2 1103.75   36.05
  -4   3   2 1048.11   34.20
   4  -3  -1 1764.66   57.26
  -4   3   1 1806.94   58.60
   4  -3   0    5.93    1.93
  -4   3   0    9.35    1.78
   4  -3   1   25.52    2.67
  -4   3  -1   27.15    2.60
   4  -3   2  845.61   28.11
  -4   3  -2  843.39   27.96
   4  -3   3  428.07   14.98
  -4   3  -3  422.14   14.69
   4  -3   4  297.60   11.05
  -4   3  -4  281.87   10.31
   4  -3   5  569.90   19.81
  -4   3  -5  587.92   20.10
   4  -3   6 1660.07   54.52
  -4   3  -6 1564.38   51.40
   4  -3   7   21.59    3.63
  -4   3  -7   21.14    3.34
   4  -3   8   15.65    3.71
  -4   3  -8   16.10    3.34
   4  -3   9   -0.67    3.34
  -4   3  -9    1.48    3.12
   4  -3  10 1124.52   37.90
  -4   3 -10 1114.13   37.31
   4  -3  11 1117.84   37.68
  -4   3 -11 1103.75   37.16
   4  -3  12  199.91    8.98
  -4   3 -12  177.88    7.94
   4  -3  13 1027.35   35.09
  -4   3 -13 1053.31   35.46
   4  -3  14 1016.96   34.79
  -4   3 -14 1011.03   34.27
   4  -3  15  228.76   10.01
  -4   3 -15  242.71   10.16
   4  -3  16  900.50   31.15
  -4   3 -16  921.27   31.60
   4  -3  17  130.40    7.49
  -4   3 -17  152.43    8.01
   4  -3  18 1042.92   35.75
  -4   3 -18 1117.84   38.13
   4  -3  19   54.37    4.97
  -4   3 -19   46.06    5.41
   4  -3  20  624.05   22.77
  -4   3 -20  608.99   21.96
   4  -3  21  254.13   11.50
  -4   3 -21  228.46   10.46
   4  -3  22  334.91   13.35
  -4   3 -22  333.57   13.43
   4  -3  23   31.75    5.86
  -4   3 -23   29.67    4.45
   4  -3  24 1011.77   34.71
  -4   3 -24  982.10   33.82
   4  -3  25  226.54   10.46
  -4   3 -25  225.87    9.87
   4  -3  26  276.31   11.57
  -4   3 -26  256.58   10.53
   4  -3  27  229.65   10.38
  -4   3 -27  246.41   10.16
   4  -3  28  545.49   19.58
  -4   3 -28  547.50   19.73
   4  -3  29   -4.82    4.75
  -4   3 -29    0.07    3.49
   4  -3  30   35.01    4.97
  -4   3 -30   37.31    4.52
   4  -3  31   47.70    4.23
  -4   3 -31   44.58    4.38
   3  -3 -32  405.30   14.98
  -3   3  32  376.74   14.24
   3  -3 -31    5.27    4.15
  -3   3  31   16.17    4.52
   3  -3 -30  245.90   10.61
  -3   3  30  240.63   10.68
   3  -3 -29 1019.19   34.86
  -3   3  29 1143.06   38.65
   3  -3 -28   -1.34    3.93
  -3   3  28    7.27    4.67
   3  -3 -27    9.05    4.23
  -3   3  27    5.86    4.45
   3  -3 -26   19.73    4.38
  -3   3  26   24.33    4.82
   3  -3 -25  988.77   33.82
  -3   3  25  960.59   33.16
   3  -3 -24  523.02   19.06
  -3   3  24  585.99   21.21
   3  -3 -23    8.16    3.93
  -3   3  23    9.94    4.15
   3  -3 -22  414.80   15.87
  -3   3  22  408.79   15.65
   3  -3 -21 1226.88   41.39
  -3   3  21 1281.03   43.10
   3  -3 -20   60.45    5.12
  -3   3  20   61.57    5.12
   3  -3 -19  827.81   28.48
  -3   3  19  752.15   26.18
   3  -3 -18  705.34   24.63
  -3   3  18  712.17   24.85
   3  -3 -17 1330.73   44.51
  -3   3  17 1387.10   46.21
   3  -3 -16    5.56    3.56
  -3   3  16    5.86    3.49
   3  -3 -15  601.13   21.21
  -3   3  15  577.24   20.32
   3  -3 -14  156.36    7.20
  -3   3  14  147.02    7.05
   3  -3 -13  231.43    9.27
  -3   3  13  242.85    9.87
   3  -3 -12 1476.86   48.66
  -3   3  12 1530.26   50.44
   3  -3 -11  996.19   33.16
  -3   3  11  942.04   31.30
   3  -3 -10   51.48    3.71
  -3   3  10   51.70    3.49
   3  -3  -9  792.95   26.41
  -3   3   9  815.94   27.07
   3  -3  -8   48.81    2.89
  -3   3   8   49.70    2.89
  -3   3   7 2243.84   72.69
  -3   3   7 2230.49   72.25
  -3   3   6 1717.19   55.78
  -3   3   6 1681.58   54.59
  -3   3   5   58.53    2.67
  -3   3   5   56.75    2.60
   3  -3  -1   50.66    2.30
  -3   3   1   51.63    2.30
   3  -3   0  238.33    8.31
  -3   3   0  236.70    8.23
   3  -3   1 1601.47   52.07
  -3   3  -1 1557.71   50.59
   3  -3   2  199.76    7.49
  -3   3  -2  189.89    7.20
   3  -3   3   37.31    2.97
  -3   3  -3   37.09    3.12
   3  -3   4  323.78   11.65
  -3   3  -4  303.31   11.13
   3  -3   5 3113.19  100.81
  -3   3  -5 2889.18   93.61
   3  -3   6  177.13    7.57
  -3   3  -6  176.39    7.34
   3  -3   7  534.96   18.84
  -3   3  -7  532.74   18.54
   3  -3   8  700.15   24.11
  -3   3  -8  684.80   23.44
   3  -3   9 1022.89   34.42
  -3   3  -9 1028.09   34.34
   3  -3  10  310.73   12.02
  -3   3 -10  318.89   12.24
   3  -3  11   94.50    6.16
  -3   3 -11  102.88    6.16
   3  -3  12   77.29    5.34
  -3   3 -12   87.16    5.56
   3  -3  13 2216.40   72.84
  -3   3 -13 2105.87   68.98
   3  -3  14  842.65   29.15
  -3   3 -14  824.10   28.34
   3  -3  15 1714.22   56.89
  -3   3 -15 1695.68   56.15
   3  -3  16  815.94   28.34
  -3   3 -16  818.91   28.19
   3  -3  17  938.33   32.56
  -3   3 -17  930.17   31.82
   3  -3  18  163.56    9.12
  -3   3 -18  141.90    7.42
   3  -3  19  754.38   26.56
  -3   3 -19  783.30   27.67
   3  -3  20  439.79   17.06
  -3   3 -20  434.82   16.54
   3  -3  21  344.77   14.02
  -3   3 -21  355.08   14.39
   3  -3  22  129.81    7.94
  -3   3 -22  137.97    8.09
   3  -3  23  969.49   33.53
  -3   3 -23 1027.35   35.46
   3  -3  24  122.39    7.71
  -3   3 -24  116.83    7.27
   3  -3  25  267.26   11.20
  -3   3 -25  282.02   12.02
   3  -3  26   49.03    5.86
  -3   3 -26   46.51    5.19
   3  -3  27  877.51   30.34
  -3   3 -27  858.22   29.45
   3  -3  28   91.16    5.71
  -3   3 -28   98.28    6.53
   3  -3  29   63.12    6.01
  -3   3 -29   52.81    5.04
   3  -3  30  114.60    7.05
  -3   3 -30  127.29    6.90
   3  -3  31  761.05   26.11
  -3   3 -31  779.60   26.48
   2  -3 -32   97.84    5.86
  -2   3  32   94.80    6.45
   2  -3 -31   17.73    4.08
  -2   3  31   15.73    5.12
   2  -3 -30  882.70   30.34
  -2   3  30  813.72   28.41
   2  -3 -29  360.79   14.09
  -2   3  29  336.76   13.50
   2  -3 -28    2.15    3.86
  -2   3  28   -4.45    4.67
   2  -3 -27  293.07   11.87
  -2   3  27  314.81   12.61
   2  -3 -26  864.16   29.97
  -2   3  26 1041.44   35.60
   2  -3 -25   47.32    4.97
  -2   3  25   35.83    5.27
   2  -3 -24    2.30    3.78
  -2   3  24    1.56    4.67
   2  -3 -23  173.94    8.53
  -2   3  23  197.38    9.72
   2  -3 -22  890.86   30.78
  -2   3  22  827.07   28.93
   2  -3 -21  101.55    6.23
  -2   3  21  104.89    6.31
   2  -3 -20  140.49    7.34
  -2   3  20  128.10    7.42
   2  -3 -19  694.29   24.33
  -2   3  19  779.60   27.15
   2  -3 -18  903.47   30.86
  -2   3  18  835.97   28.71
   2  -3 -17    5.04    3.41
  -2   3  17   12.31    3.86
   2  -3 -16  700.82   24.33
  -2   3  16  625.23   21.81
   2  -3 -15   -0.22    3.26
  -2   3  15    2.08    3.26
   2  -3 -14  262.44   10.31
  -2   3  14  263.70   10.46
   2  -3 -13  230.10    9.27
  -2   3  13  244.63    9.79
   2  -3 -12  900.50   30.19
  -2   3  12 1106.71   36.79
   2  -3 -11 1094.85   36.35
  -2   3  11 1171.25   38.65
   2  -3 -10   81.07    4.30
  -2   3  10   77.07    4.15
   2  -3  -9  486.82   16.62
  -2   3   9  451.59   15.43
   2  -3  -8 1095.59   35.90
  -2   3   8 1208.34   39.46
   2  -3  -7  382.01   13.06
  -2   3   7  337.58   11.57
  -2   3   6    5.86    1.41
  -2   3   6    8.16    1.56
   2  -3   1  481.63   16.10
  -2   3  -1  484.00   16.10
   2  -3   2    2.60    1.93
  -2   3  -2    2.15    1.78
   2  -3   3  129.07    5.34
  -2   3  -3  128.33    5.49
   2  -3   4 5703.44  183.51
   2  -3   5  547.87   18.84
  -2   3  -5  539.56   18.62
   2  -3   6 1113.39   36.94
  -2   3  -6 1043.66   34.71
   2  -3   7  131.44    6.23
  -2   3  -7  133.89    6.23
   2  -3   8 1608.89   52.96
  -2   3  -8 1628.92   53.56
   2  -3   9  916.82   31.15
  -2   3  -9  912.37   30.78
   2  -3  10 2261.64   73.95
  -2   3 -10 2289.83   74.77
   2  -3  11 2148.15   70.39
  -2   3 -11 2144.44   70.25
   2  -3  12 1188.31   39.91
  -2   3 -12 1194.98   40.06
   2  -3  13  199.68    9.27
  -2   3 -13  195.08    8.23
   2  -3  14  818.17   28.41
  -2   3 -14  788.50   27.22
   2  -3  15 1025.86   34.94
  -2   3 -15 1057.76   35.98
   2  -3  16 1154.19   39.17
  -2   3 -16 1235.78   41.46
   2  -3  17  226.68   10.31
  -2   3 -17  241.37   10.61
   2  -3  18  595.71   21.73
  -2   3 -18  600.98   21.88
   2  -3  19  919.79   31.97
  -2   3 -19  947.98   32.86
   2  -3  20  386.90   15.43
  -2   3 -20  374.22   14.69
   2  -3  21  171.64    8.60
  -2   3 -21  176.24    9.12
   2  -3  22  958.36   33.45
  -2   3 -22  943.53   32.93
   2  -3  23  192.93    9.49
  -2   3 -23  186.33    9.35
   2  -3  24  104.29    6.53
  -2   3 -24   90.27    6.16
   2  -3  25   22.85    5.56
  -2   3 -25   30.04    4.52
   2  -3  26  423.84   16.39
  -2   3 -26  422.88   15.73
   2  -3  27  355.53   14.02
  -2   3 -27  361.83   14.09
   2  -3  28   26.48    4.08
  -2   3 -28   30.12    5.04
   2  -3  29   47.40    5.49
  -2   3 -29   59.71    5.27
   2  -3  30  426.52   16.17
  -2   3 -30  417.39   15.73
   2  -3  31   47.18    5.34
  -2   3 -31   39.24    4.45
   2  -3  32  146.13    7.12
  -2   3 -32  107.41    6.01
   1  -3 -32    4.90    4.01
  -1   3  32   -0.89    3.78
   1  -3 -31  251.90   10.46
  -1   3  31  279.87   11.57
   1  -3 -30   27.30    4.38
  -1   3  30   12.83    4.97
   1  -3 -29   34.49    4.60
  -1   3  29   29.37    5.19
   1  -3 -28   55.93    5.27
  -1   3  28   62.61    5.56
   1  -3 -27  527.40   19.21
  -1   3  27  543.79   19.81
   1  -3 -26   46.73    4.97
  -1   3  26   42.28    5.41
   1  -3 -25  122.84    6.97
  -1   3  25  113.49    7.27
   1  -3 -24   92.79    6.23
  -1   3  24   82.11    5.93
   1  -3 -23  716.10   25.29
  -1   3  23  698.59   25.00
   1  -3 -22  303.31   12.31
  -1   3  22  295.74   12.46
   1  -3 -21  163.34    8.01
  -1   3  21  138.12    7.57
   1  -3 -20  244.26   10.53
  -1   3  20  272.08   11.65
   1  -3 -19 1394.52   46.73
  -1   3  19 1337.40   44.95
   1  -3 -18  106.37    6.16
  -1   3  18  111.49    6.38
   1  -3 -17  183.96    8.23
  -1   3  17  230.99   10.09
   1  -3 -16  151.77    7.12
  -1   3  16  160.07    7.71
   1  -3 -15 1134.16   37.98
  -1   3  15 1044.41   35.16
   1  -3 -14  492.24   17.51
  -1   3  14  506.55   18.25
   1  -3 -13  838.94   28.41
  -1   3  13  825.59   28.26
   1  -3 -12    7.20    2.74
  -1   3  12    4.15    2.89
   1  -3 -11  578.87   19.88
  -1   3  11  609.51   20.84
   1  -3 -10    2.00    2.45
  -1   3  10    5.12    2.37
   1  -3  -9 2016.12   65.50
  -1   3   9 1918.21   62.31
   1  -3  -8 1126.00   36.94
  -1   3   8 1220.20   39.83
   1  -3  -7 1200.18   39.24
  -1   3   7 1319.60   43.02
   1  -3  -6  327.42   11.13
  -1   3   6  327.93   11.20
   1  -3   1   12.68    1.63
  -1   3  -1   10.61    1.63
   1  -3   2  412.27   14.02
  -1   3  -2  389.65   13.28
   1  -3   4  113.56    5.27
  -1   3  -4  113.12    5.34
   1  -3   5   19.36    3.12
  -1   3  -5   16.91    3.12
   1  -3   6  163.34    6.97
  -1   3  -6  151.47    6.60
   1  -3   7 2337.30   76.18
  -1   3  -7 2373.65   77.29
   1  -3   8   35.16    4.08
  -1   3  -8   38.50    4.08
   1  -3   9   22.40    3.93
  -1   3  -9   24.55    3.71
   1  -3  10   14.32    3.49
  -1   3 -10   11.65    3.41
   1  -3  11 2476.01   80.93
  -1   3 -11 2341.75   76.62
   1  -3  12   52.96    4.30
  -1   3 -12   53.26    4.45
   1  -3  13   23.07    4.67
  -1   3 -13   27.00    3.63
   1  -3  14  894.57   30.78
  -1   3 -14  924.98   31.53
   1  -3  15 1235.04   41.69
  -1   3 -15 1204.63   40.57
   1  -3  16  123.58    7.57
  -1   3 -16  124.39    6.82
   1  -3  17 1346.30   45.25
  -1   3 -17 1387.84   46.73
   1  -3  18  831.52   29.00
  -1   3 -18  836.71   29.23
   1  -3  19  422.95   16.69
  -1   3 -19  389.72   15.50
   1  -3  20  235.73   10.98
  -1   3 -20  232.32   10.68
   1  -3  21  844.13   29.45
  -1   3 -21  887.15   30.93
   1  -3  22  555.06   20.55
  -1   3 -22  585.25   21.73
   1  -3  23  127.36    7.94
  -1   3 -23  124.99    7.57
   1  -3  24   25.81    5.71
  -1   3 -24   22.92    3.93
   1  -3  25  952.43   32.93
  -1   3 -25  918.31   31.75
   1  -3  26    5.93    4.67
  -1   3 -26    8.09    4.23
   1  -3  27    4.75    3.71
  -1   3 -27   -3.56    4.23
   1  -3  28   84.93    5.64
  -1   3 -28   77.07    5.71
   1  -3  29  529.40   19.21
  -1   3 -29  510.48   18.40
   1  -3  30  286.02   11.79
  -1   3 -30  286.25   11.65
   1  -3  31   69.95    5.86
  -1   3 -31   69.73    5.27
   1  -3  32  924.24   31.45
  -1   3 -32  826.33   28.19
   0  -3 -32  573.68   20.47
   0   3  32  592.60   20.99
   0  -3 -31   16.47    4.30
   0   3  31   18.47    4.15
   0  -3 -30   10.01    4.08
   0   3  30   19.95    4.90
   0  -3 -29    8.31    4.08
   0   3  29    7.42    5.41
   0  -3 -28 1231.33   41.54
   0   3  28 1240.97   41.69
   0  -3 -27  213.33    9.64
   0   3  27  232.54   10.09
   0  -3 -26  106.74    6.45
   0   3  26  102.22    6.90
   0  -3 -25  175.21    8.60
   0   3  25  188.04    8.53
   0  -3 -24 1138.61   38.72
   0   3  24 1011.77   34.71
   0  -3 -23   -0.07    3.93
   0   3  23    3.63    3.49
   0  -3 -22   21.29    4.45
   0   3  22   19.29    5.12
   0  -3 -21  304.64   12.54
   0   3  21  336.02   13.50
   0  -3 -20 1068.88   36.49
   0   3  20 1203.89   40.80
   0  -3 -19  109.71    6.75
   0   3  19  114.45    6.97
   0  -3 -18 1118.58   37.83
   0   3  18 1091.14   37.09
   0  -3 -17   97.99    5.86
   0   3  17   80.93    5.71
   0  -3 -16 2761.59   90.05
   0   3  16 2337.30   76.55
   0  -3 -15   25.15    3.78
   0   3  15   18.54    3.78
   0  -3 -14  683.91   23.66
   0   3  14  619.52   21.66
   0  -3 -13 1815.84   59.56
   0   3  13 1641.53   54.22
   0  -3 -12 1100.78   36.72
   0   3  12 1027.35   34.57
   0  -3 -11 1597.76   52.44
   0   3  11 1430.12   47.18
   0  -3 -10 1622.24   53.11
   0   3  10 1620.76   53.04
   0  -3  -9    9.49    2.37
   0   3   9   11.79    2.45
   0  -3  -8  575.54   19.43
   0   3   8  547.65   18.54
   0  -3  -7  501.95   16.99
   0   3   7  460.19   15.58
   0  -3  -5 1816.58   58.97
   0   3   5 1694.93   55.11
   0  -3  -4  334.83   11.27
   0   3   4  350.34   11.79
   0  -3  -3  475.32   15.95
   0   3   3  463.53   15.65
   0  -3   0    0.89    1.26
   0  -3   0   -0.37    1.48
   0  -3   1  292.18   10.09
   0  -3   1  288.92    9.94
   0  -3   3  497.35   16.91
   0   3  -3  505.81   17.36
   0  -3   4  338.69   12.09
   0   3  -4  340.10   12.39
   0  -3   5 1647.46   53.85
   0   3  -5 1611.86   52.81
   0  -3   7  471.32   16.69
   0   3  -7  461.75   16.39
   0  -3   8  539.86   18.92
   0   3  -8  561.66   19.73
   0  -3   9   13.72    3.49
   0   3  -9   10.90    3.41
   0  -3  10 1579.96   52.22
   0   3 -10 1591.09   52.52
   0  -3  11 1480.56   49.10
   0   3 -11 1429.38   47.47
   0  -3  12 1015.48   34.42
   0   3 -12 1017.70   34.64
   0  -3  13 1608.15   53.41
   0   3 -13 1587.38   52.52
   0  -3  14  663.95   23.59
   0   3 -14  653.05   22.92
   0  -3  15   13.13    4.75
   0   3 -15   20.18    4.45
   0  -3  16 2287.60   75.29
   0   3 -16 2317.28   76.18
   0  -3  17   99.03    6.97
   0   3 -17   93.54    6.45
   0  -3  18 1128.23   38.50
   0   3 -18 1100.78   37.53
   0  -3  19  110.82    7.42
   0   3 -19  117.72    7.42
   0  -3  20 1194.24   40.80
   0   3 -20 1249.88   42.58
   0  -3  21  323.78   13.43
   0   3 -21  340.62   13.87
   0  -3  22   32.04    5.34
   0   3 -22   25.22    5.04
   0  -3  23   -0.67    4.67
   0   3 -23   -1.34    4.38
   0  -3  24 1138.61   38.72
   0   3 -24 1131.19   38.65
   0  -3  25  187.37    8.83
   0   3 -25  193.45    9.27
   0  -3  26  121.65    6.82
   0   3 -26  114.90    6.68
   0  -3  27  226.76    9.87
   0   3 -27  214.52    9.42
   0  -3  28 1315.15   44.06
   0   3 -28 1304.02   43.99
   0  -3  29   13.35    3.78
   0   3 -29    2.37    4.15
   0  -3  30   11.94    3.78
   0   3 -30   17.06    4.01
   0  -3  31   22.03    3.86
   0   3 -31   27.82    4.23
   0  -3  32  628.20   21.73
   0   3 -32  684.13   23.81
  -1  -3 -32  781.08   26.93
   1   3  32  812.98   27.96
  -1  -3 -31   83.23    6.01
   1   3  31   78.92    6.16
  -1  -3 -30  289.36   11.72
   1   3  30  283.95   11.50
  -1  -3 -29  437.57   16.47
   1   3  29  488.75   18.25
  -1  -3 -28   59.79    5.27
   1   3  28   66.76    5.71
  -1  -3 -27    5.34    3.93
   1   3  27    9.42    4.67
  -1  -3 -26   11.57    3.86
   1   3  26   10.83    4.60
  -1  -3 -25  900.50   31.08
   1   3  25  916.82   31.60
  -1  -3 -24   26.26    4.67
   1   3  24   20.25    3.93
  -1  -3 -23  127.73    7.42
   1   3  23  118.98    7.71
  -1  -3 -22  605.65   21.81
   1   3  22  587.03   21.44
  -1  -3 -21  894.57   31.01
   1   3  21  818.17   28.56
  -1  -3 -20  215.71    9.72
   1   3  20  227.87    9.94
  -1  -3 -19  404.93   15.50
   1   3  19  381.56   14.76
  -1  -3 -18  751.41   26.26
   1   3  18  764.76   26.78
  -1  -3 -17 1283.25   42.87
   1   3  17 1398.23   46.88
  -1  -3 -16  140.86    6.90
   1   3  16  132.41    7.12
  -1  -3 -15 1140.09   38.20
   1   3  15 1171.25   39.39
  -1  -3 -14  916.08   31.01
   1   3  14  880.48   29.89
  -1  -3 -13   28.19    3.71
   1   3  13   21.44    3.63
  -1  -3 -12   40.57    3.86
   1   3  12   43.62    4.15
  -1  -3 -11 2552.42   83.00
   1   3  11 2418.90   78.92
  -1  -3 -10    5.64    2.97
   1   3  10    4.90    2.74
  -1  -3  -9   26.63    3.04
   1   3   9   31.38    3.26
  -1  -3  -8   31.82    3.12
   1   3   8   34.94    3.19
  -1  -3  -7 2073.98   67.35
   1   3   7 2320.24   75.22
  -1  -3  -6  181.66    6.97
   1   3   6  155.18    6.08
  -1  -3  -5   25.29    2.45
   1   3   5   18.77    2.23
  -1  -3  -4  115.34    4.67
   1   3   4  110.45    4.52
  -1  -3  -2  376.59   12.68
   1   3   2  393.14   13.28
  -1  -3  -1   12.09    1.93
  -1  -3  -1   13.43    1.93
  -1  -3   0  329.94   11.35
  -1  -3   0  327.56   11.27
  -1  -3   2   57.49    3.34
  -1  -3   2   69.80    3.78
  -1  -3   3  325.64   11.65
  -1  -3   3  315.47   11.27
  -1  -3   4  276.60   10.31
   1   3  -4  293.07   11.05
  -1  -3   5 3136.18  101.47
   1   3  -5 3300.11  106.81
  -1  -3   6  352.71   12.98
   1   3  -6  345.14   12.68
  -1  -3   7 1350.76   44.65
   1   3  -7 1288.45   42.73
  -1  -3   8 1261.74   41.98
   1   3  -8 1195.73   39.91
  -1  -3   9 1928.59   63.35
   1   3  -9 1969.39   64.68
  -1  -3  10   -2.08    3.49
   1   3 -10    0.82    3.26
  -1  -3  11  604.76   21.36
   1   3 -11  641.85   22.55
  -1  -3  12    2.45    3.93
   1   3 -12    9.05    3.78
  -1  -3  13  804.07   27.82
   1   3 -13  807.04   27.74
  -1  -3  14  472.95   17.58
   1   3 -14  492.38   17.95
  -1  -3  15 1087.43   37.09
   1   3 -15 1071.85   36.57
  -1  -3  16  138.04    7.57
   1   3 -16  149.32    7.57
  -1  -3  17  218.08    9.57
   1   3 -17  234.40   10.24
  -1  -3  18  117.05    6.68
   1   3 -18  120.98    7.34
  -1  -3  19 1421.22   47.77
   1   3 -19 1410.10   47.62
  -1  -3  20  256.43   11.57
   1   3 -20  297.67   12.91
  -1  -3  21  165.93    9.05
   1   3 -21  143.01    8.01
  -1  -3  22  327.56   13.80
   1   3 -22  312.80   13.13
  -1  -3  23  775.15   27.45
   1   3 -23  734.64   26.11
  -1  -3  24  103.70    7.12
   1   3 -24  101.47    6.90
  -1  -3  25  128.03    7.49
   1   3 -25  106.74    6.68
  -1  -3  26   44.36    5.34
   1   3 -26   44.21    4.52
  -1  -3  27  552.24   19.95
   1   3 -27  608.25   21.96
  -1  -3  28   76.11    5.41
   1   3 -28   65.28    5.64
  -1  -3  29   34.94    4.38
   1   3 -29   31.75    4.45
  -1  -3  30   18.17    4.67
   1   3 -30   27.15    4.97
  -1  -3  31  257.76   10.68
   1   3 -31  294.85   11.50
  -1  -3  32    1.93    4.45
   1   3 -32   11.05    3.78
  -2  -3 -32  138.27    7.34
   2   3  32  144.42    7.12
  -2  -3 -31   48.07    4.97
   2   3  31   34.71    5.34
  -2  -3 -30  450.99   16.54
   2   3  30  427.26   15.95
  -2  -3 -29   43.62    4.97
   2   3  29   47.77    5.93
  -2  -3 -28   39.31    4.82
   2   3  28   26.93    4.90
  -2  -3 -27  383.42   14.69
   2   3  27  341.14   13.87
  -2  -3 -26  457.97   16.99
   2   3  26  403.52   15.58
  -2  -3 -25   21.59    4.67
   2   3  25   14.17    4.97
  -2  -3 -24  100.29    6.45
   2   3  24   89.98    6.68
  -2  -3 -23  177.95    8.31
   2   3  23  191.60    9.20
  -2  -3 -22 1010.28   34.64
   2   3  22  910.15   31.53
  -2  -3 -21  155.62    8.09
   2   3  21  166.90    8.46
  -2  -3 -20  381.79   14.69
   2   3  20  369.77   14.39
  -2  -3 -19  922.01   31.82
   2   3  19  913.86   31.38
  -2  -3 -18  618.63   21.96
   2   3  18  600.83   21.81
  -2  -3 -17  228.54    9.79
   2   3  17  218.75    9.57
  -2  -3 -16 1242.46   41.61
   2   3  16 1152.70   39.02
  -2  -3 -15  958.36   32.56
   2   3  15 1007.32   34.42
  -2  -3 -14  798.88   27.45
   2   3  14  777.37   27.00
  -2  -3 -13  191.97    8.38
   2   3  13  181.21    8.01
  -2  -3 -12 1134.16   37.90
   2   3  12 1192.02   39.83
  -2  -3 -11 2229.75   72.84
   2   3  11 2100.68   68.84
  -2  -3 -10 2091.04   68.32
   2   3  10 2190.43   71.51
  -2  -3  -9  910.89   30.63
   2   3   9  934.62   31.30
  -2  -3  -8 1658.59   54.30
   2   3   8 1668.97   54.67
  -2  -3  -7  137.89    6.01
   2   3   7  135.45    6.01
  -2  -3  -6 1152.70   37.98
   2   3   6 1164.57   38.42
  -2  -3  -5  511.37   17.43
   2   3   5  556.92   18.92
  -2  -3  -3  133.37    5.56
   2   3   3  138.93    5.71
  -2  -3  -2    0.59    2.23
   2   3   2    1.48    2.00
  -2  -3  -1  482.44   16.39
   2   3   1  499.21   16.91
  -2  -3   0 2493.82   80.70
  -2  -3   1 1790.62   58.30
  -2  -3   1 1757.98   57.19
  -2  -3   2  284.24   10.38
  -2  -3   2  266.66    9.79
  -2  -3   3 2358.07   76.55
  -2  -3   3 2450.05   79.44
  -2  -3   4 5579.56  179.66
  -2  -3   5   30.41    3.49
  -2  -3   5   31.38    3.49
  -2  -3   6    5.12    3.19
   2   3  -6    8.01    3.26
  -2  -3   7  367.99   13.50
   2   3  -7  374.00   13.95
  -2  -3   8 1160.86   38.79
   2   3  -8 1143.80   38.35
  -2  -3   9  466.50   16.84
   2   3  -9  474.14   17.06
  -2  -3  10   95.17    5.56
   2   3 -10   92.94    5.71
  -2  -3  11 1112.65   37.38
   2   3 -11 1123.77   37.98
  -2  -3  12 1068.88   36.05
   2   3 -12 1057.02   35.90
  -2  -3  13  264.96   11.27
   2   3 -13  243.82   10.24
  -2  -3  14  278.09   11.42
   2   3 -14  283.73   11.57
  -2  -3  15    7.49    4.45
   2   3 -15    6.38    4.08
  -2  -3  16  680.57   24.11
   2   3 -16  709.05   25.29
  -2  -3  17   -1.78    4.67
   2   3 -17    7.86    4.52
  -2  -3  18  919.05   31.82
   2   3 -18  886.41   30.93
  -2  -3  19  793.69   27.89
   2   3 -19  798.88   28.19
  -2  -3  20  145.24    8.53
   2   3 -20  144.64    8.01
  -2  -3  21  113.71    7.27
   2   3 -21  107.48    7.20
  -2  -3  22  919.79   31.82
   2   3 -22  956.88   33.53
  -2  -3  23  183.44    9.12
   2   3 -23  199.83    9.42
  -2  -3  24    4.90    5.12
   2   3 -24    8.83    3.93
  -2  -3  25   37.46    5.86
   2   3 -25   42.06    4.97
  -2  -3  26 1038.47   35.60
   2   3 -26 1034.76   35.09
  -2  -3  27  300.86   12.16
   2   3 -27  299.82   12.46
  -2  -3  28   -2.15    4.30
   2   3 -28    0.52    3.71
  -2  -3  29  381.56   14.98
   2   3 -29  364.50   13.95
  -2  -3  30  844.13   29.23
   2   3 -30  830.04   28.85
  -2  -3  31   15.95    4.90
   2   3 -31   10.46    4.15
  -2  -3  32   96.28    6.23
   2   3 -32  107.48    6.53
  -3  -3 -31  696.67   24.40
   3   3  31  716.84   24.77
  -3  -3 -30  122.84    6.68
   3   3  30  124.39    7.34
  -3  -3 -29   55.71    4.75
   3   3  29   55.19    5.49
  -3  -3 -28  110.15    6.97
   3   3  28   95.84    6.75
  -3  -3 -27  761.05   26.70
   3   3  27  844.13   29.37
  -3  -3 -26   40.95    4.82
   3   3  26   51.48    5.04
  -3  -3 -25  252.72   10.98
   3   3  25  286.25   11.87
  -3  -3 -24  125.36    6.90
   3   3  24  108.08    7.20
  -3  -3 -23  807.04   28.11
   3   3  23  974.68   33.75
  -3  -3 -22  127.73    7.05
   3   3  22  124.91    7.71
  -3  -3 -21  319.11   13.13
   3   3  21  311.24   12.91
  -3  -3 -20  408.05   15.58
   3   3  20  450.85   16.91
  -3  -3 -19  752.89   26.26
   3   3  19  764.02   26.70
  -3  -3 -18  176.02    8.53
   3   3  18  147.83    7.94
  -3  -3 -17  947.23   32.49
   3   3  17  919.79   31.75
  -3  -3 -16  720.92   25.07
   3   3  16  846.35   29.30
  -3  -3 -15 1910.05   62.98
   3   3  15 1795.81   59.49
  -3  -3 -14  827.81   28.48
   3   3  14  834.49   28.93
  -3  -3 -13 2194.14   71.95
   3   3  13 2061.37   67.80
  -3  -3 -12   77.66    5.19
   3   3  12   82.86    5.34
  -3  -3 -11   99.17    5.49
   3   3  11   91.61    5.49
  -3  -3 -10  305.90   11.65
   3   3  10  333.65   12.61
  -3  -3  -9  979.87   32.79
   3   3   9 1040.70   34.86
  -3  -3  -8  699.63   23.74
   3   3   8  715.36   24.40
  -3  -3  -7  578.58   19.95
   3   3   7  541.12   18.77
  -3  -3  -6  179.36    7.34
   3   3   6  172.98    7.20
  -3  -3  -5 3137.67  101.55
   3   3   5 3185.88  103.11
  -3  -3  -4  311.10   11.27
   3   3   4  317.10   11.57
  -3  -3  -3   41.32    3.56
   3   3   3   40.13    3.41
  -3  -3  -2  201.98    7.94
   3   3   2  202.21    8.01
  -3  -3  -1 1692.71   55.26
   3   3   1 1654.88   54.07
  -3  -3   0  264.81    9.87
   3   3   0  261.92    9.87
  -3  -3   1   44.58    3.34
  -3  -3   1   53.48    3.86
  -3  -3   2 2515.33   81.67
  -3  -3   2 2529.42   82.11
  -3  -3   3 1329.99   43.84
  -3  -3   3 1312.93   43.24
  -3  -3   4 1035.50   34.49
  -3  -3   4 1005.83   33.60
  -3  -3   5   61.05    4.52
  -3  -3   5   66.76    4.52
  -3  -3   6 1783.20   58.53
  -3  -3   6 1803.97   59.19
  -3  -3   7 2315.05   75.51
  -3  -3   8   48.51    4.60
   3   3  -8   47.84    4.38
  -3  -3   9  754.38   25.96
   3   3  -9  775.89   26.70
  -3  -3  10   52.81    4.75
   3   3 -10   50.74    4.82
  -3  -3  11 1013.99   34.27
   3   3 -11 1039.96   35.31
  -3  -3  12 1533.97   50.96
   3   3 -12 1538.42   51.18
  -3  -3  13  262.44   11.05
   3   3 -13  249.31   10.46
  -3  -3  14  155.99    7.86
   3   3 -14  159.33    8.01
  -3  -3  15  593.34   21.21
   3   3 -15  630.50   22.77
  -3  -3  16   10.01    4.75
   3   3 -16    4.52    4.23
  -3  -3  17 1401.20   47.10
   3   3 -17 1467.95   49.40
  -3  -3  18  687.54   24.55
   3   3 -18  649.42   23.44
  -3  -3  19  776.63   27.45
   3   3 -19  767.73   27.30
  -3  -3  20   55.34    5.71
   3   3 -20   52.44    5.19
  -3  -3  21 1344.08   45.32
   3   3 -21 1295.12   43.91
  -3  -3  22  419.25   16.54
   3   3 -22  421.17   16.32
  -3  -3  23    6.45    3.86
   3   3 -23   10.46    3.63
  -3  -3  24  574.79   20.92
   3   3 -24  570.57   20.62
  -3  -3  25 1030.31   35.53
   3   3 -25  987.29   33.68
  -3  -3  26   24.11    4.82
   3   3 -26   20.18    3.93
  -3  -3  27   -3.71    3.56
   3   3 -27    2.08    4.30
  -3  -3  28   -6.82    4.82
   3   3 -28   -3.86    4.23
  -3  -3  29 1232.81   41.69
   3   3 -29 1207.59   40.50
  -3  -3  30  275.49   11.42
   3   3 -30  297.60   12.24
  -3  -3  31   17.13    3.71
   3   3 -31   22.62    3.71
  -3  -3  32  401.59   14.91
   3   3 -32  417.61   15.65
  -4  -3 -31   43.17    4.75
   4   3  31   39.68    5.19
  -4  -3 -30   35.83    4.67
   4   3  30   29.23    5.12
  -4  -3 -29   13.43    4.38
   4   3  29   -2.97    4.60
  -4  -3 -28  522.94   18.92
   4   3  28  531.33   19.58
  -4  -3 -27  226.24   10.31
   4   3  27  250.49   10.98
  -4  -3 -26  284.76   11.57
   4   3  26  254.80   11.13
  -4  -3 -25  181.51    8.90
   4   3  25  231.13   10.24
  -4  -3 -24  920.53   31.53
   4   3  24 1011.77   34.64
  -4  -3 -23   36.42    4.97
   4   3  23   36.87    5.27
  -4  -3 -22  335.35   13.43
   4   3  22  353.97   14.09
  -4  -3 -21  245.67   10.53
   4   3  21  240.48   10.83
  -4  -3 -20  514.64   18.92
   4   3  20  591.85   21.59
  -4  -3 -19   58.75    5.49
   4   3  19   44.21    5.27
  -4  -3 -18 1036.25   35.38
   4   3  18 1039.21   35.53
  -4  -3 -17  135.59    7.42
   4   3  17  141.31    7.71
  -4  -3 -16  878.25   30.49
   4   3  16  947.23   32.49
  -4  -3 -15  221.05    9.64
   4   3  15  202.87    9.12
  -4  -3 -14 1031.80   34.94
   4   3  14 1047.37   35.75
  -4  -3 -13 1003.61   34.20
   4   3  13 1039.21   35.53
  -4  -3 -12  201.17    8.90
   4   3  12  195.60    8.90
  -4  -3 -11 1065.18   35.83
   4   3  11 1070.37   36.05
  -4  -3 -10 1022.89   34.34
   4   3  10 1115.62   37.24
  -4  -3  -9    3.56    3.26
   4   3   9    5.49    3.41
  -4  -3  -8   21.96    3.56
   4   3   8   16.24    3.26
  -4  -3  -7   21.88    3.34
   4   3   7   18.25    3.56
  -4  -3  -6 1637.08   53.70
   4   3   6 1689.74   55.48
  -4  -3  -5  622.27   21.36
   4   3   5  586.96   20.25
  -4  -3  -4  301.16   11.20
   4   3   4  299.52   11.13
  -4  -3  -3  425.63   15.13
   4   3   3  419.54   14.84
  -4  -3  -2  867.12   29.08
   4   3   2  841.90   28.26
  -4  -3  -1   25.00    3.41
   4   3   1   26.70    3.34
  -4  -3   0    5.49    3.04
   4   3   0    2.23    2.89
  -4  -3   1 1765.40   57.78
   4   3  -1 1677.87   54.82
  -4  -3   2 1042.92   34.86
  -4  -3   2 1065.18   35.53
  -4  -3   3  416.35   15.06
  -4  -3   3  418.50   15.13
  -4  -3   4  227.20    9.20
  -4  -3   4  232.10    9.42
  -4  -3   5 1443.48   47.62
  -4  -3   5 1393.04   46.06
  -4  -3   6 1327.76   43.99
  -4  -3   6 1368.56   45.40
  -4  -3   7  250.12   10.09
  -4  -3   7  228.17    9.42
  -4  -3   8   25.37    4.01
  -4  -3   8   26.78    3.93
  -4  -3   9  410.34   15.21
  -4  -3  10  933.14   31.75
   4   3 -10  950.20   32.49
  -4  -3  11  409.16   15.35
   4   3 -11  414.50   15.65
  -4  -3  12   19.88    3.93
   4   3 -12   18.10    4.08
  -4  -3  13  812.98   28.26
   4   3 -13  814.46   28.26
  -4  -3  14  323.93   13.20
   4   3 -14  327.93   13.13
  -4  -3  15   18.92    4.90
   4   3 -15    5.41    4.08
  -4  -3  16  686.50   24.55
   4   3 -16  733.61   26.18
  -4  -3  17  106.89    6.82
   4   3 -17  119.42    7.42
  -4  -3  18  253.16   10.90
   4   3 -18  236.62   10.68
  -4  -3  19   65.28    6.23
   4   3 -19   61.57    5.49
  -4  -3  20 1565.87   52.44
   4   3 -20 1565.87   52.52
  -4  -3  21  205.69    9.94
   4   3 -21  209.03   10.09
  -4  -3  22   51.70    5.71
   4   3 -22   38.79    5.19
  -4  -3  23    2.74    4.97
   4   3 -23   -1.63    4.30
  -4  -3  24  541.79   19.88
   4   3 -24  583.92   21.07
  -4  -3  25  605.65   22.18
   4   3 -25  596.38   21.29
  -4  -3  26   56.08    5.04
   4   3 -26   55.34    4.82
  -4  -3  27  535.70   19.73
   4   3 -27  518.86   19.14
  -4  -3  28  285.13   12.09
   4   3 -28  312.13   12.68
  -4  -3  29    2.08    3.63
   4   3 -29   -0.74    4.15
  -4  -3  30   14.17    4.82
   4   3 -30   11.35    4.30
  -4  -3  31   24.70    5.19
   4   3 -31   32.93    4.52
  -4  -3  32  374.00   13.95
   4   3 -32  385.72   14.39
  -5  -3 -31   13.57    4.67
   5   3  31   11.79    5.04
  -5  -3 -30  399.14   15.06
   5   3  30  438.16   16.24
  -5  -3 -29  458.34   16.76
   5   3  29  493.27   18.17
  -5  -3 -28   32.12    5.12
   5   3  28   29.30    5.49
  -5  -3 -27   34.49    4.15
   5   3  27   33.01    5.41
  -5  -3 -26   -2.67    4.30
   5   3  26    7.64    4.67
  -5  -3 -25  859.71   29.82
   5   3  25  723.81   25.44
  -5  -3 -24   93.09    6.01
   5   3  24   89.38    6.23
  -5  -3 -23  402.78   15.73
   5   3  23  354.34   14.32
  -5  -3 -22  235.58   10.46
   5   3  22  263.77   11.65
  -5  -3 -21  477.99   17.58
   5   3  21  438.90   17.06
  -5  -3 -20   19.66    4.08
   5   3  20    7.34    4.45
  -5  -3 -19  234.32   10.24
   5   3  19  236.47   10.90
  -5  -3 -18  521.91   19.06
   5   3  18  514.64   19.21
  -5  -3 -17  652.01   23.29
   5   3  17  628.50   22.62
  -5  -3 -16  105.55    6.31
   5   3  16  108.08    6.68
  -5  -3 -15 2510.13   82.34
   5   3  15 2508.65   82.26
  -5  -3 -14   45.25    4.38
   5   3  14   36.79    4.82
  -5  -3 -13  609.95   21.59
   5   3  13  636.29   22.55
  -5  -3 -12  352.64   13.57
   5   3  12  358.79   13.95
  -5  -3 -11 3390.61  110.15
   5   3  11 3472.95  113.12
  -5  -3 -10  540.45   19.21
   5   3  10  572.35   20.55
  -5  -3  -9 1054.79   35.46
   5   3   9 1036.99   35.01
  -5  -3  -8   37.98    4.15
   5   3   8   37.46    4.08
  -5  -3  -7  260.66   10.38
   5   3   7  253.98   10.16
  -5  -3  -6 1131.93   37.76
   5   3   6  945.75   31.82
  -5  -3  -5  301.23   11.50
   5   3   5  320.15   12.16
  -5  -3  -4  149.69    6.90
   5   3   4  167.71    7.49
  -5  -3  -3 1298.09   42.95
   5   3   3 1363.37   45.10
  -5  -3  -2  235.73    9.49
   5   3   2  229.13    9.27
  -5  -3  -1   74.03    4.90
   5   3   1   66.09    4.60
  -5  -3   0  472.43   16.84
   5   3   0  479.40   16.91
  -5  -3   1 1737.21   57.04
   5   3  -1 1788.40   58.67
  -5  -3   2  276.38   10.76
   5   3  -2  282.39   11.05
  -5  -3   3    5.71    3.34
  -5  -3   3    1.34    3.49
  -5  -3   4  506.63   18.02
  -5  -3   4  535.85   18.92
  -5  -3   5 2030.95   66.54
  -5  -3   5 1990.16   65.28
  -5  -3   6  810.75   27.67
  -5  -3   6  793.69   27.22
  -5  -3   7  541.04   19.29
  -5  -3   7  542.68   19.21
  -5  -3   8  739.17   25.59
  -5  -3   8  762.54   26.26
  -5  -3   9 1332.95   44.51
  -5  -3   9 1339.63   44.65
  -5  -3  10  285.06   11.65
  -5  -3  10  293.67   11.57
  -5  -3  11 2062.11   67.87
  -5  -3  11 2052.47   67.72
  -5  -3  12   14.24    4.45
   5   3 -12   14.91    3.93
  -5  -3  13  372.66   14.39
   5   3 -13  390.61   14.98
  -5  -3  14  653.05   23.29
   5   3 -14  651.20   23.37
  -5  -3  15  479.40   18.10
   5   3 -15  468.35   17.65
  -5  -3  16 1269.16   42.95
   5   3 -16 1221.69   41.61
  -5  -3  17  441.42   17.06
   5   3 -17  455.44   17.28
  -5  -3  18    4.82    4.52
   5   3 -18    2.89    4.38
  -5  -3  19 1376.72   46.36
   5   3 -19 1390.81   47.03
  -5  -3  20  128.99    7.49
   5   3 -20  134.26    7.57
  -5  -3  21    9.72    5.12
   5   3 -21    4.82    3.78
  -5  -3  22  117.05    6.75
   5   3 -22  107.41    6.31
  -5  -3  23  432.75   16.69
   5   3 -23  437.49   16.47
  -5  -3  24   93.31    6.45
   5   3 -24   99.92    6.16
  -5  -3  25    2.37    4.97
   5   3 -25   10.31    4.08
  -5  -3  26    8.90    4.45
   5   3 -26   26.41    4.23
  -5  -3  27  870.09   30.19
   5   3 -27  853.03   29.67
  -5  -3  28  438.75   16.32
   5   3 -28  445.43   16.54
  -5  -3  29    0.15    4.97
   5   3 -29    3.41    4.45
  -5  -3  30  274.45   11.42
   5   3 -30  251.31   10.31
  -5  -3  31  988.77   33.38
   5   3 -31  988.03   33.38
  -5  -3  32   33.53    5.04
   5   3 -32   27.45    4.45
  -6  -3 -30  416.50   15.50
   6   3  30  425.85   15.80
  -6  -3 -29  156.66    7.64
   6   3  29  210.88    9.79
  -6  -3 -28    0.52    4.23
   6   3  28   -1.19    4.90
  -6  -3 -27  284.02   11.72
   6   3  27  257.02   11.20
  -6  -3 -26  629.68   22.33
   6   3  26  580.36   21.07
  -6  -3 -25   37.76    5.34
   6   3  25   28.93    4.90
  -6  -3 -24  171.13    8.46
   6   3  24  167.71    8.68
  -6  -3 -23  126.17    6.90
   6   3  23  120.91    7.57
  -6  -3 -22  522.65   19.14
   6   3  22  496.02   18.77
  -6  -3 -21   99.92    6.38
   6   3  21  102.73    6.90
  -6  -3 -20  220.23    9.94
   6   3  20  191.08    9.64
  -6  -3 -19   91.09    6.31
   6   3  19  110.15    7.20
  -6  -3 -18  945.75   32.49
   6   3  18  994.71   34.42
  -6  -3 -17   10.53    3.93
   6   3  17   25.37    5.41
  -6  -3 -16  613.96   22.25
   6   3  16  637.47   23.07
  -6  -3 -15  908.66   31.23
   6   3  15  910.89   31.38
  -6  -3 -14 1108.20   37.61
   6   3  14 1034.76   35.31
  -6  -3 -13  256.28   10.68
   6   3  13  223.64    9.79
  -6  -3 -12  551.95   19.73
   6   3  12  523.24   18.99
  -6  -3 -11  746.96   26.04
   6   3  11  707.94   24.77
  -6  -3 -10  206.43    9.20
   6   3  10  212.66    9.42
  -6  -3  -9 1038.47   35.16
   6   3   9  986.55   33.68
  -6  -3  -8  536.22   19.14
   6   3   8  567.45   20.40
  -6  -3  -7  191.67    8.53
   6   3   7  193.30    8.75
  -6  -3  -6  245.52   10.01
   6   3   6  248.49   10.16
  -6  -3  -5   40.20    4.23
   6   3   5   27.52    3.86
  -6  -3  -4 1414.55   46.88
   6   3   4 1391.55   46.21
  -6  -3  -3  830.78   28.26
   6   3   3  860.45   29.30
  -6  -3  -2   73.06    4.97
   6   3   2   77.00    5.04
  -6  -3  -1  376.67   13.87
   6   3   1  418.88   15.35
  -6  -3   0 3047.91   99.03
   6   3   0 3027.15   98.36
  -6  -3   1  299.45   11.65
   6   3  -1  330.09   12.61
  -6  -3   2   83.97    5.41
   6   3  -2   83.00    5.27
  -6  -3   3 1445.70   47.92
   6   3  -3 1516.17   50.14
  -6  -3   4 1620.02   53.56
  -6  -3   4 1678.62   55.34
  -6  -3   5  256.43   10.46
  -6  -3   5  261.77   10.61
  -6  -3   6  758.08   26.18
  -6  -3   6  734.27   25.37
  -6  -3   7  330.31   12.76
  -6  -3   7  355.53   13.57
  -6  -3   8  674.49   23.66
  -6  -3   8  666.62   23.29
  -6  -3   9  621.75   22.10
  -6  -3   9  613.29   21.73
  -6  -3  10 2490.85   81.67
  -6  -3  10 2524.23   82.63
  -6  -3  11 2389.23   78.40
  -6  -3  11 2438.18   80.04
  -6  -3  12  592.30   21.29
  -6  -3  12  618.19   22.10
  -6  -3  13  324.82   12.91
  -6  -3  13  328.90   13.13
  -6  -3  14 1342.60   45.17
  -6  -3  14 1422.71   47.92
  -6  -3  15  324.67   13.35
   6   3 -15  317.77   12.91
  -6  -3  16  559.37   20.47
   6   3 -16  520.94   19.36
  -6  -3  17  108.22    6.75
   6   3 -17   93.17    6.45
  -6  -3  18 1068.88   36.64
   6   3 -18 1079.27   37.09
  -6  -3  19  424.59   16.39
   6   3 -19  448.99   17.21
  -6  -3  20   53.78    6.01
   6   3 -20   40.72    4.67
  -6  -3  21    5.71    4.90
   6   3 -21    8.90    4.23
  -6  -3  22  896.05   31.01
   6   3 -22  902.73   30.93
  -6  -3  23   74.40    6.31
   6   3 -23   86.19    5.71
  -6  -3  24   21.44    5.27
   6   3 -24   17.95    4.30
  -6  -3  25  287.51   11.87
   6   3 -25  286.84   11.72
  -6  -3  26 1116.36   38.13
   6   3 -26 1091.14   37.16
  -6  -3  27   66.31    5.12
   6   3 -27   72.99    5.79
  -6  -3  28    6.08    5.12
   6   3 -28    5.19    3.78
  -6  -3  29   50.37    4.60
   6   3 -29   43.17    5.27
  -6  -3  30  479.18   17.80
   6   3 -30  451.36   16.39
  -6  -3  31   39.83    4.60
   6   3 -31   36.20    4.30
  -6  -3  32    6.82    4.30
   6   3 -32    6.82    3.63
  -7  -3 -29   30.86    4.38
   7   3  29   20.84    4.90
  -7  -3 -28  186.41    8.60
   7   3  28  188.56    8.90
  -7  -3 -27  635.92   22.40
   7   3  27  659.50   23.29
  -7  -3 -26   69.21    5.27
   7   3  26   74.92    6.45
  -7  -3 -25   70.69    5.49
   7   3  25   59.86    5.93
  -7  -3 -24   12.39    4.52
   7   3  24    3.49    4.75
  -7  -3 -23  784.79   27.37
   7   3  23  781.82   27.59
  -7  -3 -22   13.72    4.67
   7   3  22   23.66    5.41
  -7  -3 -21   40.35    5.04
   7   3  21   41.09    5.34
  -7  -3 -20   67.57    5.64
   7   3  20   63.35    6.23
  -7  -3 -19  621.38   22.48
   7   3  19  700.00   25.00
  -7  -3 -18    5.79    4.60
   7   3  18   13.57    4.67
  -7  -3 -17  106.44    6.45
   7   3  17  112.53    7.12
  -7  -3 -16 1392.29   46.73
   7   3  16 1377.46   46.58
  -7  -3 -15 1707.54   56.82
   7   3  15 1558.45   52.37
  -7  -3 -14  598.09   21.51
   7   3  14  595.71   21.81
  -7  -3 -13  749.92   26.18
   7   3  13  769.95   27.07
  -7  -3 -12    3.26    2.97
   7   3  12   -2.82    3.71
  -7  -3 -11  603.80   21.51
   7   3  11  584.73   20.99
  -7  -3 -10  914.60   31.45
   7   3  10  948.72   32.42
  -7  -3  -9  903.47   31.01
   7   3   9  964.30   32.86
  -7  -3  -8 1579.22   52.52
   7   3   8 1548.81   51.48
  -7  -3  -7  199.68    8.90
   7   3   7  203.47    9.12
  -7  -3  -6  270.67   10.83
   7   3   6  285.88   11.57
  -7  -3  -5 1290.67   43.02
   7   3   5 1482.05   49.40
  -7  -3  -4    8.68    3.93
   7   3   4    5.79    4.01
  -7  -3  -3   42.06    4.45
   7   3   3   40.28    4.60
  -7  -3  -2   76.85    5.41
   7   3   2   72.84    5.41
  -7  -3  -1 2342.50   76.62
   7   3   1 2389.97   78.18
  -7  -3   0  337.43   12.98
   7   3   0  352.93   13.35
  -7  -3   1  185.14    8.38
   7   3  -1  174.24    8.01
  -7  -3   2  114.38    6.45
   7   3  -2  112.67    6.31
  -7  -3   3  716.69   24.85
   7   3  -3  662.99   22.99
  -7  -3   4  112.08    6.31
   7   3  -4  115.27    6.38
  -7  -3   5  500.62   18.17
  -7  -3   5  485.11   17.65
  -7  -3   6  540.38   19.43
  -7  -3   6  548.83   19.73
  -7  -3   7 4026.30  130.62
  -7  -3   7 3974.38  128.84
  -7  -3   8  139.23    7.34
  -7  -3   8  145.53    7.57
  -7  -3   9  765.50   26.70
  -7  -3   9  818.91   28.34
  -7  -3  10  480.44   17.80
  -7  -3  10  476.36   17.58
  -7  -3  11 1311.44   44.06
  -7  -3  11 1340.37   44.95
  -7  -3  12  281.50   11.72
  -7  -3  12  289.51   12.02
  -7  -3  13  156.88    8.23
  -7  -3  13  134.78    7.64
  -7  -3  14  342.55   13.72
  -7  -3  14  362.35   14.32
  -7  -3  15  300.86   12.39
  -7  -3  15  295.67   12.39
  -7  -3  16    8.46    4.45
  -7  -3  16    9.20    4.75
  -7  -3  17  399.07   15.35
  -7  -3  17  432.23   16.69
  -7  -3  18  628.35   22.77
  -7  -3  18  606.84   21.96
  -7  -3  19  345.96   14.09
   7   3 -19  386.16   15.21
  -7  -3  20    6.90    4.97
   7   3 -20    7.79    4.01
  -7  -3  21 1103.75   37.90
   7   3 -21 1015.48   34.49
  -7  -3  22    9.27    4.75
   7   3 -22   11.05    3.93
  -7  -3  23  257.39   10.83
   7   3 -23  275.86   11.35
  -7  -3  24  266.66   11.65
   7   3 -24  254.43   10.83
  -7  -3  25  921.27   31.97
   7   3 -25  941.30   32.19
  -7  -3  26   13.50    3.78
   7   3 -26   23.96    4.45
  -7  -3  27   30.71    5.34
   7   3 -27   27.00    4.30
  -7  -3  28   11.13    4.23
   7   3 -28    4.15    3.56
  -7  -3  29 1086.69   36.79
   7   3 -29 1083.72   36.64
  -7  -3  30  132.70    7.27
   7   3 -30  127.51    6.75
  -7  -3  31    3.86    4.60
   7   3 -31    1.71    3.93
  -7  -3  32  197.53    8.31
   7   3 -32  207.99    8.53
  -8  -3 -29    0.00    3.63
   8   3  29   -0.30    4.30
  -8  -3 -28  259.99   10.76
   8   3  28  287.66   11.65
  -8  -3 -27  134.56    7.27
   8   3  27  132.33    7.71
  -8  -3 -26   -1.04    3.71
   8   3  26    0.45    4.90
  -8  -3 -25   83.97    5.71
   8   3  25   77.96    6.31
  -8  -3 -24  979.87   33.53
   8   3  24  984.32   33.75
  -8  -3 -23   -3.34    4.30
   8   3  23    0.37    4.97
  -8  -3 -22   96.21    6.60
   8   3  22  106.22    7.27
  -8  -3 -21   11.42    4.60
   8   3  21    4.75    4.67
  -8  -3 -20 1086.69   37.09
   8   3  20 1103.01   37.83
  -8  -3 -19    0.74    4.45
   8   3  19    4.01    4.90
  -8  -3 -18  272.75   11.42
   8   3  18  228.39   10.46
  -8  -3 -17  133.30    7.27
   8   3  17  129.22    7.79
  -8  -3 -16  579.54   21.07
   8   3  16  550.24   20.25
  -8  -3 -15  493.42   18.17
   8   3  15  446.17   17.28
  -8  -3 -14 1518.39   50.81
   8   3  14 1467.95   49.48
  -8  -3 -13 2268.32   74.70
   8   3  13 2081.39   69.06
  -8  -3 -12   91.90    6.16
   8   3  12   88.34    6.53
  -8  -3 -11  434.08   16.47
   8   3  11  421.92   16.10
  -8  -3 -10 1452.38   48.59
   8   3  10 1442.73   48.36
  -8  -3  -9   57.04    4.97
   8   3   9   47.92    5.27
  -8  -3  -8  701.19   24.77
   8   3   8  660.47   23.44
  -8  -3  -7   -0.74    3.86
   8   3   7    6.75    3.86
  -8  -3  -6 1105.23   37.46
   8   3   6 1094.10   36.94
  -8  -3  -5  411.16   15.50
   8   3   5  389.35   14.69
  -8  -3  -4  182.25    8.75
   8   3   4  175.06    8.16
  -8  -3  -3   55.85    4.90
   8   3   3   52.07    4.82
  -8  -3  -2 2116.26   69.50
   8   3   2 2129.61   69.87
  -8  -3  -1  347.15   13.35
   8   3   1  357.61   13.57
  -8  -3   0  105.92    6.08
   8   3   0  100.06    5.93
  -8  -3   1  498.32   18.10
   8   3  -1  460.78   16.76
  -8  -3   2 1789.88   59.12
   8   3  -2 1814.36   59.86
  -8  -3   3  245.38   10.38
   8   3  -3  236.03   10.09
  -8  -3   4    4.90    3.78
   8   3  -4    0.74    3.78
  -8  -3   5  464.35   16.91
  -8  -3   5  458.49   17.06
  -8  -3   6 1308.47   43.99
  -8  -3   6 1326.28   44.51
  -8  -3   7  285.28   11.79
  -8  -3   7  282.24   11.50
  -8  -3   8  725.37   25.52
  -8  -3   8  758.08   26.48
  -8  -3   9 1959.00   64.68
  -8  -3   9 2125.16   70.02
  -8  -3  10  558.10   20.25
  -8  -3  10  503.88   18.54
  -8  -3  11    4.60    4.01
  -8  -3  11    6.38    4.30
  -8  -3  12 1338.15   45.03
  -8  -3  12 1295.86   43.84
  -8  -3  13 1404.90   47.18
  -8  -3  13 1383.39   46.58
  -8  -3  14  912.37   31.60
  -8  -3  14  932.40   32.27
  -8  -3  15   19.73    4.67
  -8  -3  15   12.02    4.08
  -8  -3  16  543.34   20.03
  -8  -3  16  536.44   20.03
  -8  -3  17  344.85   13.87
  -8  -3  17  334.68   13.72
  -8  -3  18  628.79   22.70
  -8  -3  18  632.13   22.77
  -8  -3  19   -0.37    4.15
  -8  -3  19   -4.82    3.93
  -8  -3  20 1344.82   45.32
  -8  -3  20 1371.52   46.29
  -8  -3  21  118.46    7.27
  -8  -3  21  109.41    6.82
  -8  -3  22  374.44   14.61
  -8  -3  22  381.19   14.98
  -8  -3  23   93.54    6.60
  -8  -3  23   92.13    6.90
  -8  -3  24 1108.94   37.83
  -8  -3  24 1013.99   34.71
  -8  -3  25  178.02    8.98
  -8  -3  25  196.57    8.90
  -8  -3  26    1.93    3.86
  -8  -3  26   10.09    4.82
  -8  -3  27  425.40   16.17
  -8  -3  27  419.84   15.58
  -8  -3  28  641.70   22.55
  -8  -3  28  633.76   22.48
  -8  -3  29    2.45    3.93
  -8  -3  29    1.11    4.82
  -8  -3  30   50.59    4.90
  -8  -3  30   46.36    4.38
  -8  -3  31    6.16    4.15
  -8  -3  31    3.63    4.60
  -9  -3 -28   42.73    5.04
   9   3  28   44.06    5.27
  -9  -3 -27   20.18    4.08
   9   3  27   12.68    4.90
  -9  -3 -26    8.83    3.78
   9   3  26   13.06    4.97
  -9  -3 -25  861.93   29.60
   9   3  25  831.52   29.08
  -9  -3 -24   56.60    5.56
   9   3  24   58.01    5.79
  -9  -3 -23  189.30    8.98
   9   3  23  181.21    9.05
  -9  -3 -22   77.00    6.16
   9   3  22   75.14    6.60
  -9  -3 -21  496.09   18.40
   9   3  21  584.96   21.29
  -9  -3 -20  283.43   12.02
   9   3  20  258.58   11.65
  -9  -3 -19  471.91   17.80
   9   3  19  454.63   17.51
  -9  -3 -18  799.62   27.96
   9   3  18  859.71   30.12
  -9  -3 -17  457.37   17.13
   9   3  17  487.56   18.47
  -9  -3 -16  221.27   10.24
   9   3  16  217.34   10.16
  -9  -3 -15 1143.80   38.72
   9   3  15 1194.98   40.65
  -9  -3 -14   62.83    5.64
   9   3  14   65.57    6.08
  -9  -3 -13 1645.24   54.89
   9   3  13 1664.52   55.48
  -9  -3 -12  115.05    6.82
   9   3  12  123.43    7.57
  -9  -3 -11 1937.49   64.09
   9   3  11 1943.43   64.53
  -9  -3 -10 1214.27   41.09
   9   3  10 1166.06   39.68
  -9  -3  -9 1014.74   34.79
   9   3   9 1064.43   36.35
  -9  -3  -8 2203.79   72.54
   9   3   8 2132.58   70.39
  -9  -3  -7 1788.40   59.42
   9   3   7 1763.92   58.75
  -9  -3  -6   46.06    4.97
   9   3   6   47.47    5.49
  -9  -3  -5  331.27   13.20
   9   3   5  315.84   12.91
  -9  -3  -4  166.23    8.46
   9   3   4  154.66    7.94
  -9  -3  -3 1688.26   56.23
   9   3   3 1640.79   54.59
  -9  -3  -2  459.30   17.21
   9   3   2  452.48   17.06
  -9  -3  -1    4.60    4.01
   9   3   1    4.52    4.15
  -9  -3   0   56.15    5.27
   9   3   0   48.96    5.04
  -9  -3   1 2060.62   68.02
   9   3  -1 2185.24   72.10
  -9  -3   2  129.14    7.20
   9   3  -2  126.10    7.27
  -9  -3   3   45.99    5.04
   9   3  -3   43.84    4.97
  -9  -3   4  707.57   24.92
   9   3  -4  703.05   24.85
  -9  -3   5 1026.60   35.01
   9   3  -5 1098.55   37.38
  -9  -3   6   35.90    4.75
  -9  -3   6   25.89    4.38
  -9  -3   7  191.45    8.90
  -9  -3   7  194.05    9.05
  -9  -3   8 2284.64   75.14
  -9  -3   8 2293.54   75.44
  -9  -3   9 1960.49   64.76
  -9  -3   9 1978.29   65.35
  -9  -3  10  751.41   26.41
  -9  -3  10  740.06   26.04
  -9  -3  11 1700.87   56.60
  -9  -3  11 1666.75   55.63
  -9  -3  12    5.49    4.01
  -9  -3  12   -8.01    4.23
  -9  -3  13 1612.60   53.78
  -9  -3  13 1611.86   53.93
  -9  -3  14  412.35   15.95
  -9  -3  14  409.68   15.73
  -9  -3  15 1202.40   40.72
  -9  -3  15 1215.75   41.39
  -9  -3  16  812.23   28.41
  -9  -3  16  851.55   29.74
  -9  -3  17 1030.31   35.46
  -9  -3  17  973.94   33.60
  -9  -3  18   93.39    6.53
  -9  -3  18   85.90    6.38
  -9  -3  19 1078.53   36.79
  -9  -3  19 1143.06   39.09
  -9  -3  20  172.53    8.68
  -9  -3  20  180.77    9.12
  -9  -3  21  169.94    8.46
  -9  -3  21  186.33    9.35
  -9  -3  22  162.45    8.38
  -9  -3  22  145.53    8.09
  -9  -3  23 1469.44   49.18
  -9  -3  23 1522.84   50.81
  -9  -3  24    8.75    4.90
  -9  -3  24    6.08    3.49
  -9  -3  25    1.34    4.52
  -9  -3  25    2.00    4.60
  -9  -3  26   83.52    6.23
  -9  -3  26   81.97    6.31
  -9  -3  27  890.86   30.41
  -9  -3  27  876.77   30.12
  -9  -3  28  186.85    8.98
  -9  -3  28  177.58    8.60
  -9  -3  29   84.64    6.01
  -9  -3  29   96.73    6.53
  -9  -3  30  273.93   11.35
  -9  -3  30  271.78   10.76
  -9  -3  31  383.20   13.87
  -9  -3  31  369.92   14.02
 -10  -3 -27  301.90   12.09
  10   3  27  317.25   12.39
 -10  -3 -26  722.11   25.22
  10   3  26  687.54   24.03
 -10  -3 -25    2.97    4.23
  10   3  25   -2.60    4.90
 -10  -3 -24  119.57    6.45
  10   3  24  116.68    7.49
 -10  -3 -23  149.69    7.49
  10   3  23  157.85    8.38
 -10  -3 -22  485.34   17.73
  10   3  22  459.52   17.43
 -10  -3 -21   -1.34    3.78
  10   3  21    3.78    4.82
 -10  -3 -20  345.89   13.50
  10   3  20  358.57   14.61
 -10  -3 -19  135.89    7.57
  10   3  19  136.26    7.94
 -10  -3 -18  891.60   31.01
  10   3  18  894.57   30.93
 -10  -3 -17   27.00    4.38
  10   3  17   21.73    5.34
 -10  -3 -16  110.89    6.97
  10   3  16  104.51    7.05
 -10  -3 -15  939.08   32.42
  10   3  15 1035.50   35.60
 -10  -3 -14  112.01    6.97
  10   3  14  120.17    7.64
 -10  -3 -13  362.35   14.02
  10   3  13  407.60   15.87
 -10  -3 -12   69.95    5.71
  10   3  12   61.27    6.01
 -10  -3 -11   96.58    6.53
  10   3  11  103.18    6.82
 -10  -3 -10  194.19    9.49
  10   3  10  170.90    8.60
 -10  -3  -9   48.36    5.04
  10   3   9   46.21    5.49
 -10  -3  -8  787.01   27.52
  10   3   8  828.55   29.08
 -10  -3  -7   40.72    4.75
  10   3   7   38.42    4.82
 -10  -3  -6    5.34    4.45
  10   3   6   11.72    4.38
 -10  -3  -5  183.74    8.83
  10   3   5  189.30    9.05
 -10  -3  -4 1668.97   55.71
  10   3   4 1662.30   55.34
 -10  -3  -3  717.95   25.37
  10   3   3  746.96   26.18
 -10  -3  -2   12.31    4.08
  10   3   2    6.23    4.15
 -10  -3  -1   12.09    4.38
  10   3   1    7.71    4.23
 -10  -3   0 2309.12   75.88
  10   3   0 2326.18   76.48
 -10  -3   1  431.19   16.24
  10   3  -1  450.92   16.76
 -10  -3   2   11.42    4.30
  10   3  -2   15.13    4.38
 -10  -3   3  232.84   10.24
  10   3  -3  219.34    9.57
 -10  -3   4 1653.40   54.96
  10   3  -4 1627.43   54.07
 -10  -3   5    6.97    4.23
  10   3  -5    4.38    4.15
 -10  -3   6 1119.32   38.05
 -10  -3   6 1239.49   42.06
 -10  -3   7    7.34    3.56
 -10  -3   7    4.38    4.30
 -10  -3   8 2242.36   73.88
 -10  -3   8 2350.66   77.44
 -10  -3   9  174.98    8.68
 -10  -3   9  174.39    8.68
 -10  -3  10 1578.48   52.74
 -10  -3  10 1597.02   53.33
 -10  -3  11  954.65   32.86
 -10  -3  11  920.53   31.82
 -10  -3  12  919.05   31.90
 -10  -3  12  900.50   31.23
 -10  -3  13  276.16   11.50
 -10  -3  13  299.08   12.31
 -10  -3  14  785.53   27.52
 -10  -3  14  781.08   27.59
 -10  -3  15   51.85    5.34
 -10  -3  15   53.85    5.27
 -10  -3  16 1036.99   35.53
 -10  -3  16 1025.86   35.38
 -10  -3  17   23.96    4.52
 -10  -3  17   31.38    5.12
 -10  -3  18 1035.50   35.31
 -10  -3  18 1050.34   36.05
 -10  -3  19  158.29    8.01
 -10  -3  19  152.66    7.64
 -10  -3  20  293.52   12.09
 -10  -3  20  282.09   11.79
 -10  -3  21   37.38    5.12
 -10  -3  21   32.34    4.67
 -10  -3  22 1456.09   48.59
 -10  -3  22 1451.64   48.66
 -10  -3  23  240.55   10.53
 -10  -3  23  237.81   10.24
 -10  -3  24   73.73    5.86
 -10  -3  24   75.36    6.23
 -10  -3  25  474.73   17.80
 -10  -3  25  471.47   17.65
 -10  -3  26  765.50   26.63
 -10  -3  26  786.27   27.52
 -10  -3  27   16.84    4.38
 -10  -3  27   10.90    3.49
 -10  -3  28   12.46    4.75
 -10  -3  28    9.79    4.23
 -10  -3  29    3.56    4.45
 -10  -3  29   -2.67    4.45
 -10  -3  30  940.56   31.97
 -10  -3  30  928.69   31.38
 -11  -3 -26   84.12    5.64
  11   3  26   67.06    5.86
 -11  -3 -25  107.41    6.53
  11   3  25  115.27    6.90
 -11  -3 -24  234.40   10.24
  11   3  24  241.89   10.61
 -11  -3 -23  453.44   16.91
  11   3  23  519.46   19.29
 -11  -3 -22    5.49    4.38
  11   3  22   -2.97    4.52
 -11  -3 -21  225.65   10.16
  11   3  21  217.41   10.38
 -11  -3 -20  147.46    7.86
  11   3  20  128.55    7.86
 -11  -3 -19  225.72   10.09
  11   3  19  239.96   10.98
 -11  -3 -18   18.17    3.63
  11   3  18   16.02    5.19
 -11  -3 -17  104.89    6.75
  11   3  17   97.32    6.97
 -11  -3 -16  624.49   22.48
  11   3  16  587.63   21.51
 -11  -3 -15  247.30   10.46
  11   3  15  247.23   11.05
 -11  -3 -14  195.38    9.49
  11   3  14  170.24    8.68
 -11  -3 -13  983.58   33.90
  11   3  13 1053.31   36.35
 -11  -3 -12  434.01   16.39
  11   3  12  422.58   16.32
 -11  -3 -11  515.82   19.14
  11   3  11  514.56   19.43
 -11  -3 -10  348.93   13.95
  11   3  10  351.23   14.39
 -11  -3  -9 1909.30   63.27
  11   3   9 1967.16   65.28
 -11  -3  -8 1183.86   40.20
  11   3   8 1365.59   46.14
 -11  -3  -7   32.19    4.90
  11   3   7   35.09    5.04
 -11  -3  -6  778.85   27.22
  11   3   6  743.25   26.26
 -11  -3  -5 1186.08   40.28
  11   3   5 1183.12   40.20
 -11  -3  -4  169.49    8.75
  11   3   4  166.23    8.60
 -11  -3  -3   71.51    5.93
  11   3   3   62.61    5.56
 -11  -3  -2   36.64    4.75
  11   3   2   27.52    4.75
 -11  -3  -1 2709.67   88.94
  11   3   1 2564.28   84.26
 -11  -3   0  703.71   24.92
  11   3   0  714.32   25.29
 -11  -3   1  620.86   22.33
  11   3  -1  599.42   21.81
 -11  -3   2  133.37    7.71
  11   3  -2  126.92    7.49
 -11  -3   3 1489.47   49.85
  11   3  -3 1486.50   49.99
 -11  -3   4 1419.74   47.62
  11   3  -4 1356.69   45.92
 -11  -3   5  310.58   12.68
  11   3  -5  315.99   13.20
 -11  -3   6 3041.98   99.40
  11   3  -6 3080.55  100.88
 -11  -3   7 2053.21   67.87
 -11  -3   7 2096.23   69.28
 -11  -3   8  220.82    9.94
 -11  -3   8  222.60   10.16
 -11  -3   9   12.91    4.52
 -11  -3   9    8.98    4.45
 -11  -3  10  804.82   28.19
 -11  -3  10  783.30   27.45
 -11  -3  11 1589.60   53.11
 -11  -3  11 1594.05   53.26
 -11  -3  12  611.51   22.25
 -11  -3  12  580.43   20.99
 -11  -3  13  666.92   23.74
 -11  -3  13  631.32   22.70
 -11  -3  14  648.53   23.37
 -11  -3  14  651.20   23.51
 -11  -3  15  907.18   31.23
 -11  -3  15  923.50   31.97
 -11  -3  16  253.54   10.83
 -11  -3  16  263.85   11.57
 -11  -3  17  682.20   24.26
 -11  -3  17  677.83   24.40
 -11  -3  18  141.75    7.64
 -11  -3  18  144.64    7.86
 -11  -3  19  292.70   12.16
 -11  -3  19  290.55   12.02
 -11  -3  20   -3.04    4.23
 -11  -3  20    5.41    3.26
 -11  -3  21 1331.47   44.65
 -11  -3  21 1266.94   42.73
 -11  -3  22  366.88   14.17
 -11  -3  22  342.32   13.35
 -11  -3  23   66.83    5.93
 -11  -3  23   74.40    5.27
 -11  -3  24   42.28    5.27
 -11  -3  24   52.67    4.97
 -11  -3  25  716.62   25.44
 -11  -3  25  699.78   24.63
 -11  -3  26  107.11    6.45
 -11  -3  26  114.38    7.27
 -11  -3  27    2.60    4.45
 -11  -3  27    7.34    4.01
 -11  -3  28  118.68    6.90
 -11  -3  28  104.22    5.86
 -11  -3  29  408.49   15.43
 -11  -3  29  408.64   15.28
 -11  -3  30   45.17    4.52
 -11  -3  30   55.56    5.41
 -12  -3 -25  386.83   14.39
  12   3  25  358.79   13.72
 -12  -3 -24  394.40   14.69
  12   3  24  387.05   14.91
 -12  -3 -23   18.99    4.38
  12   3  23   16.24    4.75
 -12  -3 -22  249.75   10.46
  12   3  22  237.22   10.90
 -12  -3 -21  151.99    7.57
  12   3  21  161.78    8.46
 -12  -3 -20  510.78   18.62
  12   3  20  508.70   19.06
 -12  -3 -19   14.17    3.49
  12   3  19   12.46    5.19
 -12  -3 -18  474.51   17.58
  12   3  18  523.69   19.51
 -12  -3 -17   15.87    4.75
  12   3  17    7.57    4.90
 -12  -3 -16  247.08   10.76
  12   3  16  229.06   10.68
 -12  -3 -15  101.84    6.45
  12   3  15   87.38    6.68
 -12  -3 -14 1936.01   64.16
  12   3  14 1799.52   59.93
 -12  -3 -13  616.41   22.18
  12   3  13  610.32   22.10
 -12  -3 -12  136.04    7.64
  12   3  12  150.80    8.31
 -12  -3 -11  215.26   10.09
  12   3  11  228.39   10.38
 -12  -3 -10 2869.89   93.98
  12   3  10 2794.97   91.68
 -12  -3  -9    8.83    3.71
  12   3   9    2.60    4.90
 -12  -3  -8   17.95    4.23
  12   3   8   21.36    5.19
 -12  -3  -7   25.37    4.52
  12   3   7   25.07    5.19
 -12  -3  -6 1741.67   57.86
  12   3   6 1832.16   60.90
 -12  -3  -5  606.91   21.88
  12   3   5  578.21   21.07
 -12  -3  -4   77.14    5.49
  12   3   4   94.43    6.68
 -12  -3  -3  249.08   10.61
  12   3   3  247.53   10.90
 -12  -3  -2 1778.75   59.04
  12   3   2 1841.80   61.27
 -12  -3  -1  454.55   17.21
  12   3   1  492.31   18.47
 -12  -3   0  230.76   10.46
  12   3   0  229.28   10.46
 -12  -3   1  153.99    8.23
  12   3  -1  162.08    8.38
 -12  -3   2 1624.47   54.30
  12   3  -2 1572.54   52.59
 -12  -3   3   -0.67    4.38
  12   3  -3    2.67    4.01
 -12  -3   4   88.42    6.45
  12   3  -4   90.27    6.38
 -12  -3   5  196.35    9.42
  12   3  -5  177.65    8.75
 -12  -3   6  425.40   16.24
  12   3  -6  424.88   16.39
 -12  -3   7  128.18    7.20
 -12  -3   7  137.00    7.79
 -12  -3   8 1545.10   51.78
 -12  -3   8 1497.62   50.14
 -12  -3   9   70.25    5.64
 -12  -3   9   68.24    5.27
 -12  -3  10  117.35    6.97
 -12  -3  10   94.43    6.31
 -12  -3  11  282.98   11.79
 -12  -3  11  295.67   12.24
 -12  -3  12 2312.82   76.25
 -12  -3  12 2349.17   77.44
 -12  -3  13    9.57    4.23
 -12  -3  13    3.49    4.15
 -12  -3  14  536.30   19.81
 -12  -3  14  496.69   18.32
 -12  -3  15  584.51   21.14
 -12  -3  15  578.06   21.14
 -12  -3  16 1074.82   36.57
 -12  -3  16 1074.08   36.94
 -12  -3  17  139.53    7.49
 -12  -3  17  140.34    7.79
 -12  -3  18  230.61   10.16
 -12  -3  18  213.78    9.64
 -12  -3  19   26.70    4.60
 -12  -3  19   32.71    4.52
 -12  -3  20  835.97   28.85
 -12  -3  20  811.49   28.26
 -12  -3  21  509.44   18.62
 -12  -3  21  542.82   19.81
 -12  -3  22   27.74    4.67
 -12  -3  22   29.82    4.60
 -12  -3  23   15.80    4.82
 -12  -3  23   13.43    4.01
 -12  -3  24  541.41   19.43
 -12  -3  24  516.19   18.99
 -12  -3  25  459.00   17.06
 -12  -3  25  471.17   17.43
 -12  -3  26   -1.63    3.71
 -12  -3  26   -0.07    4.45
 -12  -3  27  294.04   12.02
 -12  -3  27  285.36   11.72
 -12  -3  28  522.20   18.84
 -12  -3  28  480.29   17.36
 -12  -3  29  217.11    8.83
 -12  -3  29  190.78    8.53
 -13  -3 -24   29.23    4.15
  13   3  24   18.32    4.67
 -13  -3 -23  175.65    8.09
  13   3  23  155.92    8.01
 -13  -3 -22  234.47    9.94
  13   3  22  229.72   10.16
 -13  -3 -21  518.42   18.69
  13   3  21  464.27   17.51
 -13  -3 -20  235.14   10.01
  13   3  20  243.82   10.98
 -13  -3 -19  334.61   12.98
  13   3  19  360.72   14.24
 -13  -3 -18  311.99   12.46
  13   3  18  312.95   13.13
 -13  -3 -17  877.51   30.41
  13   3  17  939.82   32.79
 -13  -3 -16   80.33    6.16
  13   3  16   81.37    6.75
 -13  -3 -15  275.05   11.20
  13   3  15  271.34   11.87
 -13  -3 -14  286.77   12.02
  13   3  14  310.21   13.06
 -13  -3 -13  610.47   21.96
  13   3  13  638.88   23.07
 -13  -3 -12   66.61    5.71
  13   3  12   72.47    6.53
 -13  -3 -11  492.24   18.32
  13   3  11  484.82   18.40
 -13  -3 -10  117.35    7.12
  13   3  10  117.20    7.57
 -13  -3  -9   94.87    6.31
  13   3   9  101.84    7.12
 -13  -3  -8  837.45   29.30
  13   3   8  738.50   26.33
 -13  -3  -7 1557.71   52.22
  13   3   7 1603.70   53.63
 -13  -3  -6    7.27    4.15
  13   3   6   -0.30    4.45
 -13  -3  -5   12.98    4.30
  13   3   5    7.49    4.45
 -13  -3  -4   43.24    4.97
  13   3   4   37.09    5.19
 -13  -3  -3 1814.36   60.23
  13   3   3 1828.45   60.68
 -13  -3  -2  200.43    9.12
  13   3   2  200.13    9.35
 -13  -3  -1   75.51    5.49
  13   3   1   74.99    5.79
 -13  -3   0  112.90    6.68
  13   3   0  121.72    7.05
 -13  -3   1 1712.74   56.97
  13   3  -1 1775.05   59.04
 -13  -3   2   -2.23    3.56
  13   3  -2    5.71    3.78
 -13  -3   3  403.97   15.58
  13   3  -3  418.65   16.02
 -13  -3   4  170.31    8.38
  13   3  -4  187.52    9.12
 -13  -3   5 1338.89   45.10
  13   3  -5 1332.21   44.95
 -13  -3   6    8.23    4.01
  13   3  -6   10.01    4.01
 -13  -3   7  188.11    8.98
 -13  -3   8  999.90   34.34
 -13  -3   8  993.97   34.20
 -13  -3   9 2111.06   69.87
 -13  -3   9 2066.56   68.46
 -13  -3  10  237.29   10.61
 -13  -3  10  223.57   10.24
 -13  -3  11  218.30    9.87
 -13  -3  11  206.06    9.64
 -13  -3  12  277.87   11.72
 -13  -3  12  273.71   11.79
 -13  -3  13  322.22   12.98
 -13  -3  13  335.43   13.43
 -13  -3  14   12.31    3.93
 -13  -3  14    3.12    4.30
 -13  -3  15  959.84   32.86
 -13  -3  15 1031.80   35.46
 -13  -3  16  234.99   10.31
 -13  -3  16  254.57   10.90
 -13  -3  17   37.83    4.67
 -13  -3  17   34.42    4.67
 -13  -3  18   86.04    5.93
 -13  -3  18   82.86    6.38
 -13  -3  19  463.46   17.21
 -13  -3  19  452.25   17.13
 -13  -3  20  539.19   19.66
 -13  -3  20  561.59   20.47
 -13  -3  21   63.35    5.34
 -13  -3  21   68.84    5.86
 -13  -3  22   82.93    5.79
 -13  -3  22   89.68    6.23
 -13  -3  23  952.43   32.79
 -13  -3  23  916.82   31.53
 -13  -3  24   67.65    5.41
 -13  -3  24   85.75    6.31
 -13  -3  25   10.98    4.30
 -13  -3  25    3.71    4.60
 -13  -3  26    9.05    4.30
 -13  -3  26   11.27    4.01
 -13  -3  27  122.39    6.75
 -13  -3  27  126.62    6.38
 -13  -3  28  497.06   17.95
 -13  -3  28  484.74   17.43
 -14  -3 -23  122.84    6.90
  14   3  23  114.68    6.60
 -14  -3 -22  288.47   11.72
  14   3  22  302.27   12.24
 -14  -3 -21   10.61    4.30
  14   3  21    4.01    4.08
 -14  -3 -20  414.05   15.58
  14   3  20  446.54   16.84
 -14  -3 -19   30.78    4.45
  14   3  19   26.93    5.12
 -14  -3 -18  237.14   10.16
  14   3  18  255.83   11.05
 -14  -3 -17   17.28    3.49
  14   3  17   18.77    4.75
 -14  -3 -16  551.28   20.10
  14   3  16  529.92   19.58
 -14  -3 -15  610.10   22.03
  14   3  15  556.92   20.55
 -14  -3 -14  144.79    7.27
  14   3  14  127.66    7.42
 -14  -3 -13    4.15    4.30
  14   3  13    3.04    4.75
 -14  -3 -12 2056.17   67.87
  14   3  12 2169.66   71.58
 -14  -3 -11  427.92   16.17
  14   3  11  428.00   16.62
 -14  -3 -10   63.79    5.71
  14   3  10   64.31    5.86
 -14  -3  -9  173.13    8.68
  14   3   9  171.05    8.83
 -14  -3  -8 2341.01   77.14
  14   3   8 2241.62   73.95
 -14  -3  -7  466.79   17.80
  14   3   7  412.05   15.95
 -14  -3  -6   23.44    4.45
  14   3   6   29.37    4.82
 -14  -3  -5  116.09    6.68
  14   3   5  108.82    6.97
 -14  -3  -4 1401.20   47.10
  14   3   4 1377.46   46.58
 -14  -3  -3  215.56    9.79
  14   3   3  204.58    9.87
 -14  -3  -2   27.59    4.38
  14   3   2   29.30    4.97
 -14  -3  -1  237.44   10.31
  14   3   1  227.57   10.24
 -14  -3   0 1689.74   56.30
  14   3   0 1773.56   59.19
 -14  -3   1    5.79    3.86
  14   3  -1   12.98    4.30
 -14  -3   2  108.37    6.68
  14   3  -2  119.65    7.20
 -14  -3   3  442.09   16.76
  14   3  -3  460.04   17.43
 -14  -3   4 2171.15   71.73
  14   3  -4 2335.82   77.00
 -14  -3   5  248.94   10.76
  14   3  -5  262.44   11.20
 -14  -3   6  599.35   21.59
  14   3  -6  595.56   21.59
 -14  -3   7   90.12    6.31
  14   3  -7   76.33    5.12
 -14  -3   8 2119.97   70.17
 -14  -3   8 2128.87   70.32
 -14  -3   9  253.91   10.90
 -14  -3   9  266.29   11.20
 -14  -3  10  455.00   17.06
 -14  -3  10  493.65   18.54
 -14  -3  11  382.38   14.84
 -14  -3  11  388.17   15.13
 -14  -3  12  369.77   14.46
 -14  -3  12  355.08   14.17
 -14  -3  13    3.71    3.86
 -14  -3  13   10.46    4.23
 -14  -3  14  658.09   23.37
 -14  -3  14  624.57   22.40
 -14  -3  15   39.76    4.82
 -14  -3  15   46.29    5.27
 -14  -3  16   83.30    5.93
 -14  -3  16   74.55    5.93
 -14  -3  17    8.31    4.01
 -14  -3  17   15.50    4.30
 -14  -3  18  337.43   13.28
 -14  -3  18  355.23   13.87
 -14  -3  19  307.39   12.54
 -14  -3  19  301.90   12.16
 -14  -3  20  129.59    7.42
 -14  -3  20  139.16    7.34
 -14  -3  21   15.65    4.08
 -14  -3  21   17.43    4.52
 -14  -3  22  574.42   20.70
 -14  -3  22  563.59   20.25
 -14  -3  23  329.49   12.91
 -14  -3  23  315.77   12.61
 -14  -3  24   18.17    4.45
 -14  -3  24   12.16    3.41
 -14  -3  25  185.00    8.53
 -14  -3  25  187.30    8.53
 -14  -3  26  410.79   15.21
 -14  -3  26  428.67   15.87
 -14  -3  27   40.50    4.82
 -14  -3  27   40.65    4.97
 -14  -3  28  167.94    7.79
 -15  -3 -22    5.34    4.23
  15   3  22    6.97    4.23
 -15  -3 -21  205.32    8.90
  15   3  21  222.38    9.79
 -15  -3 -20  331.79   12.91
  15   3  20  344.70   13.35
 -15  -3 -19  225.94    9.87
  15   3  19  244.34   10.53
 -15  -3 -18   12.61    4.30
  15   3  18    9.72    4.75
 -15  -3 -17  331.50   13.06
  15   3  17  328.68   13.20
 -15  -3 -16  287.88   11.72
  15   3  16  331.42   13.28
 -15  -3 -15   49.77    4.30
  15   3  15   48.96    5.56
 -15  -3 -14  125.14    7.05
  15   3  14  123.28    7.71
 -15  -3 -13  566.86   20.55
  15   3  13  624.27   22.70
 -15  -3 -12  124.02    6.45
  15   3  12  133.81    7.64
 -15  -3 -11  127.21    6.97
  15   3  11  126.40    7.71
 -15  -3 -10  481.55   17.88
  15   3  10  487.19   18.32
 -15  -3  -9  536.82   19.51
  15   3   9  551.95   20.18
 -15  -3  -8  329.05   13.28
  15   3   8  332.61   13.35
 -15  -3  -7    4.08    3.78
  15   3   7    3.12    4.38
 -15  -3  -6  235.07   10.31
  15   3   6  235.29   10.46
 -15  -3  -5 1097.81   37.38
  15   3   5 1160.86   39.54
 -15  -3  -4   41.46    4.45
  15   3   4   39.54    5.12
 -15  -3  -3    1.04    4.01
  15   3   3    3.56    4.23
 -15  -3  -2  410.72   15.58
  15   3   2  379.64   14.91
 -15  -3  -1  978.39   33.68
  15   3   1 1045.15   35.83
 -15  -3   0   53.93    5.27
  15   3   0   48.21    5.19
 -15  -3   1   40.87    4.75
  15   3  -1   43.69    5.04
 -15  -3   2    4.30    4.15
  15   3  -2    6.68    4.15
 -15  -3   3  663.66   23.74
  15   3  -3  642.59   23.07
 -15  -3   4  708.39   25.15
  15   3  -4  751.41   26.63
 -15  -3   5   23.88    4.60
  15   3  -5   22.92    4.38
 -15  -3   6  979.13   33.68
  15   3  -6  993.97   34.20
 -15  -3   7   30.12    4.52
  15   3  -7   35.31    4.67
 -15  -3   8  605.80   21.88
 -15  -3   8  616.41   22.25
 -15  -3   9  220.75    9.94
 -15  -3   9  246.04   10.83
 -15  -3  10  291.14   12.02
 -15  -3  10  279.05   11.65
 -15  -3  11    7.71    4.01
 -15  -3  11   12.02    4.15
 -15  -3  12   14.24    4.01
 -15  -3  12   14.76    4.38
 -15  -3  13 1397.49   46.88
 -15  -3  13 1367.82   45.84
 -15  -3  14  662.77   23.51
 -15  -3  14  653.20   23.29
 -15  -3  15  103.85    6.53
 -15  -3  15   84.41    6.16
 -15  -3  16  164.08    8.01
 -15  -3  16  156.66    8.23
 -15  -3  17  419.47   15.95
 -15  -3  17  410.79   15.73
 -15  -3  18  185.52    8.90
 -15  -3  18  177.13    8.53
 -15  -3  19  227.43   10.24
 -15  -3  19  223.35    9.72
 -15  -3  20   55.85    4.97
 -15  -3  20   70.47    5.86
 -15  -3  21  700.60   24.63
 -15  -3  21  693.77   24.40
 -15  -3  22   70.17    5.41
 -15  -3  22   88.79    5.93
 -15  -3  23   10.16    4.08
 -15  -3  23   12.83    4.15
 -15  -3  24    0.00    4.15
 -15  -3  24    7.12    4.38
 -15  -3  25  701.49   24.26
 -15  -3  25  679.68   23.66
 -15  -3  26   41.32    4.97
 -15  -3  26   44.36    5.04
 -16  -3 -20  389.72   14.24
  16   3  20  413.83   15.28
 -16  -3 -19   -2.89    3.49
  16   3  19    5.19    4.23
 -16  -3 -18  330.09   12.68
  16   3  18  333.42   13.20
 -16  -3 -17   16.62    3.34
  16   3  17   11.13    4.60
 -16  -3 -16  512.93   18.62
  16   3  16  513.60   18.84
 -16  -3 -15   61.86    5.34
  16   3  15   59.64    5.79
 -16  -3 -14  411.01   15.73
  16   3  14  380.30   14.98
 -16  -3 -13  456.11   17.06
  16   3  13  523.54   19.29
 -16  -3 -12  728.49   25.44
  16   3  12  722.78   25.52
 -16  -3 -11  436.08   16.32
  16   3  11  462.57   17.43
 -16  -3 -10 1107.46   37.61
  16   3  10 1120.07   38.35
 -16  -3  -9   40.80    4.08
  16   3   9   39.61    4.90
 -16  -3  -8   -4.45    3.86
  16   3   8    4.38    4.45
 -16  -3  -7   35.23    4.67
  16   3   7   22.99    4.82
 -16  -3  -6 1006.58   34.42
  16   3   6 1013.25   34.86
 -16  -3  -5   95.39    6.31
  16   3   5   96.58    6.60
 -16  -3  -4    5.12    3.56
  16   3   4   16.47    4.60
 -16  -3  -3  367.77   14.39
  16   3   3  366.28   14.39
 -16  -3  -2  544.09   19.66
  16   3   2  548.54   20.03
 -16  -3  -1   -1.85    3.93
  16   3   1    2.23    4.15
 -16  -3   0   10.46    3.71
  16   3   0   10.38    4.15
 -16  -3   1  924.24   32.04
  16   3  -1  973.20   33.45
 -16  -3   2 1047.37   35.98
  16   3  -2 1042.92   35.68
 -16  -3   3    6.16    4.15
  16   3  -3   -1.11    4.08
 -16  -3   4  165.49    8.38
  16   3  -4  163.71    8.16
 -16  -3   5  372.96   14.76
  16   3  -5  355.23   13.95
 -16  -3   6  993.97   34.27
  16   3  -6  959.84   32.93
 -16  -3   7  633.47   22.77
  16   3  -7  632.36   22.62
 -16  -3   8  207.18    9.35
 -16  -3   8  205.77    9.35
 -16  -3   9   29.52    4.60
 -16  -3   9   26.78    3.93
 -16  -3  10 1642.27   54.74
 -16  -3  10 1650.43   55.04
 -16  -3  11   41.24    4.97
 -16  -3  11   47.99    5.27
 -16  -3  12  284.47   11.72
 -16  -3  12  276.75   11.50
 -16  -3  13   53.41    5.12
 -16  -3  13   55.19    4.90
 -16  -3  14  368.51   14.32
 -16  -3  14  356.79   14.02
 -16  -3  15   19.14    4.60
 -16  -3  15   23.66    4.45
 -16  -3  16  453.22   16.99
 -16  -3  16  471.69   17.65
 -16  -3  17  172.61    8.53
 -16  -3  17  179.95    8.60
 -16  -3  18  157.03    8.23
 -16  -3  18  172.53    8.31
 -16  -3  19   63.94    5.49
 -16  -3  19   68.91    5.41
 -16  -3  20  780.34   27.00
 -16  -3  20  792.95   27.52
 -16  -3  21  175.28    8.46
 -16  -3  21  186.03    8.68
 -16  -3  22   91.39    6.16
 -16  -3  22  105.40    6.53
 -16  -3  23  152.06    7.34
 -16  -3  23  152.73    7.64
 -16  -3  24  689.03   23.96
 -16  -3  24  734.35   25.37
 -16  -3  25  118.16    6.68
 -16  -3  25  109.93    6.31
 -17  -3 -18  141.01    6.90
  17   3  18  134.19    6.82
 -17  -3 -17  142.27    6.97
  17   3  17  134.85    7.34
 -17  -3 -16    6.08    4.01
  17   3  16    9.05    4.45
 -17  -3 -15  501.21   18.25
  17   3  15  501.88   18.40
 -17  -3 -14   19.29    4.52
  17   3  14   22.92    4.97
 -17  -3 -13   93.61    6.16
  17   3  13   97.69    6.75
 -17  -3 -12  250.87   10.38
  17   3  12  237.81   10.53
 -17  -3 -11  275.34   11.35
  17   3  11  280.46   11.57
 -17  -3 -10  788.50   27.45
  17   3  10  847.84   29.52
 -17  -3  -9   41.69    4.82
  17   3   9   36.12    4.75
 -17  -3  -8  129.81    6.60
  17   3   8  113.86    7.05
 -17  -3  -7  565.97   20.47
  17   3   7  588.37   21.21
 -17  -3  -6   13.72    4.30
  17   3   6   12.02    4.67
 -17  -3  -5  127.44    6.90
  17   3   5  120.61    7.20
 -17  -3  -4   63.05    5.27
  17   3   4   59.19    5.34
 -17  -3  -3  742.51   26.04
  17   3   3  728.04   25.59
 -17  -3  -2   15.87    3.71
  17   3   2   30.04    4.75
 -17  -3  -1   36.79    4.60
  17   3   1   38.94    5.04
 -17  -3   0   98.73    6.31
  17   3   0  101.92    6.60
 -17  -3   1 1118.58   38.05
  17   3  -1 1160.12   39.39
 -17  -3   2  247.60   10.53
  17   3  -2  268.44   11.35
 -17  -3   3  101.25    6.45
  17   3  -3  104.74    6.53
 -17  -3   4  526.58   19.43
  17   3  -4  474.51   17.65
 -17  -3   5 1127.48   38.42
  17   3  -5 1215.75   41.02
 -17  -3   6   50.37    5.19
  17   3  -6   59.64    5.27
 -17  -3   7  236.47   10.53
  17   3  -7  233.95   10.31
 -17  -3   8  390.69   15.21
 -17  -3   8  380.53   14.84
 -17  -3   9  795.91   27.96
 -17  -3   9  808.52   28.19
 -17  -3  10  106.74    6.68
 -17  -3  10  113.05    6.53
 -17  -3  11   96.73    6.16
 -17  -3  11   94.06    6.23
 -17  -3  12  474.58   17.80
 -17  -3  12  496.24   18.47
 -17  -3  13  185.22    8.75
 -17  -3  13  214.37    9.72
 -17  -3  14   45.84    5.12
 -17  -3  14   53.11    5.12
 -17  -3  15  667.22   23.66
 -17  -3  15  641.92   22.70
 -17  -3  16  181.96    8.68
 -17  -3  16  171.35    8.01
 -17  -3  17  123.65    6.90
 -17  -3  17  114.23    6.53
 -17  -3  18   25.96    4.38
 -17  -3  18   25.15    4.08
 -17  -3  19  646.82   22.77
 -17  -3  19  627.76   22.18
 -17  -3  20  171.27    8.31
 -17  -3  20  175.58    8.31
 -17  -3  21   27.74    4.52
 -17  -3  21   39.02    4.52
 -17  -3  22  130.18    6.82
 -17  -3  22  124.91    6.60
 -17  -3  23  583.32   20.62
 -17  -3  23  600.39   21.07
 -17  -3  24    8.68    3.63
 -17  -3  24    6.31    4.15
 -18  -3 -16  195.16    8.68
  18   3  16  188.04    8.60
 -18  -3 -15  480.29   17.43
  18   3  15  517.90   18.69
 -18  -3 -14  107.19    6.38
  18   3  14  112.38    6.82
 -18  -3 -13  176.61    8.31
  18   3  13  174.31    8.46
 -18  -3 -12  904.21   31.01
  18   3  12  886.41   30.34
 -18  -3 -11   47.10    4.52
  18   3  11   34.20    4.67
 -18  -3 -10  261.32   10.68
  18   3  10  253.02   10.83
 -18  -3  -9   55.26    4.97
  18   3   9   53.18    5.56
 -18  -3  -8  532.22   19.29
  18   3   8  533.03   19.43
 -18  -3  -7   97.47    6.23
  18   3   7  104.66    6.97
 -18  -3  -6   14.84    3.86
  18   3   6   18.62    4.90
 -18  -3  -5  287.29   11.72
  18   3   5  289.29   12.02
 -18  -3  -4  608.92   21.73
  18   3   4  644.00   23.14
 -18  -3  -3    2.15    4.01
  18   3   3    9.57    4.30
 -18  -3  -2    8.46    4.01
  18   3   2    9.05    4.15
 -18  -3  -1   36.57    4.23
  18   3   1   49.48    5.19
 -18  -3   0 1205.37   40.57
  18   3   0 1169.76   39.46
 -18  -3   1  166.16    8.09
  18   3  -1  167.94    8.31
 -18  -3   2    2.45    3.86
  18   3  -2   -3.56    3.93
 -18  -3   3  146.80    7.79
  18   3  -3  156.96    7.94
 -18  -3   4  620.78   22.40
  18   3  -4  619.60   22.33
 -18  -3   5   16.32    4.30
  18   3  -5    6.75    3.93
 -18  -3   6   19.43    4.45
  18   3  -6   11.94    4.30
 -18  -3   7   35.90    4.90
  18   3  -7   32.19    4.67
 -18  -3   8  474.14   17.65
 -18  -3   8  503.14   18.84
 -18  -3   9   57.56    5.04
 -18  -3   9   55.34    4.82
 -18  -3  10  130.40    7.20
 -18  -3  10  153.69    7.86
 -18  -3  11 1171.25   39.68
 -18  -3  11 1153.45   38.94
 -18  -3  12  603.87   21.59
 -18  -3  12  586.88   20.99
 -18  -3  13  350.71   13.80
 -18  -3  13  335.43   13.13
 -18  -3  14  723.96   25.37
 -18  -3  14  730.71   25.44
 -18  -3  15   77.07    5.71
 -18  -3  15   62.98    5.19
 -18  -3  16  109.78    6.31
 -18  -3  16  112.75    6.75
 -18  -3  17   -6.31    3.56
 -18  -3  17    1.93    4.15
 -18  -3  18  567.15   20.40
 -18  -3  18  568.12   20.40
 -18  -3  19   78.18    5.19
 -18  -3  19   77.81    5.64
 -18  -3  20   72.32    5.27
 -18  -3  20   64.61    5.34
 -18  -3  21   55.48    4.97
 -18  -3  21   47.32    4.60
 -18  -3  22  528.88   18.54
 -18  -3  22  552.10   19.43
 -19  -3 -14   12.46    3.63
  19   3  14    9.94    4.15
 -19  -3 -13  178.62    8.23
  19   3  13  171.27    8.23
 -19  -3 -12  122.47    6.68
  19   3  12  136.56    7.05
 -19  -3 -11  157.70    7.71
  19   3  11  176.91    8.16
 -19  -3 -10   -0.45    4.01
  19   3  10    4.23    4.08
 -19  -3  -9  206.88    9.12
  19   3   9  211.48    9.64
 -19  -3  -8  183.51    8.38
  19   3   8  184.55    8.98
 -19  -3  -7   43.32    4.45
  19   3   7   33.45    4.67
 -19  -3  -6  198.79    8.68
  19   3   6  199.02    9.27
 -19  -3  -5  891.60   30.56
  19   3   5  848.58   29.37
 -19  -3  -4   23.14    4.30
  19   3   4   25.29    4.82
 -19  -3  -3    8.60    4.23
  19   3   3   17.73    4.60
 -19  -3  -2  148.65    7.86
  19   3   2  163.26    8.16
 -19  -3  -1  833.74   29.00
  19   3   1  781.82   27.30
 -19  -3   0  111.19    6.75
  19   3   0   99.92    6.45
 -19  -3   1  176.10    8.53
  19   3  -1  199.24    9.35
 -19  -3   2  180.32    8.46
  19   3  -2  177.21    8.60
 -19  -3   3  856.00   29.45
  19   3  -3  832.26   28.85
 -19  -3   4  936.11   32.04
  19   3  -4  844.13   29.23
 -19  -3   5  432.60   16.17
  19   3  -5  415.17   15.58
 -19  -3   6  420.58   15.80
  19   3  -6  431.41   16.02
 -19  -3   7  185.89    8.68
  19   3  -7  179.95    8.23
 -19  -3   8   11.42    3.86
 -19  -3   8    9.42    3.41
 -19  -3   9  480.52   17.43
 -19  -3   9  530.88   19.14
 -19  -3  10    4.97    3.86
 -19  -3  10   -0.37    3.71
 -19  -3  11  113.42    6.31
 -19  -3  11  131.14    7.12
 -19  -3  12    9.64    3.78
 -19  -3  12   13.50    4.08
 -19  -3  13  523.54   18.99
 -19  -3  13  495.87   18.02
 -19  -3  14  275.64   11.42
 -19  -3  14  241.30   10.31
 -19  -3  15  149.61    7.34
 -19  -3  15  158.59    7.79
 -19  -3  16   50.81    4.67
 -19  -3  16   54.74    4.75
 -19  -3  17  445.36   16.24
 -19  -3  17  438.68   16.02
 -19  -3  18   38.50    4.60
 -19  -3  18   39.98    4.23
 -19  -3  19  104.29    6.38
 -19  -3  19   96.21    5.79
 -19  -3  20   24.70    4.15
 -19  -3  20   13.57    3.93
 -20  -3 -12  435.56   15.50
  20   3  12  441.72   16.10
 -20  -3 -11  437.20   15.65
  20   3  11  417.24   15.21
 -20  -3 -10  654.24   22.62
  20   3  10  620.12   21.66
 -20  -3  -9    6.90    2.82
  20   3   9    2.23    3.86
 -20  -3  -8   90.20    5.27
  20   3   8   79.52    5.86
 -20  -3  -7   -1.26    2.74
  20   3   7    0.59    3.93
 -20  -3  -6  863.42   29.37
  20   3   6  855.26   29.30
 -20  -3  -5  192.78    8.53
  20   3   5  186.41    8.75
 -20  -3  -4   43.47    4.60
  20   3   4   42.06    4.75
 -20  -3  -3  154.14    7.57
  20   3   3  167.19    8.38
 -20  -3  -2  583.55   20.70
  20   3   2  559.14   20.32
 -20  -3  -1   33.16    4.38
  20   3   1   43.69    4.75
 -20  -3   0   57.49    4.97
  20   3   0   62.98    5.41
 -20  -3   1  288.10   11.72
  20   3  -1  297.82   12.02
 -20  -3   2  445.21   16.54
  20   3  -2  444.47   16.47
 -20  -3   3   25.37    3.93
  20   3  -3   25.74    4.45
 -20  -3   4  478.51   17.65
  20   3  -4  457.30   16.84
 -20  -3   5   -4.75    3.56
  20   3  -5   -2.97    3.86
 -20  -3   6  439.27   16.39
  20   3  -6  474.95   17.58
 -20  -3   7  348.33   13.57
 -20  -3   8  384.09   14.54
 -20  -3   8  364.95   14.02
 -20  -3   9 1058.50   35.90
 -20  -3   9  996.19   33.90
 -20  -3  10  981.36   33.38
 -20  -3  10 1082.98   36.64
 -20  -3  11   89.38    5.71
 -20  -3  11   97.32    5.86
 -20  -3  12  438.98   16.17
 -20  -3  12  433.56   16.17
 -20  -3  13   59.86    4.75
 -20  -3  13   72.10    5.04
 -20  -3  14  169.35    7.71
 -20  -3  14  184.40    8.31
 -20  -3  15    7.94    3.93
 -20  -3  15   -0.82    3.63
 -20  -3  16  548.24   19.43
 -20  -3  16  559.81   19.95
 -20  -3  17  122.02    6.60
 -20  -3  17  116.83    6.38
 -20  -3  18   47.77    4.82
 -20  -3  18   48.96    3.93
 -21  -3  -8  139.60    6.97
  21   3   8  131.96    6.60
 -21  -3  -7  696.67   23.88
  21   3   7  727.00   25.00
 -21  -3  -6   61.42    4.60
  21   3   6   57.93    5.12
 -21  -3  -5   27.30    3.86
  21   3   5   28.56    4.30
 -21  -3  -4   80.48    5.19
  21   3   4   67.35    5.56
 -21  -3  -3  531.62   18.92
  21   3   3  512.93   18.54
 -21  -3  -2   15.95    3.49
  21   3   2   12.31    4.15
 -21  -3  -1   31.08    3.86
  21   3   1   28.63    4.38
 -21  -3   0   30.19    4.08
  21   3   0   19.73    4.23
 -21  -3   1  688.43   24.11
  21   3  -1  644.00   22.70
 -21  -3   2    7.57    4.08
  21   3  -2    2.97    3.93
 -21  -3   3   87.60    5.79
  21   3  -3   90.42    5.93
 -21  -3   4  262.44   10.76
  21   3  -4  253.91   10.53
 -21  -3   5  486.60   17.65
  21   3  -5  461.38   16.91
 -21  -3   6   49.25    4.60
  21   3  -6   41.76    4.08
 -21  -3   7  268.00   10.90
 -21  -3   7  296.48   11.57
 -21  -3   8    1.04    3.71
 -21  -3   8    6.60    3.78
 -21  -3   9  196.86    8.83
 -21  -3   9  202.21    8.90
 -21  -3  10   17.80    3.86
 -21  -3  10   28.04    4.38
 -21  -3  11  547.50   19.51
 -21  -3  11  547.42   19.36
 -21  -3  12  136.71    6.68
 -21  -3  12  138.34    6.68
 -21  -3  13  243.45   10.01
 -21  -3  13  225.65    9.35
 -21  -3  14    7.86    3.34
 -21  -3  14   14.91    3.49
 -21  -3  15  403.97   14.32
 -21  -3  15  393.21   14.46
 -22  -3  -4  379.86   13.72
  22   3   4  372.96   13.87
 -22  -3  -3   75.44    4.60
  22   3   3   79.29    5.27
 -22  -3  -2    9.12    3.63
  22   3   2    9.20    3.63
 -22  -3  -1  105.18    6.08
  22   3   1  100.36    5.64
 -22  -3   0  512.93   18.47
  22   3   0  485.11   17.43
 -22  -3   1   14.32    3.86
  22   3  -1    9.12    4.01
 -22  -3   2   17.13    3.49
  22   3  -2   18.32    3.78
 -22  -3   3  119.28    6.23
  22   3  -3  114.68    6.16
 -22  -3   4  604.84   20.99
  22   3  -4  600.53   20.92
 -22  -3   5    8.46    3.34
  22   3  -5   17.95    3.78
 -22  -3   6  135.30    6.45
  22   3  -6  133.89    6.75
 -22  -3   7  221.19    9.05
 -22  -3   7  239.89    9.79
 -22  -3   8  414.72   15.06
 -22  -3   8  420.36   15.13
 -22  -3   9   78.03    4.90
 -22  -3   9   69.73    4.97
 -22  -3  10  325.56   12.31
 -22  -3  10  320.96   11.87
 -22  -3  11  356.86   13.35
 -22  -3  11  336.17   12.54
 -21   4  11  413.39   14.98
 -21   4  11  456.56   16.62
 -21   4  10  128.18    6.08
 -21   4  10  142.27    6.82
 -21   4   8   59.19    4.08
 -21   4   8   61.86    4.60
 -21   4   6  213.63    8.83
 -21   4   6  214.52    8.90
  21  -4  -5   28.71    4.23
 -21   4   5   29.45    4.08
  21  -4  -4    2.30    3.86
 -21   4   4    3.56    2.89
  21  -4  -3  149.76    7.34
 -21   4   3  125.58    6.38
  21  -4  -2  278.09   11.13
 -21   4   2  281.72   10.90
  21  -4  -1   76.18    5.71
 -21   4   1   78.40    5.19
  21  -4   0  138.19    7.20
 -21   4   0  136.04    6.68
  21  -4   1  465.61   16.84
 -21   4  -1  460.86   16.39
  21  -4   2    7.71    4.01
 -21   4  -2   17.36    3.41
  21  -4   3   56.60    5.12
 -21   4  -3   65.28    4.75
  21  -4   4   -3.56    4.15
 -21   4  -4    4.01    4.01
 -20   4  15  188.71    8.09
 -20   4  15  216.67    9.12
 -20   4  14  253.39   10.01
 -20   4  14  288.62   11.05
 -20   4  13   40.57    4.15
 -20   4  13   40.28    4.01
 -20   4  12  249.31   10.09
 -20   4  12  274.75   10.83
 -20   4  11  108.52    5.93
 -20   4  11  104.51    5.86
 -20   4  10  142.94    7.12
 -20   4  10  139.23    6.82
 -20   4   9   -4.97    3.56
 -20   4   9    1.48    3.49
 -20   4   8  265.55   10.76
 -20   4   8  249.53   10.24
 -20   4   7  311.69   12.16
 -20   4   7  296.78   11.72
  20  -4  -6  219.86    9.49
 -20   4   6  196.27    8.68
  20  -4  -5   41.39    4.52
 -20   4   5   54.37    4.67
  20  -4  -4  392.25   14.84
 -20   4   4  378.67   14.17
  20  -4  -3   83.30    5.79
 -20   4   3   60.68    4.90
  20  -4  -2   35.31    4.75
 -20   4   2   36.35    4.30
  20  -4  -1  105.63    6.45
 -20   4   1  123.28    6.68
  20  -4   0  673.08   23.51
 -20   4   0  665.14   23.22
  20  -4   1  459.52   16.91
 -20   4  -1  455.67   16.69
  20  -4   2   28.19    4.45
 -20   4  -2   27.82    4.38
  20  -4   3  518.35   18.77
 -20   4  -3  537.63   19.14
  20  -4   4  349.45   13.50
 -20   4  -4  342.25   12.91
  20  -4   5    7.71    4.38
 -20   4  -5   -2.74    3.26
  20  -4   6    7.71    4.52
 -20   4  -6    9.57    3.78
  20  -4   7    3.26    4.23
 -20   4  -7    1.93    3.93
  20  -4   8  330.60   12.91
 -20   4  -8  326.90   12.46
 -19   4  18  317.10   12.39
 -19   4  18  318.44   12.16
 -19   4  17   21.44    4.01
 -19   4  17   18.92    3.71
 -19   4  16  477.70   17.13
 -19   4  16  463.08   16.76
 -19   4  15  230.99    9.64
 -19   4  15  217.78    9.12
 -19   4  14   22.48    3.86
 -19   4  14   29.82    4.08
 -19   4  13  159.92    7.71
 -19   4  13  158.89    7.49
 -19   4  12  146.42    7.34
 -19   4  12  142.42    7.05
 -19   4  11  252.72   10.61
 -19   4  11  272.08   10.83
 -19   4  10  160.44    7.86
 -19   4  10  148.28    7.34
 -19   4   9  510.63   18.54
 -19   4   9  458.71   16.69
 -19   4   8  153.03    7.71
 -19   4   8  141.60    7.05
  19  -4  -6    3.63    4.01
 -19   4   6   11.20    3.71
  19  -4  -5  487.49   17.73
 -19   4   5  487.04   17.65
  19  -4  -4  598.90   21.36
 -19   4   4  607.28   21.36
  19  -4  -3   41.69    4.75
 -19   4   3   32.56    4.23
  19  -4  -2  194.79    9.05
 -19   4   2  194.12    8.68
  19  -4  -1  402.48   15.28
 -19   4   1  399.59   14.91
  19  -4   0   49.03    5.19
 -19   4   0   55.19    4.82
  19  -4   1   42.06    4.75
 -19   4  -1   34.79    4.30
  19  -4   2   58.38    5.19
 -19   4  -2   46.81    4.67
  19  -4   3  557.44   20.10
 -19   4  -3  554.17   19.81
  19  -4   4    8.75    4.38
 -19   4  -4    8.53    4.01
  19  -4   5  130.03    7.27
 -19   4  -5  137.89    7.05
  19  -4   6  177.36    8.60
 -19   4  -6  192.27    8.68
  19  -4   7  351.30   13.65
 -19   4  -7  321.11   12.54
  19  -4   8   57.04    5.34
 -19   4  -8   58.45    4.97
  19  -4   9    4.23    4.38
 -19   4  -9   -1.71    3.49
  19  -4  10  102.96    6.68
 -19   4 -10  110.45    6.08
  19  -4  11  659.06   23.22
 -19   4 -11  623.97   21.81
 -19   4 -12   47.18    5.41
 -18   4  20  484.30   17.28
 -18   4  20  430.22   15.50
 -18   4  19   14.84    4.08
 -18   4  19   10.46    3.41
 -18   4  18   -1.19    3.26
 -18   4  18    1.04    3.63
 -18   4  17   57.86    4.60
 -18   4  17   45.99    4.67
 -18   4  16  607.28   21.59
 -18   4  16  602.46   21.21
 -18   4  15  110.37    6.60
 -18   4  15  114.38    6.31
 -18   4  14   95.32    6.08
 -18   4  14   91.61    5.79
 -18   4  12  207.40    9.20
 -18   4  12  226.16    9.64
 -18   4  11   34.79    4.45
 -18   4  11   22.55    4.01
 -18   4  10   81.97    5.49
 -18   4  10   91.39    5.56
 -18   4   9  263.70   10.83
 -18   4   9  229.28    9.79
 -18   4   8  405.23   15.35
 -18   4   8  393.58   14.76
 -18   4   7   19.81    4.08
 -18   4   7   17.28    4.08
  18  -4  -6  675.38   23.66
 -18   4   6  722.55   25.15
  18  -4  -5  122.24    6.75
 -18   4   5  122.98    6.60
  18  -4  -4  204.28    9.20
 -18   4   4  240.55   10.09
  18  -4  -3  130.40    7.27
 -18   4   3  117.64    6.31
  18  -4  -2  982.84   33.53
 -18   4   2 1046.63   35.31
  18  -4  -1  210.74    9.42
 -18   4   1  200.57    8.68
  18  -4   0    9.94    4.15
 -18   4   0   11.20    3.78
  18  -4   1  301.08   12.31
 -18   4  -1  275.79   11.20
  18  -4   2  363.09   14.24
 -18   4  -2  364.13   14.02
  18  -4   3  150.28    8.01
 -18   4  -3  144.87    7.57
  18  -4   4  773.66   27.00
 -18   4  -4  793.69   27.67
  18  -4   5  303.23   12.31
 -18   4  -5  324.97   12.98
  18  -4   6 1028.83   35.01
 -18   4  -6 1058.50   35.90
  18  -4   7  133.37    7.34
 -18   4  -7  118.24    6.82
  18  -4   8   22.33    4.75
 -18   4  -8   21.51    4.45
  18  -4   9  483.11   17.95
 -18   4  -9  490.16   17.73
  18  -4  10  464.35   17.28
 -18   4 -10  427.11   15.43
  18  -4  11   17.36    4.82
 -18   4 -11   29.97    4.30
  18  -4  12  230.10   10.09
 -18   4 -12  234.25    9.94
  18  -4  13  269.04   11.13
 -18   4 -13  269.48   10.98
  18  -4  14  301.75   12.24
 -18   4 -14  299.45   11.27
 -17   4  22   25.59    4.01
 -17   4  22   27.59    4.52
 -17   4  21  234.25    9.64
 -17   4  21  218.38    9.05
 -17   4  20  103.77    6.01
 -17   4  20  109.56    6.08
 -17   4  19  348.63   13.28
 -17   4  19  357.09   13.50
 -17   4  18  221.49    9.64
 -17   4  18  215.56    9.12
 -17   4  17  158.44    7.86
 -17   4  17  146.57    7.27
 -17   4  16    4.23    3.86
 -17   4  16    5.41    4.15
 -17   4  15    9.35    4.01
 -17   4  15   22.33    3.93
 -17   4  14  584.51   20.84
 -17   4  14  551.80   19.66
 -17   4  13 1203.89   40.50
 -17   4  13 1190.53   40.06
 -17   4  12    2.30    3.49
 -17   4  12    1.48    3.34
 -17   4  11  209.25    9.20
 -17   4  11  202.72    8.90
 -17   4  10  517.16   18.92
 -17   4  10  518.20   18.62
 -17   4   9  350.19   13.50
 -17   4   9  349.30   13.28
 -17   4   8   45.62    4.60
 -17   4   8   50.96    4.45
 -17   4   7  898.28   30.71
 -17   4   7  929.43   31.75
  17  -4  -6  189.15    8.53
 -17   4   6  176.91    8.16
  17  -4  -5  163.56    7.86
 -17   4   5  150.65    7.49
  17  -4  -4    1.63    3.49
 -17   4   4   -3.26    3.49
  17  -4  -3  380.23   14.61
 -17   4   3  390.54   14.69
  17  -4  -2  499.36   18.25
 -17   4   2  492.16   17.88
  17  -4  -1  446.84   16.62
 -17   4   1  491.20   17.95
  17  -4   0  326.08   12.83
 -17   4   0  304.72   12.02
  17  -4   1 1161.60   39.24
 -17   4  -1 1160.12   38.94
  17  -4   2   66.54    5.49
 -17   4  -2   66.02    4.97
  17  -4   3   47.62    5.34
 -17   4  -3   59.04    5.04
  17  -4   4   62.75    5.49
 -17   4  -4   59.19    5.27
  17  -4   5  554.99   20.18
 -17   4  -5  582.73   20.92
  17  -4   6  736.05   25.74
 -17   4  -6  685.91   24.18
  17  -4   7   -0.37    4.38
 -17   4  -7    2.08    4.15
  17  -4   8  395.73   15.13
 -17   4  -8  387.50   14.91
  17  -4   9  880.48   30.34
 -17   4  -9  845.61   29.15
  17  -4  10   19.88    4.97
 -17   4 -10   18.47    4.38
  17  -4  11  185.07    8.90
 -17   4 -11  173.50    8.09
  17  -4  12  159.92    8.31
 -17   4 -12  147.76    7.34
  17  -4  13  439.50   16.47
 -17   4 -13  456.63   16.76
  17  -4  14    3.26    4.52
 -17   4 -14   -0.67    4.15
  17  -4  15  187.30    8.90
 -17   4 -15  209.99    8.90
  17  -4  16   49.48    5.41
 -17   4 -16   38.42    4.30
 -16   4  23   16.54    3.86
 -16   4  23   22.99    4.38
 -16   4  22  251.53   10.31
 -16   4  22  265.55   10.68
 -16   4  21    9.87    3.86
 -16   4  21   12.61    3.86
 -16   4  20   19.14    4.60
 -16   4  20   34.79    4.45
 -16   4  19    7.71    4.08
 -16   4  19    8.75    3.93
 -16   4  18  757.34   26.33
 -16   4  18  733.16   25.44
 -16   4  17   63.64    5.04
 -16   4  17   55.71    4.82
 -16   4  16   74.99    5.41
 -16   4  16   84.64    5.49
 -16   4  15  142.27    7.20
 -16   4  15  143.68    7.20
 -16   4  14  139.60    7.20
 -16   4  14  117.57    6.45
 -16   4  13  159.33    7.57
 -16   4  13  159.33    7.71
 -16   4  12  294.78   11.65
 -16   4  12  262.59   10.83
 -16   4  11  166.53    7.79
 -16   4  11  181.96    8.31
 -16   4  10  234.10    9.79
 -16   4  10  231.21    9.79
 -16   4   8  612.48   21.59
 -16   4   8  665.51   23.37
 -16   4   7  273.49   11.05
 -16   4   7  255.17   10.46
  16  -4  -6  162.08    7.64
 -16   4   6  153.62    7.27
  16  -4  -5   95.24    5.86
 -16   4   5   98.21    5.86
  16  -4  -4  905.70   30.93
 -16   4   4  933.88   31.75
  16  -4  -3   19.81    4.23
 -16   4   3   18.84    3.49
  16  -4  -2   61.86    5.19
 -16   4   2   53.93    4.67
  16  -4  -1   75.07    5.56
 -16   4   1   77.59    5.19
  16  -4   0  672.86   23.66
 -16   4   0  661.43   23.22
  16  -4   1 1173.47   39.61
 -16   4  -1 1198.69   40.35
  16  -4   2   35.60    4.90
 -16   4  -2   37.98    4.38
  16  -4   3  413.09   15.58
 -16   4  -3  407.38   15.28
  16  -4   4  829.29   28.71
 -16   4  -4  852.29   29.45
  16  -4   5   22.99    4.52
 -16   4  -5   29.97    4.30
  16  -4   6   29.67    5.04
 -16   4  -6   32.12    4.23
  16  -4   7   79.07    6.16
 -16   4  -7   80.85    5.41
  16  -4   8  806.30   28.11
 -16   4  -8  818.17   28.11
  16  -4   9   46.06    5.41
 -16   4  -9   48.36    4.52
  16  -4  10  264.29   11.20
 -16   4 -10  271.04   11.27
  16  -4  11  419.17   16.02
 -16   4 -11  426.00   16.10
  16  -4  12  210.96    9.79
 -16   4 -12  201.17    9.27
  16  -4  13   55.34    5.79
 -16   4 -13   58.97    5.34
  16  -4  14  238.63   10.46
 -16   4 -14  234.69    9.79
  16  -4  15  231.58   10.16
 -16   4 -15  248.57   10.38
  16  -4  16  453.52   16.69
 -16   4 -16  438.16   16.17
  16  -4  17   13.57    4.67
 -16   4 -17   25.81    3.49
  16  -4  18  178.91    8.60
 -16   4 -18  184.03    8.23
 -15   4  24  103.77    6.08
 -15   4  24  113.27    6.31
 -15   4  23  429.41   15.73
 -15   4  23  432.45   15.80
 -15   4  22    5.27    4.01
 -15   4  22    1.48    4.15
 -15   4  21  146.87    7.49
 -15   4  21  138.19    7.12
 -15   4  20    8.60    4.23
 -15   4  20   15.43    4.30
 -15   4  19  195.01    8.90
 -15   4  19  206.88    9.12
 -15   4  18  230.47    9.79
 -15   4  18  207.47    9.05
 -15   4  17   25.29    4.01
 -15   4  17   22.62    4.23
 -15   4  16  796.66   27.45
 -15   4  16  871.57   29.89
 -15   4  15  878.99   30.26
 -15   4  15  877.51   30.04
 -15   4  14   26.70    3.86
 -15   4  14   24.11    3.78
 -15   4  13  126.10    6.68
 -15   4  13  124.76    6.45
 -15   4  12  271.34   10.98
 -15   4  12  268.52   11.05
 -15   4  11  611.96   21.59
 -15   4  11  595.27   21.14
 -15   4  10    9.35    3.63
 -15   4  10   16.17    3.78
 -15   4   9  544.90   19.51
 -15   4   9  575.39   20.25
 -15   4   8   66.24    4.90
 -15   4   8   71.28    4.82
 -15   4   7   44.95    4.23
 -15   4   7   39.83    4.23
  15  -4  -6    2.67    3.12
 -15   4   6    1.85    3.12
  15  -4  -5  836.71   28.78
 -15   4   5  849.32   29.23
  15  -4  -4  302.42   11.87
 -15   4   4  299.67   11.94
  15  -4  -3  132.55    6.82
 -15   4   3  133.30    6.97
  15  -4  -2  165.19    7.86
 -15   4   2  175.65    8.16
  15  -4  -1  496.54   18.10
 -15   4   1  477.40   17.51
  15  -4   0  188.41    8.68
 -15   4   0  207.99    9.12
  15  -4   1   45.92    4.82
 -15   4  -1   48.59    4.60
  15  -4   2  200.28    9.12
 -15   4  -2  198.50    8.90
  15  -4   3 1312.18   43.99
 -15   4  -3 1380.43   46.21
  15  -4   4  199.68    9.12
 -15   4  -4  186.33    8.53
  15  -4   5  148.80    7.86
 -15   4  -5  148.43    7.49
  15  -4   6  270.23   11.57
 -15   4  -6  268.52   11.35
  15  -4   7  372.51   14.61
 -15   4  -7  355.16   14.02
  15  -4   8   79.74    6.23
 -15   4  -8   72.69    5.79
  15  -4   9   32.93    5.12
 -15   4  -9   31.23    4.82
  15  -4  10  563.52   20.55
 -15   4 -10  565.82   20.55
  15  -4  11  592.37   21.51
 -15   4 -11  584.07   20.92
  15  -4  12  156.81    8.38
 -15   4 -12  174.31    8.31
  15  -4  13  120.39    7.49
 -15   4 -13  112.75    6.16
  15  -4  14  261.69   11.27
 -15   4 -14  281.13   11.50
  15  -4  15  341.36   13.57
 -15   4 -15  352.56   13.72
  15  -4  16  135.59    7.57
 -15   4 -16  158.44    7.71
  15  -4  17  322.00   12.91
 -15   4 -17  338.69   12.91
  15  -4  18  160.67    8.38
 -15   4 -18  143.90    7.42
  15  -4  19    7.05    4.38
 -15   4 -19   17.43    3.19
  15  -4  20   37.31    5.56
 -15   4 -20   34.12    4.97
 -14   4  26   21.51    4.30
 -14   4  26   22.62    4.52
 -14   4  25    8.75    4.01
 -14   4  25   14.98    3.86
 -14   4  24  408.86   15.21
 -14   4  24  411.38   15.13
 -14   4  23  129.51    7.05
 -14   4  23  127.21    6.68
 -14   4  22  120.61    6.68
 -14   4  22  128.99    6.82
 -14   4  21  705.12   24.55
 -14   4  21  725.00   25.22
 -14   4  20 1119.32   37.76
 -14   4  20 1089.65   36.79
 -14   4  19   36.49    4.97
 -14   4  19   34.20    4.60
 -14   4  18  152.21    7.49
 -14   4  18  142.57    7.20
 -14   4  17    4.45    3.63
 -14   4  17    8.68    3.56
 -14   4  16 1306.25   43.54
 -14   4  16 1318.12   43.99
 -14   4  15   58.01    4.67
 -14   4  15   65.79    5.12
 -14   4  14  262.21   10.76
 -14   4  14  241.30   10.16
 -14   4  13  158.29    7.49
 -14   4  13  162.52    7.64
 -14   4  12  453.74   16.54
 -14   4  12  426.07   15.58
 -14   4  11   63.50    4.90
 -14   4  11   61.12    4.75
 -14   4  10  444.76   16.32
 -14   4  10  470.21   17.13
 -14   4   9  375.70   14.32
 -14   4   9  349.67   13.28
 -14   4   8  192.86    8.60
 -14   4   8  194.64    8.60
 -14   4   7   14.98    3.63
 -14   4   7   14.84    3.49
  14  -4  -6  858.96   29.37
 -14   4   6  899.76   30.78
  14  -4  -5   89.61    5.56
 -14   4   5   87.16    5.41
  14  -4  -4  691.84   24.18
 -14   4   4  696.81   24.40
  14  -4  -3  382.23   14.46
 -14   4   3  387.57   14.54
  14  -4  -2 1842.55   60.90
 -14   4   2 1784.69   58.90
  14  -4  -1  487.49   17.88
 -14   4   1  515.16   18.40
  14  -4   0   -3.41    3.56
 -14   4   0   -3.86    3.04
  14  -4   1   90.05    5.93
 -14   4  -1   89.98    5.27
  14  -4   2  156.29    7.86
 -14   4  -2  140.86    6.90
  14  -4   3   29.45    4.52
 -14   4  -3   32.04    3.71
  14  -4   4   69.43    5.49
 -14   4  -4   77.44    5.34
  14  -4   5  161.93    8.16
 -14   4  -5  160.81    7.49
  14  -4   6  781.08   27.30
 -14   4  -6  756.60   26.04
  14  -4   7   50.74    5.49
 -14   4  -7   51.63    4.75
  14  -4   8  320.81   12.98
 -14   4  -8  279.05   11.27
  14  -4   9  311.91   12.83
 -14   4  -9  279.87   11.50
  14  -4  10 1146.77   39.02
 -14   4 -10 1164.57   39.46
  14  -4  11  119.50    7.57
 -14   4 -11  119.50    7.05
  14  -4  12  126.47    7.34
 -14   4 -12  138.41    7.34
  14  -4  13  341.14   13.80
 -14   4 -13  332.98   13.13
  14  -4  14  230.99   10.53
 -14   4 -14  220.01    9.94
  14  -4  15  139.23    7.86
 -14   4 -15  137.82    7.57
  14  -4  16  345.37   13.80
 -14   4 -16  286.77   11.50
  14  -4  17  136.63    7.71
 -14   4 -17  129.22    7.05
  14  -4  18  223.64   10.16
 -14   4 -18  196.94    9.05
  14  -4  19   74.84    5.79
 -14   4 -19   73.58    5.27
  14  -4  20  251.16   10.68
 -14   4 -20  254.65   10.46
  14  -4  21   16.24    4.60
 -14   4 -21   24.63    3.49
 -13   4  27    4.15    3.93
 -13   4  27   12.24    4.30
 -13   4  26  150.13    7.42
 -13   4  26  163.04    7.64
 -13   4  25  480.07   17.51
 -13   4  25  482.89   17.36
 -13   4  24   21.07    4.52
 -13   4  24    5.71    4.30
 -13   4  23   16.39    4.30
 -13   4  23    1.41    4.23
 -13   4  22  153.99    7.64
 -13   4  22  145.46    7.34
 -13   4  21  627.16   22.10
 -13   4  21  658.69   22.99
 -13   4  20  676.34   23.59
 -13   4  20  673.23   23.59
 -13   4  17  391.36   14.61
 -13   4  17  387.20   14.54
 -13   4  16  197.68    8.68
 -13   4  16  228.02    9.79
 -13   4  15  431.56   15.95
 -13   4  15  423.10   15.80
 -13   4  14   29.89    4.08
 -13   4  14   23.74    4.08
 -13   4  13  421.47   15.58
 -13   4  13  426.00   15.58
 -13   4  12   12.46    3.41
 -13   4  12   19.95    3.63
 -13   4  11  410.05   15.21
 -13   4  11  429.85   16.02
 -13   4  10  558.40   19.81
 -13   4  10  497.50   18.17
 -13   4   9  170.68    7.79
 -13   4   9  161.78    7.79
 -13   4   8   21.96    3.86
 -13   4   8   32.12    4.01
 -13   4   7 1310.70   43.84
 -13   4   7 1303.28   43.54
  13  -4  -6  800.37   27.45
 -13   4   6  840.42   28.63
  13  -4  -5   10.46    3.34
 -13   4   5    8.16    2.82
  13  -4  -4    1.04    3.19
 -13   4   4    3.12    2.67
  13  -4  -3  723.37   25.07
 -13   4   3  718.85   24.63
  13  -4  -2  939.82   31.97
 -13   4   2  918.31   31.01
  13  -4  -1   22.48    4.15
 -13   4   1   21.66    3.26
  13  -4   0  818.17   28.19
 -13   4   0  784.79   26.85
  13  -4   1  950.94   32.49
 -13   4  -1  998.42   33.82
  13  -4   2  115.64    6.53
 -13   4  -2  108.82    6.01
  13  -4   3  364.21   14.09
 -13   4  -3  360.13   13.50
  13  -4   4  592.30   21.29
 -13   4  -4  603.13   21.21
  13  -4   5  538.60   19.66
 -13   4  -5  510.85   18.32
  13  -4   6 1461.28   48.73
 -13   4  -6 1370.78   45.69
  13  -4   7   -3.41    4.01
 -13   4  -7   -3.63    3.63
  13  -4   8  821.88   28.71
 -13   4  -8  818.91   28.19
  13  -4   9  983.58   33.82
 -13   4  -9 1003.61   34.20
  13  -4  10  203.39    9.64
 -13   4 -10  195.53    9.05
  13  -4  11   63.50    5.86
 -13   4 -11   71.28    5.56
  13  -4  12  295.37   12.31
 -13   4 -12  276.83   11.42
  13  -4  13  477.33   18.02
 -13   4 -13  463.16   16.99
  13  -4  14   -2.89    4.52
 -13   4 -14   -5.56    3.63
  13  -4  15  644.82   23.07
 -13   4 -15  625.38   22.25
  13  -4  16  131.52    7.79
 -13   4 -16  131.81    7.27
  13  -4  17  169.20    8.60
 -13   4 -17  168.53    7.94
  13  -4  18   87.08    6.53
 -13   4 -18   85.53    6.08
  13  -4  19  245.15   10.68
 -13   4 -19  239.52    9.87
  13  -4  20  776.63   27.07
 -13   4 -20  761.79   26.26
  13  -4  21  171.05    8.46
 -13   4 -21  184.55    8.31
  13  -4  22    8.98    4.52
 -13   4 -22    6.16    4.45
 -12   4  27   15.50    4.15
 -12   4  27    6.82    4.08
 -12   4  26  618.11   21.73
 -12   4  26  615.96   21.59
 -12   4  25  230.02    9.94
 -12   4  25  258.80   10.53
 -12   4  24   85.08    5.71
 -12   4  24   93.68    5.93
 -12   4  23  241.44   10.24
 -12   4  23  240.70   10.09
 -12   4  22  656.91   23.14
 -12   4  22  634.28   22.25
 -12   4  21    8.53    3.86
 -12   4  21    4.01    4.15
 -12   4  20  355.01   13.80
 -12   4  20  348.63   13.43
 -12   4  19   15.06    3.93
 -12   4  19   14.91    4.01
 -12   4  18  562.18   20.10
 -12   4  18  584.88   20.77
 -12   4  17  156.14    7.57
 -12   4  17  145.68    7.20
 -12   4  16  642.00   22.48
 -12   4  16  630.43   22.03
 -12   4  15  415.91   15.35
 -12   4  15  472.13   16.99
 -12   4  14   46.73    4.30
 -12   4  14   51.70    4.45
 -12   4  12  503.29   18.02
 -12   4  12  466.72   17.13
 -12   4  11 1048.11   35.38
 -12   4  11 1151.22   38.72
 -12   4  10  685.69   23.81
 -12   4  10  661.51   22.77
 -12   4   9   -2.23    2.82
 -12   4   9    0.52    3.12
 -12   4   8  538.67   19.21
 -12   4   8  563.22   19.58
 -12   4   7  933.14   31.67
 -12   4   7  941.30   31.67
 -12   4   6   97.91    5.27
 -12   4   6  100.06    5.49
  12  -4  -5  291.74   11.35
 -12   4   5  276.01   10.68
  12  -4  -4 2119.22   69.43
 -12   4   4 2141.48   70.10
  12  -4  -3  579.32   20.40
 -12   4   3  585.18   20.47
  12  -4  -2  122.98    6.38
 -12   4   2  129.22    6.45
  12  -4  -1  901.99   30.71
 -12   4   1  949.46   32.12
  12  -4   0  979.13   33.23
 -12   4   0  985.81   33.53
  12  -4   1 1008.80   34.27
 -12   4  -1 1015.48   34.42
  12  -4   2   39.31    4.38
 -12   4  -2   33.68    4.01
  12  -4   3 1762.44   58.38
 -12   4  -3 1795.07   59.27
  12  -4   4  862.67   29.74
 -12   4  -4  797.40   27.59
  12  -4   5   33.38    4.82
 -12   4  -5   32.93    3.93
  12  -4   6    0.59    4.30
 -12   4  -6   -2.67    3.71
  12  -4   7    2.74    4.15
 -12   4  -7   11.35    3.86
  12  -4   8 1507.27   50.44
 -12   4  -8 1470.18   49.10
  12  -4   9  120.98    7.20
 -12   4  -9  124.76    7.05
  12  -4  10  111.56    6.90
 -12   4 -10   96.36    5.93
  12  -4  11  305.09   12.54
 -12   4 -11  319.11   12.68
  12  -4  12  487.56   18.10
 -12   4 -12  505.22   18.54
  12  -4  13  153.92    8.16
 -12   4 -13  173.05    8.53
  12  -4  14  262.88   11.13
 -12   4 -14  269.85   11.35
  12  -4  15  421.62   16.17
 -12   4 -15  414.80   15.35
  12  -4  16   70.02    6.16
 -12   4 -16   66.68    5.64
  12  -4  17   28.04    4.90
 -12   4 -17   28.19    4.45
  12  -4  18  168.97    8.68
 -12   4 -18  174.46    8.31
  12  -4  19    9.05    5.04
 -12   4 -19   14.32    4.52
  12  -4  20  441.35   16.54
 -12   4 -20  442.31   16.32
  12  -4  21   62.01    6.23
 -12   4 -21   62.83    5.56
  12  -4  22  270.08   11.42
 -12   4 -22  283.95   11.35
  12  -4  23  232.25    9.87
 -12   4 -23  242.11    9.94
 -12   4 -24    9.27    4.60
 -11   4  28   71.58    5.41
 -11   4  28   76.48    5.41
 -11   4  27  316.88   12.31
 -11   4  27  340.62   13.13
 -11   4  26  142.12    7.12
 -11   4  26  147.24    7.34
 -11   4  25    6.16    4.23
 -11   4  25    1.71    4.38
 -11   4  24   82.34    5.79
 -11   4  24   87.45    6.16
 -11   4  23 1118.58   37.83
 -11   4  23 1230.59   41.32
 -11   4  22  328.01   12.76
 -11   4  22  325.12   12.76
 -11   4  21   43.32    4.82
 -11   4  21   48.14    4.97
 -11   4  20  513.08   18.40
 -11   4  20  523.46   18.69
 -11   4  19  317.55   12.54
 -11   4  19  305.01   12.02
 -11   4  18  504.99   18.17
 -11   4  18  496.76   18.02
 -11   4  17   15.13    4.01
 -11   4  17    8.31    3.63
 -11   4  16  544.53   19.29
 -11   4  16  527.69   18.92
 -11   4  15  995.45   33.90
 -11   4  15  991.74   33.53
 -11   4  14   67.50    4.82
 -11   4  14   79.74    5.34
 -11   4  13  125.36    6.23
 -11   4  13  144.13    6.90
 -11   4  12  213.55    8.90
 -11   4  12  204.13    8.60
 -11   4  11 1129.71   37.83
 -11   4  11 1161.60   38.72
 -11   4  10  100.95    5.49
 -11   4  10  109.71    5.49
 -11   4   9  518.05   18.40
 -11   4   9  519.38   18.10
 -11   4   8  770.69   26.41
 -11   4   8  725.60   24.63
 -11   4   7  159.70    7.12
 -11   4   7  152.36    6.60
 -11   4   6   23.07    2.97
 -11   4   6   23.74    3.34
  11  -4  -5  749.92   25.59
 -11   4   5  748.44   25.44
  11  -4  -4 1469.44   48.59
 -11   4   4 1432.35   47.40
  11  -4  -3   50.89    4.23
 -11   4   3   50.22    4.01
  11  -4  -2  651.94   22.55
 -11   4   2  639.25   22.10
  11  -4  -1   65.79    4.75
 -11   4   1   52.96    4.01
  11  -4   0  506.85   18.10
 -11   4   0  545.94   19.36
  11  -4   1    0.22    3.34
 -11   4  -1    2.89    3.04
  11  -4   2  201.76    8.90
 -11   4  -2  179.88    8.16
  11  -4   3 1709.77   56.60
 -11   4  -3 1590.35   53.04
  11  -4   4 1220.95   41.02
 -11   4  -4 1272.87   42.87
  11  -4   5  130.55    7.27
 -11   4  -5  129.66    6.82
  11  -4   6  428.07   16.17
 -11   4  -6  456.85   16.84
  11  -4   7 1329.99   44.65
 -11   4  -7 1378.20   46.36
  11  -4   8   77.51    6.01
 -11   4  -8   82.48    6.01
  11  -4   9   58.67    5.56
 -11   4  -9   55.41    5.12
  11  -4  10  112.23    7.12
 -11   4 -10  104.74    6.60
  11  -4  11  904.21   31.38
 -11   4 -11  893.09   30.86
  11  -4  12   57.12    5.79
 -11   4 -12   59.12    5.64
  11  -4  13  204.36    9.49
 -11   4 -13  209.70    9.79
  11  -4  14  439.13   16.69
 -11   4 -14  429.19   16.10
  11  -4  15  238.33   10.90
 -11   4 -15  239.22   10.68
  11  -4  16   34.79    5.49
 -11   4 -16   38.42    4.97
  11  -4  17  927.21   32.04
 -11   4 -17  914.60   31.53
  11  -4  18  349.96   13.95
 -11   4 -18  350.26   13.72
  11  -4  19    2.60    5.04
 -11   4 -19    1.78    3.93
  11  -4  20   -5.41    4.08
 -11   4 -20    0.89    4.30
  11  -4  21  335.65   13.57
 -11   4 -21  319.33   12.76
  11  -4  22  322.96   13.20
 -11   4 -22  298.04   11.87
  11  -4  23  189.60    8.68
 -11   4 -23  195.68    9.12
  11  -4  24  118.98    6.90
 -11   4 -24  115.94    6.38
  11  -4  25  569.38   20.10
 -11   4 -25  605.58   21.14
 -10   4  29  129.81    6.53
 -10   4  29  137.52    7.27
 -10   4  28  315.62   12.16
 -10   4  28  349.52   13.28
 -10   4  27   73.58    5.86
 -10   4  27   70.54    5.64
 -10   4  26   30.71    4.90
 -10   4  26   26.63    4.38
 -10   4  25  158.89    7.71
 -10   4  25  155.92    7.79
 -10   4  24  867.12   29.74
 -10   4  24  821.13   28.26
 -10   4  23  304.12   12.09
 -10   4  23  317.25   12.61
 -10   4  22   -4.38    3.78
 -10   4  22    2.00    4.15
 -10   4  21  990.26   33.68
 -10   4  21  988.77   33.45
 -10   4  20  966.52   33.01
 -10   4  20  921.27   31.53
 -10   4  19  203.61    9.05
 -10   4  19  201.76    8.90
 -10   4  18  178.02    8.23
 -10   4  18  203.24    8.75
 -10   4  17  138.19    6.90
 -10   4  17  132.03    6.82
 -10   4  15  898.28   30.49
 -10   4  15  907.92   30.93
 -10   4  14  217.56    8.98
 -10   4  14  229.06    9.35
 -10   4  13 1617.05   53.33
 -10   4  13 1807.68   59.42
 -10   4  12  540.82   18.84
 -10   4  12  524.65   18.47
 -10   4  10  730.27   24.85
 -10   4  10  790.72   26.70
 -10   4   9 1243.94   41.32
 -10   4   9 1253.58   41.46
 -10   4   8  487.04   17.06
 -10   4   8  480.89   17.13
 -10   4   7  262.81   10.31
 -10   4   7  263.10   10.09
 -10   4   6  310.28   11.87
 -10   4   6  292.55   10.90
  10  -4  -5  388.31   13.95
 -10   4   5  429.19   15.58
  10  -4  -4  626.05   21.59
 -10   4   4  637.10   22.18
  10  -4  -3   36.05    3.56
 -10   4   3   36.12    3.86
  10  -4  -2 2260.90   73.81
 -10   4   2 2300.22   75.29
  10  -4  -1 1100.78   36.72
 -10   4   1 1109.68   37.31
  10  -4   0  125.95    6.31
 -10   4   0  137.23    6.90
  10  -4   1  649.94   22.55
 -10   4  -1  674.26   23.44
  10  -4   2 1456.83   48.29
 -10   4  -2 1439.77   47.77
  10  -4   3   94.72    5.64
 -10   4  -3   91.39    5.27
  10  -4   4    9.20    3.49
 -10   4  -4    8.90    3.41
  10  -4   5  523.17   18.99
 -10   4  -5  525.54   18.99
  10  -4   6 1542.13   51.33
 -10   4  -6 1472.40   49.25
  10  -4   7  628.79   22.40
 -10   4  -7  602.91   21.59
  10  -4   8  449.88   16.76
 -10   4  -8  449.44   16.62
  10  -4   9   45.92    5.19
 -10   4  -9   44.36    4.97
  10  -4  10 1265.45   42.65
 -10   4 -10 1278.80   43.10
  10  -4  11  194.79    9.42
 -10   4 -11  202.65    9.20
  10  -4  12   99.47    6.97
 -10   4 -12  103.92    6.82
  10  -4  13  380.38   14.98
 -10   4 -13  358.20   14.24
  10  -4  14  362.43   14.24
 -10   4 -14  359.68   14.09
  10  -4  15    0.82    4.38
 -10   4 -15   11.05    4.82
  10  -4  16  291.07   12.24
 -10   4 -16  278.68   11.65
  10  -4  17  810.01   28.34
 -10   4 -17  818.91   28.85
  10  -4  18  997.67   34.27
 -10   4 -18  987.29   33.82
  10  -4  19  147.09    8.01
 -10   4 -19  147.46    8.31
  10  -4  20 1095.59   37.38
 -10   4 -20 1038.47   35.31
  10  -4  21  393.36   15.35
 -10   4 -21  405.45   15.43
  10  -4  22  210.44    9.72
 -10   4 -22  197.09    9.27
  10  -4  23  268.44   11.50
 -10   4 -23  250.27   10.16
  10  -4  24  280.16   11.79
 -10   4 -24  261.25   10.68
  10  -4  25  312.51   12.54
 -10   4 -25  337.50   13.06
  10  -4  26   52.52    5.79
 -10   4 -26   59.04    4.97
  -9   4  29  278.09   11.20
  -9   4  29  240.41    9.79
  -9   4  28  111.86    6.68
  -9   4  28  129.22    6.97
  -9   4  27   -3.86    4.15
  -9   4  27   -2.37    4.30
  -9   4  26  702.82   24.63
  -9   4  26  648.53   22.92
  -9   4  25  413.39   15.73
  -9   4  25  400.11   15.13
  -9   4  24   12.16    3.71
  -9   4  24   13.28    4.30
  -9   4  23   56.67    5.41
  -9   4  23   51.63    5.12
  -9   4  22   22.10    4.30
  -9   4  22   32.86    4.38
  -9   4  21  115.05    6.60
  -9   4  21  116.38    6.53
  -9   4  20  355.38   13.57
  -9   4  20  316.44   12.46
  -9   4  19  214.89    9.20
  -9   4  19  210.81    8.98
  -9   4  18  873.80   29.82
  -9   4  18  806.30   27.82
  -9   4  17  203.02    9.27
  -9   4  17  203.61    8.68
  -9   4  16  159.26    7.34
  -9   4  16  172.39    7.86
  -9   4  15  308.72   11.87
  -9   4  15  301.75   11.57
  -9   4  14  182.33    7.94
  -9   4  14  186.03    7.86
  -9   4  13  652.23   22.25
  -9   4  13  629.09   21.73
  -9   4  12    2.60    2.82
  -9   4  12    0.82    2.52
  -9   4  11  853.03   28.71
  -9   4  11  810.75   27.52
  -9   4  10 1035.50   34.49
  -9   4  10 1130.45   37.76
  -9   4   9  726.78   24.70
  -9   4   9  661.14   22.85
  -9   4   8  163.26    7.20
  -9   4   8  156.88    6.68
  -9   4   7  610.40   20.92
  -9   4   7  609.81   20.92
  -9   4   6  654.61   22.40
  -9   4   6  652.90   22.33
  -9   4   5   67.57    4.15
  -9   4   5   61.12    3.93
   9  -4  -4    3.71    2.60
  -9   4   4   -0.22    2.52
   9  -4  -3  880.48   29.52
  -9   4   3  876.77   29.37
   9  -4  -2  502.69   17.51
  -9   4   2  517.53   17.88
   9  -4  -1  365.25   13.28
  -9   4   1  363.91   13.06
   9  -4   0   31.53    3.56
  -9   4   0   26.18    3.34
   9  -4   1 1858.12   60.97
  -9   4  -1 1851.45   60.60
   9  -4   2 1204.63   40.06
  -9   4  -2 1194.98   39.83
   9  -4   3   96.73    5.49
  -9   4  -3   97.54    5.49
   9  -4   4  442.69   16.17
  -9   4  -4  389.28   14.24
   9  -4   5  353.53   13.50
  -9   4  -5  336.17   12.61
   9  -4   6  218.45    9.49
  -9   4  -6  207.47    8.90
   9  -4   7   29.30    4.52
  -9   4  -7   31.82    4.30
   9  -4   8  391.21   14.98
  -9   4  -8  380.90   14.54
   9  -4   9  414.42   15.87
  -9   4  -9  449.36   16.69
   9  -4  10    6.97    4.52
  -9   4 -10   -5.41    3.93
   9  -4  11    6.90    4.60
  -9   4 -11   10.16    4.08
   9  -4  12  631.98   22.70
  -9   4 -12  624.27   22.03
   9  -4  13 1434.57   48.29
  -9   4 -13 1419.74   47.62
   9  -4  14   79.00    6.31
  -9   4 -14   68.91    5.56
   9  -4  15  436.01   16.62
  -9   4 -15  431.63   16.39
   9  -4  16  145.98    8.31
  -9   4 -16  160.00    8.16
   9  -4  17  204.88    9.79
  -9   4 -17  200.20    9.57
   9  -4  18    6.23    4.01
  -9   4 -18    0.07    3.49
   9  -4  19  282.02   12.09
  -9   4 -19  301.08   12.54
   9  -4  20  851.55   29.60
  -9   4 -20  934.62   32.19
   9  -4  21    8.53    4.23
  -9   4 -21    3.19    3.93
   9  -4  22  169.49    8.83
  -9   4 -22  175.65    8.68
   9  -4  23  263.62   11.57
  -9   4 -23  273.49   11.42
   9  -4  24   12.61    5.27
  -9   4 -24    1.34    3.86
   9  -4  25  161.93    8.38
  -9   4 -25  167.19    7.79
   9  -4  26    4.15    4.67
  -9   4 -26    5.04    4.52
  -8   4  30  260.14   10.53
  -8   4  30  257.84   10.09
  -8   4  29   31.53    4.75
  -8   4  29   28.93    4.67
  -8   4  28    5.64    4.15
  -8   4  28    8.83    4.38
  -8   4  27  157.55    7.86
  -8   4  27  147.69    7.79
  -8   4  26  206.43    9.42
  -8   4  26  224.98    9.72
  -8   4  25   94.50    6.08
  -8   4  25   95.17    6.23
  -8   4  24    3.78    4.15
  -8   4  24    4.30    4.01
  -8   4  23  156.36    7.79
  -8   4  23  173.94    8.53
  -8   4  21   82.26    5.79
  -8   4  21   82.78    5.64
  -8   4  20    3.04    3.63
  -8   4  20    7.79    3.49
  -8   4  19   84.12    5.49
  -8   4  19   75.07    5.41
  -8   4  18 1322.57   44.06
  -8   4  18 1185.34   40.06
  -8   4  17   41.98    4.23
  -8   4  17   49.70    4.45
  -8   4  16 1134.16   37.90
  -8   4  16 1263.97   42.13
  -8   4  15  408.49   14.84
  -8   4  15  431.86   15.58
  -8   4  14  242.26    9.27
  -8   4  14  233.95    9.27
  -8   4  13   54.89    4.01
  -8   4  13   49.48    3.78
  -8   4  12  653.87   22.33
  -8   4  12  731.83   25.00
  -8   4  11  736.20   24.92
  -8   4  11  769.21   26.18
  -8   4  10  863.42   29.00
  -8   4  10  942.04   31.45
  -8   4   9   59.56    3.93
  -8   4   9   49.92    3.49
  -8   4   8  295.96   10.98
  -8   4   8  294.93   10.68
  -8   4   7  313.69   11.42
  -8   4   7  287.95   10.38
  -8   4   6  652.01   22.10
  -8   4   6  690.14   23.14
  -8   4   5  229.50    8.68
  -8   4   5  224.98    8.46
   8  -4  -4 1568.83   51.40
   8  -4  -3   12.98    2.67
  -8   4   3   15.58    2.60
   8  -4  -2    9.79    2.67
  -8   4   2   10.38    2.37
   8  -4  -1    2.74    2.67
  -8   4   1    1.63    2.30
   8  -4   0 1406.39   46.29
  -8   4   0 1386.36   45.47
   8  -4   1 1059.24   35.31
  -8   4  -1 1069.63   35.38
   8  -4   2    4.60    2.82
  -8   4  -2    7.27    2.45
   8  -4   3  272.45   10.61
  -8   4  -3  264.66   10.01
   8  -4   4 1240.97   41.32
  -8   4  -4 1261.00   41.84
   8  -4   5  337.50   12.68
  -8   4  -5  333.35   12.54
   8  -4   6   50.89    4.67
  -8   4  -6   56.15    4.38
   8  -4   7    1.11    3.86
  -8   4  -7    7.49    3.19
   8  -4   8 1010.28   34.27
  -8   4  -8  973.20   32.86
   8  -4   9  452.63   16.91
  -8   4  -9  432.08   15.95
   8  -4  10  118.31    7.12
  -8   4 -10  117.05    6.53
   8  -4  11  516.57   19.06
  -8   4 -11  484.15   17.51
   8  -4  12 1585.89   52.96
  -8   4 -12 1608.89   53.41
   8  -4  13    5.49    4.60
  -8   4 -13    5.71    3.86
   8  -4  14  334.31   13.57
  -8   4 -14  331.72   13.13
   8  -4  15  985.81   33.90
  -8   4 -15  920.53   31.53
   8  -4  16  332.83   13.65
  -8   4 -16  357.23   14.02
   8  -4  17  160.37    8.38
  -8   4 -17  159.92    8.09
   8  -4  18  232.69   10.61
  -8   4 -18  232.40   10.09
   8  -4  19  274.75   11.57
  -8   4 -19  276.83   12.02
   8  -4  20  798.88   27.96
  -8   4 -20  809.27   28.11
   8  -4  21   66.24    6.16
  -8   4 -21   63.27    4.82
   8  -4  22  250.35   11.05
  -8   4 -22  258.28   10.98
   8  -4  23 1049.60   35.83
  -8   4 -23 1049.60   35.75
   8  -4  24   72.69    6.31
  -8   4 -24   72.10    6.01
   8  -4  25   46.88    5.86
  -8   4 -25   45.32    4.60
   8  -4  26  159.41    8.31
  -8   4 -26  166.60    7.79
   8  -4  27  173.42    8.31
  -8   4 -27  169.27    8.01
  -7   4  30  103.85    5.79
  -7   4  30  110.37    6.16
  -7   4  29    6.90    4.15
  -7   4  29    6.38    4.23
  -7   4  28  242.19   10.31
  -7   4  28  271.86   11.13
  -7   4  27  449.44   16.69
  -7   4  27  483.19   17.58
  -7   4  26    0.15    3.71
  -7   4  26    5.41    4.30
  -7   4  25   72.47    5.79
  -7   4  25   72.54    5.56
  -7   4  24   29.23    4.30
  -7   4  24   32.71    4.82
  -7   4  23 1551.77   51.55
  -7   4  23 1539.16   51.11
  -7   4  22    0.67    4.08
  -7   4  22    4.45    4.08
  -7   4  21   52.15    4.90
  -7   4  21   40.80    4.60
  -7   4  20  947.23   32.27
  -7   4  20  856.00   29.37
  -7   4  18   65.20    5.41
  -7   4  18   48.88    4.60
  -7   4  17   53.56    4.60
  -7   4  17   47.03    4.23
  -7   4  16  864.16   29.30
  -7   4  16  787.76   26.78
  -7   4  15  278.68   10.76
  -7   4  15  257.91    9.87
  -7   4  14  195.68    8.09
  -7   4  14  213.18    8.53
  -7   4  13  916.08   30.86
  -7   4  13  890.12   29.89
  -7   4  12  369.70   13.28
  -7   4  12  346.63   12.76
  -7   4  11  483.71   16.69
  -7   4  11  461.45   16.17
  -7   4  10    0.52    2.45
  -7   4  10   -0.96    2.15
  -7   4   9  554.40   18.99
  -7   4   9  503.51   17.13
  -7   4   8  244.93    8.98
  -7   4   8  237.07    8.90
  -7   4   7 1142.32   37.53
  -7   4   7 1187.57   38.94
  -7   4   6    5.34    1.93
  -7   4   6    9.57    2.08
  -7   4   5  677.31   22.55
  -7   4   5  652.31   21.73
  -7   4   4  227.35    8.23
  -7   4   4  223.49    8.09
   7  -4  -3    3.63    2.08
  -7   4   3    3.04    1.85
   7  -4  -2 1272.87   41.84
  -7   4   2 1327.76   43.39
   7  -4  -1 1613.34   52.74
  -7   4   1 1615.57   52.67
   7  -4   0   13.43    2.60
  -7   4   0    7.71    2.15
   7  -4   1  259.77    9.72
  -7   4  -1  232.47    8.68
   7  -4   2  116.90    5.56
  -7   4  -2  118.01    5.34
   7  -4   3 1220.95   40.43
  -7   4  -3 1197.21   39.46
   7  -4   4 1600.73   52.59
  -7   4  -4 1628.18   53.26
   7  -4   5   10.09    3.12
  -7   4  -5   14.69    3.12
   7  -4   6  809.27   27.59
  -7   4  -6  779.60   26.48
   7  -4   7  778.85   26.70
  -7   4  -7  764.02   26.04
   7  -4   8    2.52    3.71
  -7   4  -8    7.49    3.19
   7  -4   9   98.43    6.31
  -7   4  -9  101.33    5.79
   7  -4  10  245.52   10.53
  -7   4 -10  254.05   10.46
   7  -4  11 1525.81   50.96
  -7   4 -11 1485.76   49.40
   7  -4  12   18.69    4.45
  -7   4 -12   11.35    3.26
   7  -4  13  601.35   21.66
  -7   4 -13  596.82   21.21
   7  -4  14  470.28   17.73
  -7   4 -14  485.34   17.88
   7  -4  15 1072.59   36.72
  -7   4 -15 1078.53   36.57
   7  -4  16   -0.59    4.75
  -7   4 -16    1.34    3.63
   7  -4  17  810.01   28.26
  -7   4 -17  815.94   28.26
   7  -4  18  258.73   11.42
  -7   4 -18  265.55   11.42
   7  -4  19  130.62    7.71
  -7   4 -19  128.70    7.12
   7  -4  20   92.42    6.38
  -7   4 -20   85.53    5.49
   7  -4  21  143.23    7.57
  -7   4 -21  123.36    6.75
   7  -4  22  124.39    7.05
  -7   4 -22  111.04    6.68
   7  -4  23  458.04   16.91
  -7   4 -23  456.85   17.06
   7  -4  24    1.48    4.30
  -7   4 -24   -3.56    4.60
   7  -4  25  858.22   29.67
  -7   4 -25  914.60   31.30
   7  -4  26  363.39   14.32
  -7   4 -26  330.90   12.76
   7  -4  27    0.67    4.52
  -7   4 -27   -3.26    2.82
   7  -4  28  317.55   12.09
  -7   4 -28  333.28   12.46
   6  -4 -30    6.01    6.01
  -6   4  30    3.19    3.49
   6  -4 -29  181.51    8.60
  -6   4  29  177.43    8.46
   6  -4 -28  704.45   24.70
  -6   4  28  786.27   27.30
   6  -4 -27   49.18    4.90
  -6   4  27   62.61    5.56
   6  -4 -26    5.71    3.56
  -6   4  26    7.57    4.15
   6  -4 -25  194.79    8.83
  -6   4  25  188.11    8.83
   6  -4 -24  718.10   25.15
  -6   4  24  708.24   24.85
   6  -4 -23  661.06   23.22
  -6   4  23  632.43   22.40
  -6   4  22   34.71    4.75
  -6   4  22   31.60    4.23
  -6   4  21 1916.72   63.12
  -6   4  21 1978.29   65.20
  -6   4  19    2.30    3.49
  -6   4  19   -1.04    3.93
  -6   4  18 1098.55   37.01
  -6   4  18 1096.33   36.72
  -6   4  17  996.19   33.68
  -6   4  17  959.84   32.34
  -6   4  16  199.09    8.60
  -6   4  16  208.96    8.53
  -6   4  14  464.79   16.47
  -6   4  14  425.63   15.35
  -6   4  13  981.36   32.79
  -6   4  13 1072.59   35.83
  -6   4  12  428.30   15.06
  -6   4  12  447.58   15.73
  -6   4  11   16.24    2.45
  -6   4  11   14.54    2.74
  -6   4  10  703.42   23.51
  -6   4  10  645.19   21.81
  -6   4   9  329.05   11.50
  -6   4   9  320.15   11.27
  -6   4   8  876.77   28.85
  -6   4   8  921.27   30.34
  -6   4   7  132.92    5.19
  -6   4   7  137.45    5.34
  -6   4   6 1950.84   63.42
  -6   4   6 1926.37   62.68
  -6   4   5    4.82    1.48
  -6   4   5    4.90    1.63
  -6   4   4   29.15    2.23
  -6   4   4   24.48    1.93
  -6   4   3    0.30    1.48
  -6   4   3    3.26    1.56
   6  -4  -2 2643.65   85.67
  -6   4   2 2553.90   82.86
   6  -4  -1  299.45   10.53
  -6   4   1  288.84   10.24
   6  -4   0  274.97    9.87
  -6   4   0  264.66    9.49
   6  -4   1   28.04    2.82
  -6   4  -1   28.41    2.60
   6  -4   2 1052.57   34.79
  -6   4  -2 1030.31   34.05
   6  -4   3   66.61    4.23
  -6   4  -3   58.53    3.71
   6  -4   4  241.82    9.42
  -6   4  -4  218.15    8.46
   6  -4   5  141.60    6.53
  -6   4  -5  136.41    6.01
   6  -4   6 1090.40   36.49
  -6   4  -6 1122.29   37.16
   6  -4   7    5.49    3.56
  -6   4  -7    7.64    3.19
   6  -4   8  283.28   11.20
  -6   4  -8  269.56   10.68
   6  -4   9  680.20   23.74
  -6   4  -9  693.77   23.96
   6  -4  10  904.21   30.93
  -6   4 -10  887.15   30.04
   6  -4  11    6.31    4.23
  -6   4 -11    8.60    3.78
   6  -4  12  712.69   25.15
  -6   4 -12  760.31   26.41
   6  -4  13  423.25   16.17
  -6   4 -13  420.21   15.65
   6  -4  14  922.76   31.97
  -6   4 -14  912.37   31.23
   6  -4  15   98.95    6.75
  -6   4 -15  109.19    6.16
   6  -4  16   89.31    6.75
  -6   4 -16  101.10    6.16
   6  -4  17  209.85    9.64
  -6   4 -17  206.88    9.20
   6  -4  18  733.61   26.04
  -6   4 -18  719.36   25.22
   6  -4  19   16.32    5.27
  -6   4 -19   20.47    4.75
   6  -4  20  914.60   31.75
  -6   4 -20  960.59   32.86
   6  -4  21   44.28    5.71
  -6   4 -21   29.23    4.90
   6  -4  22   46.21    5.86
  -6   4 -22   49.70    5.41
   6  -4  23    2.60    4.97
  -6   4 -23    9.35    4.60
   6  -4  24  628.79   22.55
  -6   4 -24  675.45   23.81
   6  -4  25  224.31    9.72
  -6   4 -25  188.85    9.05
   6  -4  26   58.75    6.01
  -6   4 -26   77.66    5.71
   6  -4  27  248.79   10.68
  -6   4 -27  251.24   10.24
   6  -4  28  457.30   16.62
  -6   4 -28  481.48   17.13
  -6   4 -29   37.01    4.38
   5  -4 -31    6.31    7.86
  -5   4  31    5.49    3.71
   5  -4 -30   -1.56    5.64
  -5   4  30   66.17    5.34
   5  -4 -29  452.11   16.76
  -5   4  29  513.67   18.69
   5  -4 -28  313.99   12.46
  -5   4  28  294.63   12.09
   5  -4 -27   30.19    4.30
  -5   4  27   33.31    4.90
   5  -4 -26  338.17   13.28
  -5   4  26  359.98   14.09
   5  -4 -25  450.03   16.69
  -5   4  25  461.82   17.06
   5  -4 -24   24.63    4.23
  -5   4  24   33.01    4.67
   5  -4 -23 1548.81   51.48
  -5   4  23 1433.83   47.84
   5  -4 -22   26.85    3.93
  -5   4  22   30.71    4.45
   5  -4 -21  408.19   15.13
  -5   4  21  407.23   15.28
   5  -4 -20  159.85    7.49
  -5   4  20  170.98    8.09
   5  -4 -19 1216.50   40.87
  -5   4  19 1327.76   44.36
   5  -4 -18  725.45   25.15
  -5   4  18  764.76   26.48
   5  -4 -17  968.00   32.79
  -5   4  16   48.21    4.30
  -5   4  16   48.88    4.08
  -5   4  15  400.55   14.54
  -5   4  15  382.97   13.87
  -5   4  14  166.82    7.20
  -5   4  14  161.93    7.27
  -5   4  13 1090.40   36.20
  -5   4  13 1123.03   37.38
  -5   4  12  104.81    4.97
  -5   4  12  106.07    5.12
  -5   4  11 1506.53   49.18
  -5   4  11 1386.36   45.54
  -5   4  10  342.70   11.94
  -5   4  10  312.21   10.98
  -5   4   9  686.28   22.77
  -5   4   9  685.32   22.77
  -5   4   8   60.16    3.04
  -5   4   8   54.74    2.74
  -5   4   7 2206.75   71.88
  -5   4   7 2313.57   75.44
   5  -4  -1    4.45    1.48
  -5   4   1    2.52    1.41
   5  -4   0  359.31   12.31
  -5   4   0  366.65   12.61
   5  -4   1 1566.61   51.11
  -5   4  -1 1561.42   50.96
   5  -4   2  771.44   25.67
  -5   4  -2  756.60   25.15
   5  -4   3  434.90   15.06
  -5   4  -3  453.22   15.65
   5  -4   4  952.43   31.67
  -5   4  -4  937.59   31.23
   5  -4   5  337.35   12.39
  -5   4  -5  337.21   12.24
   5  -4   6   18.69    3.34
  -5   4  -6   14.98    2.89
   5  -4   7  144.79    6.82
  -5   4  -7  140.49    6.53
   5  -4   8  181.29    8.01
  -5   4  -8  202.28    8.60
   5  -4   9  970.23   32.86
  -5   4  -9  968.75   32.79
   5  -4  10    9.35    3.56
  -5   4 -10    8.60    3.49
   5  -4  11  721.81   25.22
  -5   4 -11  704.97   24.48
   5  -4  12  516.12   18.92
  -5   4 -12  478.36   17.51
   5  -4  13 1461.28   48.88
  -5   4 -13 1453.12   48.36
   5  -4  14   14.46    4.60
  -5   4 -14   14.84    4.23
   5  -4  15  372.89   14.76
  -5   4 -15  366.28   14.32
   5  -4  16    6.16    4.23
  -5   4 -16    2.30    4.08
   5  -4  17  165.86    9.05
  -5   4 -17  164.82    8.31
   5  -4  18   22.40    5.56
  -5   4 -18   10.09    3.86
   5  -4  19  649.94   23.59
  -5   4 -19  594.30   21.29
   5  -4  20  811.49   28.71
  -5   4 -20  738.65   25.74
   5  -4  21   11.72    5.34
  -5   4 -21   12.83    3.93
   5  -4  22  515.68   18.99
  -5   4 -22  483.11   17.58
   5  -4  23  688.66   24.33
  -5   4 -23  699.48   24.48
   5  -4  24  358.79   14.32
  -5   4 -24  330.53   12.98
   5  -4  25    5.71    4.97
  -5   4 -25    0.37    3.93
   5  -4  26   20.32    4.52
  -5   4 -26   22.85    4.30
   5  -4  27  412.79   15.80
  -5   4 -27  401.52   14.98
   5  -4  28  370.36   14.09
  -5   4 -28  366.80   13.65
   5  -4  29    1.26    4.60
  -5   4 -29    1.26    3.41
   4  -4 -31   -2.82   10.90
  -4   4  31   21.66    3.78
   4  -4 -30  835.23   29.60
  -4   4  30  610.47   21.51
   4  -4 -29  114.90    6.75
  -4   4  29  120.31    6.97
   4  -4 -28   -2.15    3.78
  -4   4  28    0.67    4.30
   4  -4 -27   22.55    4.23
  -4   4  27   19.88    4.60
   4  -4 -26  693.40   24.40
  -4   4  26  815.20   28.26
   4  -4 -25  383.20   14.69
  -4   4  25  397.36   15.13
   4  -4 -24   54.07    4.97
  -4   4  24   41.02    5.12
   4  -4 -23 1564.38   52.15
  -4   4  23 1464.25   48.88
   4  -4 -22 1175.70   39.61
  -4   4  22 1120.81   37.90
   4  -4 -21   78.92    5.49
  -4   4  21   91.61    6.01
   4  -4 -20  219.86    9.49
  -4   4  20  236.77   10.16
   4  -4 -19  496.39   17.95
  -4   4  19  516.49   18.62
   4  -4 -18 1625.95   53.78
  -4   4  18 1591.83   52.74
   4  -4 -17  728.41   25.22
  -4   4  17  750.67   25.96
   4  -4 -16  594.67   20.77
  -4   4  16  555.36   19.51
   4  -4 -15  735.09   25.15
  -4   4  15  731.90   24.92
   4  -4 -14  494.91   17.36
  -4   4  14  445.21   15.87
  -4   4  13   35.53    3.26
  -4   4  13   28.93    3.19
  -4   4  12  789.24   26.41
  -4   4  12  750.67   25.29
  -4   4  11   53.78    3.12
  -4   4  11   53.18    3.41
  -4   4  10  214.89    7.79
  -4   4  10  221.12    7.94
  -4   4   9   -0.74    1.71
  -4   4   9    0.89    1.56
  -4   4   8 1892.99   61.71
  -4   4   8 2019.83   65.94
   4  -4   0 1520.62   49.77
  -4   4   0 1495.40   49.03
   4  -4   1 1983.48   64.46
  -4   4  -1 1923.40   62.61
   4  -4   2  372.29   12.83
  -4   4  -2  382.75   13.28
   4  -4   3 3867.57  124.91
  -4   4  -3 3703.64  119.72
   4  -4   4 5298.43  170.83
  -4   4  -4 5291.76  170.53
   4  -4   5    5.49    2.82
  -4   4  -5   11.42    2.60
   4  -4   6  653.35   22.33
  -4   4  -6  608.40   20.92
   4  -4   7 1219.46   40.43
  -4   4  -7 1212.04   40.20
   4  -4   8  579.02   20.32
  -4   4  -8  611.73   21.21
   4  -4   9  169.35    7.79
  -4   4  -9  181.44    8.09
   4  -4  10  571.98   20.25
  -4   4 -10  592.67   20.92
   4  -4  11  263.55   10.76
  -4   4 -11  287.14   11.13
   4  -4  12  960.59   32.71
  -4   4 -12  945.75   32.19
   4  -4  13  222.01    9.94
  -4   4 -13  245.01   10.53
   4  -4  14 1014.74   34.64
  -4   4 -14  988.77   33.68
   4  -4  15  647.78   23.22
  -4   4 -15  635.92   22.70
   4  -4  16 1186.08   40.43
  -4   4 -16 1170.51   39.83
   4  -4  17  185.00    9.35
  -4   4 -17  195.83    9.49
   4  -4  18  624.27   22.70
  -4   4 -18  646.82   23.22
   4  -4  19   72.03    6.45
  -4   4 -19   71.65    5.49
   4  -4  20  231.80   10.68
  -4   4 -20  251.01   10.76
   4  -4  21    1.19    3.49
  -4   4 -21    6.01    4.45
   4  -4  22  243.89   10.68
  -4   4 -22  244.26   10.83
   4  -4  23  769.21   27.07
  -4   4 -23  779.60   27.45
   4  -4  24    2.52    3.56
  -4   4 -24    3.19    4.67
   4  -4  25  195.97    9.64
  -4   4 -25  201.46    9.42
   4  -4  26  240.48   10.24
  -4   4 -26  254.87   10.61
   4  -4  27  308.50   12.68
  -4   4 -27  317.25   12.24
   4  -4  28   33.68    4.15
  -4   4 -28   36.20    4.08
   4  -4  29   55.41    5.71
  -4   4 -29   38.72    4.30
  -4   4 -30  308.50   11.94
   3  -4 -31    4.97   12.98
  -3   4  31  359.90   13.06
   3  -4 -30  453.59   17.65
  -3   4  30  343.81   13.20
   3  -4 -29    4.52    4.08
  -3   4  29   -0.59    3.63
   3  -4 -28  171.50    8.38
  -3   4  28  182.18    8.75
   3  -4 -27  852.29   29.45
  -3   4  27  719.36   25.37
   3  -4 -26   20.18    4.23
  -3   4  26   28.11    4.52
   3  -4 -25    8.75    3.93
  -3   4  25   12.46    4.30
   3  -4 -24  103.85    6.16
  -3   4  24   85.90    6.08
   3  -4 -23  929.43   31.82
  -3   4  23  981.36   33.53
   3  -4 -22  123.58    6.90
  -3   4  22  135.37    7.27
   3  -4 -21  545.64   19.81
  -3   4  21  627.46   22.33
   3  -4 -20    6.60    3.93
  -3   4  20   14.17    4.08
   3  -4 -19  461.53   16.91
  -3   4  19  461.16   17.06
   3  -4 -18   -0.89    3.19
  -3   4  18    0.52    3.34
   3  -4 -17   75.07    5.04
  -3   4  17   85.97    5.71
   3  -4 -16  544.53   19.21
  -3   4  16  637.92   22.25
   3  -4 -15  907.92   30.63
  -3   4  15  944.27   31.82
   3  -4 -14    0.00    2.60
  -3   4  14    0.00    2.89
   3  -4 -13  942.78   31.53
  -3   4  13  933.14   31.23
   3  -4 -12  425.77   14.76
  -3   4  12  424.88   14.76
   3  -4 -11    8.01    2.00
  -3   4  11    8.98    2.15
  -3   4  10   16.54    2.00
  -3   4  10   15.06    2.08
  -3   4   9 1087.43   35.60
  -3   4   9 1088.17   35.75
   3  -4   1  420.88   14.17
  -3   4  -1  443.58   14.84
   3  -4   2 1930.07   62.68
  -3   4  -2 2001.28   65.05
   3  -4   3 3939.52  127.14
  -3   4  -3 3942.48  127.36
   3  -4   4  140.79    5.86
  -3   4  -4  140.86    5.86
   3  -4   5  242.19    9.27
  -3   4  -5  260.21    9.87
   3  -4   6 1962.71   64.09
  -3   4  -6 1940.46   63.50
   3  -4   7  782.56   26.48
  -3   4  -7  786.27   26.85
   3  -4   8   36.05    3.86
  -3   4  -8   29.67    3.63
   3  -4   9  117.72    6.23
  -3   4  -9  123.28    6.53
   3  -4  10  498.91   18.02
  -3   4 -10  503.51   18.25
   3  -4  11  919.05   31.38
  -3   4 -11  887.15   30.26
   3  -4  12  309.24   12.24
  -3   4 -12  285.73   11.57
   3  -4  13  818.91   28.26
  -3   4 -13  847.10   29.30
   3  -4  14  417.84   15.73
  -3   4 -14  424.29   16.10
   3  -4  15 1605.18   53.56
  -3   4 -15 1602.21   53.56
   3  -4  16  343.73   13.72
  -3   4 -16  347.22   14.17
   3  -4  17 1960.49   64.98
  -3   4 -17 1930.82   64.01
   3  -4  18 3236.32  105.78
  -3   4 -18 3329.79  108.82
   3  -4  19   66.17    6.23
  -3   4 -19   67.87    5.86
   3  -4  20  258.88   11.27
  -3   4 -20  236.55   10.68
   3  -4  21 1249.13   42.21
  -3   4 -21 1284.74   43.39
   3  -4  22  521.09   19.36
  -3   4 -22  529.32   19.73
   3  -4  23   99.54    6.16
  -3   4 -23   99.40    6.38
   3  -4  24   13.43    5.12
  -3   4 -24   21.66    4.60
   3  -4  25 1341.85   45.03
  -3   4 -25 1338.89   45.17
   3  -4  26  201.46    9.57
  -3   4 -26  205.39    9.72
   3  -4  27    5.56    4.90
  -3   4 -27    7.34    4.23
   3  -4  28  248.19   10.31
  -3   4 -28  258.06   10.53
   3  -4  29  372.37   14.24
  -3   4 -29  367.25   13.72
   3  -4  30   19.66    4.75
  -3   4 -30   26.63    4.01
   2  -4 -31   -8.53   12.09
  -2   4  31  235.88    9.72
   2  -4 -30   16.32    5.56
  -2   4  30   17.43    4.82
   2  -4 -29  125.43    7.05
  -2   4  29  119.57    6.90
   2  -4 -28  476.44   17.51
  -2   4  28  432.00   16.17
   2  -4 -27  221.27    9.72
  -2   4  27  196.49    9.35
   2  -4 -26  148.20    7.64
  -2   4  26  141.01    7.34
   2  -4 -25  174.69    8.23
  -2   4  25  177.06    8.68
   2  -4 -24   17.21    4.01
  -2   4  24   13.72    4.38
   2  -4 -23  135.08    7.12
  -2   4  23  116.23    6.75
   2  -4 -22   11.94    4.15
  -2   4  22    9.64    3.78
   2  -4 -21  195.16    8.83
  -2   4  21  197.98    9.05
   2  -4 -20 1551.03   51.55
  -2   4  20 1539.91   51.26
   2  -4 -19    1.34    3.19
  -2   4  19   -7.20    3.78
   2  -4 -18  516.57   18.54
  -2   4  18  530.44   18.99
   2  -4 -17  257.54   10.24
  -2   4  17  288.47   11.50
   2  -4 -16  927.95   31.30
  -2   4  16 1000.64   33.82
   2  -4 -15  134.93    6.38
  -2   4  15  131.37    6.45
   2  -4 -14  460.93   16.32
  -2   4  14  409.53   14.76
   2  -4 -13  447.80   15.87
  -2   4  13  478.22   16.91
   2  -4 -12  101.84    4.90
  -2   4  12  112.08    5.27
   2  -4 -11   50.44    3.26
  -2   4  11   42.95    3.04
   2  -4 -10  448.77   15.35
  -2   4  10  411.83   14.02
   2  -4  -9  826.33   27.30
  -2   4   9  813.72   26.85
  -2   4   8  289.96    9.87
  -2   4   8  279.79    9.64
   2  -4   2   98.73    4.01
  -2   4  -2   91.53    3.78
   2  -4   3 1249.88   40.95
  -2   4  -3 1229.85   40.35
   2  -4   4  347.22   12.24
  -2   4  -4  325.04   11.57
   2  -4   5  129.81    5.71
  -2   4  -5  117.50    5.34
   2  -4   6  799.62   26.85
  -2   4  -6  787.01   26.63
   2  -4   7  312.43   11.65
  -2   4  -7  333.57   12.46
   2  -4   8  180.25    7.64
  -2   4  -8  183.07    7.94
   2  -4   9 1284.00   42.73
  -2   4  -9 1277.32   42.58
   2  -4  10  591.04   20.77
  -2   4 -10  582.66   20.77
   2  -4  11  163.26    7.79
  -2   4 -11  180.03    8.38
   2  -4  12  608.99   21.66
  -2   4 -12  616.48   21.81
   2  -4  13 1269.90   42.65
  -2   4 -13 1249.88   42.21
   2  -4  14  666.85   23.66
  -2   4 -14  674.41   24.11
   2  -4  15   88.94    6.08
  -2   4 -15   88.27    6.16
   2  -4  16  460.41   17.28
  -2   4 -16  486.89   18.40
   2  -4  17 1251.36   42.50
  -2   4 -17 1263.23   42.87
   2  -4  18   38.72    5.12
  -2   4 -18   34.42    5.27
   2  -4  19   14.61    5.04
  -2   4 -19    1.48    4.67
   2  -4  20  651.94   23.37
  -2   4 -20  654.53   23.59
   2  -4  21   91.46    6.90
  -2   4 -21  104.22    7.12
   2  -4  22   -7.27    3.49
  -2   4 -22   -4.23    4.45
   2  -4  23    4.75    5.12
  -2   4 -23    6.82    4.45
   2  -4  24  199.31    9.35
  -2   4 -24  222.01   10.38
   2  -4  25  560.85   20.32
  -2   4 -25  611.14   22.03
   2  -4  26  330.38   13.50
  -2   4 -26  306.05   12.39
   2  -4  27  289.36   12.02
  -2   4 -27  263.92   11.13
   2  -4  28  636.73   22.48
  -2   4 -28  641.48   22.62
   2  -4  29   52.74    4.90
  -2   4 -29   35.98    4.15
   2  -4  30   -0.07    4.52
  -2   4 -30   -2.30    3.41
   1  -4 -31  -14.32   12.39
  -1   4  31   18.10    4.08
   1  -4 -30  109.41    7.49
  -1   4  30   92.42    6.53
   1  -4 -29  293.07   11.79
  -1   4  29  266.89   11.05
   1  -4 -28   69.50    5.34
  -1   4  28   86.86    6.16
   1  -4 -27    4.08    3.78
  -1   4  27    7.64    4.60
   1  -4 -26  307.39   12.16
  -1   4  26  316.51   12.68
   1  -4 -25  542.30   19.73
  -1   4  25  612.33   21.96
   1  -4 -24   64.24    4.97
  -1   4  24   55.04    5.34
   1  -4 -23  495.65   18.17
  -1   4  23  531.33   19.21
   1  -4 -22   32.93    4.38
  -1   4  22   27.07    4.82
   1  -4 -21 1397.49   46.66
  -1   4  21 1548.06   51.70
   1  -4 -20  496.54   17.95
  -1   4  20  553.51   20.03
   1  -4 -19  514.93   18.69
  -1   4  19  563.30   20.40
   1  -4 -18 1131.19   38.13
  -1   4  18 1169.02   39.46
   1  -4 -17 1354.46   45.10
  -1   4  17 1324.05   44.21
   1  -4 -16    3.86    3.19
  -1   4  16    8.75    3.56
   1  -4 -15  521.16   18.40
  -1   4  15  527.25   18.69
   1  -4 -14  158.74    6.97
  -1   4  14  151.91    6.90
   1  -4 -13  105.03    5.34
  -1   4  13   98.21    5.27
   1  -4 -12    5.49    2.52
  -1   4  12    1.48    2.45
   1  -4 -11  358.50   12.68
  -1   4  11  386.16   13.50
   1  -4 -10 1108.94   36.42
  -1   4  10 1052.57   34.64
   1  -4  -9  123.43    4.97
  -1   4   9  123.43    4.97
   1  -4  -8    2.97    1.48
  -1   4   8    3.63    1.48
   1  -4  -7 1635.59   54.00
  -1   4   7 1650.43   54.82
   1  -4   2  535.55   17.80
   1  -4   2  522.94   17.43
   1  -4   3  410.05   14.02
  -1   4  -3  399.66   13.80
   1  -4   4  334.24   11.72
  -1   4  -4  316.29   11.27
   1  -4   5  391.13   13.72
  -1   4  -5  389.95   13.80
   1  -4   6 1344.82   44.21
  -1   4  -6 1374.49   45.40
   1  -4   7    6.75    2.89
  -1   4  -7    3.49    2.89
   1  -4   8 1981.26   64.83
  -1   4  -8 1982.00   64.98
   1  -4   9 1243.94   41.39
  -1   4  -9 1238.01   41.32
   1  -4  10  321.41   12.39
  -1   4 -10  315.18   12.39
   1  -4  11  226.76    9.57
  -1   4 -11  218.30    9.57
   1  -4  12 1057.76   35.90
  -1   4 -12  993.97   33.82
   1  -4  13  455.74   16.69
  -1   4 -13  462.12   17.21
   1  -4  14  112.15    6.82
  -1   4 -14  124.39    7.05
   1  -4  15  655.42   23.29
  -1   4 -15  647.19   23.14
   1  -4  16  322.67   13.13
  -1   4 -16  333.28   13.72
   1  -4  17  449.29   16.99
  -1   4 -17  470.50   18.02
   1  -4  18   59.49    6.16
  -1   4 -18   59.27    6.08
   1  -4  19  526.65   19.43
  -1   4 -19  523.46   19.51
   1  -4  20  429.85   16.39
  -1   4 -20  433.34   16.76
   1  -4  21 1434.57   48.14
  -1   4 -21 1555.48   52.29
   1  -4  22 1280.29   43.24
  -1   4 -22 1282.51   43.54
   1  -4  23  738.06   25.89
  -1   4 -23  667.00   24.03
   1  -4  24  332.61   13.43
  -1   4 -24  337.43   13.80
   1  -4  25   89.61    6.75
  -1   4 -25   74.40    5.86
   1  -4  26   29.82    5.41
  -1   4 -26   25.29    4.67
   1  -4  27  504.47   18.54
  -1   4 -27  493.72   17.95
   1  -4  28  290.25   11.57
  -1   4 -28  281.20   11.50
   1  -4  29   19.51    4.15
  -1   4 -29   18.92    4.52
   1  -4  30  111.41    6.45
  -1   4 -30  118.53    6.23
  -1   4 -31  174.02    8.09
   0  -4 -31    0.52   14.39
   0   4  31   34.05    4.75
   0  -4 -30  440.39   17.13
   0   4  30  337.21   13.28
   0  -4 -29  117.79    6.53
   0   4  29  153.03    8.01
   0  -4 -28    2.74    3.71
   0   4  28    8.16    4.30
   0  -4 -27    3.56    3.71
   0   4  27    3.63    4.30
   0  -4 -26  796.66   27.67
   0   4  26  732.05   25.74
   0  -4 -25   36.05    4.60
   0   4  25   48.29    4.90
   0  -4 -24   14.76    3.93
   0   4  24   12.16    4.38
   0  -4 -23  740.58   25.89
   0   4  23  742.51   26.04
   0  -4 -22  588.67   21.07
   0   4  22  512.49   18.69
   0  -4 -21 1312.93   44.06
   0   4  21 1242.46   41.76
   0  -4 -20    9.72    4.08
   0   4  20   10.31    4.08
   0  -4 -19   12.39    3.78
   0   4  19   14.32    4.08
   0  -4 -18  369.03   14.02
   0   4  18  373.18   14.09
   0  -4 -17    9.64    3.56
   0   4  17   12.31    3.86
   0  -4 -16 1005.83   33.97
   0   4  16  961.33   32.56
   0  -4 -15  409.68   14.91
   0   4  15  447.43   16.32
   0  -4 -14  303.38   11.65
   0   4  14  266.44   10.38
   0  -4 -13  182.40    7.57
   0   4  13  195.75    8.16
   0  -4 -12  233.88    8.98
   0   4  12  216.08    8.75
   0  -4 -11  786.27   26.33
   0   4  11  846.35   28.41
   0  -4 -10   66.91    3.71
   0   4  10   56.97    3.49
   0  -4  -9  161.41    6.16
   0   4   9  157.03    6.23
   0  -4  -8 1364.11   44.51
   0   4   8 1441.25   47.03
   0  -4  -7 2010.18   65.35
   0   4   7 2036.15   66.24
   0  -4  -6   79.37    3.19
   0   4   6   82.19    3.19
   0  -4   1    4.45    1.41
   0  -4   1    2.23    1.56
   0  -4   2  292.18   10.16
   0  -4   2  303.53   10.53
   0  -4   3  913.86   30.12
   0  -4   3  956.14   31.53
   0  -4   4 3567.15  115.20
   0  -4   5  173.80    7.05
   0   4  -5  173.35    7.05
   0  -4   6   78.18    4.45
   0   4  -6   82.63    4.67
   0  -4   7 2088.07   68.17
   0   4  -7 2048.76   67.13
   0  -4   8 1422.71   46.95
   0   4  -8 1479.82   48.96
   0  -4   9  172.24    7.86
   0   4  -9  173.50    7.94
   0  -4  10   71.28    4.82
   0   4 -10   62.38    5.12
   0  -4  11  877.51   29.89
   0   4 -11  920.53   31.67
   0  -4  12  237.74   10.16
   0   4 -12  221.71    9.57
   0  -4  13  209.85    9.20
   0   4 -13  215.71    9.64
   0  -4  14  282.46   11.42
   0   4 -14  285.95   11.87
   0  -4  15  453.81   16.91
   0   4 -15  461.67   17.51
   0  -4  16 1062.21   36.27
   0   4 -16 1029.57   35.60
   0  -4  17    6.45    4.82
   0   4 -17   14.02    4.75
   0  -4  18  377.19   14.91
   0   4 -18  384.38   15.28
   0  -4  19   12.54    4.38
   0   4 -19   13.13    4.97
   0  -4  20   14.61    4.38
   0   4 -20   24.55    5.04
   0  -4  21 1259.52   42.65
   0   4 -21 1313.67   44.58
   0  -4  22  521.02   19.43
   0   4 -22  534.89   19.95
   0  -4  23  733.38   26.04
   0   4 -23  714.62   25.52
   0  -4  24   16.91    5.27
   0   4 -24   21.73    4.52
   0  -4  25   40.35    5.64
   0   4 -25   45.54    5.34
   0  -4  26  818.91   28.56
   0   4 -26  827.81   28.56
   0  -4  27    2.15    4.30
   0   4 -27   -0.15    4.30
   0  -4  28    6.82    3.63
   0   4 -28    2.82    4.01
   0  -4  29  153.69    7.42
   0   4 -29  145.76    7.42
   0  -4  30  356.72   13.35
   0   4 -30  354.64   13.50
   0  -4  31   40.28    4.23
   0   4 -31   48.73    4.30
   1   4  31  198.94    9.87
  -1  -4 -30  130.62    8.01
   1   4  30  123.43    7.05
  -1  -4 -29   26.85    4.23
   1   4  29   18.25    4.97
  -1  -4 -28  238.77   10.31
   1   4  28  253.02   10.46
  -1  -4 -27  477.77   17.51
   1   4  27  474.28   17.65
  -1  -4 -26   32.86    4.45
   1   4  26   18.84    4.82
  -1  -4 -25   79.29    5.86
   1   4  25   72.77    5.56
  -1  -4 -24  325.34   12.76
   1   4  24  329.49   13.06
  -1  -4 -23  740.95   25.89
   1   4  23  765.50   26.78
  -1  -4 -22 1275.84   42.95
   1   4  22 1343.34   44.95
  -1  -4 -21 1368.56   46.06
   1   4  21 1459.79   48.73
  -1  -4 -20  406.64   15.50
   1   4  20  417.98   15.87
  -1  -4 -19  479.48   17.58
   1   4  19  494.39   18.10
  -1  -4 -18   50.22    4.67
   1   4  18   66.31    5.27
  -1  -4 -17  369.55   14.02
   1   4  17  418.06   15.50
  -1  -4 -16  326.97   12.61
   1   4  16  300.93   11.72
  -1  -4 -15  631.98   22.03
   1   4  15  593.26   20.84
  -1  -4 -14  104.51    5.49
   1   4  14  101.10    5.64
  -1  -4 -13  428.89   15.28
   1   4  13  435.56   15.65
  -1  -4 -12  836.71   28.11
   1   4  12 1027.35   34.34
  -1  -4 -11  213.18    8.31
   1   4  11  216.30    8.68
  -1  -4 -10  290.10   10.53
   1   4  10  329.05   12.02
  -1  -4  -9 1137.13   37.46
   1   4   9 1257.29   41.39
  -1  -4  -8 1908.56   62.09
   1   4   8 2019.83   65.72
  -1  -4  -7    0.59    1.78
   1   4   7    2.15    1.93
  -1  -4  -6 1213.53   39.68
   1   4   6 1321.83   43.24
  -1  -4  -5  412.20   13.87
   1   4   5  425.33   14.32
  -1  -4  -4  335.65   11.35
   1   4   4  320.15   10.83
  -1  -4  -3  400.33   13.43
  -1  -4  -3  382.38   12.83
  -1  -4  -2  584.96   19.43
  -1  -4  -2  562.55   18.69
  -1  -4  -1 2826.87   91.76
  -1  -4   0  396.33   13.35
  -1  -4   0  392.99   13.28
  -1  -4   1   27.00    2.23
  -1  -4   1   25.67    2.23
  -1  -4   2   37.98    2.82
  -1  -4   2   39.09    2.82
  -1  -4   3 1412.32   46.14
  -1  -4   3 1436.06   46.95
  -1  -4   4 1173.47   38.65
  -1  -4   4 1148.25   37.83
  -1  -4   5  531.92   18.40
  -1  -4   5  545.20   18.77
  -1  -4   6 1836.61   59.93
   1   4  -6 1850.71   60.68
  -1  -4   7 1697.16   55.71
   1   4  -7 1677.13   55.26
  -1  -4   8    3.12    3.04
   1   4  -8    5.27    3.26
  -1  -4   9  126.69    6.45
   1   4  -9  125.36    6.38
  -1  -4  10 1117.10   37.53
   1   4 -10 1131.93   38.28
  -1  -4  11  431.56   15.95
   1   4 -11  406.04   15.35
  -1  -4  12    3.63    3.93
   1   4 -12   -1.48    3.71
  -1  -4  13  112.45    6.53
   1   4 -13  106.67    6.53
  -1  -4  14  176.24    8.38
   1   4 -14  181.73    8.90
  -1  -4  15  603.95   21.51
   1   4 -15  609.06   21.96
  -1  -4  16   -0.74    3.19
   1   4 -16    5.12    4.60
  -1  -4  17 1335.92   44.88
   1   4 -17 1366.33   46.14
  -1  -4  18 1135.64   38.57
   1   4 -18 1182.37   40.28
  -1  -4  19  532.96   19.58
   1   4 -19  543.71   20.10
  -1  -4  20  544.90   19.88
   1   4 -20  582.43   21.21
  -1  -4  21 1475.37   49.48
   1   4 -21 1530.26   51.55
  -1  -4  22   30.26    4.82
   1   4 -22   32.64    5.41
  -1  -4  23  505.22   18.77
   1   4 -23  538.45   19.88
  -1  -4  24   72.62    5.93
   1   4 -24   66.17    5.71
  -1  -4  25  636.43   22.85
   1   4 -25  617.07   22.10
  -1  -4  26  358.79   14.17
   1   4 -26  369.03   14.24
  -1  -4  27    6.38    4.45
   1   4 -27    3.56    4.30
  -1  -4  28   65.65    5.64
   1   4 -28   81.59    6.01
  -1  -4  29  271.93   11.20
   1   4 -29  273.93   11.13
  -1  -4  30   99.99    6.38
   1   4 -30   90.05    5.71
  -1  -4  31   18.32    4.75
   1   4 -31   25.44    4.38
  -2  -4 -30    6.68    5.71
   2   4  30    5.86    4.67
  -2  -4 -29   28.93    4.52
   2   4  29   38.50    5.19
  -2  -4 -28  646.45   22.85
   2   4  28  653.42   22.99
  -2  -4 -27  292.63   11.79
   2   4  27  286.99   11.87
  -2  -4 -26  301.16   12.24
   2   4  26  280.91   11.87
  -2  -4 -25  517.31   18.84
   2   4  25  521.91   18.99
  -2  -4 -24  193.68    8.98
   2   4  24  192.34    9.12
  -2  -4 -23    5.41    3.71
   2   4  23    6.90    4.38
  -2  -4 -22    1.04    3.71
   2   4  22    4.30    4.30
  -2  -4 -21   90.57    5.93
   2   4  21  100.66    6.38
  -2  -4 -20  644.00   22.85
   2   4  20  618.48   22.10
  -2  -4 -19    8.23    3.78
   2   4  19    6.97    4.15
  -2  -4 -18   42.87    4.60
   2   4  18   37.61    4.75
  -2  -4 -17 1087.43   36.79
   2   4  17 1206.85   40.65
  -2  -4 -16  475.10   17.13
   2   4  16  437.49   16.17
  -2  -4 -15   78.55    5.12
   2   4  15   84.49    5.71
  -2  -4 -14  652.09   22.55
   2   4  14  692.73   23.96
  -2  -4 -13 1130.45   37.76
   2   4  13 1224.66   40.72
  -2  -4 -12  541.64   18.84
   2   4  12  559.96   19.43
  -2  -4 -11  176.54    7.42
   2   4  11  175.72    7.34
  -2  -4 -10  646.30   22.03
   2   4  10  642.15   22.10
  -2  -4  -9 1243.94   41.02
   2   4   9 1243.94   41.09
  -2  -4  -8  181.44    7.20
   2   4   8  187.96    7.57
  -2  -4  -7  367.40   12.91
   2   4   7  352.56   12.54
  -2  -4  -6  792.21   26.26
   2   4   6  789.24   26.26
  -2  -4  -5  131.52    5.27
   2   4   5  131.81    5.41
  -2  -4  -4  326.45   11.35
   2   4   4  330.53   11.50
  -2  -4  -3 1306.99   42.65
   2   4   3 1263.97   41.39
  -2  -4  -2  100.51    4.30
  -2  -4  -2  109.86    4.60
  -2  -4  -1  153.62    5.93
  -2  -4  -1  164.30    6.31
  -2  -4   0  220.08    8.09
  -2  -4   0  211.18    7.86
  -2  -4   1 7855.30  252.50
  -2  -4   2  104.81    4.82
  -2  -4   2   96.58    4.52
  -2  -4   3    1.85    2.30
  -2  -4   3    3.78    2.52
  -2  -4   4  927.21   30.86
  -2  -4   4  979.13   32.64
  -2  -4   5  135.74    6.16
  -2  -4   5  140.94    6.16
  -2  -4   6 2707.44   87.90
  -2  -4   6 2666.65   86.64
  -2  -4   7  337.58   12.61
  -2  -4   7  308.65   11.57
  -2  -4   8  289.81   11.20
   2   4  -8  284.17   11.05
  -2  -4   9  860.45   29.37
   2   4  -9  844.13   29.00
  -2  -4  10  434.23   15.95
   2   4 -10  457.60   16.99
  -2  -4  11   63.50    5.12
   2   4 -11   49.99    4.67
  -2  -4  12  118.61    6.38
   2   4 -12  112.45    6.45
  -2  -4  13  508.11   18.62
   2   4 -13  543.12   19.95
  -2  -4  14  481.11   17.73
   2   4 -14  481.33   18.02
  -2  -4  15  137.67    7.20
   2   4 -15  144.20    7.94
  -2  -4  16  980.61   33.75
   2   4 -16  985.06   34.12
  -2  -4  17  287.21   12.09
   2   4 -17  296.78   12.54
  -2  -4  18  589.70   21.36
   2   4 -18  574.65   20.99
  -2  -4  19    8.46    4.23
   2   4 -19    2.00    4.45
  -2  -4  20 1532.49   51.26
   2   4 -20 1506.53   50.59
  -2  -4  21  233.29   10.76
   2   4 -21  217.19   10.31
  -2  -4  22    9.12    5.12
   2   4 -22    7.42    4.60
  -2  -4  23  129.44    7.71
   2   4 -23  128.62    7.57
  -2  -4  24   27.30    4.97
   2   4 -24   21.14    4.38
  -2  -4  25  190.78    8.90
   2   4 -25  177.88    8.38
  -2  -4  26  161.63    8.38
   2   4 -26  170.75    8.31
  -2  -4  27  213.78    9.94
   2   4 -27  212.81    9.49
  -2  -4  28  467.46   17.51
   2   4 -28  481.18   17.80
  -2  -4  29  145.09    8.09
   2   4 -29  121.06    6.75
  -2  -4  30   10.01    4.82
   2   4 -30    5.27    3.93
  -2  -4  31  295.89   11.65
   2   4 -31  302.86   11.79
  -3  -4 -30   -3.86    6.38
   3   4  30   20.84    4.52
  -3  -4 -29  319.18   12.76
   3   4  29  383.49   14.69
  -3  -4 -28  249.53   10.53
   3   4  28  253.76   10.90
  -3  -4 -27    6.82    4.01
   3   4  27    9.42    4.67
  -3  -4 -26  170.61    8.38
   3   4  26  200.05    9.72
  -3  -4 -25 1353.72   45.40
   3   4  25 1340.37   44.95
  -3  -4 -24   22.55    4.45
   3   4  24   14.39    4.75
  -3  -4 -23   87.60    5.71
   3   4  23   84.34    6.31
  -3  -4 -22  557.81   20.18
   3   4  22  548.91   19.95
  -3  -4 -21 1198.69   40.50
   3   4  21 1148.25   38.79
  -3  -4 -20  282.91   11.57
   3   4  20  246.56   10.76
  -3  -4 -19   55.34    4.90
   3   4  19   64.53    5.71
  -3  -4 -18 3044.21   99.40
   3   4  18 3088.71  100.88
  -3  -4 -17 1930.82   63.64
   3   4  17 1796.56   59.49
  -3  -4 -16  311.47   12.16
   3   4  16  311.02   12.54
  -3  -4 -15 1393.04   46.29
   3   4  15 1524.33   50.66
  -3  -4 -14  417.91   15.35
   3   4  14  392.99   14.69
  -3  -4 -13  758.08   26.04
   3   4  13  791.46   27.07
  -3  -4 -12  288.84   11.20
   3   4  12  269.26   10.53
  -3  -4 -11  859.71   29.08
   3   4  11  945.01   31.82
  -3  -4 -10  537.48   18.77
   3   4  10  502.84   17.51
  -3  -4  -9  119.28    5.64
   3   4   9  112.82    5.49
  -3  -4  -8   30.26    3.12
   3   4   8   24.92    3.12
  -3  -4  -7  781.08   26.18
   3   4   7  797.40   26.70
  -3  -4  -6 2052.47   66.76
   3   4   6 2056.17   66.98
  -3  -4  -5  255.98    9.42
   3   4   5  261.99    9.72
  -3  -4  -4  130.40    5.64
   3   4   4  136.11    5.71
  -3  -4  -3 4032.24  130.11
   3   4   3 3971.41  128.18
  -3  -4  -2 2017.60   65.57
   3   4   2 2062.11   66.98
  -3  -4  -1  473.84   16.32
  -3  -4  -1  447.80   15.43
  -3  -4   0  706.61   23.74
  -3  -4   0  702.82   23.59
  -3  -4   2 1725.35   56.37
  -3  -4   2 1762.44   57.64
  -3  -4   3  112.90    5.34
  -3  -4   3  109.34    5.41
  -3  -4   4  265.48    9.94
  -3  -4   4  253.91    9.79
  -3  -4   5 1721.64   56.45
  -3  -4   5 1620.76   53.26
  -3  -4   6   33.97    3.71
  -3  -4   6   27.15    3.56
  -3  -4   7  267.11   10.53
  -3  -4   7  258.73   10.31
  -3  -4   8  401.15   14.84
  -3  -4   8  400.92   14.76
  -3  -4   9 1169.02   39.24
  -3  -4   9 1189.05   39.83
  -3  -4  10   16.91    3.86
   3   4 -10   16.99    3.71
  -3  -4  11   14.84    3.93
   3   4 -11    9.57    3.41
  -3  -4  12  457.60   16.99
   3   4 -12  464.12   17.28
  -3  -4  13  950.94   32.64
   3   4 -13  957.62   33.08
  -3  -4  14   -2.82    2.97
   3   4 -14    3.12    4.08
  -3  -4  15  963.55   33.23
   3   4 -15  947.23   32.71
  -3  -4  16  640.37   22.85
   3   4 -16  618.34   22.33
  -3  -4  17   83.45    6.38
   3   4 -17   90.27    6.38
  -3  -4  18    1.11    4.01
   3   4 -18    2.97    4.38
  -3  -4  19  442.98   16.84
   3   4 -19  470.28   18.02
  -3  -4  20    4.52    4.75
   3   4 -20   17.65    4.75
  -3  -4  21  554.02   20.18
   3   4 -21  576.87   21.07
  -3  -4  22  134.26    7.79
   3   4 -22  133.44    7.57
  -3  -4  23 1028.83   35.46
   3   4 -23  968.00   33.08
  -3  -4  24   98.14    6.90
   3   4 -24   94.20    6.01
  -3  -4  25    6.45    3.71
   3   4 -25   14.84    4.08
  -3  -4  26   29.30    4.82
   3   4 -26   31.30    4.75
  -3  -4  27  810.75   28.26
   3   4 -27  801.85   27.89
  -3  -4  28  221.79   10.24
   3   4 -28  182.62    8.68
  -3  -4  29    3.19    4.23
   3   4 -29    6.82    4.23
  -3  -4  30  365.84   13.65
   3   4 -30  371.92   13.87
  -3  -4  31  455.15   16.39
   3   4 -31  483.63   17.21
   4   4  30  325.93   13.13
  -4  -4 -29   54.45    5.19
   4   4  29   32.64    5.19
  -4  -4 -28   33.08    4.82
   4   4  28   29.74    5.27
  -4  -4 -27  298.71   11.87
   4   4  27  329.20   13.13
  -4  -4 -26  250.49   10.53
   4   4  26  267.11   11.57
  -4  -4 -25  161.78    8.09
   4   4  25  190.93    9.27
  -4  -4 -24    5.19    4.15
   4   4  24    3.19    4.52
  -4  -4 -23  731.23   25.52
   4   4  23  763.28   26.63
  -4  -4 -22  219.86    9.79
   4   4  22  240.04   10.68
  -4  -4 -21    0.15    3.78
   4   4  21    2.74    4.52
  -4  -4 -20  225.27    9.57
   4   4  20  217.86    9.94
  -4  -4 -19   64.24    5.12
   4   4  19   67.43    5.79
  -4  -4 -18  618.56   22.18
   4   4  18  587.48   21.21
  -4  -4 -17  166.75    8.09
   4   4  17  178.17    8.68
  -4  -4 -16 1100.04   37.09
   4   4  16 1121.55   37.98
  -4  -4 -15  687.25   24.03
   4   4  15  615.81   22.03
  -4  -4 -14 1111.16   37.38
   4   4  14 1013.25   34.57
  -4  -4 -13  249.60   10.24
   4   4  13  240.04   10.01
  -4  -4 -12  976.16   33.08
   4   4  12  950.94   32.19
  -4  -4 -11  301.82   11.72
   4   4  11  268.74   10.61
  -4  -4 -10  519.09   18.25
   4   4  10  574.35   20.03
  -4  -4  -9  178.17    7.57
   4   4   9  176.99    7.57
  -4  -4  -8  609.29   20.99
   4   4   8  589.70   20.25
  -4  -4  -7 1189.05   39.39
   4   4   7 1258.03   41.46
  -4  -4  -6  644.52   21.96
   4   4   6  634.36   21.51
  -4  -4  -5    9.35    2.60
   4   4   5    6.23    2.52
  -4  -4  -4 5319.20  171.50
   4   4   4 5378.54  173.28
  -4  -4  -3 3910.59  126.40
   4   4   3 4006.28  129.29
  -4  -4  -2  399.96   14.24
   4   4   2  384.01   13.50
  -4  -4  -1 2015.38   65.72
   4   4   1 1930.82   62.83
  -4  -4   0 1510.98   49.62
  -4  -4   1    2.23    2.45
  -4  -4   1    3.19    2.60
  -4  -4   2   89.98    4.97
  -4  -4   2   88.20    4.67
  -4  -4   3  451.36   15.87
  -4  -4   3  457.67   16.24
  -4  -4   4 1344.08   44.51
  -4  -4   4 1375.98   45.47
  -4  -4   5  442.31   15.95
  -4  -4   5  466.64   16.62
  -4  -4   6  407.16   14.84
  -4  -4   6  420.36   15.28
  -4  -4   7  494.02   17.65
  -4  -4   7  517.16   18.47
  -4  -4   8 2117.00   69.43
  -4  -4   8 2010.18   66.09
  -4  -4   9    0.67    3.49
  -4  -4   9    3.26    3.49
  -4  -4  10  226.31    9.72
  -4  -4  10  232.62    9.94
  -4  -4  11   51.78    4.82
  -4  -4  11   49.70    4.97
  -4  -4  12  799.62   27.82
   4   4 -12  798.88   27.89
  -4  -4  13   32.12    4.97
   4   4 -13   44.06    4.97
  -4  -4  14  516.64   18.92
   4   4 -14  498.39   18.32
  -4  -4  15  785.53   27.45
   4   4 -15  756.60   26.78
  -4  -4  16  623.90   22.33
   4   4 -16  647.19   23.22
  -4  -4  17  764.76   27.00
   4   4 -17  730.49   25.74
  -4  -4  18 1673.42   55.78
   4   4 -18 1700.87   56.82
  -4  -4  19  497.43   18.54
   4   4 -19  512.34   18.77
  -4  -4  20  215.63    9.79
   4   4 -20  197.61    9.35
  -4  -4  21   83.37    6.60
   4   4 -21   91.46    6.60
  -4  -4  22 1222.43   41.39
   4   4 -22 1226.14   41.39
  -4  -4  23 1620.02   54.22
   4   4 -23 1534.71   50.96
  -4  -4  24   53.63    5.86
   4   4 -24   47.62    4.60
  -4  -4  25  393.51   14.98
   4   4 -25  409.23   15.35
  -4  -4  26  771.44   27.15
   4   4 -26  801.85   27.74
  -4  -4  27   21.88    5.19
   4   4 -27   22.92    4.60
  -4  -4  28    9.94    3.78
   4   4 -28   -7.12    4.08
  -4  -4  29  141.53    7.42
   4   4 -29  135.67    6.97
  -4  -4  30  714.84   24.92
   4   4 -30  689.47   23.66
  -4  -4  31   26.63    4.90
   4   4 -31   19.88    4.15
  -5  -4 -29    6.60    4.38
   5   4  29   10.24    4.52
  -5  -4 -28  397.36   14.98
   5   4  28  348.78   13.80
  -5  -4 -27  469.02   17.28
   5   4  27  399.51   15.28
  -5  -4 -26   31.38    4.52
   5   4  26   25.52    5.04
  -5  -4 -25    0.74    3.49
   5   4  25    0.89    4.75
  -5  -4 -24  308.43   12.68
   5   4  24  331.87   13.65
  -5  -4 -23  701.78   24.63
   5   4  23  665.88   23.74
  -5  -4 -22  513.97   18.62
   5   4  22  495.57   18.32
  -5  -4 -21   -2.30    3.86
   5   4  21    1.41    4.52
  -5  -4 -20  724.93   25.52
   5   4  20  744.73   26.18
  -5  -4 -19  573.98   20.84
   5   4  19  594.75   21.29
  -5  -4 -18   12.24    4.23
   5   4  18   14.98    4.23
  -5  -4 -17  142.57    7.57
   5   4  17  152.28    7.86
  -5  -4 -16    4.52    3.78
   5   4  16    5.27    4.23
  -5  -4 -15  356.57   13.57
   5   4  15  347.96   13.65
  -5  -4 -14   12.54    3.93
   5   4  14    9.64    4.23
  -5  -4 -13 1304.77   43.54
   5   4  13 1477.60   49.33
  -5  -4 -12  464.20   16.84
   5   4  12  490.16   17.95
  -5  -4 -11  699.26   24.18
   5   4  11  698.30   24.26
  -5  -4 -10    8.16    3.26
   5   4  10    4.38    3.41
  -5  -4  -9  883.44   29.89
   5   4   9  960.59   32.49
  -5  -4  -8  193.08    8.16
   5   4   8  185.52    8.16
  -5  -4  -7  142.57    6.68
   5   4   7  155.47    7.20
  -5  -4  -6   21.51    3.41
   5   4   6   23.29    3.41
  -5  -4  -5  326.23   12.24
   5   4   5  342.40   12.61
  -5  -4  -4  965.04   32.42
   5   4   4  956.14   31.97
  -5  -4  -3  495.80   17.51
   5   4   3  508.18   17.95
  -5  -4  -2  809.27   27.37
   5   4   2  778.85   26.41
  -5  -4  -1 1611.86   52.96
   5   4   1 1657.10   54.45
  -5  -4   0  369.70   13.50
   5   4   0  373.63   13.72
  -5  -4   1    2.37    2.89
  -5  -4   1    4.01    2.52
  -5  -4   2  117.50    6.01
  -5  -4   2  115.20    5.86
  -5  -4   3 1390.07   45.99
  -5  -4   3 1366.33   45.17
  -5  -4   4 1252.84   41.76
  -5  -4   4 1319.60   43.84
  -5  -4   5   35.90    3.86
  -5  -4   5   30.34    3.93
  -5  -4   6  889.38   30.26
  -5  -4   6  873.06   29.74
  -5  -4   7 2261.64   74.03
  -5  -4   7 2266.09   74.25
  -5  -4   8   54.30    4.82
  -5  -4   8   67.95    5.12
  -5  -4   9  713.06   24.92
  -5  -4   9  727.67   25.29
  -5  -4  10  362.87   13.95
  -5  -4  10  368.81   14.17
  -5  -4  11 1501.33   49.99
  -5  -4  11 1427.90   47.70
  -5  -4  12  114.16    6.75
  -5  -4  12  110.60    6.38
  -5  -4  13 1117.84   37.98
  -5  -4  13 1084.46   36.79
  -5  -4  14  186.26    8.90
  -5  -4  14  188.33    8.90
  -5  -4  15  411.31   15.73
   5   4 -15  438.90   16.69
  -5  -4  16   57.71    5.19
   5   4 -16   53.78    4.90
  -5  -4  17  839.68   29.23
   5   4 -17  884.93   30.71
  -5  -4  18  766.99   27.07
   5   4 -18  788.50   27.82
  -5  -4  19 1393.78   46.81
   5   4 -19 1341.85   44.95
  -5  -4  20  170.24    8.46
   5   4 -20  172.98    8.60
  -5  -4  21  412.79   16.10
   5   4 -21  388.61   14.84
  -5  -4  22   40.72    4.97
   5   4 -22   38.42    4.67
  -5  -4  23 1507.27   50.51
   5   4 -23 1439.77   47.99
  -5  -4  24   37.09    4.90
   5   4 -24   31.67    4.45
  -5  -4  25  476.14   17.80
   5   4 -25  448.17   16.76
  -5  -4  26  385.64   15.06
   5   4 -26  371.03   14.32
  -5  -4  27   38.13    4.30
   5   4 -27   34.42    4.60
  -5  -4  28  289.36   12.16
   5   4 -28  310.58   12.39
  -5  -4  29  529.32   19.21
   5   4 -29  506.85   18.25
  -5  -4  30   75.44    5.12
   5   4 -30   68.02    4.82
  -5  -4  31    2.74    4.82
   5   4 -31    4.60    3.34
   6   4  29   40.72    5.41
  -6  -4 -28  475.47   17.36
   6   4  28  443.20   16.39
  -6  -4 -27  309.24   12.09
   6   4  27  261.55   11.27
  -6  -4 -26   51.11    4.90
   6   4  26   52.07    5.56
  -6  -4 -25  177.43    8.60
   6   4  25  188.48    9.20
  -6  -4 -24  606.39   21.81
   6   4  24  631.09   22.77
  -6  -4 -23   10.24    3.78
   6   4  23   10.16    4.82
  -6  -4 -22   43.10    4.90
   6   4  22   36.94    5.49
  -6  -4 -21   37.46    4.67
   6   4  21   41.98    5.56
  -6  -4 -20  976.91   33.45
   6   4  20  905.70   31.23
  -6  -4 -19   16.76    4.38
   6   4  19   14.69    4.60
  -6  -4 -18  668.92   23.66
   6   4  18  683.17   24.33
  -6  -4 -17  196.27    8.83
   6   4  17  199.31    9.12
  -6  -4 -16   86.27    6.01
   6   4  16  105.48    6.68
  -6  -4 -15  106.37    6.75
   6   4  15   95.54    6.38
  -6  -4 -14  907.18   31.15
   6   4  14  903.47   31.01
  -6  -4 -13  366.14   14.02
   6   4  13  407.16   15.43
  -6  -4 -12  659.43   22.99
   6   4  12  718.25   25.07
  -6  -4 -11   12.61    3.04
   6   4  11    8.98    4.15
  -6  -4 -10  924.98   31.53
   6   4  10  887.15   30.34
  -6  -4  -9  684.43   23.81
   6   4   9  692.96   24.03
  -6  -4  -8  292.26   11.42
   6   4   8  279.79   11.05
  -6  -4  -7   11.35    3.56
   6   4   7   10.61    3.71
  -6  -4  -6 1074.82   36.20
   6   4   6 1098.55   36.94
  -6  -4  -5  146.65    7.05
   6   4   5  135.15    6.68
  -6  -4  -4  247.08    9.94
   6   4   4  240.93    9.94
  -6  -4  -3   66.54    4.67
   6   4   3   66.54    4.90
  -6  -4  -2 1085.20   36.35
   6   4   2 1112.65   37.31
  -6  -4  -1   28.56    3.78
   6   4   1   26.26    3.56
  -6  -4   0  298.26   11.42
   6   4   0  277.27   10.90
  -6  -4   1  315.32   12.02
   6   4  -1  315.84   12.02
  -6  -4   2 2725.99   88.72
  -6  -4   2 2701.51   88.05
  -6  -4   3   -0.15    3.34
  -6  -4   3    0.45    3.34
  -6  -4   4   25.67    3.78
  -6  -4   4   19.14    3.86
  -6  -4   5    3.78    3.63
  -6  -4   5    5.49    3.49
  -6  -4   6 2053.21   67.50
  -6  -4   6 1984.96   65.28
  -6  -4   7  141.08    7.20
  -6  -4   7  157.48    7.57
  -6  -4   8  919.05   31.45
  -6  -4   8  899.02   30.86
  -6  -4   9  336.17   13.13
  -6  -4   9  314.36   12.31
  -6  -4  10  690.44   24.26
  -6  -4  10  685.24   24.03
  -6  -4  11   18.54    4.08
  -6  -4  11   13.35    4.38
  -6  -4  12  444.91   16.76
  -6  -4  12  456.33   16.91
  -6  -4  13 1131.93   38.42
  -6  -4  13 1102.26   37.38
  -6  -4  14  440.91   16.76
  -6  -4  14  451.29   17.06
  -6  -4  15  103.48    6.45
  -6  -4  15  115.72    7.20
  -6  -4  16  221.49   10.01
  -6  -4  16  237.29   10.68
  -6  -4  17  977.65   33.60
  -6  -4  17 1019.19   35.09
  -6  -4  18 1167.54   39.68
  -6  -4  18 1137.87   38.65
  -6  -4  19    1.85    3.26
   6   4 -19    2.52    3.78
  -6  -4  20 1966.42   65.20
   6   4 -20 1957.52   64.68
  -6  -4  21 1946.39   64.61
   6   4 -21 1984.22   65.42
  -6  -4  22   31.75    4.23
   6   4 -22   31.90    4.30
  -6  -4  23  655.42   23.66
   6   4 -23  635.84   22.55
  -6  -4  24  801.11   27.89
   6   4 -24  764.76   26.41
  -6  -4  25  199.39    9.64
   6   4 -25  187.22    8.68
  -6  -4  26    6.08    3.49
   6   4 -26    7.49    3.56
  -6  -4  27   70.69    6.16
   6   4 -27   67.57    4.97
  -6  -4  28  743.25   25.81
   6   4 -28  750.67   25.96
  -6  -4  29  179.36    8.60
   6   4 -29  180.62    8.31
  -6  -4  30   12.68    4.45
   6   4 -30    1.26    3.71
  -7  -4 -28  335.13   12.98
   7   4  28  302.34   11.94
  -7  -4 -27    2.15    4.08
   7   4  27    3.71    4.67
  -7  -4 -26  336.02   12.98
   7   4  26  315.84   12.91
  -7  -4 -25  921.27   31.60
   7   4  25  870.83   29.97
  -7  -4 -24   -5.49    4.08
   7   4  24    1.34    4.97
  -7  -4 -23  434.08   16.39
   7   4  23  466.79   17.58
  -7  -4 -22  114.60    6.90
   7   4  22  117.35    7.05
  -7  -4 -21  120.17    6.82
   7   4  21  123.65    7.64
  -7  -4 -20   82.19    5.93
   7   4  20   86.71    6.45
  -7  -4 -19  121.43    7.20
   7   4  19  133.37    7.79
  -7  -4 -18  256.28   10.90
   7   4  18  274.97   11.87
  -7  -4 -17  887.89   30.56
   7   4  17  786.27   27.74
  -7  -4 -16   -0.59    3.78
   7   4  16   -3.41    4.38
  -7  -4 -15 1010.28   34.64
   7   4  15 1087.43   37.01
  -7  -4 -14  448.55   16.69
   7   4  14  457.08   17.13
  -7  -4 -13  610.40   21.66
   7   4  13  603.50   21.59
  -7  -4 -12   18.17    3.49
   7   4  12   18.02    4.23
  -7  -4 -11 1428.64   47.70
   7   4  11 1453.86   48.51
  -7  -4 -10  256.28   10.61
   7   4  10  255.32   10.68
  -7  -4  -9  102.51    5.71
   7   4   9  106.74    6.45
  -7  -4  -8   14.17    4.23
   7   4   8    6.16    3.86
  -7  -4  -7  861.19   29.60
   7   4   7  798.14   27.45
  -7  -4  -6  841.90   28.85
   7   4   6  843.39   28.85
  -7  -4  -5   12.91    3.71
   7   4   5   13.72    3.34
  -7  -4  -4 1607.41   53.18
   7   4   4 1627.43   53.78
  -7  -4  -3 1258.78   41.98
   7   4   3 1306.99   43.47
  -7  -4  -2  116.16    6.23
   7   4   2  131.89    6.53
  -7  -4  -1  265.33   10.61
   7   4   1  285.80   11.13
  -7  -4   0   12.16    3.41
   7   4   0   15.50    3.71
  -7  -4   1 1618.53   53.56
   7   4  -1 1634.11   53.93
  -7  -4   2 1306.99   43.69
   7   4  -2 1313.67   43.84
  -7  -4   3   -0.07    3.19
  -7  -4   3    0.07    3.63
  -7  -4   4  227.35    9.72
  -7  -4   4  230.47    9.72
  -7  -4   5  711.20   24.77
  -7  -4   5  691.84   24.18
  -7  -4   6    7.86    3.86
  -7  -4   6    9.72    3.56
  -7  -4   7 1174.96   39.61
  -7  -4   7 1163.09   39.24
  -7  -4   8  240.26   10.16
  -7  -4   8  238.18   10.24
  -7  -4   9  570.49   20.55
  -7  -4   9  590.59   21.21
  -7  -4  10    0.82    4.01
  -7  -4  10    1.71    3.78
  -7  -4  11  502.84   18.54
  -7  -4  11  468.57   17.28
  -7  -4  12  364.21   14.24
  -7  -4  12  391.58   14.98
  -7  -4  13  942.04   32.42
  -7  -4  13  946.49   32.56
  -7  -4  14  208.29    9.64
  -7  -4  14  213.33    9.49
  -7  -4  15  295.37   12.24
  -7  -4  15  278.24   11.57
  -7  -4  16  792.95   27.82
  -7  -4  16  783.30   27.52
  -7  -4  17   65.28    5.79
  -7  -4  17   61.12    5.64
  -7  -4  18   67.13    6.01
  -7  -4  18   60.97    5.41
  -7  -4  19  179.88    9.12
  -7  -4  19  178.54    8.46
  -7  -4  20  959.84   33.08
  -7  -4  20  975.42   33.60
  -7  -4  21   48.51    5.64
  -7  -4  21   50.96    5.79
  -7  -4  22    0.59    4.30
  -7  -4  22    3.78    4.08
  -7  -4  23 1621.50   54.07
  -7  -4  23 1580.70   52.81
  -7  -4  24   25.89    4.90
  -7  -4  24   34.71    5.34
  -7  -4  25   67.13    5.34
  -7  -4  25   75.96    5.34
  -7  -4  26    2.00    3.34
  -7  -4  26    6.23    4.82
  -7  -4  27  481.18   17.51
  -7  -4  27  524.06   18.84
  -7  -4  28  264.44   10.76
  -7  -4  28  259.10   11.13
  -7  -4  29   11.79    3.41
  -7  -4  29   13.72    3.56
  -7  -4  30  131.44    6.75
  -7  -4  30  130.33    7.20
  -8  -4 -27  171.79    8.31
   8   4  27  181.29    8.75
  -8  -4 -26  170.38    8.09
   8   4  26  171.87    8.53
  -8  -4 -25   45.25    3.93
   8   4  25   58.23    5.93
  -8  -4 -24   70.76    5.27
   8   4  24   65.94    6.08
  -8  -4 -23 1001.38   34.27
   8   4  23  984.32   33.75
  -8  -4 -22  275.57   11.57
   8   4  22  241.52   10.90
  -8  -4 -21   58.75    5.34
   8   4  21   65.57    6.01
  -8  -4 -20  833.00   28.78
   8   4  20  793.69   27.82
  -8  -4 -19  274.23   11.35
   8   4  19  269.11   11.72
  -8  -4 -18  211.63    9.35
   8   4  18  229.28   10.61
  -8  -4 -17  163.86    8.09
   8   4  17  162.30    8.60
  -8  -4 -16  302.57   12.31
   8   4  16  335.06   13.80
  -8  -4 -15  916.08   31.67
   8   4  15  938.33   32.56
  -8  -4 -14  312.43   12.46
   8   4  14  355.90   14.24
  -8  -4 -13    5.19    3.93
   8   4  13   -0.67    4.15
  -8  -4 -12 1622.24   54.07
   8   4  12 1648.20   54.96
  -8  -4 -11  600.68   21.66
   8   4  11  517.53   19.06
  -8  -4 -10  121.13    6.68
   8   4  10  129.88    7.27
  -8  -4  -9  449.06   16.62
   8   4   9  457.30   17.13
  -8  -4  -8  947.98   32.34
   8   4   8 1003.61   34.20
  -8  -4  -7    2.52    3.19
   8   4   7    1.48    3.71
  -8  -4  -6   49.25    4.45
   8   4   6   51.78    4.75
  -8  -4  -5  331.27   12.91
   8   4   5  326.67   12.91
  -8  -4  -4 1256.55   42.13
   8   4   4 1272.87   42.80
  -8  -4  -3  306.35   12.16
   8   4   3  279.50   11.42
  -8  -4  -2    6.38    3.63
   8   4   2    3.41    3.56
  -8  -4  -1 1065.92   36.05
   8   4   1 1053.31   35.75
  -8  -4   0 1388.59   46.29
   8   4   0 1390.07   46.58
  -8  -4   1    3.41    3.63
   8   4  -1    0.00    3.78
  -8  -4   2    8.38    3.78
   8   4  -2   15.28    3.93
  -8  -4   3   14.17    3.93
   8   4  -3   20.10    3.93
  -8  -4   4 1532.49   51.03
  -8  -4   4 1484.27   49.48
  -8  -4   5  235.51   10.09
  -8  -4   5  240.93   10.24
  -8  -4   6  650.83   22.99
  -8  -4   6  644.22   22.77
  -8  -4   7  310.95   12.46
  -8  -4   7  308.57   12.39
  -8  -4   8  306.87   12.46
  -8  -4   8  326.45   13.13
  -8  -4   9   67.20    5.56
  -8  -4   9   54.30    4.90
  -8  -4  10  904.95   31.15
  -8  -4  10  877.51   30.19
  -8  -4  11  782.56   27.30
  -8  -4  11  755.86   26.41
  -8  -4  12  788.50   27.59
  -8  -4  12  804.07   28.04
  -8  -4  13   50.81    5.12
  -8  -4  13   65.72    5.71
  -8  -4  14  271.49   11.35
  -8  -4  14  274.45   11.50
  -8  -4  15  433.64   16.54
  -8  -4  15  423.92   16.02
  -8  -4  16 1231.33   41.76
  -8  -4  16 1212.79   41.09
  -8  -4  17   56.75    5.79
  -8  -4  17   48.59    5.27
  -8  -4  18 1266.19   42.87
  -8  -4  18 1242.46   42.06
  -8  -4  19   95.91    6.60
  -8  -4  19   86.64    6.31
  -8  -4  20   15.43    4.82
  -8  -4  20   10.76    4.30
  -8  -4  21   80.26    6.31
  -8  -4  21   89.83    6.16
  -8  -4  22  654.39   23.29
  -8  -4  22  685.24   24.40
  -8  -4  23  160.96    8.38
  -8  -4  23  160.37    8.38
  -8  -4  24    6.68    4.45
  -8  -4  24    6.08    3.41
  -8  -4  25  103.25    6.53
  -8  -4  25  112.82    7.12
  -8  -4  26  243.00   10.68
  -8  -4  26  237.88   10.31
  -8  -4  27  161.33    8.09
  -8  -4  27  157.77    7.86
  -8  -4  28    1.63    4.52
  -8  -4  28    3.71    4.52
  -8  -4  29   46.29    5.12
  -8  -4  29   36.12    4.45
  -8  -4  30  330.90   12.98
  -8  -4  30  336.39   12.98
  -9  -4 -26   -3.04    3.41
   9   4  26    8.31    4.67
  -9  -4 -25  158.29    7.42
   9   4  25  166.23    8.38
  -9  -4 -24    7.94    3.93
   9   4  24   19.06    5.12
  -9  -4 -23  248.79   10.68
   9   4  23  259.02   11.05
  -9  -4 -22  168.23    8.31
   9   4  22  170.24    8.90
  -9  -4 -21   11.20    4.38
   9   4  21    7.12    4.67
  -9  -4 -20  928.69   31.75
   9   4  20  911.63   31.67
  -9  -4 -19  355.45   13.80
   9   4  19  299.15   12.61
  -9  -4 -18   -3.41    3.49
   9   4  18   -1.48    4.52
  -9  -4 -17  198.42    9.27
   9   4  17  207.77    9.87
  -9  -4 -16  147.17    7.49
   9   4  16  172.83    8.68
  -9  -4 -15  429.26   16.32
   9   4  15  431.71   16.54
  -9  -4 -14   75.51    5.41
   9   4  14   79.67    6.45
  -9  -4 -13 1321.08   44.36
   9   4  13 1400.45   47.18
  -9  -4 -12  656.69   23.51
   9   4  12  623.75   22.48
  -9  -4 -11    7.94    4.08
   9   4  11   13.57    4.52
  -9  -4 -10    1.93    3.78
   9   4  10   -0.37    4.15
  -9  -4  -9  454.70   17.06
   9   4   9  476.81   17.88
  -9  -4  -8  375.78   14.17
   9   4   8  372.00   14.54
  -9  -4  -7   39.24    4.45
   9   4   7   39.98    4.97
  -9  -4  -6  208.51    9.05
   9   4   6  214.00    9.64
  -9  -4  -5  349.52   13.43
   9   4   5  353.97   13.87
  -9  -4  -4  427.92   15.87
   9   4   4  446.47   16.69
  -9  -4  -3  106.22    6.01
   9   4   3  100.81    6.38
  -9  -4  -2 1198.69   40.35
   9   4   2 1223.91   41.24
  -9  -4  -1 1927.85   63.72
   9   4   1 1967.16   64.98
  -9  -4   0   34.20    4.52
   9   4   0   35.31    4.60
  -9  -4   1  373.33   14.24
   9   4  -1  377.19   14.54
  -9  -4   2  500.40   18.25
   9   4  -2  518.20   18.77
  -9  -4   3  847.84   29.15
   9   4  -3  879.73   30.19
  -9  -4   4    2.74    3.71
  -9  -4   4   -2.97    3.63
  -9  -4   5   71.36    5.49
  -9  -4   5   67.80    5.41
  -9  -4   6  653.12   23.14
  -9  -4   6  634.51   22.55
  -9  -4   7  666.55   23.59
  -9  -4   7  668.85   23.66
  -9  -4   8  161.78    8.09
  -9  -4   8  169.35    8.09
  -9  -4   9  621.90   22.18
  -9  -4   9  668.63   23.66
  -9  -4  10 1088.91   37.16
  -9  -4  10 1102.26   37.46
  -9  -4  11  821.88   28.71
  -9  -4  11  831.52   28.85
  -9  -4  12   -2.30    3.86
  -9  -4  12   -2.08    4.08
  -9  -4  13  686.65   24.40
  -9  -4  13  706.46   25.07
  -9  -4  14  189.00    8.98
  -9  -4  14  189.22    8.98
  -9  -4  15  340.47   13.57
  -9  -4  15  318.89   13.06
  -9  -4  16  172.91    8.75
  -9  -4  16  190.71    9.20
  -9  -4  17  214.52   10.01
  -9  -4  17  207.32    9.72
  -9  -4  18  844.13   29.52
  -9  -4  18  841.16   29.37
  -9  -4  19  221.64   10.31
  -9  -4  19  230.91   10.61
  -9  -4  20  334.91   13.65
  -9  -4  20  344.11   13.80
  -9  -4  21  120.98    7.05
  -9  -4  21  113.34    7.27
  -9  -4  22   25.44    4.97
  -9  -4  22   43.47    5.19
  -9  -4  23   51.78    5.34
  -9  -4  23   55.26    4.75
  -9  -4  24   11.65    4.52
  -9  -4  24   12.02    4.67
  -9  -4  25  398.03   15.35
  -9  -4  25  419.54   16.02
  -9  -4  26  713.06   25.00
  -9  -4  26  719.74   25.00
  -9  -4  27    0.15    4.30
  -9  -4  27    8.31    4.60
  -9  -4  28  124.02    7.05
  -9  -4  28  131.00    7.05
  -9  -4  29  323.19   12.46
  -9  -4  29  335.28   12.76
 -10  -4 -26   55.41    5.71
  10   4  26   47.99    5.34
 -10  -4 -25  315.40   12.46
  10   4  25  308.72   12.46
 -10  -4 -24  254.94   10.83
  10   4  24  269.48   11.27
 -10  -4 -23  255.91   10.68
  10   4  23  263.48   11.42
 -10  -4 -22  201.32    9.20
  10   4  22  183.51    9.12
 -10  -4 -21  363.76   14.32
  10   4  21  404.26   15.65
 -10  -4 -20 1065.92   36.20
  10   4  20 1063.69   36.27
 -10  -4 -19  144.64    7.79
  10   4  19  134.19    7.64
 -10  -4 -18  865.64   29.74
  10   4  18 1059.24   36.20
 -10  -4 -17  774.40   27.00
  10   4  17  806.30   28.19
 -10  -4 -16  302.27   12.46
  10   4  16  293.37   12.16
 -10  -4 -15    1.41    3.41
  10   4  15   -2.82    4.52
 -10  -4 -14  354.19   13.87
  10   4  14  371.85   14.61
 -10  -4 -13  370.22   14.39
  10   4  13  385.27   15.21
 -10  -4 -12   96.50    6.08
  10   4  12   91.01    6.53
 -10  -4 -11  192.56    8.83
  10   4  11  195.08    9.35
 -10  -4 -10 1157.15   39.39
  10   4  10 1276.58   43.10
 -10  -4  -9   41.61    4.60
  10   4   9   46.06    5.04
 -10  -4  -8  435.42   16.24
  10   4   8  455.96   16.99
 -10  -4  -7  586.81   21.14
  10   4   7  597.27   21.29
 -10  -4  -6 1513.94   50.51
  10   4   6 1491.69   49.70
 -10  -4  -5  524.72   18.99
  10   4   5  540.23   19.58
 -10  -4  -4    9.79    3.71
  10   4   4   10.09    3.86
 -10  -4  -3   90.27    5.86
  10   4   3   87.60    5.93
 -10  -4  -2 1453.86   48.66
  10   4   2 1441.25   48.07
 -10  -4  -1  650.68   23.14
  10   4   1  661.73   23.29
 -10  -4   0  128.33    6.75
  10   4   0  131.37    6.97
 -10  -4   1 1103.01   37.38
  10   4  -1 1104.49   37.38
 -10  -4   2 2386.26   78.33
  10   4  -2 2327.66   76.48
 -10  -4   3   35.83    4.38
  10   4  -3   32.64    4.52
 -10  -4   4  594.82   21.36
  10   4  -4  629.39   22.40
 -10  -4   5  404.78   15.35
 -10  -4   5  413.83   15.58
 -10  -4   6  332.98   13.06
 -10  -4   6  324.89   12.91
 -10  -4   7  279.87   11.57
 -10  -4   7  276.98   11.50
 -10  -4   8  477.03   17.80
 -10  -4   8  493.94   18.32
 -10  -4   9 1267.68   42.73
 -10  -4   9 1298.09   43.84
 -10  -4  10  766.99   26.85
 -10  -4  10  821.13   28.56
 -10  -4  11   84.19    5.93
 -10  -4  11   80.85    6.08
 -10  -4  12  578.06   20.99
 -10  -4  12  580.13   20.99
 -10  -4  13 1748.34   58.08
 -10  -4  13 1803.23   59.93
 -10  -4  14  229.87   10.31
 -10  -4  14  243.67   10.68
 -10  -4  15  968.00   33.38
 -10  -4  15 1004.35   34.42
 -10  -4  16  236.33   10.53
 -10  -4  16  225.20   10.16
 -10  -4  17  155.62    8.01
 -10  -4  17  146.28    8.01
 -10  -4  18  220.23   10.09
 -10  -4  18  219.64   10.38
 -10  -4  19  224.38   10.16
 -10  -4  19  207.92    9.57
 -10  -4  20  938.33   32.27
 -10  -4  20  962.07   33.01
 -10  -4  21 1011.03   34.57
 -10  -4  21  985.81   33.82
 -10  -4  22    8.83    4.45
 -10  -4  22   -1.26    3.26
 -10  -4  23  305.16   12.31
 -10  -4  23  318.66   12.76
 -10  -4  24  870.09   30.19
 -10  -4  24  838.20   29.08
 -10  -4  25  177.36    8.68
 -10  -4  25  156.14    7.94
 -10  -4  26   34.05    4.90
 -10  -4  26   34.64    4.01
 -10  -4  27   93.02    6.31
 -10  -4  27   86.86    6.16
 -10  -4  28  384.46   14.46
 -10  -4  28  385.35   14.46
 -10  -4  29  153.69    7.64
 -10  -4  29  158.00    7.42
 -11  -4 -25  577.91   20.55
  11   4  25  592.74   20.77
 -11  -4 -24  106.22    5.71
  11   4  24  114.97    6.75
 -11  -4 -23  199.98    8.75
  11   4  23  186.85    8.98
 -11  -4 -22  276.90   11.13
  11   4  22  283.28   11.79
 -11  -4 -21  347.15   13.20
  11   4  21  334.98   13.65
 -11  -4 -20    7.49    3.56
  11   4  20    0.74    4.60
 -11  -4 -19    1.11    4.01
  11   4  19    3.34    4.67
 -11  -4 -18  324.74   13.06
  11   4  18  328.68   13.50
 -11  -4 -17  839.68   29.00
  11   4  17  912.37   31.90
 -11  -4 -16   35.31    4.45
  11   4  16   32.64    5.27
 -11  -4 -15  242.56   10.68
  11   4  15  248.64   11.05
 -11  -4 -14  445.73   16.62
  11   4  14  451.51   17.28
 -11  -4 -13  194.34    8.98
  11   4  13  211.18   10.16
 -11  -4 -12   48.44    5.12
  11   4  12   58.38    5.93
 -11  -4 -11  993.97   34.05
  11   4  11  962.07   33.31
 -11  -4 -10  105.78    6.08
  11   4  10  122.02    7.27
 -11  -4  -9   73.95    5.34
  11   4   9   62.31    5.41
 -11  -4  -8   83.45    5.56
  11   4   8   85.38    6.23
 -11  -4  -7 1342.60   45.10
  11   4   7 1421.96   47.77
 -11  -4  -6  470.13   17.28
  11   4   6  436.38   16.62
 -11  -4  -5  116.61    6.53
  11   4   5  137.00    7.42
 -11  -4  -4 1229.85   41.61
  11   4   4 1210.56   41.02
 -11  -4  -3 1610.37   53.70
  11   4   3 1639.30   54.67
 -11  -4  -2  183.66    8.53
  11   4   2  201.69    9.27
 -11  -4  -1   -2.08    3.63
  11   4   1   -2.37    4.01
 -11  -4   0  542.82   19.81
  11   4   0  537.63   19.73
 -11  -4   1   68.09    5.41
  11   4  -1   70.84    5.56
 -11  -4   2  650.83   23.22
  11   4  -2  685.98   24.48
 -11  -4   3   54.74    5.04
  11   4  -3   53.33    5.04
 -11  -4   4 1527.30   51.11
  11   4  -4 1511.72   50.66
 -11  -4   5  804.82   28.04
 -11  -4   5  798.14   27.96
 -11  -4   6   22.48    4.15
 -11  -4   6   23.22    4.15
 -11  -4   7  158.74    8.01
 -11  -4   7  176.54    8.53
 -11  -4   8  769.95   26.93
 -11  -4   8  761.79   26.78
 -11  -4   9  555.73   20.18
 -11  -4   9  518.35   19.14
 -11  -4  10  104.59    6.60
 -11  -4  10  109.11    6.53
 -11  -4  11 1225.40   41.46
 -11  -4  11 1228.36   41.69
 -11  -4  12  210.66    9.57
 -11  -4  12  210.07    9.72
 -11  -4  13  147.17    7.79
 -11  -4  13  149.02    7.86
 -11  -4  14   85.38    6.23
 -11  -4  14   83.52    6.08
 -11  -4  15 1045.15   35.90
 -11  -4  15 1038.47   35.53
 -11  -4  16  609.06   22.10
 -11  -4  16  571.53   20.77
 -11  -4  17   17.73    4.38
 -11  -4  17   15.87    4.67
 -11  -4  18  466.27   17.36
 -11  -4  18  492.24   18.32
 -11  -4  19  325.93   12.98
 -11  -4  19  330.83   13.43
 -11  -4  20  534.96   19.58
 -11  -4  20  570.71   20.70
 -11  -4  21   52.74    5.19
 -11  -4  21   44.95    4.90
 -11  -4  22  348.18   13.80
 -11  -4  22  341.51   13.28
 -11  -4  23 1239.49   41.76
 -11  -4  23 1215.01   40.87
 -11  -4  24   93.54    6.45
 -11  -4  24   98.21    6.53
 -11  -4  25    5.79    4.60
 -11  -4  25    2.74    4.08
 -11  -4  26  145.16    7.64
 -11  -4  26  150.21    7.42
 -11  -4  27  350.41   13.20
 -11  -4  27  353.01   13.28
 -11  -4  28   84.71    5.49
 -11  -4  28   92.50    6.23
  12   4  24    4.23    4.82
 -12  -4 -23  263.03   10.76
  12   4  23  212.00    9.49
 -12  -4 -22  283.28   11.35
  12   4  22  284.99   11.87
 -12  -4 -21   62.16    5.41
  12   4  21   57.56    5.86
 -12  -4 -20  468.13   17.36
  12   4  20  436.90   16.39
 -12  -4 -19   24.11    4.67
  12   4  19   13.20    4.90
 -12  -4 -18  157.63    8.09
  12   4  18  177.28    8.98
 -12  -4 -17   36.87    3.93
  12   4  17   37.68    5.34
 -12  -4 -16   74.47    5.93
  12   4  16   87.53    6.53
 -12  -4 -15  414.57   15.73
  12   4  15  417.76   16.24
 -12  -4 -14  275.64   11.27
  12   4  14  275.79   11.94
 -12  -4 -13  157.18    8.09
  12   4  13  173.94    9.20
 -12  -4 -12  492.75   18.32
  12   4  12  515.23   19.21
 -12  -4 -11  304.94   12.16
  12   4  11  306.65   12.76
 -12  -4 -10  111.71    7.05
  12   4  10  108.08    7.05
 -12  -4  -9  124.76    7.05
  12   4   9  127.66    7.64
 -12  -4  -8 1479.82   49.48
  12   4   8 1542.87   51.78
 -12  -4  -7   13.13    4.15
  12   4   7    2.37    4.38
 -12  -4  -6   -3.04    3.56
  12   4   6    2.67    4.23
 -12  -4  -5   29.52    4.23
  12   4   5   36.87    4.97
 -12  -4  -4  787.01   27.45
  12   4   4  853.03   29.74
 -12  -4  -3 1726.83   57.41
  12   4   3 1761.69   58.60
 -12  -4  -2   40.13    4.67
  12   4   2   43.32    5.04
 -12  -4  -1  972.45   33.38
  12   4   1  963.55   33.23
 -12  -4   0 1094.85   37.31
  12   4   0  975.42   33.53
 -12  -4   1  933.14   32.12
  12   4  -1  962.81   33.16
 -12  -4   2  144.20    7.49
  12   4  -2  132.33    7.34
 -12  -4   3  600.16   21.59
  12   4  -3  605.58   21.81
 -12  -4   4 2259.42   74.40
  12   4  -4 2245.32   73.88
 -12  -4   5  283.95   11.72
 -12  -4   6   96.43    6.23
 -12  -4   6   99.10    6.38
 -12  -4   7  945.75   32.56
 -12  -4   7  991.00   34.05
 -12  -4   8  619.45   22.18
 -12  -4   8  612.33   22.10
 -12  -4   9    4.75    3.78
 -12  -4   9    1.04    3.63
 -12  -4  10  712.17   25.29
 -12  -4  10  719.66   25.44
 -12  -4  11 1185.34   40.28
 -12  -4  11 1155.67   39.17
 -12  -4  12  469.76   17.58
 -12  -4  12  504.47   18.62
 -12  -4  13   82.41    6.16
 -12  -4  13   79.52    6.23
 -12  -4  14   62.61    5.64
 -12  -4  14   57.26    5.34
 -12  -4  15  498.69   18.62
 -12  -4  15  505.44   18.69
 -12  -4  16  703.27   24.92
 -12  -4  16  675.97   24.18
 -12  -4  17  173.42    8.53
 -12  -4  17  175.13    8.83
 -12  -4  18  586.37   21.14
 -12  -4  18  625.46   22.48
 -12  -4  19   18.54    4.38
 -12  -4  19   20.10    4.67
 -12  -4  20  367.62   14.32
 -12  -4  20  404.19   15.65
 -12  -4  21    6.38    4.08
 -12  -4  21   10.83    4.52
 -12  -4  22  655.13   23.29
 -12  -4  22  632.36   22.48
 -12  -4  23  229.06   10.09
 -12  -4  23  248.42   10.38
 -12  -4  24   98.51    6.08
 -12  -4  24  104.29    6.23
 -12  -4  25  260.43   10.76
 -12  -4  25  245.15   10.46
 -12  -4  26  710.46   24.70
 -12  -4  26  676.64   23.66
 -12  -4  27    9.05    3.86
 -12  -4  27   16.69    3.93
 -13  -4 -22    3.78    4.15
  13   4  22   -6.23    3.86
 -13  -4 -21  196.42    8.90
  13   4  21  185.00    8.90
 -13  -4 -20  719.74   25.15
  13   4  20  736.35   25.89
 -13  -4 -19  253.09   10.83
  13   4  19  239.59   10.53
 -13  -4 -18   77.89    5.56
  13   4  18   76.40    6.23
 -13  -4 -17  183.88    8.46
  13   4  17  173.57    8.83
 -13  -4 -16  124.84    7.05
  13   4  16  134.19    7.64
 -13  -4 -15  620.19   22.33
  13   4  15  633.25   22.85
 -13  -4 -14    1.04    2.89
  13   4  14    7.34    4.75
 -13  -4 -13  488.16   18.02
  13   4  13  465.68   17.80
 -13  -4 -12  255.32   10.53
  13   4  12  264.59   11.35
 -13  -4 -11   66.68    5.79
  13   4  11   84.71    6.45
 -13  -4 -10  217.11    9.64
  13   4  10  211.33    9.87
 -13  -4  -9  965.78   33.08
  13   4   9  974.68   33.45
 -13  -4  -8  821.13   28.56
  13   4   8  815.94   28.48
 -13  -4  -7    7.86    4.08
  13   4   7   -0.67    4.08
 -13  -4  -6 1440.51   48.29
  13   4   6 1361.88   45.84
 -13  -4  -5  574.79   20.92
  13   4   5  536.15   19.58
 -13  -4  -4  600.46   21.73
  13   4   4  630.65   22.62
 -13  -4  -3  385.87   14.98
  13   4   3  381.86   14.76
 -13  -4  -2   97.54    6.38
  13   4   2  109.19    6.82
 -13  -4  -1  955.39   32.86
  13   4   1  993.97   34.20
 -13  -4   0  750.67   26.41
  13   4   0  786.27   27.52
 -13  -4   1   14.84    4.01
  13   4  -1   27.37    4.75
 -13  -4   2  924.98   31.82
  13   4  -2  907.18   31.45
 -13  -4   3  759.57   26.56
  13   4  -3  761.05   26.85
 -13  -4   4    6.45    3.86
  13   4  -4    2.67    3.93
 -13  -4   5   16.32    3.93
  13   4  -5   10.09    4.01
 -13  -4   6  843.39   29.30
 -13  -4   6  858.96   29.89
 -13  -4   7 1416.77   47.47
 -13  -4   7 1382.65   46.58
 -13  -4   8   27.74    4.52
 -13  -4   8   27.82    4.38
 -13  -4   9  177.58    8.68
 -13  -4   9  166.53    8.38
 -13  -4  10  502.77   18.69
 -13  -4  10  481.70   17.95
 -13  -4  11  447.88   17.06
 -13  -4  11  436.90   16.76
 -13  -4  12   16.54    4.30
 -13  -4  12   12.68    4.45
 -13  -4  13  404.41   15.50
 -13  -4  13  404.04   15.50
 -13  -4  14   28.78    4.67
 -13  -4  14   30.63    4.82
 -13  -4  15  439.57   16.69
 -13  -4  15  415.83   15.95
 -13  -4  16  215.04    9.79
 -13  -4  16  205.10    9.42
 -13  -4  17  411.68   15.73
 -13  -4  17  397.66   15.28
 -13  -4  18 1018.44   34.71
 -13  -4  18 1044.41   35.60
 -13  -4  19  679.09   24.11
 -13  -4  19  649.56   23.07
 -13  -4  20  748.44   26.18
 -13  -4  20  729.53   25.59
 -13  -4  21  700.15   24.63
 -13  -4  21  712.99   25.07
 -13  -4  22  164.75    8.23
 -13  -4  22  155.99    8.01
 -13  -4  23   14.24    4.52
 -13  -4  23   16.10    4.30
 -13  -4  24   13.28    3.93
 -13  -4  24   20.10    4.67
 -13  -4  25  544.75   19.51
 -13  -4  25  535.78   19.06
 -13  -4  26  193.82    8.46
 -13  -4  26  188.78    8.23
 -13  -4  27    0.22    4.08
 -14  -4 -21   19.36    4.38
  14   4  21   13.28    4.60
 -14  -4 -20  257.84   10.68
  14   4  20  258.28   10.83
 -14  -4 -19   81.74    5.71
  14   4  19   76.70    6.16
 -14  -4 -18  207.99    9.35
  14   4  18  205.84    9.64
 -14  -4 -17  119.20    6.53
  14   4  17  129.14    7.49
 -14  -4 -16  317.33   12.46
  14   4  16  315.03   12.83
 -14  -4 -15  127.95    7.12
  14   4  15  137.23    7.79
 -14  -4 -14  210.81    9.72
  14   4  14  241.59   10.83
 -14  -4 -13  314.51   12.31
  14   4  13  317.03   12.91
 -14  -4 -12  135.45    7.42
  14   4  12  123.95    7.20
 -14  -4 -11   98.80    6.08
  14   4  11  117.94    7.20
 -14  -4 -10 1155.67   39.17
  14   4  10 1096.33   37.53
 -14  -4  -9  294.70   11.87
  14   4   9  276.75   11.79
 -14  -4  -8  296.71   12.16
  14   4   8  303.46   12.68
 -14  -4  -7   51.18    4.97
  14   4   7   53.56    5.56
 -14  -4  -6  779.60   27.30
  14   4   6  761.79   26.85
 -14  -4  -5  162.97    8.31
  14   4   5  153.10    8.09
 -14  -4  -4   79.00    5.86
  14   4   4   84.12    6.23
 -14  -4  -3   34.57    4.67
  14   4   3   36.20    5.27
 -14  -4  -2  153.77    7.86
  14   4   2  153.03    8.16
 -14  -4  -1   96.36    6.23
  14   4   1   86.12    6.16
 -14  -4   0   -1.63    3.49
  14   4   0    0.15    4.30
 -14  -4   1  523.46   19.29
  14   4  -1  526.73   19.43
 -14  -4   2 1845.51   61.34
  14   4  -2 1853.67   61.49
 -14  -4   3  397.73   15.28
  14   4  -3  428.89   16.47
 -14  -4   4  716.92   25.37
  14   4  -4  703.56   24.85
 -14  -4   5   99.92    6.45
  14   4  -5   77.00    5.71
 -14  -4   6  870.83   30.19
 -14  -4   6  926.47   32.04
 -14  -4   7   21.88    4.38
 -14  -4   7   20.84    4.45
 -14  -4   8  218.82   10.01
 -14  -4   8  219.71    9.87
 -14  -4   9  362.95   14.17
 -14  -4   9  357.75   14.17
 -14  -4  10  484.82   18.02
 -14  -4  10  487.49   18.25
 -14  -4  11   55.41    5.34
 -14  -4  11   55.63    5.27
 -14  -4  12  461.23   17.28
 -14  -4  12  447.73   16.84
 -14  -4  13  160.15    7.94
 -14  -4  13  171.87    8.38
 -14  -4  14  261.47   10.90
 -14  -4  14  267.26   11.13
 -14  -4  15   56.37    5.19
 -14  -4  15   65.28    5.49
 -14  -4  16 1298.83   43.76
 -14  -4  16 1237.27   41.76
 -14  -4  17    9.64    4.30
 -14  -4  17    3.78    4.38
 -14  -4  18  157.70    8.01
 -14  -4  18  166.97    8.46
 -14  -4  19   45.03    4.82
 -14  -4  19   43.69    5.19
 -14  -4  20 1189.79   40.20
 -14  -4  20 1160.12   39.24
 -14  -4  21  741.77   25.96
 -14  -4  21  743.99   25.96
 -14  -4  22  135.15    7.27
 -14  -4  22  146.57    7.49
 -14  -4  23  134.78    7.12
 -14  -4  23  133.59    6.60
 -14  -4  24  482.30   17.51
 -14  -4  24  465.24   16.84
 -14  -4  25    8.31    3.71
 -14  -4  25   14.46    4.38
 -14  -4  26   15.80    4.38
 -14  -4  26   24.92    4.82
 -15  -4 -20   34.12    3.93
  15   4  20   27.37    5.12
 -15  -4 -19    9.64    3.63
  15   4  19   10.83    4.60
 -15  -4 -18  145.46    7.27
  15   4  18  145.76    7.86
 -15  -4 -17  347.22   13.57
  15   4  17  333.05   13.28
 -15  -4 -16  167.27    8.09
  15   4  16  149.84    8.09
 -15  -4 -15  338.54   13.28
  15   4  15  345.81   13.72
 -15  -4 -14  287.51   11.35
  15   4  14  283.58   12.16
 -15  -4 -13  122.98    7.12
  15   4  13  126.84    7.71
 -15  -4 -12  164.00    8.01
  15   4  12  180.55    8.75
 -15  -4 -11  645.34   22.85
  15   4  11  595.42   21.44
 -15  -4 -10  527.02   19.36
  15   4  10  555.66   20.32
 -15  -4  -9   25.67    3.93
  15   4   9   31.67    5.12
 -15  -4  -8   79.22    5.86
  15   4   8   59.79    5.49
 -15  -4  -7  362.95   13.80
  15   4   7  385.50   15.06
 -15  -4  -6  272.60   11.42
  15   4   6  276.75   11.87
 -15  -4  -5  136.71    7.12
  15   4   5  162.00    8.38
 -15  -4  -4  188.63    9.05
  15   4   4  194.12    9.20
 -15  -4  -3 1272.87   42.95
  15   4   3 1410.10   47.25
 -15  -4  -2  215.33    9.79
  15   4   2  210.51    9.64
 -15  -4  -1   48.96    5.12
  15   4   1   42.95    4.97
 -15  -4   0  202.21    9.27
  15   4   0  188.78    8.98
 -15  -4   1  486.15   18.10
  15   4  -1  501.66   18.47
 -15  -4   2  184.70    8.75
  15   4  -2  191.75    8.98
 -15  -4   3  146.42    7.71
  15   4  -3  152.95    8.01
 -15  -4   4  323.11   13.06
  15   4  -4  330.98   13.20
 -15  -4   5  891.60   30.86
  15   4  -5  876.77   30.34
 -15  -4   6    4.90    3.78
 -15  -4   6    5.19    3.86
 -15  -4   8   69.65    5.49
 -15  -4   8   70.39    5.64
 -15  -4   9  580.06   20.99
 -15  -4   9  588.52   21.29
 -15  -4  10   18.17    4.30
 -15  -4  10   15.80    4.23
 -15  -4  11  585.55   21.07
 -15  -4  11  587.63   21.29
 -15  -4  12  262.88   10.90
 -15  -4  12  284.10   11.87
 -15  -4  13  134.93    7.34
 -15  -4  13  135.45    7.27
 -15  -4  14   28.48    4.45
 -15  -4  14   29.60    4.67
 -15  -4  15  893.09   30.86
 -15  -4  15  896.05   30.78
 -15  -4  16  863.42   29.74
 -15  -4  16  878.25   30.26
 -15  -4  17   24.77    4.15
 -15  -4  17   31.97    4.67
 -15  -4  18  202.80    9.20
 -15  -4  18  218.38    9.72
 -15  -4  19  212.22    9.57
 -15  -4  19  206.51    9.20
 -15  -4  20   24.11    4.45
 -15  -4  20   13.57    3.86
 -15  -4  21  145.91    7.34
 -15  -4  21  144.72    7.27
 -15  -4  22    0.15    3.71
 -15  -4  22   -1.71    3.49
 -15  -4  23  449.66   16.32
 -15  -4  23  490.08   17.58
 -15  -4  24  150.73    7.27
 -15  -4  24  127.58    6.90
 -16  -4 -18  194.86    8.60
  16   4  18  185.22    8.75
 -16  -4 -17   20.32    4.01
  16   4  17   23.44    4.75
 -16  -4 -16  422.81   15.58
  16   4  16  439.20   16.47
 -16  -4 -15  261.32   10.61
  16   4  15  251.24   10.61
 -16  -4 -14  237.81   10.31
  16   4  14  240.70   10.61
 -16  -4 -13   57.26    5.19
  16   4  13   64.53    5.93
 -16  -4 -12  218.30    9.49
  16   4  12  193.23    9.20
 -16  -4 -11  446.25   16.47
  16   4  11  426.66   16.02
 -16  -4 -10  264.44   11.05
  16   4  10  250.94   11.05
 -16  -4  -9   57.56    5.12
  16   4   9   66.91    5.93
 -16  -4  -8  852.29   29.45
  16   4   8  867.12   30.26
 -16  -4  -7   82.93    6.08
  16   4   7   78.18    6.08
 -16  -4  -6   30.04    3.71
  16   4   6   24.85    4.75
 -16  -4  -5   29.60    4.67
  16   4   5   24.77    4.97
 -16  -4  -4  859.71   29.82
  16   4   4  884.93   30.78
 -16  -4  -3  402.78   15.50
  16   4   3  432.89   16.32
 -16  -4  -2   42.87    4.82
  16   4   2   48.66    5.12
 -16  -4  -1 1203.89   40.65
  16   4   1 1207.59   40.87
 -16  -4   0  664.70   23.66
  16   4   0  682.80   24.33
 -16  -4   1  103.11    6.31
  16   4  -1   94.43    6.45
 -16  -4   2   58.45    5.27
  16   4  -2   57.78    5.56
 -16  -4   3   23.88    4.45
  16   4  -3   24.70    4.67
 -16  -4   4  976.91   33.45
  16   4  -4  923.50   31.75
 -16  -4   5   94.58    6.16
  16   4  -5   99.32    6.16
 -16  -4   6  157.18    7.71
 -16  -4   6  161.70    7.94
 -16  -4   7  246.56   10.53
 -16  -4   7  247.90   10.46
 -16  -4   8  676.34   23.81
 -16  -4   8  707.64   25.07
 -16  -4   9   43.69    4.82
 -16  -4   9   38.28    4.90
 -16  -4  10  240.63   10.46
 -16  -4  10  244.63   10.53
 -16  -4  11  169.94    8.31
 -16  -4  11  170.53    8.31
 -16  -4  12  306.35   12.46
 -16  -4  12  295.96   12.02
 -16  -4  13  157.48    7.86
 -16  -4  13  154.36    7.79
 -16  -4  14  115.27    6.75
 -16  -4  14  118.76    6.60
 -16  -4  15  141.90    7.27
 -16  -4  15  143.16    7.42
 -16  -4  16   87.90    5.86
 -16  -4  16   86.49    5.79
 -16  -4  17   66.68    5.56
 -16  -4  17   72.25    5.41
 -16  -4  18  809.27   28.11
 -16  -4  18  810.75   27.96
 -16  -4  19    0.82    3.93
 -16  -4  19    3.63    3.71
 -16  -4  20   32.49    4.52
 -16  -4  20   36.79    4.30
 -16  -4  21   11.05    4.08
 -16  -4  21   16.02    3.78
 -16  -4  22  285.06   11.20
 -16  -4  22  279.27   11.13
 -17  -4 -16   42.50    4.38
  17   4  16   36.94    5.19
 -17  -4 -15  203.84    9.05
  17   4  15  203.02    9.20
 -17  -4 -14    5.93    4.08
  17   4  14    4.45    4.01
 -17  -4 -13  477.55   17.51
  17   4  13  463.97   17.21
 -17  -4 -12  140.12    7.20
  17   4  12  146.80    7.86
 -17  -4 -11  190.63    8.31
  17   4  11  166.08    8.46
 -17  -4 -10   18.77    4.15
  17   4  10   18.02    4.45
 -17  -4  -9  901.25   30.86
  17   4   9  932.40   32.04
 -17  -4  -8  367.03   14.09
  17   4   8  372.44   14.69
 -17  -4  -7    2.15    3.49
  17   4   7    0.67    4.30
 -17  -4  -6  750.67   26.33
  17   4   6  708.76   25.15
 -17  -4  -5  563.22   20.32
  17   4   5  582.43   21.14
 -17  -4  -4   59.27    4.82
  17   4   4   59.42    5.71
 -17  -4  -3   64.24    5.41
  17   4   3   56.89    5.56
 -17  -4  -2   70.39    5.64
  17   4   2   71.95    5.86
 -17  -4  -1 1216.50   41.09
  17   4   1 1239.49   41.98
 -17  -4   0  298.41   12.09
  17   4   0  329.42   13.20
 -17  -4   1  522.05   19.14
  17   4  -1  499.43   18.54
 -17  -4   2  526.43   19.21
  17   4  -2  509.89   18.77
 -17  -4   3  414.72   15.65
  17   4  -3  392.10   15.06
 -17  -4   4   -0.37    3.56
  17   4  -4   -1.85    3.93
 -17  -4   5  162.52    7.79
  17   4  -5  155.55    8.01
 -17  -4   6  192.78    8.75
 -17  -4   6  169.64    8.09
 -17  -4   7  924.98   31.82
 -17  -4   7  901.99   31.08
 -17  -4   8   54.07    5.04
 -17  -4   8   46.58    4.60
 -17  -4   9  344.55   13.50
 -17  -4   9  368.73   14.17
 -17  -4  10  525.69   19.14
 -17  -4  10  515.75   18.77
 -17  -4  11  226.76   10.01
 -17  -4  11  233.80   10.16
 -17  -4  12    0.96    3.93
 -17  -4  12    7.57    4.01
 -17  -4  13 1226.88   41.32
 -17  -4  13 1183.12   39.91
 -17  -4  14  537.19   19.51
 -17  -4  14  521.24   19.06
 -17  -4  15   23.44    4.38
 -17  -4  15   17.95    4.38
 -17  -4  16    6.90    3.93
 -17  -4  16    2.37    4.08
 -17  -4  17  153.47    7.49
 -17  -4  17  159.92    8.01
 -17  -4  18  250.35   10.38
 -17  -4  18  228.69    9.87
 -17  -4  19  393.14   14.84
 -17  -4  19  378.45   14.24
 -17  -4  20  116.98    6.38
 -17  -4  20  130.11    6.60
 -17  -4  21  248.34    9.79
 -17  -4  21  259.77   10.38
 -17  -4  22   21.29    4.15
 -17  -4  22   28.11    4.23
 -18  -4 -14  300.34   11.87
  18   4  14  313.10   12.09
 -18  -4 -13  289.36   11.65
  18   4  13  258.28   10.46
 -18  -4 -12  222.97    9.64
  18   4  12  231.88   10.01
 -18  -4 -11   22.55    4.30
  18   4  11   28.78    4.67
 -18  -4 -10  444.99   16.24
  18   4  10  456.93   16.99
 -18  -4  -9  508.18   18.32
  18   4   9  480.81   17.80
 -18  -4  -8   24.18    4.30
  18   4   8   22.62    4.82
 -18  -4  -7  118.46    6.68
  18   4   7  124.99    7.05
 -18  -4  -6 1039.21   35.16
  18   4   6 1027.35   35.01
 -18  -4  -5  302.49   12.02
  18   4   5  317.10   12.76
 -18  -4  -4  731.75   25.52
  18   4   4  788.50   27.67
 -18  -4  -3  154.06    7.86
  18   4   3  144.94    7.86
 -18  -4  -2  381.42   14.76
  18   4   2  366.36   14.32
 -18  -4  -1  294.85   12.02
  18   4   1  293.37   11.94
 -18  -4   0    4.01    3.49
  18   4   0   16.02    4.38
 -18  -4   1  226.31    9.64
  18   4  -1  220.45    9.79
 -18  -4   2  980.61   33.45
  18   4  -2 1050.34   35.68
 -18  -4   3  111.86    6.60
  18   4  -3  128.25    6.90
 -18  -4   4  233.06   10.09
  18   4  -4  213.63    9.35
 -18  -4   5  113.49    6.68
  18   4  -5  127.29    6.90
 -18  -4   6  761.79   26.56
 -18  -4   6  717.21   25.07
 -18  -4   7   16.69    4.08
 -18  -4   7   20.70    3.78
 -18  -4   8  414.20   15.58
 -18  -4   8  404.04   15.21
 -18  -4   9  223.42    9.79
 -18  -4   9  225.94   10.01
 -18  -4  10   99.54    6.16
 -18  -4  10   84.49    5.93
 -18  -4  11   30.12    4.45
 -18  -4  11   29.74    4.38
 -18  -4  12  230.91   10.01
 -18  -4  12  236.03   10.16
 -18  -4  13  634.06   22.40
 -18  -4  13  649.56   22.92
 -18  -4  14  103.33    6.08
 -18  -4  14  108.22    6.31
 -18  -4  15  128.77    6.75
 -18  -4  15  133.81    6.97
 -18  -4  16  599.20   21.29
 -18  -4  16  605.28   21.36
 -18  -4  17   45.69    4.82
 -18  -4  17   52.07    4.75
 -18  -4  18   -1.41    3.63
 -18  -4  18    3.19    3.86
 -18  -4  19   12.31    4.30
 -18  -4  19    3.49    3.71
 -18  -4  20  526.73   18.77
 -18  -4  20  529.03   18.69
 -19  -4 -11  585.48   20.62
  19   4  11  586.29   20.47
 -19  -4 -10  116.90    6.68
  19   4  10  102.59    6.16
 -19  -4  -9   -5.12    3.93
  19   4   9   -1.78    4.01
 -19  -4  -8   70.62    5.41
  19   4   8   53.70    5.19
 -19  -4  -7  328.45   12.68
  19   4   7  358.87   13.72
 -19  -4  -6  185.14    8.46
  19   4   6  176.69    8.38
 -19  -4  -5  129.36    6.68
  19   4   5  143.23    7.27
 -19  -4  -4   17.58    3.78
  19   4   4   11.42    4.38
 -19  -4  -3  539.63   19.36
  19   4   3  548.68   19.88
 -19  -4  -2   55.04    5.04
  19   4   2   59.42    5.34
 -19  -4  -1   33.90    4.52
  19   4   1   34.42    4.75
 -19  -4   0   55.48    5.04
  19   4   0   49.03    5.04
 -19  -4   1  428.30   16.10
  19   4  -1  412.57   15.58
 -19  -4   2  189.60    8.83
  19   4  -2  180.69    8.46
 -19  -4   3   37.61    4.60
  19   4  -3   32.79    4.30
 -19  -4   4  621.23   22.10
  19   4  -4  637.47   22.62
 -19  -4   5  490.83   18.02
  19   4  -5  474.51   17.58
 -19  -4   6   11.42    3.93
 -19  -4   6    4.23    3.86
 -19  -4   7  304.49   11.94
 -19  -4   7  292.85   11.79
 -19  -4   8  152.28    7.49
 -19  -4   8  143.53    7.27
 -19  -4   9  495.43   18.02
 -19  -4   9  468.94   17.36
 -19  -4  10  153.32    7.71
 -19  -4  10  150.43    7.34
 -19  -4  11  271.04   10.98
 -19  -4  11  287.43   11.65
 -19  -4  12  130.25    6.82
 -19  -4  12  146.42    7.49
 -19  -4  13  181.73    8.38
 -19  -4  13  168.90    8.09
 -19  -4  14   26.18    4.30
 -19  -4  14   31.97    4.45
 -19  -4  15  275.86   11.05
 -19  -4  15  270.67   10.83
 -19  -4  16  525.99   18.54
 -19  -4  16  584.96   20.55
 -19  -4  17   33.60    4.15
 -19  -4  17   28.41    4.15
 -19  -4  18  346.85   13.28
 -20  -4  -8  325.49   12.24
  20   4   8  326.60   12.54
 -20  -4  -7    4.67    2.67
  20   4   7    2.15    3.93
 -20  -4  -6    2.74    3.19
  20   4   6   -1.11    3.63
 -20  -4  -5    4.97    3.26
  20   4   5    2.00    3.93
 -20  -4  -4  373.63   14.02
  20   4   4  380.67   14.32
 -20  -4  -3  520.94   18.62
  20   4   3  555.58   19.95
 -20  -4  -2   27.74    4.23
  20   4   2   25.59    4.38
 -20  -4  -1  409.38   15.21
  20   4   1  471.54   17.21
 -20  -4   0  683.09   23.81
  20   4   0  683.39   23.74
 -20  -4   1  117.50    6.38
  20   4  -1  115.64    6.45
 -20  -4   2   36.27    4.15
  20   4  -2   38.94    4.52
 -20  -4   3   71.58    5.19
  20   4  -3   61.79    5.04
 -20  -4   4  386.09   14.46
  20   4  -4  421.92   15.50
 -20  -4   5   45.03    4.52
  20   4  -5   54.67    4.38
 -20  -4   6  202.28    9.05
 -20  -4   6  230.91    9.79
 -20  -4   7  281.57   11.13
 -20  -4   7  285.80   11.57
 -20  -4   8  273.27   10.83
 -20  -4   8  263.40   10.76
 -20  -4   9   -0.52    3.49
 -20  -4   9    5.64    3.63
 -20  -4  10  158.37    7.57
 -20  -4  10  142.79    6.97
 -20  -4  11  116.38    6.16
 -20  -4  11  120.02    6.31
 -20  -4  12  315.40   12.16
 -20  -4  12  314.95   12.02
 -20  -4  13   49.48    4.60
 -20  -4  13   45.32    4.38
 -20  -4  14  322.37   12.24
 -20  -4  14  340.32   12.83
 -20  -4  15  219.64    9.27
 -20  -4  15  223.35    9.49
 -21  -4  -4    4.90    3.19
  21   4   4   -0.07    3.78
 -21  -4  -3   72.47    4.82
  21   4   3   64.01    4.82
 -21  -4  -2    8.75    3.93
  21   4   2   14.84    3.86
 -21  -4  -1  513.97   18.25
  21   4   1  511.74   18.32
 -21  -4   0  160.07    7.49
  21   4   0  143.31    7.20
 -21  -4   1   71.43    5.04
  21   4  -1   81.15    5.27
 -21  -4   2  293.96   11.50
  21   4  -2  283.95   11.05
 -21  -4   3  133.74    6.75
  21   4  -3  133.74    6.68
 -21  -4   4    2.60    3.04
  21   4  -4    3.12    3.63
 -21  -4   5   29.89    3.93
 -21  -4   6  220.68    9.35
 -21  -4   6  226.91    9.27
 -21  -4   7  245.90   10.01
 -21  -4   7  231.88    9.42
 -21  -4   8   65.57    4.75
 -21  -4   8   74.77    5.12
 -21  -4   9  261.10   10.46
 -21  -4   9  250.57   10.09
 -21  -4  10  147.76    7.12
 -21  -4  10  143.23    7.05
 -21  -4  11  520.72   18.69
 -20   5   8   54.52    4.75
 -20   5   8   55.19    4.97
 -20   5   6  207.47    8.16
 -20   5   6  232.77    9.49
 -20   5   5   33.08    3.34
 -20   5   5   40.43    4.23
  20  -5  -4   -0.74    3.49
 -20   5   4    4.01    3.63
  20  -5  -3   36.72    4.45
 -20   5   3   29.00    3.78
  20  -5  -2  394.25   14.61
 -20   5   2  401.74   14.69
  20  -5  -1  109.19    6.23
 -20   5   1  114.31    6.23
  20  -5   0   16.62    4.52
 -20   5   0    3.41    3.86
 -20   5  -1  270.60   10.98
 -19   5  13  134.48    6.97
 -19   5  13  133.67    7.12
 -19   5  12   -1.19    3.78
 -19   5  12   -5.49    4.15
 -19   5  11  223.72    9.72
 -19   5  11  242.93   10.24
 -19   5  10  151.99    7.71
 -19   5  10  145.61    7.57
 -19   5   9  524.13   18.84
 -19   5   9  481.85   17.51
 -19   5   8   60.16    5.19
 -19   5   8   50.74    5.04
 -19   5   7  142.34    7.12
 -19   5   7  155.33    7.79
 -19   5   6  716.77   24.70
 -19   5   6  649.56   22.70
 -19   5   5   20.77    4.15
 -19   5   5   13.72    4.01
  19  -5  -4   81.74    5.64
 -19   5   4   94.13    5.79
  19  -5  -3   38.05    4.60
 -19   5   3   31.60    4.30
  19  -5  -2  297.15   11.87
 -19   5   2  310.06   11.94
  19  -5  -1    0.96    4.08
 -19   5   1    0.37    3.49
  19  -5   0   47.70    4.97
 -19   5   0   60.45    4.82
  19  -5   1  515.75   18.69
 -19   5  -1  508.33   18.10
  19  -5   2   71.95    5.64
 -19   5  -2   71.58    5.19
  19  -5   3    2.89    4.01
 -19   5  -3    8.01    4.01
  19  -5   4   95.02    6.38
 -19   5  -4   85.97    5.56
  19  -5   5  605.87   21.36
 -19   5  -5  572.64   19.95
  19  -5   6  214.67    9.42
 -19   5  -6  218.38    9.12
 -19   5  -7   13.06    4.45
 -18   5  16  116.23    6.53
 -18   5  16  126.32    6.82
 -18   5  15  178.99    8.31
 -18   5  15  181.29    8.68
 -18   5  14  445.73   16.47
 -18   5  14  468.35   16.99
 -18   5  13    5.12    3.93
 -18   5  13    1.41    3.86
 -18   5  12  279.42   11.27
 -18   5  12  293.44   11.65
 -18   5  11 1204.63   40.35
 -18   5  11 1181.63   39.61
 -18   5  10   40.35    4.75
 -18   5  10   38.57    4.45
 -18   5   9  210.74    9.35
 -18   5   9  221.27    9.35
 -18   5   8   73.88    5.56
 -18   5   8   69.95    5.12
 -18   5   7  349.00   13.50
 -18   5   7  356.49   13.50
 -18   5   6  109.56    6.38
 -18   5   6  119.57    6.31
 -18   5   5   10.61    3.49
 -18   5   5   17.36    4.15
  18  -5  -4  795.91   27.52
 -18   5   4  840.42   28.71
  18  -5  -3  486.15   17.65
 -18   5   3  506.70   18.17
  18  -5  -2    3.78    4.01
 -18   5   2    6.45    3.63
  18  -5  -1   48.66    5.04
 -18   5   1   53.26    4.67
  18  -5   0  267.70   11.05
 -18   5   0  257.69   10.68
  18  -5   1  250.05   10.46
 -18   5  -1  257.02   10.53
  18  -5   2    6.60    4.15
 -18   5  -2    3.41    3.86
  18  -5   3   29.67    4.52
 -18   5  -3   31.45    4.45
  18  -5   4  265.77   11.05
 -18   5  -4  250.72   10.38
  18  -5   5  521.24   18.99
 -18   5  -5  523.24   18.69
  18  -5   6   52.67    5.19
 -18   5  -6   42.87    4.82
  18  -5   7  149.17    7.71
 -18   5  -7  153.84    7.57
  18  -5   8  351.97   13.65
 -18   5  -8  371.62   14.09
  18  -5   9  240.11   10.24
 -18   5  -9  251.01   10.24
  18  -5  10  241.44   10.16
 -18   5 -10  244.34   10.01
 -17   5  18   21.36    4.75
 -17   5  18   18.40    4.23
 -17   5  17  242.19   10.16
 -17   5  17  242.71   10.24
 -17   5  16  291.81   11.87
 -17   5  16  285.58   11.50
 -17   5  15  233.29    9.94
 -17   5  15  218.38    9.49
 -17   5  14  327.42   12.76
 -17   5  14  330.75   12.83
 -17   5  13    0.30    4.08
 -17   5  13    5.27    4.01
 -17   5  12  214.15    9.27
 -17   5  12  200.94    8.83
 -17   5  11  136.34    6.97
 -17   5  11  121.43    6.68
 -17   5  10  475.10   17.36
 -17   5  10  516.42   18.62
 -17   5   9  700.45   24.40
 -17   5   9  637.10   22.40
 -17   5   8   92.42    5.71
 -17   5   8   88.86    5.64
 -17   5   7    7.34    3.49
 -17   5   7    4.82    3.71
 -17   5   6   34.79    4.15
 -17   5   6   33.90    4.08
 -17   5   5  365.32   13.80
 -17   5   5  365.76   13.72
  17  -5  -4  587.18   20.77
 -17   5   4  612.62   21.51
  17  -5  -3  274.97   11.20
 -17   5   3  266.81   10.68
  17  -5  -2  167.49    8.09
 -17   5   2  196.35    8.60
  17  -5  -1  716.32   25.00
 -17   5   1  760.31   26.26
  17  -5   0  380.30   14.39
 -17   5   0  405.67   15.13
  17  -5   1   67.43    5.34
 -17   5  -1   63.94    5.04
  17  -5   2  157.63    7.71
 -17   5  -2  176.54    8.16
  17  -5   3  510.26   18.54
 -17   5  -3  519.46   18.77
  17  -5   4  542.08   19.66
 -17   5  -4  525.69   19.06
  17  -5   5   11.79    4.38
 -17   5  -5   11.20    4.15
  17  -5   6   87.16    6.23
 -17   5  -6   93.61    6.08
  17  -5   7  199.76    9.27
 -17   5  -7  214.44    9.35
  17  -5   8  177.13    8.83
 -17   5  -8  196.27    9.05
  17  -5   9    9.49    5.04
 -17   5  -9   20.99    4.67
  17  -5  10  159.41    8.23
 -17   5 -10  168.38    8.38
  17  -5  11  179.58    8.75
 -17   5 -11  195.68    8.83
  17  -5  12    1.26    4.23
 -17   5 -12    3.19    4.08
  17  -5  13    3.93    3.93
 -17   5 -13   16.10    4.45
 -16   5  20  279.72   11.35
 -16   5  20  287.66   11.42
 -16   5  19   80.26    5.71
 -16   5  19   76.70    5.86
 -16   5  18   90.42    5.79
 -16   5  18   81.07    5.86
 -16   5  17  321.70   12.54
 -16   5  17  337.95   13.13
 -16   5  14  643.04   22.62
 -16   5  14  619.08   21.81
 -16   5  13  616.48   21.88
 -16   5  13  586.96   20.84
 -16   5  12  320.00   12.46
 -16   5  12  337.06   12.91
 -16   5  11  101.18    6.01
 -16   5  11   99.17    5.86
 -16   5  10  236.85    9.79
 -16   5  10  228.91    9.64
 -16   5   9  754.38   26.11
 -16   5   9  732.35   25.29
 -16   5   8 1898.92   62.61
 -16   5   8 1838.10   60.53
 -16   5   7  132.11    6.60
 -16   5   7  134.19    6.75
 -16   5   6  681.76   23.66
 -16   5   6  656.39   22.85
 -16   5   5  477.03   17.28
 -16   5   5  521.46   18.54
  16  -5  -4  198.79    8.68
 -16   5   4  200.05    8.60
  16  -5  -3    7.57    3.41
 -16   5   3   -1.34    3.41
  16  -5  -2  380.30   14.32
 -16   5   2  413.39   15.21
  16  -5  -1  508.78   18.32
 -16   5   1  468.72   16.99
  16  -5   0   73.58    5.41
 -16   5   0   83.82    5.41
  16  -5   1  167.64    8.01
 -16   5  -1  158.52    7.71
  16  -5   2  483.71   17.73
 -16   5  -2  530.29   19.06
  16  -5   3  342.40   13.35
 -16   5  -3  375.56   14.24
  16  -5   4   13.87    4.45
 -16   5  -4   13.72    3.86
  16  -5   5  500.69   18.32
 -16   5  -5  517.31   18.69
  16  -5   6  555.29   20.03
 -16   5  -6  613.14   21.73
  16  -5   7   74.62    5.71
 -16   5  -7   90.87    5.93
  16  -5   8    0.74    4.23
 -16   5  -8    2.45    4.38
  16  -5   9  807.78   28.11
 -16   5  -9  784.79   27.22
  16  -5  10  630.72   22.55
 -16   5 -10  618.71   21.96
  16  -5  11  348.93   13.80
 -16   5 -11  391.50   14.84
  16  -5  12  172.98    8.60
 -16   5 -12  180.17    8.60
  16  -5  13 1119.32   37.76
 -16   5 -13 1065.18   35.68
  16  -5  14  121.72    7.05
 -16   5 -14  131.44    6.97
  16  -5  15   25.15    4.30
 -16   5 -15   35.90    4.23
 -15   5  22   57.19    5.56
 -15   5  22   59.42    5.41
 -15   5  20  130.77    7.12
 -15   5  20  142.94    7.49
 -15   5  19   32.19    4.52
 -15   5  19   42.35    4.97
 -15   5  18  272.82   11.05
 -15   5  18  272.08   11.05
 -15   5  17  375.78   14.32
 -15   5  17  383.20   14.39
 -15   5  15  138.49    7.20
 -15   5  15  149.99    7.42
 -15   5  14  822.62   28.34
 -15   5  14  794.43   27.30
 -15   5  13  219.64    9.27
 -15   5  13  210.07    8.98
 -15   5  12  113.94    6.31
 -15   5  12  116.61    6.23
 -15   5  11  348.85   13.20
 -15   5  11  329.34   12.61
 -15   5  10  211.03    8.75
 -15   5  10  213.33    9.05
 -15   5   9    7.05    3.49
 -15   5   9    3.56    3.04
 -15   5   8   39.31    3.86
 -15   5   8   29.23    3.86
 -15   5   7  565.52   19.88
 -15   5   7  614.18   21.44
 -15   5   6  558.25   19.66
 -15   5   6  588.15   20.62
 -15   5   5  184.63    8.01
 -15   5   5  183.74    7.94
  15  -5  -4    1.19    3.34
 -15   5   4    4.60    3.19
  15  -5  -3  361.31   13.65
 -15   5   3  352.19   13.28
  15  -5  -2  377.26   14.17
 -15   5   2  353.30   13.20
  15  -5  -1  167.56    7.71
 -15   5   1  152.43    7.27
  15  -5   0   46.88    4.60
 -15   5   0   32.27    4.01
  15  -5   1  341.21   13.06
 -15   5  -1  366.28   13.87
  15  -5   2  297.82   11.79
 -15   5  -2  312.51   12.16
  15  -5   3   15.13    4.08
 -15   5  -3   13.13    3.71
  15  -5   4  431.71   16.17
 -15   5  -4  457.08   16.84
  15  -5   5  734.79   25.59
 -15   5  -5  756.60   26.26
  15  -5   6   27.07    4.30
 -15   5  -6   35.01    4.60
  15  -5   7  339.21   13.43
 -15   5  -7  376.08   14.39
  15  -5   8   85.67    6.23
 -15   5  -8   83.00    6.16
  15  -5   9   45.77    5.56
 -15   5  -9   59.49    5.56
  15  -5  10    5.86    4.60
 -15   5 -10   12.46    4.23
  15  -5  11  101.10    6.68
 -15   5 -11  103.11    6.45
  15  -5  12   15.21    4.97
 -15   5 -12    9.57    4.38
  15  -5  13  950.94   32.49
 -15   5 -13  991.00   33.45
  15  -5  14    0.45    4.52
 -15   5 -14    5.19    4.15
  15  -5  15  424.66   16.02
 -15   5 -15  403.82   14.84
  15  -5  16  236.10   10.24
 -15   5 -16  248.57   10.31
  15  -5  17  246.86   10.68
 -15   5 -17  256.87   10.24
 -14   5  23  212.29    9.27
 -14   5  23  189.00    8.68
 -14   5  22  265.48   11.13
 -14   5  22  233.95    9.94
 -14   5  21   88.49    5.93
 -14   5  21   92.50    6.16
 -14   5  20   36.79    4.60
 -14   5  20   43.24    4.90
 -14   5  19  582.21   20.70
 -14   5  19  605.21   21.29
 -14   5  18  624.27   22.03
 -14   5  18  630.43   22.25
 -14   5  17   16.76    3.93
 -14   5  17   18.25    4.38
 -14   5  16  248.27   10.16
 -14   5  16  265.70   10.83
 -14   5  15  412.42   15.21
 -14   5  15  414.35   15.21
 -14   5  13   20.03    3.71
 -14   5  13    9.49    3.41
 -14   5  12  224.31    9.35
 -14   5  12  220.45    9.05
 -14   5  11  889.38   30.26
 -14   5  11  836.71   28.41
 -14   5  10   50.44    4.52
 -14   5  10   50.07    3.93
 -14   5   9   86.93    5.04
 -14   5   9   90.94    5.34
 -14   5   8  232.69    9.42
 -14   5   8  254.65   10.16
 -14   5   6  173.57    7.71
 -14   5   6  176.32    7.64
 -14   5   5    1.85    2.74
 -14   5   5   -2.45    2.97
  14  -5  -4  978.39   33.01
 -14   5   4  910.89   30.71
  14  -5  -3 1057.02   35.53
 -14   5   3 1104.49   36.94
  14  -5  -2    2.08    3.12
 -14   5   2    2.97    2.97
  14  -5  -1  103.11    5.71
 -14   5   1  108.52    5.93
  14  -5   0  215.48    9.12
 -14   5   0  245.82   10.09
  14  -5   1  468.87   16.99
 -14   5  -1  474.88   17.28
  14  -5   2    4.01    3.71
 -14   5  -2    0.37    3.34
  14  -5   3  388.76   14.69
 -14   5  -3  406.34   15.13
  14  -5   4  271.56   10.98
 -14   5  -4  304.35   12.02
  14  -5   5   61.49    5.27
 -14   5  -5   51.26    4.60
  14  -5   6   21.14    4.52
 -14   5  -6   14.61    3.78
  14  -5   7  463.23   17.21
 -14   5  -7  445.21   16.47
  14  -5   8 1355.95   45.40
 -14   5  -8 1425.67   47.55
  14  -5   9  141.01    7.57
 -14   5  -9  132.33    7.20
  14  -5  10   43.91    5.04
 -14   5 -10   39.83    4.90
  14  -5  11  614.92   22.03
 -14   5 -11  610.62   21.59
  14  -5  12   74.62    6.08
 -14   5 -12   74.92    5.71
  14  -5  13  209.47    9.79
 -14   5 -13  189.08    8.38
  14  -5  14   48.96    5.49
 -14   5 -14   48.96    5.12
  14  -5  15  380.08   14.61
 -14   5 -15  346.03   13.06
  14  -5  16  230.24   10.24
 -14   5 -16  243.08   10.31
  14  -5  17  129.81    7.57
 -14   5 -17  130.70    6.75
  14  -5  18  463.08   16.99
 -14   5 -18  492.46   17.65
 -13   5  24  159.78    8.16
 -13   5  24  151.91    7.79
 -13   5  23  555.21   19.88
 -13   5  23  541.93   19.51
 -13   5  22  155.25    7.86
 -13   5  22  166.67    8.31
 -13   5  21   30.71    4.75
 -13   5  21   37.01    4.67
 -13   5  20  606.62   21.44
 -13   5  20  552.91   19.73
 -13   5  19  417.76   15.43
 -13   5  19  391.95   14.84
 -13   5  18    9.57    3.78
 -13   5  18    2.60    3.56
 -13   5  17  299.23   11.79
 -13   5  17  292.26   11.65
 -13   5  16  942.78   32.04
 -13   5  16 1013.25   34.20
 -13   5  15  337.87   12.83
 -13   5  15  369.70   13.80
 -13   5  14    1.11    3.41
 -13   5  14    5.93    3.04
 -13   5  13  110.89    6.01
 -13   5  13  123.58    6.23
 -13   5  12  866.38   29.37
 -13   5  12  936.85   31.67
 -13   5  11  647.04   22.33
 -13   5  11  649.71   22.48
 -13   5  10   54.37    4.30
 -13   5  10   64.31    4.30
 -13   5   9  748.44   25.52
 -13   5   9  738.21   25.22
 -13   5   8  175.28    7.57
 -13   5   8  168.23    7.49
 -13   5   7   74.40    4.60
 -13   5   7   82.41    4.90
 -13   5   6  179.88    7.79
 -13   5   6  168.60    7.34
 -13   5   5   13.87    2.97
 -13   5   5    6.53    2.89
  13  -5  -4  241.67    9.49
 -13   5   4  242.93    9.79
  13  -5  -3 1091.88   36.57
 -13   5   3 1113.39   37.31
  13  -5  -2   12.76    3.34
 -13   5   2   19.14    3.26
  13  -5  -1  404.11   14.76
 -13   5   1  421.84   15.43
  13  -5   0  276.90   10.76
 -13   5   0  278.98   10.98
  13  -5   1   76.85    5.12
 -13   5  -1   70.39    4.67
  13  -5   2  513.15   18.47
 -13   5  -2  524.72   18.69
  13  -5   3  440.61   16.10
 -13   5  -3  448.47   16.39
  13  -5   4   54.52    4.75
 -13   5  -4   53.56    4.75
  13  -5   5  224.09    9.57
 -13   5  -5  238.40   10.09
  13  -5   6  161.85    7.94
 -13   5  -6  153.10    7.71
  13  -5   7  241.00   10.31
 -13   5  -7  266.22   11.20
  13  -5   8  171.94    8.46
 -13   5  -8  156.44    7.86
  13  -5   9  156.36    8.01
 -13   5  -9  156.81    7.71
  13  -5  10  456.85   17.13
 -13   5 -10  434.30   16.24
  13  -5  11  189.45    9.12
 -13   5 -11  166.30    8.01
  13  -5  12   28.19    5.12
 -13   5 -12   23.44    3.93
  13  -5  13  397.14   15.35
 -13   5 -13  411.16   15.50
  13  -5  14   43.32    5.41
 -13   5 -14   48.88    4.97
  13  -5  15  217.41   10.01
 -13   5 -15  217.78    9.79
  13  -5  16   40.65    5.34
 -13   5 -16   41.17    4.38
  13  -5  17  140.79    7.71
 -13   5 -17  141.45    7.34
  13  -5  18  265.03   11.20
 -13   5 -18  276.53   11.27
  13  -5  19   78.92    6.16
 -13   5 -19   66.46    4.52
  13  -5  20    6.01    4.97
 -13   5 -20   10.38    4.52
 -12   5  25  294.78   11.87
 -12   5  25  274.90   11.13
 -12   5  22    5.71    4.38
 -12   5  22   10.38    4.08
 -12   5  20  397.22   14.91
 -12   5  20  387.28   14.61
 -12   5  19   12.46    4.01
 -12   5  19    7.79    3.71
 -12   5  18    1.04    3.63
 -12   5  18   -1.19    3.41
 -12   5  17  398.33   14.76
 -12   5  17  376.45   14.09
 -12   5  15   15.65    4.01
 -12   5  15   12.39    3.41
 -12   5  14  549.20   19.43
 -12   5  14  523.24   18.47
 -12   5  13  357.90   13.20
 -12   5  13  328.08   12.24
 -12   5  12   75.29    4.38
 -12   5  12   81.30    4.75
 -12   5  11  113.42    5.71
 -12   5  11  117.42    5.64
 -12   5  10   92.94    5.12
 -12   5  10  100.06    5.19
 -12   5   9  385.79   14.02
 -12   5   9  378.08   13.65
 -12   5   8 1209.08   40.13
 -12   5   8 1269.16   42.06
 -12   5   7   43.69    3.78
 -12   5   7   48.66    3.71
 -12   5   6 1261.00   41.84
 -12   5   6 1212.04   40.20
 -12   5   5  195.46    8.09
 -12   5   5  185.96    7.49
 -12   5   4    1.85    2.45
 -12   5   4    4.67    2.45
  12  -5  -3  159.63    6.97
 -12   5   3  138.56    6.16
  12  -5  -2  400.55   14.46
 -12   5   2  400.85   14.24
  12  -5  -1  156.96    7.12
 -12   5   1  160.52    6.97
  12  -5   0   11.35    3.26
 -12   5   0    9.87    2.74
  12  -5   1  270.89   10.68
 -12   5  -1  266.22   10.46
  12  -5   2  311.84   12.02
 -12   5  -2  297.45   11.35
  12  -5   3  223.42    9.35
 -12   5  -3  232.84    9.49
  12  -5   4   15.21    3.78
 -12   5  -4    6.97    3.12
  12  -5   5  607.95   21.51
 -12   5  -5  589.70   20.62
  12  -5   6  601.79   21.29
 -12   5  -6  656.17   22.92
  12  -5   7   82.93    5.71
 -12   5  -7   84.34    5.49
  12  -5   8   63.05    5.34
 -12   5  -8   63.72    4.90
  12  -5   9  255.98   10.76
 -12   5  -9  268.52   10.76
  12  -5  10  514.86   18.84
 -12   5 -10  531.48   19.14
  12  -5  11   18.25    4.60
 -12   5 -11   21.29    3.86
  12  -5  12  127.44    7.57
 -12   5 -12  122.32    6.97
  12  -5  13  322.15   13.13
 -12   5 -13  304.12   12.09
  12  -5  14  356.49   14.17
 -12   5 -14  356.27   13.87
  12  -5  15   25.22    5.12
 -12   5 -15   33.01    4.67
  12  -5  16  167.71    8.46
 -12   5 -16  157.18    8.01
  12  -5  17  350.56   13.95
 -12   5 -17  339.58   13.28
  12  -5  18  501.36   18.47
 -12   5 -18  484.45   17.43
  12  -5  19   23.74    4.60
 -12   5 -19   23.07    4.60
  12  -5  20  432.00   16.17
 -12   5 -20  446.17   16.39
  12  -5  21  499.13   18.10
 -12   5 -21  480.89   17.21
 -11   5  26  149.76    7.64
 -11   5  26  141.08    7.42
 -11   5  25  726.49   25.29
 -11   5  25  742.51   25.74
 -11   5  24  354.42   13.72
 -11   5  24  349.96   13.57
 -11   5  23   86.12    5.93
 -11   5  23  103.18    6.68
 -11   5  22  320.52   12.61
 -11   5  22  349.00   13.43
 -11   5  21  383.42   14.54
 -11   5  21  375.33   14.24
 -11   5  20   37.46    4.38
 -11   5  20   35.16    4.30
 -11   5  19   -0.96    3.26
 -11   5  19   -0.22    3.41
 -11   5  18   40.57    4.38
 -11   5  18   37.24    3.93
 -11   5  17  209.40    9.05
 -11   5  17  207.18    8.68
 -11   5  16  247.53   10.16
 -11   5  16  234.32    9.57
 -11   5  15    2.97    3.19
 -11   5  15    1.26    3.04
 -11   5  14  288.03   10.90
 -11   5  14  281.43   10.68
 -11   5  13  432.89   15.35
 -11   5  13  406.27   14.61
 -11   5  12  246.12    9.64
 -11   5  12  256.65   10.01
 -11   5  11  183.14    7.64
 -11   5  11  180.40    7.71
 -11   5  10  477.40   16.76
 -11   5  10  429.78   15.28
 -11   5   9  446.47   15.73
 -11   5   9  415.91   14.76
 -11   5   8  210.07    8.38
 -11   5   8  232.54    8.98
 -11   5   7  336.54   12.31
 -11   5   7  332.46   11.94
 -11   5   6  781.08   26.41
 -11   5   6  707.05   23.81
 -11   5   5    7.42    2.74
 -11   5   5    7.05    2.67
 -11   5   4  164.52    6.90
 -11   5   4  169.05    7.05
  11  -5  -3  667.66   22.77
 -11   5   3  659.65   22.48
  11  -5  -2  307.17   11.42
 -11   5   2  323.48   11.94
  11  -5  -1    4.23    2.82
 -11   5   1   -0.15    2.67
  11  -5   0   99.47    5.27
 -11   5   0  108.52    5.71
  11  -5   1  454.11   16.24
 -11   5  -1  438.53   15.87
  11  -5   2  344.33   12.91
 -11   5  -2  353.97   13.35
  11  -5   3   14.84    3.49
 -11   5  -3    7.64    3.41
  11  -5   4  249.46   10.16
 -11   5  -4  274.23   11.05
  11  -5   5 1159.38   38.94
 -11   5  -5 1126.00   38.05
  11  -5   6  267.18   10.90
 -11   5  -6  277.49   11.20
  11  -5   7  115.42    6.68
 -11   5  -7  126.62    6.68
  11  -5   8  666.40   23.51
 -11   5  -8  687.69   24.18
  11  -5   9  480.07   17.65
 -11   5  -9  488.60   17.73
  11  -5  10   59.42    5.34
 -11   5 -10   55.19    4.82
  11  -5  11    8.01    4.23
 -11   5 -11    5.71    3.71
  11  -5  12  434.23   16.32
 -11   5 -12  475.32   17.36
  11  -5  13  408.19   15.65
 -11   5 -13  420.28   15.65
  11  -5  14    0.37    4.60
 -11   5 -14    6.23    4.15
  11  -5  15  327.04   13.35
 -11   5 -15  322.00   12.83
  11  -5  16  506.92   18.77
 -11   5 -16  519.31   18.92
  11  -5  17    8.09    4.67
 -11   5 -17   11.57    4.75
  11  -5  18   -1.19    4.67
 -11   5 -18   -3.34    4.23
  11  -5  19   81.97    6.31
 -11   5 -19   89.01    5.79
  11  -5  20  406.93   15.50
 -11   5 -20  394.32   14.69
  11  -5  21  394.69   14.98
 -11   5 -21  376.67   14.24
  11  -5  22   45.92    5.34
 -11   5 -22   49.48    5.12
 -10   5  27   48.81    5.93
 -10   5  27   45.03    5.93
 -10   5  26  287.73   11.65
 -10   5  26  273.64   11.42
 -10   5  25  141.08    7.42
 -10   5  25  134.41    7.42
 -10   5  24    2.52    4.30
 -10   5  24   -5.86    4.30
 -10   5  23  272.15   11.13
 -10   5  23  284.39   11.50
 -10   5  22  642.52   22.62
 -10   5  22  707.20   24.70
 -10   5  20    5.19    3.78
 -10   5  20   -2.74    3.49
 -10   5  19  166.45    7.79
 -10   5  19  159.78    7.20
 -10   5  18  450.77   16.47
 -10   5  18  405.23   14.76
 -10   5  17  118.98    6.23
 -10   5  17  121.20    6.01
 -10   5  16  359.31   13.28
 -10   5  16  385.05   14.09
 -10   5  15  129.22    6.01
 -10   5  15  113.49    5.71
 -10   5  14  101.77    5.27
 -10   5  14   91.46    4.97
 -10   5  13  538.52   18.62
 -10   5  13  532.22   18.62
 -10   5  12 1151.22   38.13
 -10   5  12 1070.37   35.68
 -10   5  11 1206.11   39.91
 -10   5  11 1180.89   38.94
 -10   5  10  361.91   12.76
 -10   5  10  332.53   12.02
 -10   5   9  152.51    6.31
 -10   5   9  157.18    6.60
 -10   5   8  776.63   26.11
 -10   5   8  727.75   24.63
 -10   5   7  571.98   19.66
 -10   5   7  565.67   19.58
 -10   5   6  613.74   20.99
 -10   5   6  565.60   19.43
 -10   5   5  146.57    6.38
 -10   5   5  142.72    6.16
 -10   5   4 1206.85   39.98
 -10   5   4 1110.42   36.72
  10  -5  -3  624.71   21.36
 -10   5   3  673.60   22.92
  10  -5  -2  106.07    5.19
 -10   5   2  104.00    5.12
  10  -5  -1  136.63    6.08
 -10   5   1  158.74    6.75
  10  -5   0  664.92   22.77
 -10   5   0  671.08   22.85
  10  -5   1  827.07   28.04
 -10   5  -1  818.91   27.59
  10  -5   2    3.41    2.97
 -10   5  -2    8.23    3.04
  10  -5   3  373.63   13.95
 -10   5  -3  380.30   14.17
  10  -5   4  416.80   15.28
 -10   5  -4  426.37   15.65
  10  -5   5  227.35    9.64
 -10   5  -5  216.15    9.12
  10  -5   6    0.82    3.56
 -10   5  -6    1.41    3.19
  10  -5   7  266.37   11.05
 -10   5  -7  278.24   11.42
  10  -5   8 1947.13   64.16
 -10   5  -8 1907.08   63.05
  10  -5   9  401.07   15.28
 -10   5  -9  399.74   15.06
  10  -5  10  475.40   17.51
 -10   5 -10  446.69   16.62
  10  -5  11  243.30   10.24
 -10   5 -11  237.44   10.24
  10  -5  12   81.22    6.08
 -10   5 -12   71.14    5.34
  10  -5  13  240.93   10.61
 -10   5 -13  226.76    9.79
  10  -5  14    4.52    4.67
 -10   5 -14   15.80    4.38
  10  -5  15  713.36   25.15
 -10   5 -15  667.37   23.29
  10  -5  16  620.78   22.25
 -10   5 -16  600.31   21.36
  10  -5  17    3.56    4.52
 -10   5 -17   -1.56    4.38
  10  -5  18 1075.56   36.49
 -10   5 -18 1041.44   35.60
  10  -5  19  420.73   16.10
 -10   5 -19  406.71   15.35
  10  -5  20  236.47   10.38
 -10   5 -20  232.25    9.79
  10  -5  21   39.54    5.49
 -10   5 -21   53.04    4.67
  10  -5  22  371.33   14.24
 -10   5 -22  361.83   13.80
  10  -5  23  212.37    9.27
 -10   5 -23  192.04    8.90
  -9   5  27  520.79   18.84
  -9   5  27  519.98   18.84
  -9   5  26   10.01    4.90
  -9   5  26   11.57    4.38
  -9   5  25   -5.12    3.93
  -9   5  25   -4.30    4.38
  -9   5  24   36.20    4.82
  -9   5  24   33.97    4.90
  -9   5  23  581.32   20.62
  -9   5  23  583.25   20.84
  -9   5  22   81.22    5.64
  -9   5  22   88.94    5.93
  -9   5  21    4.97    3.63
  -9   5  21   -3.56    3.63
  -9   5  20   80.41    5.34
  -9   5  20   91.39    5.79
  -9   5  18  185.44    8.31
  -9   5  18  159.92    7.20
  -9   5  17  115.49    5.93
  -9   5  17  116.31    5.79
  -9   5  16  403.89   14.61
  -9   5  16  442.02   15.58
  -9   5  15   96.13    5.27
  -9   5  15   90.87    4.90
  -9   5  14   73.51    4.23
  -9   5  14   82.11    4.82
  -9   5  13  329.12   11.94
  -9   5  13  346.78   12.39
  -9   5  12  246.27    9.27
  -9   5  12  220.68    8.31
  -9   5  11  942.78   31.38
  -9   5  11  907.18   30.19
  -9   5  10  229.80    8.60
  -9   5  10  247.30    9.35
  -9   5   9  786.27   26.26
  -9   5   9  792.95   26.48
  -9   5   8  674.34   22.62
  -9   5   8  645.78   21.73
  -9   5   7    4.01    2.08
  -9   5   7    5.64    2.00
  -9   5   6  815.20   27.15
  -9   5   6  841.90   27.89
  -9   5   5  125.51    5.12
  -9   5   5  126.25    5.19
  -9   5   4  489.64   16.69
  -9   5   4  486.67   16.54
  -9   5   3  191.60    7.34
  -9   5   3  188.85    7.12
   9  -5  -2   -3.12    2.30
  -9   5   2   -0.15    2.00
   9  -5  -1 1653.40   54.07
  -9   5   1 1725.35   56.30
   9  -5   0 1140.09   37.83
  -9   5   0 1206.85   39.83
   9  -5   1   22.92    3.19
  -9   5  -1   32.34    3.19
   9  -5   2  340.03   12.54
  -9   5  -2  339.21   12.24
   9  -5   3 1047.37   35.09
  -9   5  -3 1118.58   37.09
   9  -5   4  237.96    9.57
  -9   5  -4  244.86    9.42
   9  -5   5   32.34    4.15
  -9   5  -5   29.89    3.49
   9  -5   6  229.13    9.64
  -9   5  -6  248.71    9.94
   9  -5   7   45.47    4.75
  -9   5  -7   40.28    4.01
   9  -5   8  323.85   12.76
  -9   5  -8  321.93   12.54
   9  -5   9  112.67    6.75
  -9   5  -9  119.13    6.53
   9  -5  10 2341.01   76.92
  -9   5 -10 2182.27   71.73
   9  -5  11  186.78    8.75
  -9   5 -11  182.77    8.68
   9  -5  12    3.34    4.15
  -9   5 -12    2.60    4.08
   9  -5  13 2126.64   70.02
  -9   5 -13 2078.43   68.54
   9  -5  14  797.40   27.74
  -9   5 -14  775.15   27.07
   9  -5  15  160.89    8.23
  -9   5 -15  161.70    8.01
   9  -5  16   62.23    5.49
  -9   5 -16   43.32    4.90
   9  -5  17  357.98   14.17
  -9   5 -17  342.03   13.43
   9  -5  18  272.90   11.72
  -9   5 -18  271.78   11.35
   9  -5  19  258.95   11.13
  -9   5 -19  270.97   11.35
   9  -5  20    0.59    4.82
  -9   5 -20    4.15    4.08
   9  -5  21  321.18   12.91
  -9   5 -21  321.18   12.54
   9  -5  22  255.54   10.90
  -9   5 -22  256.73   10.68
   9  -5  23   66.61    6.01
  -9   5 -23   71.06    5.27
   9  -5  24   -2.82    4.67
  -9   5 -24    3.49    4.23
  -8   5  28  306.20   12.31
  -8   5  28  322.82   13.13
  -8   5  27  148.13    7.86
  -8   5  27  137.82    7.64
  -8   5  26   -5.64    4.15
  -8   5  26   -3.04    4.67
  -8   5  25  152.73    7.94
  -8   5  25  157.25    7.79
  -8   5  24  165.34    8.01
  -8   5  24  173.05    8.46
  -8   5  23  146.94    7.64
  -8   5  23  130.40    7.05
  -8   5  22    1.11    3.63
  -8   5  22    6.01    3.86
  -8   5  21  130.11    6.60
  -8   5  21  119.87    6.53
  -8   5  20  402.93   15.06
  -8   5  20  366.36   13.57
  -8   5  19  264.81   10.68
  -8   5  19  241.67    9.72
  -8   5  18    5.56    3.19
  -8   5  18   11.05    3.34
  -8   5  16  851.55   28.71
  -8   5  16  907.92   30.49
  -8   5  15   29.15    3.34
  -8   5  15   25.37    3.34
  -8   5  14  433.12   15.21
  -8   5  14  448.17   15.58
  -8   5  13  787.76   26.41
  -8   5  13  756.60   25.37
  -8   5  12   34.79    2.89
  -8   5  12   26.56    2.89
  -8   5  11  205.91    7.64
  -8   5  11  195.75    7.49
  -8   5  10   24.77    2.37
  -8   5  10   29.30    2.52
  -8   5   9  598.01   20.10
  -8   5   9  639.33   21.44
  -8   5   8  485.19   16.39
  -8   5   8  495.20   16.69
  -8   5   7   18.62    1.93
  -8   5   7   21.59    1.85
  -8   5   6 1529.52   50.44
  -8   5   6 1585.15   52.07
  -8   5   5  189.60    6.97
  -8   5   5  186.48    6.60
  -8   5   4    7.79    1.48
  -8   5   4    6.97    1.78
  -8   5   3    7.86    1.85
  -8   5   3    7.64    1.63
  -8   5   2 1188.31   39.02
  -8   5   2 1232.07   40.43
   8  -5  -1  825.59   27.45
  -8   5   1  806.30   26.78
   8  -5   0    9.05    2.30
  -8   5   0    8.01    2.15
   8  -5   1  428.22   14.98
  -8   5  -1  400.63   13.87
   8  -5   2 1270.64   41.98
  -8   5  -2 1275.09   41.91
   8  -5   3  596.75   20.62
  -8   5  -3  547.20   18.77
   8  -5   4   99.25    5.41
  -8   5  -4  105.55    5.12
   8  -5   5  183.59    8.09
  -8   5  -5  188.63    7.64
   8  -5   6 1474.63   48.88
  -8   5  -6 1448.67   47.70
   8  -5   7  109.71    6.23
  -8   5  -7  103.25    5.56
   8  -5   8  192.49    8.75
  -8   5  -8  157.77    7.05
   8  -5   9  108.30    6.31
  -8   5  -9  118.98    6.31
   8  -5  10  807.78   28.04
  -8   5 -10  846.35   29.15
   8  -5  11  394.17   15.13
  -8   5 -11  412.05   15.28
   8  -5  12   13.87    4.45
  -8   5 -12    1.48    3.78
   8  -5  13  111.71    6.75
  -8   5 -13  110.75    6.60
   8  -5  14  584.14   21.07
  -8   5 -14  589.78   21.14
   8  -5  15    2.37    4.38
  -8   5 -15    5.27    4.23
   8  -5  16    4.75    4.52
  -8   5 -16   12.91    4.30
   8  -5  17  468.94   17.58
  -8   5 -17  451.59   16.84
   8  -5  18  324.15   13.06
  -8   5 -18  333.35   13.13
   8  -5  19   -0.52    4.60
  -8   5 -19    6.01    3.63
   8  -5  20  492.75   18.17
  -8   5 -20  451.51   16.69
   8  -5  21  536.89   19.73
  -8   5 -21  544.16   19.36
   8  -5  22   80.78    6.45
  -8   5 -22   79.22    5.41
   8  -5  23   27.07    5.19
  -8   5 -23   27.52    4.60
   8  -5  24  175.72    8.68
  -8   5 -24  175.21    8.16
   8  -5  25  375.85   14.39
  -8   5 -25  383.86   14.17
  -7   5  28   56.60    5.34
  -7   5  28   53.18    6.16
  -7   5  27    0.89    4.38
  -7   5  27    9.27    4.90
  -7   5  26   91.98    6.23
  -7   5  26   91.01    6.38
  -7   5  25  580.13   20.77
  -7   5  25  619.67   21.96
  -7   5  24  182.55    8.46
  -7   5  24  162.08    8.31
  -7   5  23  133.52    6.90
  -7   5  23  129.81    7.12
  -7   5  20  222.38    9.35
  -7   5  20  214.30    8.98
  -7   5  19   88.57    5.34
  -7   5  19   75.44    4.97
  -7   5  18  688.28   23.59
  -7   5  18  725.97   24.77
  -7   5  17  202.28    8.31
  -7   5  17  188.48    7.86
  -7   5  16   27.07    3.19
  -7   5  16   25.74    3.49
  -7   5  15  215.63    8.46
  -7   5  15  201.91    7.86
  -7   5  14  669.67   22.70
  -7   5  14  642.89   21.73
  -7   5  13 1215.01   40.06
  -7   5  13 1266.19   41.76
  -7   5  12   43.47    2.89
  -7   5  12   46.14    2.97
  -7   5  11 2313.57   75.51
  -7   5  11 2290.57   74.77
  -7   5  10  838.20   27.82
  -7   5  10  831.52   27.67
   7  -5  -1   -0.15    1.63
  -7   5   1    2.37    1.41
   7  -5   0  274.60    9.72
  -7   5   0  274.75    9.79
   7  -5   1 1628.92   53.18
  -7   5  -1 1624.47   53.18
   7  -5   2  436.31   15.21
  -7   5  -2  451.07   15.65
   7  -5   3    1.19    2.52
  -7   5  -3    4.38    2.37
   7  -5   4  201.32    8.31
  -7   5  -4  197.53    8.01
   7  -5   5  993.22   33.31
  -7   5  -5  917.56   30.78
   7  -5   6  536.30   18.92
  -7   5  -6  505.74   17.73
   7  -5   7  129.88    6.60
  -7   5  -7  137.30    6.31
   7  -5   8 1518.39   50.44
  -7   5  -8 1505.78   49.77
   7  -5   9  565.45   20.25
  -7   5  -9  577.17   20.25
   7  -5  10   14.84    4.45
  -7   5 -10    6.31    3.26
   7  -5  11   10.09    4.30
  -7   5 -11    4.30    3.34
   7  -5  12 1112.65   37.76
  -7   5 -12 1045.89   35.16
   7  -5  13  723.30   25.44
  -7   5 -13  729.23   25.29
   7  -5  14  130.18    7.05
  -7   5 -14  142.27    7.34
   7  -5  15  528.58   19.21
  -7   5 -15  519.46   18.92
   7  -5  16 1130.45   38.35
  -7   5 -16 1180.89   40.06
   7  -5  17   97.76    6.68
  -7   5 -17  101.18    6.60
   7  -5  18   -3.86    3.71
  -7   5 -18    0.30    4.30
   7  -5  19  160.59    8.60
  -7   5 -19  146.80    7.79
   7  -5  20  407.90   15.87
  -7   5 -20  382.97   14.54
   7  -5  21  244.04   10.68
  -7   5 -21  230.69    9.87
   7  -5  22    4.23    3.93
  -7   5 -22   -1.41    3.56
   7  -5  23  305.98   12.16
  -7   5 -23  326.67   12.91
   7  -5  24  515.90   18.62
  -7   5 -24  494.39   17.80
   7  -5  25  126.40    7.34
  -7   5 -25  129.07    6.60
   7  -5  26  124.99    7.79
  -7   5 -26  119.72    6.38
  -6   5  28   27.30    5.56
  -6   5  28   23.44    4.67
  -6   5  27   87.97    6.31
  -6   5  27   96.36    6.38
  -6   5  26  198.35    9.12
  -6   5  26  198.35    9.05
  -6   5  25   67.13    5.49
  -6   5  25   55.78    5.49
  -6   5  24    2.00    4.15
  -6   5  24    0.59    4.15
  -6   5  23  447.36   16.32
  -6   5  23  461.90   16.84
  -6   5  22  473.77   17.13
  -6   5  22  438.01   16.02
  -6   5  21  103.18    5.86
  -6   5  21  101.70    6.08
  -6   5  20  130.40    6.60
  -6   5  20  121.06    6.31
  -6   5  19  847.84   28.78
  -6   5  19  925.72   31.30
  -6   5  18  501.29   17.65
  -6   5  18  528.29   18.54
  -6   5  17   18.47    3.12
  -6   5  17   24.55    3.56
  -6   5  16  453.29   15.95
  -6   5  16  461.08   16.10
  -6   5  15  718.18   24.33
  -6   5  15  688.73   23.14
  -6   5  14  156.29    6.53
  -6   5  14  164.82    6.68
  -6   5  13    0.96    1.93
  -6   5  13    0.37    2.15
  -6   5  12  721.89   24.11
  -6   5  12  754.38   25.15
   6  -5   0 1519.88   50.07
  -6   5   0 1476.11   48.81
   6  -5   1  784.79   26.04
  -6   5  -1  723.00   24.03
   6  -5   2   -1.78    2.00
  -6   5  -2    1.41    1.93
   6  -5   3  345.81   12.24
  -6   5  -3  358.64   12.76
   6  -5   4  686.21   23.22
  -6   5  -4  689.55   23.29
   6  -5   5  390.84   14.09
  -6   5  -5  380.30   13.72
   6  -5   6   53.26    4.23
  -6   5  -6   51.26    4.08
   6  -5   7 1174.96   39.24
  -6   5  -7 1180.89   39.24
   6  -5   8  848.58   28.93
  -6   5  -8  889.38   29.97
   6  -5   9  203.10    8.98
  -6   5  -9  201.02    8.60
   6  -5  10 1463.50   48.59
  -6   5 -10 1464.25   48.51
   6  -5  11  261.77   10.83
  -6   5 -11  261.40   10.46
   6  -5  12   60.45    5.49
  -6   5 -12   50.29    4.75
   6  -5  13   62.31    5.79
  -6   5 -13   57.12    4.75
   6  -5  14  113.27    6.82
  -6   5 -14  107.56    6.01
   6  -5  15  169.72    8.38
  -6   5 -15  172.31    8.09
   6  -5  16 1381.17   46.29
  -6   5 -16 1379.68   46.06
   6  -5  17    3.12    4.52
  -6   5 -17   -0.82    4.01
   6  -5  18  542.82   19.81
  -6   5 -18  498.39   18.32
   6  -5  19  293.67   12.02
  -6   5 -19  278.68   11.65
   6  -5  20  121.43    7.34
  -6   5 -20  119.87    7.12
   6  -5  21    8.23    4.75
  -6   5 -21    5.93    4.52
   6  -5  22  602.54   21.73
  -6   5 -22  574.94   20.62
   6  -5  23  569.01   20.55
  -6   5 -23  571.83   20.40
   6  -5  24   40.28    4.82
  -6   5 -24   40.57    4.97
   6  -5  25  141.38    7.34
  -6   5 -25  132.03    6.90
   6  -5  26  166.16    8.23
  -6   5 -26  148.13    7.27
  -5   5  29   55.11    4.82
  -5   5  29   49.85    5.71
  -5   5  28  325.78   12.91
  -5   5  28  325.78   13.06
  -5   5  27  507.15   18.47
  -5   5  27  477.99   17.51
  -5   5  26  120.24    6.97
  -5   5  26  130.25    7.27
  -5   5  25   72.69    5.49
  -5   5  25   73.36    5.64
  -5   5  24  289.21   11.42
  -5   5  24  281.95   11.35
  -5   5  23   45.32    4.60
  -5   5  23   59.42    4.82
  -5   5  22   39.09    4.52
  -5   5  22   40.95    4.60
  -5   5  21  267.48   10.61
  -5   5  21  270.97   10.76
  -5   5  20  932.40   31.45
  -5   5  20  893.09   30.19
  -5   5  19  491.27   17.43
  -5   5  19  467.61   16.76
  -5   5  18   43.99    3.93
  -5   5  18   44.58    4.08
  -5   5  17   63.79    4.15
  -5   5  17   58.23    4.23
  -5   5  16  693.40   23.51
  -5   5  16  701.56   23.59
  -5   5  15  636.95   21.73
  -5   5  15  657.13   22.25
  -5   5  14   36.94    2.97
  -5   5  14   36.72    3.19
  -5   5  13  231.21    8.46
  -5   5  13  233.80    8.53
  -5   5  12  184.48    6.82
  -5   5  12  172.16    6.38
   5  -5   1   62.68    2.82
  -5   5  -1   67.06    2.89
   5  -5   2  664.70   22.18
  -5   5  -2  675.16   22.40
   5  -5   3 2434.47   79.15
  -5   5  -3 2424.83   78.85
   5  -5   4  955.39   31.75
  -5   5  -4  941.30   31.38
   5  -5   5   35.83    3.26
  -5   5  -5   28.71    3.04
   5  -5   6 1786.91   58.60
  -5   5  -6 1732.76   56.89
   5  -5   7  840.42   28.48
  -5   5  -7  878.25   29.89
   5  -5   8    8.90    3.56
  -5   5  -8    2.15    3.04
   5  -5   9   28.19    4.01
  -5   5  -9   20.70    3.63
   5  -5  10  761.79   26.33
  -5   5 -10  794.43   27.45
   5  -5  11 2369.20   77.66
  -5   5 -11 2430.02   79.52
   5  -5  12   11.50    4.23
  -5   5 -12   17.43    4.01
   5  -5  13  763.28   26.56
  -5   5 -13  786.27   27.15
   5  -5  14  430.52   16.24
  -5   5 -14  478.14   17.43
   5  -5  15  125.43    7.12
  -5   5 -15  115.49    6.45
   5  -5  16   63.05    5.64
  -5   5 -16   72.25    5.41
   5  -5  17    8.46    4.75
  -5   5 -17    7.64    4.23
   5  -5  18  193.16    9.20
  -5   5 -18  178.91    8.38
   5  -5  19  150.95    8.01
  -5   5 -19  160.52    8.23
   5  -5  20   34.79    5.04
  -5   5 -20   27.52    4.75
   5  -5  21  321.78   12.98
  -5   5 -21  335.57   13.28
   5  -5  22  550.98   19.95
  -5   5 -22  521.76   18.99
   5  -5  23   21.66    5.12
  -5   5 -23   15.43    4.60
   5  -5  24  189.60    9.20
  -5   5 -24  190.11    8.83
   5  -5  25  731.68   25.52
  -5   5 -25  717.66   24.92
   5  -5  26  125.95    6.90
  -5   5 -26  129.81    6.82
   5  -5  27    5.04    4.75
  -5   5 -27    7.12    4.23
   4  -5 -29  -12.76    7.20
  -4   5  29   16.32    3.63
   4  -5 -28   -3.78    3.34
  -4   5  28  223.86    9.94
   4  -5 -27  341.58   13.06
  -4   5  27  327.79   12.91
   4  -5 -26   41.98    4.38
  -4   5  26   36.87    5.27
   4  -5 -25  904.21   30.86
  -4   5  25  853.77   29.23
   4  -5 -24  292.03   11.57
  -4   5  24  316.96   12.54
   4  -5 -23   -2.89    2.97
  -4   5  23    3.56    3.71
   4  -5 -22  213.18    8.90
  -4   5  22  217.26    9.20
   4  -5 -21  387.87   14.24
  -4   5  21  390.61   14.46
   4  -5 -20  187.82    7.94
  -4   5  20  184.55    8.16
  -4   5  19   25.15    3.71
  -4   5  19   30.71    3.93
  -4   5  18  316.66   12.02
  -4   5  18  291.81   11.13
  -4   5  17  413.91   14.98
  -4   5  17  376.59   13.57
  -4   5  16 1005.09   33.53
  -4   5  16  962.07   31.97
  -4   5  15   19.14    2.89
  -4   5  15   26.93    3.12
  -4   5  14  727.08   24.48
  -4   5  14  715.95   24.03
  -4   5  13 1678.62   54.89
  -4   5  13 1727.57   56.37
  -4   5  12  129.36    5.04
  -4   5  12  130.40    4.97
   4  -5   2 1433.09   47.03
  -4   5  -2 1344.82   44.21
   4  -5   3 1146.03   37.61
  -4   5  -3 1140.09   37.38
   4  -5   4  174.31    6.75
  -4   5  -4  173.94    6.82
   4  -5   5 1680.84   55.04
  -4   5  -5 1662.30   54.45
   4  -5   6 1884.08   61.57
  -4   5  -6 1807.68   59.12
   4  -5   7  313.54   11.94
  -4   5  -7  268.15   10.46
   4  -5   8  367.32   13.57
  -4   5  -8  394.47   14.54
   4  -5   9  381.19   14.02
  -4   5  -9  378.15   14.02
   4  -5  10  300.49   11.79
  -4   5 -10  293.96   11.65
   4  -5  11    4.01    3.71
  -4   5 -11   10.61    4.01
   4  -5  12   52.74    5.12
  -4   5 -12   59.64    5.12
   4  -5  13 1013.25   34.64
  -4   5 -13  941.30   32.19
   4  -5  14   70.02    5.64
  -4   5 -14   80.41    5.79
   4  -5  15   89.68    6.31
  -4   5 -15   94.35    6.01
   4  -5  16    2.60    4.45
  -4   5 -16    4.67    4.08
   4  -5  17  275.86   11.57
  -4   5 -17  286.02   11.57
   4  -5  18  105.18    6.38
  -4   5 -18  102.81    6.23
   4  -5  19    4.67    3.86
  -4   5 -19    0.96    4.01
   4  -5  20  352.56   13.80
  -4   5 -20  331.20   12.91
   4  -5  21  463.97   17.43
  -4   5 -21  472.58   17.58
   4  -5  22   13.65    4.97
  -4   5 -22    9.05    4.38
   4  -5  23  135.30    7.34
  -4   5 -23  152.66    7.57
   4  -5  24  749.18   26.11
  -4   5 -24  764.02   26.63
   4  -5  25  234.69   10.68
  -4   5 -25  225.94    9.87
   4  -5  26   20.10    3.86
  -4   5 -26   19.43    4.23
   4  -5  27  223.49    9.79
  -4   5 -27  220.16    9.49
   3  -5 -29  -24.03   14.02
  -3   5  29  214.52    8.68
   3  -5 -28    0.00    3.63
  -3   5  28  194.27    9.12
   3  -5 -27    1.26    3.93
  -3   5  27    8.01    4.52
   3  -5 -26  264.07   10.90
  -3   5  26  280.98   11.65
   3  -5 -25  618.19   21.81
  -3   5  25  652.46   22.92
   3  -5 -24   57.86    4.75
  -3   5  24   66.46    5.27
   3  -5 -23  221.71    9.35
  -3   5  23  230.76    9.79
   3  -5 -22  205.99    8.83
  -3   5  22  224.83    9.57
   3  -5 -21  421.10   15.28
  -3   5  21  452.11   16.47
   3  -5 -20   19.21    3.49
  -3   5  20   18.92    3.71
   3  -5 -19  347.96   12.98
  -3   5  19  375.11   13.87
   3  -5 -18  680.72   23.29
  -3   5  18  665.36   22.99
   3  -5 -17  335.95   12.31
  -3   5  17  353.15   12.98
   3  -5 -16    7.86    2.60
  -3   5  16    5.56    2.67
  -3   5  15   23.29    2.97
  -3   5  15   30.71    3.34
  -3   5  14  956.88   31.82
  -3   5  14  908.66   30.19
  -3   5  13  919.05   30.41
  -3   5  13  976.16   32.19
  -3   5  12  331.57   11.50
  -3   5  12  308.28   10.61
   3  -5   3   -0.67    1.78
  -3   5  -3    1.41    1.41
   3  -5   4  592.45   20.03
  -3   5  -4  576.80   19.43
   3  -5   5  178.99    7.12
  -3   5  -5  164.52    6.68
   3  -5   6  225.35    8.83
  -3   5  -6  233.21    9.05
   3  -5   7   29.23    3.41
  -3   5  -7   34.27    3.34
   3  -5   8  740.21   25.29
  -3   5  -8  757.34   25.96
   3  -5   9  351.30   13.13
  -3   5  -9  379.12   14.09
   3  -5  10   12.68    3.41
  -3   5 -10   10.46    3.56
   3  -5  11   85.82    5.56
  -3   5 -11   87.45    5.79
   3  -5  12  411.38   15.35
  -3   5 -12  427.85   16.10
   3  -5  13  614.92   21.96
  -3   5 -13  581.32   20.84
   3  -5  14   19.95    4.52
  -3   5 -14   30.63    4.67
   3  -5  15  392.84   14.98
  -3   5 -15  407.30   15.50
   3  -5  16  879.73   30.26
  -3   5 -16  869.35   30.04
   3  -5  17   76.70    5.86
  -3   5 -17   70.99    5.56
   3  -5  18  519.16   18.99
  -3   5 -18  514.86   18.69
   3  -5  19   89.01    5.93
  -3   5 -19   98.14    6.23
   3  -5  20  249.53   11.05
  -3   5 -20  238.70   10.01
   3  -5  21   26.48    5.19
  -3   5 -21   31.90    4.67
   3  -5  22   88.79    6.01
  -3   5 -22   83.30    5.71
   3  -5  23  500.91   18.54
  -3   5 -23  528.80   19.29
   3  -5  24  380.67   14.61
  -3   5 -24  398.70   15.06
   3  -5  25  143.90    7.86
  -3   5 -25  125.58    7.34
   3  -5  26  306.57   12.24
  -3   5 -26  298.49   11.94
   3  -5  27  519.90   18.84
  -3   5 -27  531.85   18.92
   3  -5  28  168.38    7.57
  -3   5 -28  163.11    7.79
   2  -5 -29  -12.91   29.15
  -2   5  29  169.20    7.27
   2  -5 -28    1.85    4.01
  -2   5  28    4.38    4.45
   2  -5 -27  228.32    9.79
  -2   5  27  242.71   10.46
   2  -5 -26  112.75    6.38
  -2   5  26  119.28    6.90
   2  -5 -25   32.04    4.23
  -2   5  25   30.04    4.67
   2  -5 -24    8.90    3.93
  -2   5  24   18.84    4.15
   2  -5 -23  109.63    6.08
  -2   5  23  106.15    6.08
   2  -5 -22  606.91   21.36
  -2   5  22  565.82   20.18
   2  -5 -21   93.83    5.41
  -2   5  21  104.96    6.01
   2  -5 -20  326.45   12.39
  -2   5  20  340.62   12.98
   2  -5 -19  602.31   20.99
  -2   5  19  594.67   20.84
   2  -5 -18 1103.01   36.87
  -2   5  18 1072.59   35.90
   2  -5 -17    9.79    3.04
  -2   5  17    5.49    3.26
   2  -5 -16  267.85   10.38
  -2   5  16  238.40    9.27
   2  -5 -15  182.47    7.42
  -2   5  15  179.36    7.27
   2  -5 -14  370.59   13.13
  -2   5  14  355.68   12.68
   2  -5 -13   49.92    3.12
  -2   5  13   52.15    3.12
  -2   5  12   16.69    2.00
  -2   5  12   17.06    2.00
   2  -5   3  109.78    4.45
   2  -5   3  106.22    4.38
   2  -5   4  694.44   23.14
  -2   5  -4  737.32   24.48
   2  -5   5   14.02    2.45
  -2   5  -5   16.39    2.45
   2  -5   6    5.86    2.60
  -2   5  -6    5.56    2.37
   2  -5   7  784.79   26.56
  -2   5  -7  715.06   24.26
   2  -5   8 1735.73   57.04
  -2   5  -8 1737.96   57.19
   2  -5   9  219.12    9.05
  -2   5  -9  223.05    9.35
   2  -5  10  883.44   30.04
  -2   5 -10  939.82   31.90
   2  -5  11  788.50   27.15
  -2   5 -11  788.50   27.37
   2  -5  12   63.64    5.27
  -2   5 -12   67.28    5.34
   2  -5  13   61.12    5.27
  -2   5 -13   59.64    5.12
   2  -5  14  135.22    7.05
  -2   5 -14  129.22    7.12
   2  -5  15  352.34   13.65
  -2   5 -15  365.76   14.39
   2  -5  16  813.72   28.26
  -2   5 -16  769.21   27.00
   2  -5  17   23.51    4.97
  -2   5 -17   27.82    4.82
   2  -5  18  711.65   25.22
  -2   5 -18  725.97   25.59
   2  -5  19  434.45   16.24
  -2   5 -19  440.53   16.47
   2  -5  20   58.90    5.86
  -2   5 -20   49.70    4.75
   2  -5  21   88.94    6.01
  -2   5 -21   90.94    6.01
   2  -5  22  741.69   26.11
  -2   5 -22  741.77   25.89
   2  -5  23  324.00   12.91
  -2   5 -23  285.58   11.65
   2  -5  24   17.21    5.04
  -2   5 -24   16.17    4.52
   2  -5  25   96.28    5.71
  -2   5 -25   96.95    6.16
   2  -5  26  170.01    8.68
  -2   5 -26  164.23    8.23
   2  -5  27  446.39   16.62
  -2   5 -27  445.43   16.39
   2  -5  28  205.39    8.60
  -2   5 -28  183.44    8.23
   1  -5 -29  -59.49   49.18
  -1   5  29   38.72    4.01
   1  -5 -28   -0.37    5.64
  -1   5  28  107.04    6.38
   1  -5 -27  595.42   21.07
  -1   5  27  656.17   23.14
   1  -5 -26   59.27    4.90
  -1   5  26   52.44    5.34
   1  -5 -25   59.56    4.90
  -1   5  25   50.74    5.34
   1  -5 -24  159.18    7.64
  -1   5  24  183.96    8.68
   1  -5 -23  207.69    8.98
  -1   5  23  213.85    9.35
   1  -5 -22   23.51    3.71
  -1   5  22   29.30    4.30
   1  -5 -21  260.95   10.46
  -1   5  21  259.69   10.61
   1  -5 -20  570.05   20.03
  -1   5  20  591.63   20.84
   1  -5 -19  252.13   10.16
  -1   5  19  256.65   10.38
   1  -5 -18   58.60    4.52
  -1   5  18   51.48    4.45
   1  -5 -17  334.83   12.54
  -1   5  17  340.03   12.68
   1  -5 -16  326.08   12.09
  -1   5  16  306.42   11.50
   1  -5 -15  441.20   15.58
  -1   5  15  453.37   15.80
   1  -5 -14   80.63    4.38
  -1   5  14   75.44    4.15
   1  -5 -13 1184.60   39.09
  -1   5  13 1126.74   37.16
   1  -5 -12  179.06    6.75
  -1   5  12  165.56    6.31
   1  -5 -11  293.89   10.31
  -1   5  11  294.11   10.24
   1  -5   3  956.14   31.53
   1  -5   3  968.00   31.90
   1  -5   4  145.46    5.86
   1  -5   4  150.21    5.93
   1  -5   5  834.49   27.82
   1  -5   6  322.07   11.65
  -1   5  -6  323.78   11.72
   1  -5   7  586.29   20.18
  -1   5  -7  568.19   19.51
   1  -5   8  214.22    8.68
  -1   5  -8  221.05    8.98
   1  -5   9   21.36    3.78
  -1   5  -9   20.77    3.56
   1  -5  10  104.44    5.79
  -1   5 -10   97.39    5.56
   1  -5  11 2868.41   93.54
  -1   5 -11 2944.07   96.13
   1  -5  12  275.49   11.27
  -1   5 -12  309.24   12.54
   1  -5  13 1061.47   36.12
  -1   5 -13 1084.46   36.87
   1  -5  14 1065.92   36.12
  -1   5 -14 1024.38   35.01
   1  -5  15   25.81    4.67
  -1   5 -15   23.07    4.52
   1  -5  16    8.46    4.45
  -1   5 -16   -5.41    4.01
   1  -5  17  617.59   22.18
  -1   5 -17  628.28   22.55
   1  -5  18  399.74   15.50
  -1   5 -18  382.31   14.76
   1  -5  19  150.80    7.49
  -1   5 -19  142.34    7.57
   1  -5  20   11.72    4.82
  -1   5 -20    9.27    4.01
   1  -5  21  341.43   13.50
  -1   5 -21  339.28   13.50
   1  -5  22  364.65   14.32
  -1   5 -22  371.77   14.46
   1  -5  23   39.61    5.64
  -1   5 -23   24.63    4.08
   1  -5  24   45.17    4.82
  -1   5 -24   35.46    4.90
   1  -5  25  615.00   21.88
  -1   5 -25  612.25   21.81
   1  -5  26  134.78    7.79
  -1   5 -26  158.66    7.94
   1  -5  27   23.66    4.97
  -1   5 -27   32.49    4.75
   1  -5  28   35.01    3.93
  -1   5 -28   27.00    4.45
  -1   5 -29  481.18   17.65
   0  -5 -29    2.15   45.77
   0   5  29  272.38   10.53
   0  -5 -28    6.68   10.01
   0   5  28  169.79    7.86
   0  -5 -27  139.67    7.27
   0   5  27  159.85    8.23
   0  -5 -26   21.59    3.78
   0   5  26   12.91    4.52
   0  -5 -25  222.38    9.42
   0   5  25  233.73   10.24
   0  -5 -24  658.39   22.99
   0   5  24  596.45   21.44
   0  -5 -23   19.51    3.86
   0   5  23   28.04    4.23
   0  -5 -22   52.89    4.30
   0   5  22   62.01    5.27
   0  -5 -21  236.10    9.64
   0   5  21  224.75    9.49
   0  -5 -20  176.69    7.86
   0   5  20  207.69    9.12
   0  -5 -19   53.48    4.52
   0   5  19   63.50    5.12
   0  -5 -18  203.47    8.53
   0   5  18  191.97    8.53
   0  -5 -17  488.01   17.28
   0   5  17  466.35   16.76
   0  -5 -16  399.22   14.46
   0   5  16  401.37   14.61
   0  -5 -15    6.82    2.89
   0   5  15    2.30    2.97
   0  -5 -14  255.83    9.57
   0   5  14  224.09    8.60
   0  -5 -13 1902.63   62.16
   0   5  13 2061.37   67.20
   0  -5 -12  145.98    6.08
   0   5  12  145.98    5.93
   0  -5 -11    7.20    1.93
   0   5  11    8.90    2.00
   0  -5 -10    3.19    1.63
   0   5  10    9.12    1.63
   0  -5  -9  523.46   17.65
   0   5   9  503.14   16.99
   0  -5   2  288.18   10.01
   0  -5   2  277.72    9.64
   0  -5   3  492.01   16.69
   0  -5   3  486.82   16.47
   0  -5   4   10.76    2.23
   0  -5   4   17.58    2.37
   0  -5   5  695.41   23.51
   0  -5   5  712.69   23.96
   0  -5   6  711.28   24.11
   0  -5   6  725.52   24.63
   0  -5   7   59.12    4.08
   0   5  -7   56.23    3.63
   0  -5   8  393.06   14.32
   0   5  -8  372.14   13.65
   0  -5   9  558.03   19.58
   0   5  -9  538.74   19.06
   0  -5  10   16.24    3.71
   0   5 -10    8.98    3.34
   0  -5  11    9.57    3.71
   0   5 -11    8.38    3.78
   0  -5  12  163.71    7.86
   0   5 -12  148.95    7.79
   0  -5  13 1987.93   65.57
   0   5 -13 1984.96   65.57
   0  -5  14  263.92   11.05
   0   5 -14  256.06   10.98
   0  -5  15    5.49    4.38
   0   5 -15    1.78    4.01
   0  -5  16  455.74   17.06
   0   5 -16  450.18   16.91
   0  -5  17  496.69   18.62
   0   5 -17  513.30   18.99
   0  -5  18  204.80    9.57
   0   5 -18  223.72   10.16
   0  -5  19   60.75    5.27
   0   5 -19   66.76    5.93
   0  -5  20  202.21    9.64
   0   5 -20  199.31    9.35
   0  -5  21  277.79   11.79
   0   5 -21  275.64   11.72
   0  -5  22   72.25    5.79
   0   5 -22   62.31    5.71
   0  -5  23   22.03    3.93
   0   5 -23   20.77    4.30
   0  -5  24  616.18   22.03
   0   5 -24  596.90   21.21
   0  -5  25  267.18   11.42
   0   5 -25  235.36   10.24
   0  -5  26   14.91    5.12
   0   5 -26   23.81    4.67
   0  -5  27  164.15    8.38
   0   5 -27  164.97    8.01
   0  -5  28  209.25    9.05
   0   5 -28  207.92    9.20
   0  -5  29  405.89   14.76
   0   5 -29  412.64   15.13
  -1  -5 -28    3.41   17.51
   1   5  28   27.07    4.52
  -1  -5 -27   24.85    4.15
   1   5  27   17.58    5.12
  -1  -5 -26  104.89    6.01
   1   5  26  117.35    7.12
  -1  -5 -25  571.23   20.32
   1   5  25  556.62   20.25
  -1  -5 -24   35.68    4.23
   1   5  24   34.86    5.49
  -1  -5 -23   25.81    3.93
   1   5  23   17.13    4.38
  -1  -5 -22  339.36   12.98
   1   5  22  355.75   13.87
  -1  -5 -21  338.25   12.91
   1   5  21  316.81   12.46
  -1  -5 -20    8.16    3.63
   1   5  20    6.82    4.08
  -1  -5 -19  124.69    6.45
   1   5  19  125.80    6.82
  -1  -5 -18  351.08   13.20
   1   5  18  361.02   13.72
  -1  -5 -17  558.40   19.73
   1   5  17  568.56   20.18
  -1  -5 -16    1.04    2.89
   1   5  16    2.60    3.19
  -1  -5 -15   18.10    3.19
   1   5  15   16.91    3.49
  -1  -5 -14 1002.13   33.60
   1   5  14 1062.95   35.68
  -1  -5 -13  991.74   33.16
   1   5  13 1034.76   34.42
  -1  -5 -12  289.59   10.68
   1   5  12  280.98   10.46
  -1  -5 -11 2898.82   94.06
   1   5  11 2935.17   95.24
  -1  -5 -10   94.87    4.30
   1   5  10  104.81    4.67
  -1  -5  -9   20.70    2.15
   1   5   9   17.73    1.85
  -1  -5  -8  212.29    7.49
   1   5   8  228.09    8.01
  -1  -5  -7  570.27   19.14
   1   5   7  574.72   19.43
  -1  -5   1  472.13   15.87
  -1  -5   1  492.75   16.54
  -1  -5   2  435.19   14.76
  -1  -5   2  421.92   14.39
  -1  -5   3  478.07   16.32
  -1  -5   3  493.87   16.84
  -1  -5   4  336.46   11.94
  -1  -5   4  331.57   11.94
  -1  -5   5  826.33   27.67
  -1  -5   5  900.50   30.04
  -1  -5   6  191.52    7.71
  -1  -5   6  185.81    7.79
  -1  -5   7  139.23    6.31
  -1  -5   7  141.75    6.38
  -1  -5   8 1537.68   50.74
  -1  -5   8 1566.61   51.55
  -1  -5   9 2268.32   74.10
   1   5  -9 2261.64   74.03
  -1  -5  10   -2.23    3.34
   1   5 -10   -3.63    3.26
  -1  -5  11  301.31   11.87
   1   5 -11  296.11   11.87
  -1  -5  12  163.26    7.64
   1   5 -12  183.66    8.68
  -1  -5  13 1151.96   38.94
   1   5 -13 1219.46   41.09
  -1  -5  14   85.75    6.01
   1   5 -14   83.15    5.86
  -1  -5  15  487.04   18.10
   1   5 -15  477.40   17.88
  -1  -5  16  325.04   13.20
   1   5 -16  343.59   13.65
  -1  -5  17  365.99   14.39
   1   5 -17  376.22   14.91
  -1  -5  18   59.49    5.19
   1   5 -18   58.30    5.71
  -1  -5  19  278.09   11.35
   1   5 -19  288.99   12.31
  -1  -5  20  620.86   22.25
   1   5 -20  602.46   21.73
  -1  -5  21  303.83   12.54
   1   5 -21  300.42   12.61
  -1  -5  22   44.14    5.56
   1   5 -22   37.83    5.12
  -1  -5  23  226.54   10.38
   1   5 -23  235.66   10.24
  -1  -5  24  212.81    9.94
   1   5 -24  199.76    9.05
  -1  -5  25   47.62    5.64
   1   5 -25   69.28    5.49
  -1  -5  26   58.38    5.86
   1   5 -26   64.24    5.71
  -1  -5  27  732.86   25.59
   1   5 -27  736.50   25.67
  -1  -5  28  135.08    7.34
   1   5 -28  130.85    6.82
  -1  -5  29   46.29    4.97
   1   5 -29   52.67    5.04
  -2  -5 -28  -14.02   23.88
   2   5  28  155.40    7.49
  -2  -5 -27  489.34   18.02
   2   5  27  404.19   15.13
  -2  -5 -26  161.26    7.86
   2   5  26  152.43    8.09
  -2  -5 -25   83.23    5.71
   2   5  25   91.83    6.38
  -2  -5 -24   11.94    3.78
   2   5  24    3.49    4.82
  -2  -5 -23  262.14   10.76
   2   5  23  291.66   12.09
  -2  -5 -22  682.20   23.81
   2   5  22  709.65   24.70
  -2  -5 -21   79.74    5.34
   2   5  21   84.64    5.93
  -2  -5 -20   45.62    4.60
   2   5  20   50.96    5.04
  -2  -5 -19  426.00   15.73
   2   5  19  431.26   15.87
  -2  -5 -18  664.47   23.14
   2   5  18  649.71   22.85
  -2  -5 -17   22.33    3.63
   2   5  17   21.81    4.01
  -2  -5 -16  739.69   25.44
   2   5  16  746.22   25.89
  -2  -5 -15  370.59   13.87
   2   5  15  361.61   13.57
  -2  -5 -14  130.11    6.31
   2   5  14  138.71    6.68
  -2  -5 -13   64.68    4.30
   2   5  13   66.83    4.67
  -2  -5 -12   59.49    3.71
   2   5  12   56.67    4.15
  -2  -5 -11  755.86   25.52
   2   5  11  764.76   25.74
  -2  -5 -10  882.70   29.45
   2   5  10  921.27   30.78
  -2  -5  -9  203.24    7.86
   2   5   9  219.12    8.31
  -2  -5  -8 1613.34   52.67
   2   5   8 1659.33   54.30
  -2  -5  -7  812.98   26.93
   2   5   7  788.50   26.26
  -2  -5  -6    7.05    1.78
   2   5   6    6.90    1.71
  -2  -5  -5   11.94    1.71
  -2  -5  -5   16.10    1.71
  -2  -5  -4  761.79   25.22
  -2  -5  -4  783.30   25.89
  -2  -5  -3  122.47    4.75
  -2  -5  -3  118.16    4.60
  -2  -5  -2  355.45   12.16
  -2  -5  -2  363.91   12.39
  -2  -5  -1   14.91    1.85
  -2  -5  -1   16.99    2.00
  -2  -5   0  335.72   11.65
  -2  -5   0  333.13   11.50
  -2  -5   1  563.52   18.99
  -2  -5   1  551.06   18.54
  -2  -5   2  225.13    8.38
  -2  -5   2  225.79    8.38
  -2  -5   3 1089.65   36.05
  -2  -5   3 1085.94   35.83
  -2  -5   4 1077.79   35.75
  -2  -5   4 1114.13   36.87
  -2  -5   5  136.71    6.23
  -2  -5   5  140.56    6.23
  -2  -5   6  142.34    6.38
  -2  -5   6  144.87    6.45
  -2  -5   7  466.13   16.54
  -2  -5   7  474.58   16.84
  -2  -5   8 1547.32   51.03
  -2  -5   8 1566.61   51.78
  -2  -5   9  565.82   20.03
  -2  -5   9  550.54   19.58
  -2  -5  10  534.15   19.21
  -2  -5  10  538.15   19.21
  -2  -5  11  423.03   15.73
   2   5 -11  430.97   16.17
  -2  -5  12   23.88    4.30
   2   5 -12   27.96    4.45
  -2  -5  13   63.20    5.41
   2   5 -13   58.67    5.19
  -2  -5  14  381.71   14.69
   2   5 -14  387.80   14.98
  -2  -5  15  186.55    8.68
   2   5 -15  191.15    8.98
  -2  -5  16  263.10   11.13
   2   5 -16  276.83   11.57
  -2  -5  17    6.60    3.34
   2   5 -17   10.83    4.38
  -2  -5  18 1140.09   38.57
   2   5 -18 1137.13   38.65
  -2  -5  19  661.80   23.51
   2   5 -19  649.42   23.59
  -2  -5  20  358.79   14.09
   2   5 -20  361.76   14.17
  -2  -5  21  122.47    7.27
   2   5 -21  102.22    6.75
  -2  -5  22  614.33   22.10
   2   5 -22  653.72   23.37
  -2  -5  23  124.10    7.34
   2   5 -23  128.99    7.27
  -2  -5  24   24.26    5.12
   2   5 -24   16.54    4.45
  -2  -5  25   41.32    5.49
   2   5 -25   35.01    4.90
  -2  -5  26  129.66    7.64
   2   5 -26  115.57    6.75
  -2  -5  27  266.89   11.35
   2   5 -27  265.26   10.83
  -2  -5  28    4.52    4.75
   2   5 -28    8.98    4.23
  -2  -5  29  250.72   10.24
   2   5 -29  261.18   10.38
  -3  -5 -28    6.38   10.83
   3   5  28  116.68    6.31
  -3  -5 -27   -4.45    4.52
   3   5  27  481.48   17.51
  -3  -5 -26  283.65   11.57
   3   5  26  289.21   11.94
  -3  -5 -25  107.93    6.38
   3   5  25  108.22    6.75
  -3  -5 -24  406.64   15.28
   3   5  24  358.42   14.09
  -3  -5 -23  464.20   17.13
   3   5  23  475.62   17.80
  -3  -5 -22   72.32    5.41
   3   5  22   86.04    6.23
  -3  -5 -21   23.81    4.23
   3   5  21   15.43    4.45
  -3  -5 -20  228.02    9.64
   3   5  20  238.85   10.31
  -3  -5 -19   77.51    5.41
   3   5  19   80.48    5.71
  -3  -5 -18  504.03   18.25
   3   5  18  514.19   18.62
  -3  -5 -17   78.85    5.27
   3   5  17   65.57    5.27
  -3  -5 -16  858.96   29.30
   3   5  16  835.23   28.71
  -3  -5 -15  371.33   13.95
   3   5  15  388.24   14.46
  -3  -5 -14   25.81    3.56
   3   5  14   28.34    3.78
  -3  -5 -13  521.68   18.32
   3   5  13  564.78   19.81
  -3  -5 -12  405.89   14.69
   3   5  12  409.23   14.91
  -3  -5 -11  104.59    5.27
   3   5  11   96.58    5.34
  -3  -5 -10   15.35    2.97
   3   5  10    9.20    2.89
  -3  -5  -9  393.14   13.95
   3   5   9  357.83   12.76
  -3  -5  -8  732.05   24.63
   3   5   8  752.15   25.29
  -3  -5  -7   31.38    2.89
   3   5   7   34.94    2.97
  -3  -5  -6  219.12    8.16
   3   5   6  212.14    8.01
  -3  -5  -5  154.81    6.16
   3   5   5  166.82    6.53
  -3  -5  -4  584.66   19.73
  -3  -5  -3    0.74    2.00
  -3  -5  -3    2.74    2.08
  -3  -5  -2  594.90   20.03
  -3  -5  -2  595.04   20.10
  -3  -5  -1  756.60   25.22
  -3  -5  -1  776.63   25.96
  -3  -5   1   14.46    2.74
  -3  -5   1   17.88    2.52
  -3  -5   2  176.02    7.20
  -3  -5   2  160.59    6.60
  -3  -5   3 1170.51   38.72
  -3  -5   3 1182.37   39.09
  -3  -5   4  423.77   15.13
  -3  -5   4  397.66   14.17
  -3  -5   5  227.57    8.98
  -3  -5   5  229.13    8.98
  -3  -5   6 1891.50   61.94
  -3  -5   6 1903.37   62.38
  -3  -5   7  677.53   23.37
  -3  -5   7  666.62   22.92
  -3  -5   8   10.98    3.56
  -3  -5   8    5.41    3.04
  -3  -5   9  113.19    6.16
  -3  -5   9  111.56    6.31
  -3  -5  10 2246.07   73.66
  -3  -5  10 2272.77   74.47
  -3  -5  11 2599.15   85.08
  -3  -5  11 2502.72   81.89
  -3  -5  12  337.06   13.20
  -3  -5  12  347.81   13.43
  -3  -5  13  965.04   33.08
  -3  -5  14  982.10   33.60
   3   5 -14 1011.03   34.64
  -3  -5  15   37.53    4.97
   3   5 -15   25.29    4.45
  -3  -5  16   16.54    4.67
   3   5 -16    5.34    4.23
  -3  -5  17  351.23   13.80
   3   5 -17  370.07   14.46
  -3  -5  18  732.42   25.67
   3   5 -18  748.44   26.41
  -3  -5  19  401.22   15.58
   3   5 -19  372.07   14.69
  -3  -5  20   12.46    4.90
   3   5 -20   10.76    4.60
  -3  -5  21  475.55   17.88
   3   5 -21  458.78   17.43
  -3  -5  22  231.95   10.24
   3   5 -22  238.77   10.61
  -3  -5  23  236.77   10.38
   3   5 -23  256.21   10.90
  -3  -5  24   71.58    6.01
   3   5 -24   83.97    6.08
  -3  -5  25  676.12   23.96
   3   5 -25  713.80   25.15
  -3  -5  26  283.80   12.02
   3   5 -26  298.71   12.16
  -3  -5  27    5.56    4.82
   3   5 -27   -1.11    3.93
  -3  -5  28  203.17    9.20
   3   5 -28  199.76    8.75
  -3  -5  29  345.66   12.91
   3   5 -29  321.04   12.24
  -4  -5 -27    1.93    5.64
   4   5  27  171.13    8.09
  -4  -5 -26   20.92    4.38
   4   5  26   18.54    4.60
  -4  -5 -25  214.74    9.57
   4   5  25  192.27    9.05
  -4  -5 -24  756.60   26.26
   4   5  24  703.19   24.77
  -4  -5 -23  147.24    7.49
   4   5  23  137.67    7.42
  -4  -5 -22    7.12    3.78
   4   5  22   -4.90    4.30
  -4  -5 -21  527.99   19.14
   4   5  21  430.52   16.32
  -4  -5 -20  310.58   12.24
   4   5  20  335.50   13.28
  -4  -5 -19   -1.04    3.49
   4   5  19   -1.04    3.93
  -4  -5 -18  106.15    6.08
   4   5  18   95.09    6.23
  -4  -5 -17  280.39   11.27
   4   5  17  289.07   11.65
  -4  -5 -16    3.41    3.41
   4   5  16    0.67    3.71
  -4  -5 -15   93.76    5.56
   4   5  15   88.42    5.49
  -4  -5 -14   78.26    5.27
   4   5  14   76.03    5.04
  -4  -5 -13  836.71   28.63
   4   5  13  916.82   31.01
  -4  -5 -12   57.49    4.45
   4   5  12   55.19    4.23
  -4  -5 -11   13.65    3.12
   4   5  11    6.82    3.26
  -4  -5 -10  262.81   10.16
   4   5  10  269.63   10.38
  -4  -5  -9  395.29   14.09
   4   5   9  399.07   14.32
  -4  -5  -8  383.42   13.80
   4   5   8  394.10   14.02
  -4  -5  -7  291.14   10.90
   4   5   7  278.46   10.31
  -4  -5  -6 2036.89   66.54
   4   5   6 1907.08   62.16
  -4  -5  -5 1687.52   55.19
   4   5   5 1740.18   56.82
  -4  -5  -4  184.25    7.34
   4   5   4  179.58    7.05
  -4  -5  -3 1169.02   38.57
   4   5   3 1166.80   38.35
  -4  -5  -2 1462.76   47.99
  -4  -5  -2 1477.60   48.44
  -4  -5  -1  979.87   32.56
  -4  -5  -1  953.17   31.75
  -4  -5   0    0.82    2.45
  -4  -5   0   -1.71    2.37
  -4  -5   1  895.31   30.04
  -4  -5   1  882.70   29.60
  -4  -5   2  912.37   30.49
  -4  -5   2  899.76   30.19
  -4  -5   3  459.23   16.10
  -4  -5   3  487.71   17.13
  -4  -5   4   10.01    3.04
  -4  -5   4   13.72    3.12
  -4  -5   5 1126.74   37.61
  -4  -5   5 1127.48   37.61
  -4  -5   6 1865.54   61.34
  -4  -5   6 1785.43   58.67
  -4  -5   7   67.06    4.67
  -4  -5   7   64.31    4.60
  -4  -5   8  459.30   16.69
  -4  -5   8  441.13   16.10
  -4  -5   9 1235.04   41.39
  -4  -5   9 1289.93   43.10
  -4  -5  10    7.64    3.49
  -4  -5  10   12.46    3.78
  -4  -5  11    7.05    3.86
  -4  -5  11    7.34    3.78
  -4  -5  12  133.81    7.27
  -4  -5  12  151.25    7.57
  -4  -5  13 1840.32   60.97
  -4  -5  13 1782.46   59.04
  -4  -5  14  807.04   27.96
  -4  -5  14  869.35   30.26
  -4  -5  15   29.60    4.60
  -4  -5  15   22.92    4.15
  -4  -5  16 1043.66   35.75
  -4  -5  17  403.82   15.43
   4   5 -17  392.10   15.06
  -4  -5  18  329.42   13.35
   4   5 -18  326.82   13.28
  -4  -5  19   40.43    5.04
   4   5 -19   33.38    4.82
  -4  -5  20  216.00    9.64
   4   5 -20  205.39    9.72
  -4  -5  21  451.96   17.28
   4   5 -21  432.15   16.47
  -4  -5  22  237.36   10.61
   4   5 -22  243.67   10.68
  -4  -5  23    0.89    3.41
   4   5 -23    4.45    4.15
  -4  -5  24  317.10   12.83
   4   5 -24  340.40   13.50
  -4  -5  25  930.92   32.04
   4   5 -25  983.58   33.68
  -4  -5  26   67.28    6.08
   4   5 -26   49.92    5.34
  -4  -5  27  375.78   14.32
   4   5 -27  387.42   14.61
  -4  -5  28  239.66   10.09
   4   5 -28  253.83   10.46
  -4  -5  29   24.40    4.67
   4   5 -29   20.62    4.08
  -5  -5 -27   -2.60    7.57
   5   5  27    4.30    3.71
  -5  -5 -26   60.97    5.41
   5   5  26  118.91    6.90
  -5  -5 -25  746.96   26.04
   5   5  25  669.96   23.66
  -5  -5 -24  183.96    8.53
   5   5  24  190.86    8.98
  -5  -5 -23   16.69    4.15
   5   5  23   15.35    4.82
  -5  -5 -22  530.44   19.14
   5   5  22  503.29   18.32
  -5  -5 -21  325.41   12.76
   5   5  21  322.67   13.06
  -5  -5 -20   25.44    4.15
   5   5  20   19.66    4.38
  -5  -5 -19  154.36    7.64
   5   5  19  158.00    7.94
  -5  -5 -18  182.62    8.31
   5   5  18  205.32    9.35
  -5  -5 -17   11.42    3.78
   5   5  17    8.46    3.93
  -5  -5 -16   58.15    4.97
   5   5  16   59.93    5.34
  -5  -5 -15  115.49    6.16
   5   5  15  120.76    6.60
  -5  -5 -14  450.55   16.54
   5   5  14  427.26   15.73
  -5  -5 -13  781.08   27.00
   5   5  13  757.34   26.11
  -5  -5 -12   17.65    3.56
   5   5  12   13.13    3.56
  -5  -5 -11 2543.51   83.08
   5   5  11 2403.32   78.63
  -5  -5 -10  803.33   27.30
   5   5  10  732.86   25.07
  -5  -5  -9   22.85    3.41
   5   5   9   22.99    3.26
  -5  -5  -8    2.15    2.89
   5   5   8    3.04    2.74
  -5  -5  -7  772.92   26.33
   5   5   7  833.74   28.11
  -5  -5  -6 1822.52   59.71
   5   5   6 1864.80   61.05
  -5  -5  -5   39.39    3.56
   5   5   5   33.08    3.41
  -5  -5  -4  995.45   33.23
   5   5   4  977.65   32.79
  -5  -5  -3 2438.93   79.44
   5   5   3 2484.17   80.93
  -5  -5  -2  752.89   25.59
   5   5   2  688.06   23.51
  -5  -5  -1   64.90    4.38
  -5  -5  -1   72.03    4.38
  -5  -5   0 1049.60   35.01
  -5  -5   0 1053.31   35.16
  -5  -5   1 1599.99   52.67
  -5  -5   1 1588.86   52.29
  -5  -5   2   97.02    5.27
  -5  -5   2   97.84    5.27
  -5  -5   3  173.50    7.57
  -5  -5   3  177.73    7.64
  -5  -5   4  178.84    7.86
  -5  -5   4  179.88    7.71
  -5  -5   5  342.03   12.91
  -5  -5   5  327.93   12.31
  -5  -5   6  756.60   26.04
  -5  -5   6  726.63   25.00
  -5  -5   7   12.91    3.56
  -5  -5   7   20.32    3.71
  -5  -5   8 1677.87   55.48
  -5  -5   8 1605.92   53.18
  -5  -5   9  831.52   28.48
  -5  -5   9  884.18   30.26
  -5  -5  10   -0.74    3.71
  -5  -5  10    2.15    3.41
  -5  -5  11  861.93   29.60
  -5  -5  11  856.74   29.60
  -5  -5  12  212.52    9.49
  -5  -5  12  202.80    9.20
  -5  -5  13  258.21   10.90
  -5  -5  13  259.40   11.13
  -5  -5  14   53.63    5.27
  -5  -5  14   50.81    5.34
  -5  -5  15  685.76   24.26
  -5  -5  15  685.91   24.40
  -5  -5  16  737.76   25.96
  -5  -5  16  767.73   27.00
  -5  -5  17   76.25    6.08
  -5  -5  17   72.62    5.93
  -5  -5  18   40.50    4.97
  -5  -5  18   44.51    4.82
  -5  -5  19  525.10   19.43
  -5  -5  19  526.58   19.43
  -5  -5  20 1005.83   34.42
  -5  -5  20  969.49   33.23
  -5  -5  21  298.63   12.31
  -5  -5  22   46.29    5.56
   5   5 -22   38.94    4.45
  -5  -5  23   64.16    5.04
   5   5 -23   69.21    5.64
  -5  -5  24  317.03   12.91
   5   5 -24  332.53   13.28
  -5  -5  25   76.11    6.23
   5   5 -25   73.36    5.93
  -5  -5  26  137.08    7.05
   5   5 -26  133.89    7.27
  -5  -5  27  529.25   19.14
   5   5 -27  564.93   20.10
  -5  -5  28  368.43   14.17
   5   5 -28  377.48   14.17
  -5  -5  29   72.32    5.27
   5   5 -29   76.77    5.56
  -6  -5 -26   -5.34    7.34
   6   5  26  126.03    6.75
  -6  -5 -25  138.34    7.34
   6   5  25  144.64    7.64
  -6  -5 -24   34.12    4.52
   6   5  24   37.53    5.19
  -6  -5 -23  471.32   17.36
   6   5  23  564.11   20.40
  -6  -5 -22  547.35   19.73
   6   5  22  552.39   19.88
  -6  -5 -21    9.12    3.93
   6   5  21   10.53    4.75
  -6  -5 -20  136.78    7.20
   6   5  20  112.30    6.75
  -6  -5 -19  324.82   12.83
   6   5  19  297.45   12.31
  -6  -5 -18  558.40   20.03
   6   5  18  546.98   19.81
  -6  -5 -17    6.45    3.71
   6   5  17    0.96    4.15
  -6  -5 -16 1324.79   44.43
   6   5  16 1371.52   45.92
  -6  -5 -15  170.98    7.94
   6   5  15  169.27    8.31
  -6  -5 -14   96.65    5.79
   6   5  14  103.25    6.23
  -6  -5 -13   59.19    4.90
   6   5  13   58.60    5.04
  -6  -5 -12   54.15    4.45
   6   5  12   57.34    5.19
  -6  -5 -11  290.25   11.35
   6   5  11  270.67   11.05
  -6  -5 -10 1453.12   48.14
   6   5  10 1549.55   51.48
  -6  -5  -9  212.59    9.05
   6   5   9  207.18    8.90
  -6  -5  -8  829.29   28.34
   6   5   8  880.48   29.97
  -6  -5  -7 1142.32   38.13
   6   5   7 1153.45   38.65
  -6  -5  -6   45.54    3.86
   6   5   6   47.70    4.08
  -6  -5  -5  397.29   14.46
   6   5   5  405.00   14.76
  -6  -5  -4  734.42   25.15
   6   5   4  712.99   24.48
  -6  -5  -3  359.98   13.35
   6   5   3  376.45   13.80
  -6  -5  -2    2.37    3.04
   6   5   2    0.00    2.82
  -6  -5  -1  830.78   28.34
   6   5   1  812.23   27.59
  -6  -5   0 1508.75   49.92
  -6  -5   0 1460.54   48.21
  -6  -5   1  176.91    7.64
  -6  -5   1  188.93    8.16
  -6  -5   2  130.85    6.23
  -6  -5   2  139.75    6.75
  -6  -5   3  607.21   21.14
  -6  -5   3  594.30   20.77
  -6  -5   4  496.17   17.73
  -6  -5   4  486.45   17.43
  -6  -5   5  114.97    6.08
  -6  -5   5  117.57    6.16
  -6  -5   6  133.07    6.68
  -6  -5   6  126.32    6.53
  -6  -5   7   12.09    3.49
  -6  -5   7   13.35    3.49
  -6  -5   8  372.29   14.09
  -6  -5   8  366.51   13.80
  -6  -5   9  700.30   24.48
  -6  -5   9  621.53   22.03
  -6  -5  10  231.21    9.72
  -6  -5  10  229.58   10.09
  -6  -5  11 1231.33   41.46
  -6  -5  11 1292.16   43.54
  -6  -5  12  782.56   27.22
  -6  -5  12  787.01   27.52
  -6  -5  13   -0.37    3.93
  -6  -5  13    5.41    4.08
  -6  -5  14  179.73    8.68
  -6  -5  14  186.18    9.12
  -6  -5  15  737.17   26.04
  -6  -5  15  749.18   26.41
  -6  -5  16  475.10   17.80
  -6  -5  16  488.01   18.10
  -6  -5  17   19.14    4.52
  -6  -5  17   20.18    4.08
  -6  -5  18  570.57   20.84
  -6  -5  18  573.31   20.84
  -6  -5  19  939.08   32.49
  -6  -5  19  922.01   31.82
  -6  -5  20  135.37    7.42
  -6  -5  20  156.74    8.23
  -6  -5  21  113.64    6.97
  -6  -5  21   98.43    6.53
  -6  -5  22  455.30   16.91
  -6  -5  22  461.60   17.36
  -6  -5  23  509.89   18.69
  -6  -5  23  510.85   18.77
  -6  -5  24    7.05    4.15
  -6  -5  24    7.64    4.75
  -6  -5  25   51.33    4.60
  -6  -5  25   60.75    5.12
  -6  -5  26  217.26    9.57
  -6  -5  26  213.41    9.94
  -6  -5  27  110.45    6.60
  -6  -5  27   99.17    6.16
  -6  -5  28   41.46    4.82
  -6  -5  28   29.52    4.30
  -7  -5 -26    0.30    8.98
   7   5  26   95.17    5.49
  -7  -5 -25    6.53    6.38
   7   5  25  116.90    6.60
  -7  -5 -24  451.07   16.69
   7   5  24  480.66   17.65
  -7  -5 -23  285.36   11.57
   7   5  23  286.91   11.87
  -7  -5 -22    4.01    3.93
   7   5  22    3.86    4.45
  -7  -5 -21  241.00   10.31
   7   5  21  238.11   10.31
  -7  -5 -20  381.19   14.46
   7   5  20  394.17   15.13
  -7  -5 -19  150.95    7.64
   7   5  19  147.61    7.79
  -7  -5 -18    2.00    3.19
   7   5  18   -0.07    4.30
  -7  -5 -17   87.01    5.86
   7   5  17   89.53    6.45
  -7  -5 -16 1089.65   36.94
   7   5  16 1114.13   37.83
  -7  -5 -15  536.30   19.29
   7   5  15  524.43   19.14
  -7  -5 -14  136.26    7.05
   7   5  14  135.30    7.27
  -7  -5 -13  788.50   27.30
   7   5  13  732.12   25.59
  -7  -5 -12 1151.22   38.79
   7   5  12 1151.22   38.94
  -7  -5 -11    5.79    3.41
   7   5  11    6.82    3.93
  -7  -5 -10   14.61    3.71
   7   5  10   12.54    4.01
  -7  -5  -9  590.15   20.99
   7   5   9  573.90   20.40
  -7  -5  -8 1474.63   48.96
   7   5   8 1497.62   49.70
  -7  -5  -7  143.23    6.82
   7   5   7  131.29    6.60
  -7  -5  -6  530.73   18.92
   7   5   6  521.54   18.62
  -7  -5  -5  973.94   33.01
   7   5   5  969.49   32.79
  -7  -5  -4  200.13    8.46
   7   5   4  196.79    8.31
  -7  -5  -3    2.52    2.74
   7   5   3    5.27    3.12
  -7  -5  -2  437.20   15.80
   7   5   2  429.93   15.58
  -7  -5  -1 1669.71   55.04
   7   5   1 1605.18   52.89
  -7  -5   0  284.39   10.98
  -7  -5   1   -2.00    2.97
  -7  -5   1    2.23    3.04
  -7  -5   2  158.14    7.42
  -7  -5   2  154.29    7.20
  -7  -5   3  959.84   32.56
  -7  -5   3  985.81   33.31
  -7  -5   4   89.38    5.49
  -7  -5   4  106.59    5.93
  -7  -5   5  122.17    6.31
  -7  -5   5  123.80    6.60
  -7  -5   6  696.00   24.18
  -7  -5   6  676.05   23.66
  -7  -5   7  315.47   12.31
  -7  -5   7  341.81   13.13
  -7  -5   8   77.59    5.34
  -7  -5   8   72.84    5.34
  -7  -5   9   24.55    4.23
  -7  -5   9   22.48    4.15
  -7  -5  10  858.22   29.67
  -7  -5  10  857.48   29.60
  -7  -5  11 2284.64   75.07
  -7  -5  11 2308.37   75.96
  -7  -5  12   50.81    5.12
  -7  -5  12   49.85    4.82
  -7  -5  13 1297.35   43.84
  -7  -5  13 1281.77   43.24
  -7  -5  14  700.38   24.85
  -7  -5  14  679.75   24.18
  -7  -5  15  233.88   10.31
  -7  -5  15  238.48   10.31
  -7  -5  16   24.11    4.60
  -7  -5  16   25.37    4.38
  -7  -5  17  209.62    9.72
  -7  -5  17  204.80    9.57
  -7  -5  18  781.08   27.37
  -7  -5  18  781.82   27.52
  -7  -5  19   86.12    6.31
  -7  -5  19   83.37    6.08
  -7  -5  20  221.64    9.94
  -7  -5  20  224.31    9.87
  -7  -5  21  589.11   21.36
  -7  -5  21  559.37   20.47
  -7  -5  22  140.64    7.20
  -7  -5  22  120.02    6.75
  -7  -5  23  152.80    7.79
  -7  -5  23  140.34    7.86
  -7  -5  24  178.17    8.38
  -7  -5  24  179.14    8.23
  -7  -5  25  613.29   21.88
  -7  -5  25  634.21   22.70
  -7  -5  26  106.52    6.60
  -7  -5  26  100.88    5.86
  -7  -5  27    7.27    4.45
  -7  -5  27    4.82    4.67
  -7  -5  28   56.67    5.27
  -7  -5  28   62.38    4.97
  -8  -5 -25    3.26   10.98
   8   5  25  293.22   11.27
  -8  -5 -24  255.17   12.02
   8   5  24  164.75    8.23
  -8  -5 -23   33.68    4.60
   8   5  23   26.63    4.82
  -8  -5 -22   69.43    5.56
   8   5  22   78.03    6.01
  -8  -5 -21  510.04   18.62
   8   5  21  532.22   19.43
  -8  -5 -20  444.91   16.62
   8   5  20  452.55   16.99
  -8  -5 -19    1.63    3.93
   8   5  19   -3.63    4.38
  -8  -5 -18  345.74   13.43
   8   5  18  326.82   13.35
  -8  -5 -17  439.20   16.24
   8   5  17  476.29   17.73
  -8  -5 -16    4.38    3.93
   8   5  16   13.06    4.52
  -8  -5 -15    5.64    3.41
   8   5  15    3.41    4.23
  -8  -5 -14  616.70   22.03
   8   5  14  571.90   20.62
  -8  -5 -13  124.62    6.75
   8   5  13  111.49    6.82
  -8  -5 -12    3.34    3.49
   8   5  12   -3.49    3.86
  -8  -5 -11  423.33   15.87
   8   5  11  389.20   14.76
  -8  -5 -10  775.89   27.00
   8   5  10  795.91   27.52
  -8  -5  -9  122.69    6.60
   8   5   9  111.04    6.23
  -8  -5  -8  175.35    7.94
   8   5   8  177.88    8.09
  -8  -5  -7  109.04    6.01
   8   5   7  109.63    6.08
  -8  -5  -6 1492.43   49.70
   8   5   6 1450.89   48.21
  -8  -5  -5  181.44    8.09
   8   5   5  181.14    8.09
  -8  -5  -4  103.18    5.79
   8   5   4   92.72    5.49
  -8  -5  -3  569.08   20.03
   8   5   3  592.60   20.84
  -8  -5  -2 1290.67   42.95
   8   5   2 1246.91   41.69
  -8  -5  -1  439.35   15.95
   8   5   1  452.40   16.54
  -8  -5   0   13.35    3.34
   8   5   0    8.98    3.34
  -8  -5   1  804.82   27.74
  -8  -5   1  778.85   26.70
  -8  -5   2 1183.86   39.83
  -8  -5   2 1156.41   38.87
  -8  -5   3    7.94    3.41
  -8  -5   3   13.80    3.71
  -8  -5   4    6.53    3.34
  -8  -5   4    6.97    3.49
  -8  -5   5  195.38    8.68
  -8  -5   5  202.21    8.98
  -8  -5   6 1564.38   51.92
  -8  -5   6 1594.80   53.04
  -8  -5   7   18.62    3.86
  -8  -5   7   22.10    4.08
  -8  -5   8  503.51   18.40
  -8  -5   8  499.43   18.25
  -8  -5   9  652.09   23.07
  -8  -5   9  626.94   22.33
  -8  -5  10   31.67    4.60
  -8  -5  10   21.36    4.30
  -8  -5  11  203.32    9.42
  -8  -5  11  192.93    9.05
  -8  -5  12   36.94    4.67
  -8  -5  12   30.86    4.67
  -8  -5  13  781.08   27.45
  -8  -5  13  755.12   26.41
  -8  -5  14  483.26   17.95
  -8  -5  14  474.58   17.51
  -8  -5  15   28.78    4.60
  -8  -5  15   21.51    3.86
  -8  -5  16  976.16   33.60
  -8  -5  16  976.16   33.53
  -8  -5  17  426.37   16.24
  -8  -5  17  417.61   15.87
  -8  -5  18   12.61    4.38
  -8  -5  18    5.71    4.45
  -8  -5  19  244.63   10.68
  -8  -5  19  277.94   11.87
  -8  -5  20  413.46   15.95
  -8  -5  20  381.04   14.61
  -8  -5  21  140.12    7.64
  -8  -5  21  133.44    7.20
  -8  -5  22    5.56    4.01
  -8  -5  22   10.90    4.82
  -8  -5  23  156.29    7.94
  -8  -5  23  145.53    7.57
  -8  -5  24  164.67    8.01
  -8  -5  24  171.87    8.60
  -8  -5  25  180.92    8.60
  -8  -5  25  170.01    8.23
  -8  -5  26    4.67    4.60
  -8  -5  26   -0.45    4.15
  -8  -5  27  141.53    7.27
  -8  -5  27  141.60    7.05
  -8  -5  28  339.28   13.06
  -8  -5  28  329.20   12.83
  -9  -5 -24    3.56   11.27
   9   5  24    4.97    4.15
  -9  -5 -23   86.56    6.60
   9   5  23   56.89    5.86
  -9  -5 -22  286.47   11.57
   9   5  22  261.47   11.20
  -9  -5 -21  307.02   12.24
   9   5  21  329.27   13.20
  -9  -5 -20    3.49    3.71
   9   5  20   -2.08    4.75
  -9  -5 -19  256.06   10.53
   9   5  19  267.26   11.42
  -9  -5 -18  242.11   10.16
   9   5  18  245.30   10.83
  -9  -5 -17  348.26   13.72
   9   5  17  364.80   14.32
  -9  -5 -16   63.72    5.12
   9   5  16   73.29    6.08
  -9  -5 -15  158.22    7.71
   9   5  15  163.26    8.46
  -9  -5 -14  724.63   25.37
   9   5  14  802.59   28.04
  -9  -5 -13 2204.53   72.62
   9   5  13 2230.49   73.36
  -9  -5 -12    6.01    3.71
   9   5  12    2.74    3.93
  -9  -5 -11  167.71    8.16
   9   5  11  191.60    8.90
  -9  -5 -10 2372.17   77.96
   9   5  10 2287.60   75.14
  -9  -5  -9  119.57    6.68
   9   5   9  113.49    6.60
  -9  -5  -8  328.75   12.98
   9   5   8  304.05   12.16
  -9  -5  -7   40.50    4.52
   9   5   7   38.42    4.60
  -9  -5  -6  229.80   10.01
   9   5   6  233.29    9.87
  -9  -5  -5   29.89    3.86
   9   5   5   32.34    4.23
  -9  -5  -4  233.14    9.64
   9   5   4  225.42    9.64
  -9  -5  -3 1080.01   36.42
   9   5   3 1055.53   35.75
  -9  -5  -2  343.36   13.06
   9   5   2  341.81   13.20
  -9  -5  -1   24.40    3.63
   9   5   1   26.33    4.08
  -9  -5   0 1217.24   40.95
   9   5   0 1187.57   39.91
  -9  -5   1 1735.73   57.49
   9   5  -1 1625.21   53.85
  -9  -5   2    3.63    3.19
  -9  -5   2   -0.07    3.41
  -9  -5   3  186.55    8.31
  -9  -5   3  191.52    8.75
  -9  -5   4  512.04   18.62
  -9  -5   4  496.69   18.17
  -9  -5   5  132.11    6.97
  -9  -5   5  144.79    7.42
  -9  -5   6  842.65   29.15
  -9  -5   6  875.28   30.12
  -9  -5   7    5.79    3.78
  -9  -5   7   -0.30    3.26
  -9  -5   8  644.08   22.92
  -9  -5   8  659.13   23.51
  -9  -5   9  852.29   29.67
  -9  -5   9  835.97   29.00
  -9  -5  10  252.13   10.83
  -9  -5  10  236.25   10.38
  -9  -5  11  934.62   32.27
  -9  -5  11  955.39   32.86
  -9  -5  12  226.02   10.16
  -9  -5  12  220.38    9.72
  -9  -5  13  388.69   15.06
  -9  -5  13  371.11   14.39
  -9  -5  14   83.75    5.93
  -9  -5  14   89.75    6.16
  -9  -5  15  103.48    6.75
  -9  -5  15  109.04    6.68
  -9  -5  16  470.87   17.65
  -9  -5  16  456.26   17.13
  -9  -5  17  128.84    7.27
  -9  -5  17  133.00    7.42
  -9  -5  18  169.42    8.31
  -9  -5  18  152.28    7.79
  -9  -5  19  319.92   12.98
  -9  -5  19  299.52   12.09
  -9  -5  20   96.80    6.60
  -9  -5  20   96.65    6.53
  -9  -5  21    4.23    4.15
  -9  -5  21    6.08    4.52
  -9  -5  22  103.62    6.31
  -9  -5  22   92.42    5.93
  -9  -5  23  596.82   21.36
  -9  -5  23  579.47   20.84
  -9  -5  24   50.44    5.04
  -9  -5  24   45.25    5.34
  -9  -5  25    3.86    4.30
  -9  -5  25    6.97    3.93
  -9  -5  26   21.44    4.52
  -9  -5  26   21.59    4.82
  -9  -5  27  555.06   19.66
  -9  -5  27  562.04   19.66
 -10  -5 -23    0.52    8.98
  10   5  23  162.52    7.94
 -10  -5 -22  394.47   15.21
  10   5  22  396.84   15.21
 -10  -5 -21   55.63    5.19
  10   5  21   61.05    5.56
 -10  -5 -20  245.52   10.31
  10   5  20  221.34    9.94
 -10  -5 -19  447.58   16.39
  10   5  19  418.73   16.02
 -10  -5 -18  980.61   33.45
  10   5  18  984.32   33.75
 -10  -5 -17   -4.08    3.78
  10   5  17    0.30    4.23
 -10  -5 -16  620.93   22.10
  10   5  16  613.37   22.03
 -10  -5 -15  707.57   24.77
  10   5  15  703.19   24.92
 -10  -5 -14    6.90    3.86
  10   5  14   12.61    4.75
 -10  -5 -13  248.49   10.53
  10   5  13  234.25   10.31
 -10  -5 -12   80.78    5.49
  10   5  12   96.50    6.53
 -10  -5 -11  255.61   10.90
  10   5  11  256.28   10.76
 -10  -5 -10  470.95   17.36
  10   5  10  467.16   17.28
 -10  -5  -9  375.26   14.24
  10   5   9  397.96   15.13
 -10  -5  -8 1996.09   65.87
  10   5   8 1899.66   62.83
 -10  -5  -7  262.73   10.98
  10   5   7  268.15   11.13
 -10  -5  -6    0.30    3.56
  10   5   6   -4.60    3.93
 -10  -5  -5  235.29   10.01
  10   5   5  230.91   10.01
 -10  -5  -4  423.40   15.65
  10   5   4  438.90   16.32
 -10  -5  -3  399.07   14.98
  10   5   3  389.58   14.76
 -10  -5  -2    6.82    3.49
  10   5   2    4.45    3.71
 -10  -5  -1  814.46   28.26
  10   5   1  809.27   27.89
 -10  -5   0  674.78   23.96
  10   5   0  708.02   24.70
 -10  -5   1  143.83    7.27
  10   5  -1  149.02    7.34
 -10  -5   2  113.34    6.31
 -10  -5   3  598.68   21.51
 -10  -5   3  627.90   22.18
 -10  -5   4 1127.48   38.28
 -10  -5   4 1110.42   37.53
 -10  -5   5  142.94    7.42
 -10  -5   5  148.72    7.42
 -10  -5   6  593.19   21.36
 -10  -5   6  617.15   22.03
 -10  -5   7  536.52   19.58
 -10  -5   7  543.64   19.81
 -10  -5   8  723.30   25.52
 -10  -5   8  724.78   25.44
 -10  -5   9  162.22    8.23
 -10  -5   9  146.80    7.71
 -10  -5  10  348.33   13.80
 -10  -5  10  340.32   13.57
 -10  -5  11 1255.07   42.43
 -10  -5  11 1258.78   42.43
 -10  -5  12 1088.17   37.09
 -10  -5  12 1092.62   37.31
 -10  -5  13  542.75   19.66
 -10  -5  13  547.72   20.03
 -10  -5  14   96.58    6.23
 -10  -5  14  104.96    6.45
 -10  -5  15  130.33    7.27
 -10  -5  15  116.75    6.53
 -10  -5  16  399.14   15.13
 -10  -5  16  398.48   15.13
 -10  -5  17  128.84    6.97
 -10  -5  17  138.86    7.34
 -10  -5  18  433.12   16.24
 -10  -5  18  442.91   16.69
 -10  -5  19  185.52    9.05
 -10  -5  19  195.60    9.20
 -10  -5  20    2.45    4.45
 -10  -5  20    1.71    4.01
 -10  -5  21   41.98    4.90
 -10  -5  21   56.89    5.34
 -10  -5  22  674.93   23.88
 -10  -5  22  695.03   24.33
 -10  -5  23  278.90   11.72
 -10  -5  23  300.93   12.16
 -10  -5  24    8.09    4.30
 -10  -5  24    6.23    4.23
 -10  -5  25  150.73    7.42
 -10  -5  25  147.31    7.57
 -10  -5  26  311.76   12.24
 -10  -5  26  296.26   11.65
 -11  -5 -22   -5.34    6.53
  11   5  22   42.80    5.27
 -11  -5 -21  426.52   15.87
  11   5  21  381.49   14.76
 -11  -5 -20  384.90   14.61
  11   5  20  392.91   15.13
 -11  -5 -19   79.00    5.79
  11   5  19   86.56    6.60
 -11  -5 -18    3.78    3.71
  11   5  18   -1.26    4.52
 -11  -5 -17   11.42    3.41
  11   5  17   17.58    5.04
 -11  -5 -16  507.74   18.69
  11   5  16  539.93   19.73
 -11  -5 -15  297.00   11.79
  11   5  15  302.05   12.31
 -11  -5 -14    2.52    3.86
  11   5  14    7.49    4.30
 -11  -5 -13  419.32   15.65
  11   5  13  426.00   16.17
 -11  -5 -12  449.44   16.76
  11   5  12  439.05   16.54
 -11  -5 -11    4.15    3.71
  11   5  11    7.49    4.01
 -11  -5 -10   61.20    4.75
  11   5  10   56.08    5.27
 -11  -5  -9  501.95   18.17
  11   5   9  501.66   18.47
 -11  -5  -8  638.66   22.62
  11   5   8  634.65   22.55
 -11  -5  -7  147.39    7.42
  11   5   7  132.33    7.05
 -11  -5  -6  263.48   11.05
  11   5   6  280.24   11.42
 -11  -5  -5 1141.58   38.72
  11   5   5 1140.09   38.42
 -11  -5  -4  257.69   10.76
  11   5   4  243.22   10.24
 -11  -5  -3   16.02    3.71
  11   5   3   15.65    3.93
 -11  -5  -2  368.88   14.17
  11   5   2  354.56   13.65
 -11  -5  -1  466.27   17.28
  11   5   1  474.66   17.51
 -11  -5   0  108.22    6.45
  11   5   0  102.59    6.31
 -11  -5   1    3.71    3.56
  11   5  -1    3.71    3.71
 -11  -5   2  301.68   12.16
  11   5  -2  321.18   12.83
 -11  -5   3  716.84   25.29
 -11  -5   3  774.40   26.85
 -11  -5   4  169.94    8.09
 -11  -5   4  179.88    8.53
 -11  -5   5   -0.22    3.63
 -11  -5   5    0.67    3.78
 -11  -5   6  772.92   27.00
 -11  -5   6  759.57   26.63
 -11  -5   7  345.51   13.65
 -11  -5   7  357.16   14.09
 -11  -5   8  216.30    9.64
 -11  -5   8  225.27    9.87
 -11  -5   9  440.53   16.62
 -11  -5   9  410.86   15.65
 -11  -5  10  464.12   17.43
 -11  -5  10  449.14   16.76
 -11  -5  11  207.47    9.35
 -11  -5  11  214.37    9.64
 -11  -5  12  247.60   10.68
 -11  -5  12  246.49   10.76
 -11  -5  13  457.67   17.21
 -11  -5  13  480.52   17.95
 -11  -5  14  271.86   11.42
 -11  -5  14  291.81   12.09
 -11  -5  15    5.49    3.93
 -11  -5  15    5.19    4.08
 -11  -5  16  220.75    9.79
 -11  -5  16  219.19    9.64
 -11  -5  17  216.37    9.64
 -11  -5  17  214.67    9.72
 -11  -5  18   41.39    5.04
 -11  -5  18   39.61    5.04
 -11  -5  19    8.83    4.23
 -11  -5  19    2.52    4.38
 -11  -5  20   38.50    4.82
 -11  -5  20   54.00    5.56
 -11  -5  21  428.22   16.02
 -11  -5  21  400.26   15.21
 -11  -5  22  387.05   14.76
 -11  -5  22  380.45   14.39
 -11  -5  23  109.04    6.53
 -11  -5  23   97.69    6.45
 -11  -5  24  369.62   14.17
 -11  -5  24  334.24   13.06
 -11  -5  25  813.72   27.82
 -11  -5  25  795.17   27.07
 -11  -5  26  162.97    7.94
 -11  -5  26  146.65    7.27
 -12  -5 -21   84.78    7.05
  12   5  21  489.79   17.80
 -12  -5 -20  475.25   17.28
  12   5  20  452.25   16.91
 -12  -5 -19   26.18    3.49
  12   5  19   24.70    4.97
 -12  -5 -18  463.75   17.06
  12   5  18  489.34   18.17
 -12  -5 -17  343.51   13.43
  12   5  17  362.06   14.32
 -12  -5 -16  168.53    8.16
  12   5  16  167.71    8.60
 -12  -5 -15   28.48    4.15
  12   5  15   33.75    5.12
 -12  -5 -14  363.24   14.09
  12   5  14  324.37   13.20
 -12  -5 -13  290.18   11.72
  12   5  13  302.57   12.16
 -12  -5 -12  116.23    6.60
  12   5  12  117.64    6.90
 -12  -5 -11   18.92    4.08
  12   5  11   25.59    4.60
 -12  -5 -10  500.54   18.25
  12   5  10  516.05   18.99
 -12  -5  -9  288.32   11.65
  12   5   9  269.63   11.42
 -12  -5  -8   64.83    5.19
  12   5   8   68.76    5.64
 -12  -5  -7   83.23    5.71
  12   5   7   90.20    5.93
 -12  -5  -6  637.55   22.70
  12   5   6  587.48   21.21
 -12  -5  -5  603.20   21.66
  12   5   5  618.48   22.25
 -12  -5  -4    7.94    3.56
  12   5   4   14.46    4.23
 -12  -5  -3  229.06    9.94
  12   5   3  216.52    9.87
 -12  -5  -2  337.87   13.28
  12   5   2  355.75   14.17
 -12  -5  -1  281.50   11.65
  12   5   1  277.94   11.72
 -12  -5   0   13.20    3.86
  12   5   0    8.90    4.15
 -12  -5   1  180.47    8.75
  12   5  -1  162.30    8.23
 -12  -5   2  455.15   16.91
  12   5  -2  449.81   16.99
 -12  -5   3  165.86    7.94
 -12  -5   3  151.99    7.49
 -12  -5   4    4.75    3.78
 -12  -5   4   -2.52    3.56
 -12  -5   5  194.86    8.98
 -12  -5   5  201.09    9.05
 -12  -5   6 1306.99   43.99
 -12  -5   6 1324.05   44.51
 -12  -5   7   65.35    5.27
 -12  -5   7   52.29    4.97
 -12  -5   8 1274.35   43.02
 -12  -5   8 1286.96   43.32
 -12  -5   9  410.57   15.65
 -12  -5   9  385.05   14.84
 -12  -5  10  113.27    6.68
 -12  -5  10  114.45    6.68
 -12  -5  11  135.30    7.20
 -12  -5  11  121.20    6.97
 -12  -5  12   81.89    5.93
 -12  -5  12   88.34    6.01
 -12  -5  13  366.43   14.32
 -12  -5  13  348.41   13.72
 -12  -5  14  527.10   19.21
 -12  -5  14  523.02   19.14
 -12  -5  15   15.58    3.78
 -12  -5  15   17.58    4.23
 -12  -5  16  589.11   21.07
 -12  -5  16  586.07   21.21
 -12  -5  17  378.45   14.54
 -12  -5  17  385.50   15.06
 -12  -5  18   -0.52    4.01
 -12  -5  18    1.11    4.23
 -12  -5  19   11.50    4.08
 -12  -5  19   19.95    4.82
 -12  -5  20  375.70   14.32
 -12  -5  20  385.79   14.98
 -12  -5  21  293.37   11.79
 -12  -5  21  280.31   11.65
 -12  -5  22   12.76    4.38
 -12  -5  22   13.87    4.23
 -12  -5  23  108.30    6.23
 -12  -5  23  122.47    6.82
 -12  -5  24  224.53    9.57
 -12  -5  24  219.64    9.64
 -12  -5  25  306.20   11.87
 -12  -5  25  293.00   11.35
 -13  -5 -20    3.56    4.15
  13   5  20    5.79    4.38
 -13  -5 -19   77.74    5.19
  13   5  19   77.51    6.01
 -13  -5 -18  261.40   10.83
  13   5  18  269.11   11.35
 -13  -5 -17  172.98    8.16
  13   5  17  157.03    8.23
 -13  -5 -16   37.01    4.30
  13   5  16   44.80    5.34
 -13  -5 -15  213.70    9.35
  13   5  15  205.91    9.57
 -13  -5 -14   52.74    5.12
  13   5  14   39.09    5.27
 -13  -5 -13  418.58   15.65
  13   5  13  413.24   15.80
 -13  -5 -12   30.04    4.52
  13   5  12   17.80    4.67
 -13  -5 -11  166.01    7.86
  13   5  11  176.99    8.60
 -13  -5 -10  414.35   15.73
  13   5  10  385.72   14.91
 -13  -5  -9  161.85    7.86
  13   5   9  163.49    8.38
 -13  -5  -8  160.22    7.71
  13   5   8  153.55    8.01
 -13  -5  -7  232.02   10.09
  13   5   7  248.34   10.76
 -13  -5  -6  151.91    7.86
  13   5   6  155.18    8.09
 -13  -5  -5  227.87    9.87
  13   5   5  230.61   10.24
 -13  -5  -4   56.45    4.75
  13   5   4   53.04    5.27
 -13  -5  -3  501.95   18.40
  13   5   3  478.36   17.80
 -13  -5  -2  514.93   18.77
  13   5   2  562.04   20.40
 -13  -5  -1   81.30    5.64
  13   5   1   78.40    5.79
 -13  -5   0  293.59   11.94
  13   5   0  293.29   11.94
 -13  -5   1  426.29   15.95
  13   5  -1  426.22   15.87
 -13  -5   2   16.39    3.78
  13   5  -2   14.32    4.15
 -13  -5   3 1111.16   37.61
 -13  -5   4  243.15   10.46
 -13  -5   4  255.46   10.68
 -13  -5   5    9.94    3.93
 -13  -5   5   15.35    4.08
 -13  -5   6  186.26    8.90
 -13  -5   6  187.44    8.83
 -13  -5   7   78.92    5.56
 -13  -5   7   78.85    5.64
 -13  -5   8  169.72    8.31
 -13  -5   8  160.22    8.09
 -13  -5   9  764.76   26.93
 -13  -5   9  758.08   26.56
 -13  -5  10   55.63    5.19
 -13  -5  10   61.49    5.41
 -13  -5  11  634.88   22.62
 -13  -5  11  609.36   21.81
 -13  -5  12  887.89   30.63
 -13  -5  12  881.22   30.49
 -13  -5  13  133.67    7.12
 -13  -5  13  132.33    6.97
 -13  -5  14    5.93    4.01
 -13  -5  14    3.19    4.01
 -13  -5  15  348.48   13.72
 -13  -5  15  353.01   13.87
 -13  -5  16  947.23   32.49
 -13  -5  16  971.71   33.23
 -13  -5  17  337.21   13.28
 -13  -5  17  330.01   13.20
 -13  -5  18    3.56    4.08
 -13  -5  18    0.59    3.63
 -13  -5  19  396.47   14.84
 -13  -5  19  399.74   14.98
 -13  -5  20  570.79   20.32
 -13  -5  20  538.00   19.43
 -13  -5  21   35.60    4.82
 -13  -5  21   41.84    5.19
 -13  -5  22  159.03    7.71
 -13  -5  22  169.42    8.38
 -13  -5  23  541.34   19.36
 -13  -5  23  550.39   19.51
 -13  -5  24  169.20    7.34
 -13  -5  24  143.83    7.20
 -14  -5 -18  484.97   17.36
  14   5  18  479.77   17.51
 -14  -5 -17  144.79    7.57
  14   5  17  134.93    7.71
 -14  -5 -16  245.01   10.09
  14   5  16  249.23   10.90
 -14  -5 -15  362.95   13.65
  14   5  15  397.29   15.21
 -14  -5 -14   44.43    4.97
  14   5  14   46.58    5.27
 -14  -5 -13  171.20    8.23
  14   5  13  190.49    9.20
 -14  -5 -12   71.06    5.27
  14   5  12   73.66    5.71
 -14  -5 -11  580.65   20.92
  14   5  11  619.08   22.03
 -14  -5 -10   40.80    4.38
  14   5  10   41.46    5.12
 -14  -5  -9  125.66    7.05
  14   5   9  137.00    7.49
 -14  -5  -8 1418.26   47.32
  14   5   8 1354.46   45.54
 -14  -5  -7  415.24   15.58
  14   5   7  423.47   16.02
 -14  -5  -6   26.70    4.38
  14   5   6   19.66    4.45
 -14  -5  -5   57.71    4.67
  14   5   5   51.78    5.19
 -14  -5  -4  293.07   11.87
  14   5   4  315.84   12.91
 -14  -5  -3  405.08   15.35
  14   5   3  397.36   15.28
 -14  -5  -2    4.15    3.49
  14   5   2    4.45    3.93
 -14  -5  -1  491.79   18.17
  14   5   1  501.58   18.40
 -14  -5   0  254.13   10.90
  14   5   0  239.07   10.46
 -14  -5   1  110.30    6.68
  14   5  -1  109.78    6.45
 -14  -5   2    1.56    3.78
  14   5  -2    1.19    3.86
 -14  -5   3 1057.76   36.05
  14   5  -3 1092.62   37.24
 -14  -5   4  989.52   33.90
 -14  -5   4  956.14   32.79
 -14  -5   5    0.30    3.78
 -14  -5   5    3.49    3.78
 -14  -5   6  180.69    8.60
 -14  -5   6  182.92    8.75
 -14  -5   7  315.77   12.54
 -14  -5   7  317.62   12.76
 -14  -5   8  263.62   10.98
 -14  -5   8  241.96   10.46
 -14  -5   9   79.67    5.71
 -14  -5   9   95.09    6.23
 -14  -5  10   53.18    5.19
 -14  -5  10   50.74    5.04
 -14  -5  11  872.32   30.19
 -14  -5  11  876.77   30.34
 -14  -5  12  262.96   11.13
 -14  -5  12  249.83   10.76
 -14  -5  13   23.14    4.15
 -14  -5  13   26.26    4.45
 -14  -5  14  483.41   17.73
 -14  -5  14  477.33   17.65
 -14  -5  15  387.42   14.76
 -14  -5  15  433.78   16.32
 -14  -5  16  248.79   10.53
 -14  -5  16  257.69   10.90
 -14  -5  17   20.55    3.86
 -14  -5  17    8.83    4.30
 -14  -5  18  608.92   21.51
 -14  -5  18  631.39   22.48
 -14  -5  19  605.80   21.59
 -14  -5  19  612.48   21.96
 -14  -5  20   50.22    4.97
 -14  -5  20   55.11    5.49
 -14  -5  21   79.44    5.49
 -14  -5  21   83.00    5.79
 -14  -5  22  249.83   10.09
 -14  -5  22  248.86    9.87
 -14  -5  23  224.98    9.35
 -14  -5  23  216.45    9.12
 -15  -5 -17  275.12   11.20
  15   5  17  252.42   10.76
 -15  -5 -16  226.09    9.57
  15   5  16  237.36   10.16
 -15  -5 -15  469.98   17.13
  15   5  15  446.25   16.54
 -15  -5 -14    3.04    3.56
  15   5  14    6.38    4.23
 -15  -5 -13  998.42   33.90
  15   5  13 1020.67   34.71
 -15  -5 -12   13.95    4.15
  15   5  12   19.36    4.90
 -15  -5 -11  117.94    6.45
  15   5  11   99.32    6.60
 -15  -5 -10   13.20    4.01
  15   5  10    5.64    4.30
 -15  -5  -9   58.08    5.12
  15   5   9  101.62    6.60
 -15  -5  -8   92.42    5.93
  15   5   8   68.54    5.56
 -15  -5  -7  349.96   13.50
  15   5   7  365.02   14.32
 -15  -5  -6   31.90    4.08
  15   5   6   32.34    4.75
 -15  -5  -5  751.41   26.26
  15   5   5  763.28   26.70
 -15  -5  -4  426.66   16.02
  15   5   4  421.77   16.02
 -15  -5  -3   22.85    4.15
  15   5   3   16.02    4.67
 -15  -5  -2  303.46   12.16
  15   5   2  324.45   13.20
 -15  -5  -1  370.59   14.24
  15   5   1  382.75   14.91
 -15  -5   0   48.07    4.75
  15   5   0   50.22    5.27
 -15  -5   1  168.23    8.09
  15   5  -1  165.93    8.31
 -15  -5   2  392.25   14.91
  15   5  -2  381.27   14.91
 -15  -5   3  394.47   15.06
  15   5  -3  405.45   15.65
 -15  -5   4    2.82    3.34
 -15  -5   4    0.15    3.78
 -15  -5   5  201.69    8.98
 -15  -5   5  199.31    9.05
 -15  -5   6  600.61   21.51
 -15  -5   6  583.40   20.99
 -15  -5   7  641.63   22.85
 -15  -5   7  660.10   23.44
 -15  -5   8   40.80    4.67
 -15  -5   8   39.68    4.67
 -15  -5   9    0.52    3.71
 -15  -5   9    2.23    3.93
 -15  -5  10  221.79    9.87
 -15  -5  10  233.88   10.31
 -15  -5  11  363.32   14.09
 -15  -5  11  383.27   14.84
 -15  -5  12  117.42    6.68
 -15  -5  12  127.29    7.20
 -15  -5  13  236.03   10.01
 -15  -5  13  224.53   10.01
 -15  -5  14  775.15   26.85
 -15  -5  14  794.43   27.59
 -15  -5  15  153.40    7.57
 -15  -5  15  138.19    7.49
 -15  -5  16  119.80    6.60
 -15  -5  16  136.63    7.49
 -15  -5  17  422.36   15.87
 -15  -5  17  417.24   15.87
 -15  -5  18  281.80   11.65
 -15  -5  18  283.21   11.65
 -15  -5  19   47.40    4.82
 -15  -5  19   40.95    4.97
 -15  -5  20  128.47    6.90
 -15  -5  20  123.36    6.45
 -15  -5  21  283.58   11.20
 -15  -5  21  264.29   10.46
 -15  -5  22   52.44    4.90
 -16  -5 -15   43.24    4.15
  16   5  15   35.83    4.75
 -16  -5 -14  147.24    7.05
  16   5  14  147.76    7.57
 -16  -5 -13 1095.59   37.01
  16   5  13 1099.30   36.94
 -16  -5 -12  175.21    8.16
  16   5  12  184.18    8.68
 -16  -5 -11  362.20   13.50
  16   5  11  384.31   14.91
 -16  -5 -10  657.87   23.14
  16   5  10  605.21   21.66
 -16  -5  -9  748.44   26.18
  16   5   9  831.52   28.85
 -16  -5  -8    4.82    3.26
  16   5   8   -7.20    4.45
 -16  -5  -7   81.82    5.86
  16   5   7   80.11    6.08
 -16  -5  -6  615.59   21.96
  16   5   6  614.26   21.96
 -16  -5  -5  501.73   18.17
  16   5   5  510.26   18.84
 -16  -5  -4   12.91    4.15
  16   5   4   12.24    4.75
 -16  -5  -3  373.11   14.46
  16   5   3  362.20   14.17
 -16  -5  -2  519.98   18.92
  16   5   2  544.68   19.81
 -16  -5  -1  172.39    8.09
  16   5   1  179.21    8.53
 -16  -5   0   96.28    5.93
  16   5   0   85.67    5.86
 -16  -5   1  498.02   18.40
  16   5  -1  471.17   17.28
 -16  -5   2  414.05   15.73
  16   5  -2  460.12   16.99
 -16  -5   3   -0.15    3.86
  16   5  -3   -0.89    3.71
 -16  -5   4  219.49    9.79
 -16  -5   4  230.24   10.16
 -16  -5   5  509.82   18.77
 -16  -5   5  524.06   19.21
 -16  -5   6  767.73   26.85
 -16  -5   6  749.18   26.18
 -16  -5   7  155.40    7.64
 -16  -5   7  147.17    7.71
 -16  -5   8 1884.08   62.31
 -16  -5   8 1907.82   63.05
 -16  -5   9  718.99   25.29
 -16  -5   9  715.51   25.07
 -16  -5  10  236.10   10.01
 -16  -5  10  265.26   11.13
 -16  -5  11  100.73    6.08
 -16  -5  11  120.09    6.82
 -16  -5  12  359.01   13.72
 -16  -5  12  342.55   13.43
 -16  -5  13  561.00   20.03
 -16  -5  13  553.80   20.03
 -16  -5  14  630.87   22.25
 -16  -5  14  630.72   22.40
 -16  -5  15   62.23    5.12
 -16  -5  15   80.04    5.93
 -16  -5  16  669.22   23.59
 -16  -5  16  639.48   22.62
 -16  -5  17  330.01   13.06
 -16  -5  17  315.77   12.39
 -16  -5  18   97.76    6.01
 -16  -5  18   96.28    6.08
 -16  -5  19   67.28    5.12
 -16  -5  19   75.81    5.19
 -16  -5  20  284.10   11.05
 -16  -5  20  287.29   11.13
 -17  -5 -13   12.46    4.38
  17   5  13   12.09    4.23
 -17  -5 -12    2.67    4.01
  17   5  12   -5.64    4.23
 -17  -5 -11  186.78    8.23
  17   5  11  187.59    8.68
 -17  -5 -10  178.84    8.23
  17   5  10  172.09    8.23
 -17  -5  -9   18.92    4.01
  17   5   9   22.33    4.82
 -17  -5  -8  196.72    8.90
  17   5   8  190.71    8.90
 -17  -5  -7  215.48    9.12
  17   5   7  217.78    9.87
 -17  -5  -6  104.14    6.23
  17   5   6  100.51    6.53
 -17  -5  -5   11.42    4.38
  17   5   5    8.60    4.08
 -17  -5  -4  516.34   18.77
  17   5   4  543.34   19.95
 -17  -5  -3  512.49   18.54
  17   5   3  600.16   21.73
 -17  -5  -2  172.02    8.38
  17   5   2  166.53    8.16
 -17  -5  -1   71.36    5.64
  17   5   1   72.62    5.56
 -17  -5   0  418.50   15.80
  17   5   0  405.45   15.43
 -17  -5   1  750.67   26.11
  17   5  -1  719.96   25.15
 -17  -5   2  182.33    8.53
  17   5  -2  186.63    8.83
 -17  -5   3  303.68   12.24
  17   5  -3  296.71   12.02
 -17  -5   4  681.83   24.03
 -17  -5   4  682.35   24.11
 -17  -5   5  394.62   14.91
 -17  -5   5  395.88   15.13
 -17  -5   6   31.67    4.38
 -17  -5   6   31.38    4.67
 -17  -5   7    5.64    3.86
 -17  -5   7   17.51    4.38
 -17  -5   8  113.12    6.53
 -17  -5   8  109.71    6.68
 -17  -5   9  677.75   23.81
 -17  -5   9  660.32   23.44
 -17  -5  10  505.81   18.54
 -17  -5  10  509.89   18.47
 -17  -5  11  131.66    6.82
 -17  -5  11  131.22    7.27
 -17  -5  12  210.14    9.27
 -17  -5  12  201.61    9.12
 -17  -5  13    6.16    3.71
 -17  -5  13    1.63    3.49
 -17  -5  14  352.12   13.50
 -17  -5  14  342.03   13.28
 -17  -5  15  255.54   10.46
 -17  -5  15  238.03    9.87
 -17  -5  16  296.71   11.72
 -17  -5  16  281.95   11.27
 -17  -5  17  252.72   10.31
 -17  -5  17  242.26   10.01
 -17  -5  18   33.23    4.45
 -17  -5  18   24.03    4.15
 -18  -5 -10  247.45   10.01
  18   5  10  261.10   10.53
 -18  -5  -9  260.36   10.38
  18   5   9  266.15   10.98
 -18  -5  -8  388.61   14.61
  18   5   8  405.67   15.13
 -18  -5  -7  150.73    7.49
  18   5   7  145.24    7.64
 -18  -5  -6   47.92    4.82
  18   5   6   53.93    5.12
 -18  -5  -5  588.29   20.84
  18   5   5  557.14   20.03
 -18  -5  -4  271.41   10.76
  18   5   4  290.85   11.79
 -18  -5  -3   35.01    4.30
  18   5   3   31.38    4.60
 -18  -5  -2   11.57    4.01
  18   5   2    9.12    4.52
 -18  -5  -1  281.28   11.42
  18   5   1  293.67   12.09
 -18  -5   0  272.08   10.98
  18   5   0  294.41   11.94
 -18  -5   1   56.97    4.67
  18   5  -1   65.94    5.41
 -18  -5   2    6.01    3.71
  18   5  -2   14.76    3.78
 -18  -5   3  516.27   18.69
  18   5  -3  517.16   18.69
 -18  -5   4  811.49   27.96
 -18  -5   4  861.19   29.82
 -18  -5   5    7.34    3.71
 -18  -5   5   17.21    4.38
 -18  -5   6  125.95    6.68
 -18  -5   6  129.36    7.12
 -18  -5   7  360.65   13.72
 -18  -5   7  366.65   14.17
 -18  -5   8   86.64    5.71
 -18  -5   8   69.65    5.34
 -18  -5   9  239.44   10.09
 -18  -5   9  237.88   10.31
 -18  -5  10   47.32    4.75
 -18  -5  10   44.36    4.75
 -18  -5  11 1206.85   40.43
 -18  -5  11 1171.25   39.31
 -18  -5  12  303.83   11.87
 -18  -5  12  304.94   12.09
 -18  -5  13    3.19    3.71
 -18  -5  13    6.38    4.08
 -18  -5  14  473.69   17.06
 -18  -5  14  484.30   17.51
 -18  -5  15  194.49    8.60
 -18  -5  15  192.41    8.46
 -18  -5  16  133.96    6.82
 -18  -5  16  141.68    6.75
 -19  -5  -7    9.72    4.23
  19   5   7   10.09    4.52
 -19  -5  -6  231.21    9.64
  19   5   6  226.31    9.64
 -19  -5  -5  646.23   22.40
  19   5   5  660.69   22.99
 -19  -5  -4   86.93    5.41
  19   5   4   89.16    5.86
 -19  -5  -3   -2.45    3.71
  19   5   3   -4.67    4.01
 -19  -5  -2   81.52    5.41
  19   5   2   73.14    5.56
 -19  -5  -1  526.13   18.92
  19   5   1  529.32   18.92
 -19  -5   0   60.60    5.19
  19   5   0   54.82    5.19
 -19  -5   1   -0.30    3.86
  19   5  -1    2.60    3.93
 -19  -5   2  329.20   12.91
  19   5  -2  340.77   13.13
 -19  -5   3   43.54    4.67
  19   5  -3   44.95    4.01
 -19  -5   4   95.39    5.93
 -19  -5   4  106.07    6.16
 -19  -5   5   24.11    4.15
 -19  -5   5   39.17    4.75
 -19  -5   6  730.79   25.22
 -19  -5   6  755.12   26.18
 -19  -5   7  162.52    7.49
 -19  -5   7  158.00    7.71
 -19  -5   8   67.57    5.12
 -19  -5   8   71.88    5.34
 -19  -5   9  488.97   17.58
 -19  -5   9  486.67   17.58
 -19  -5  10  147.98    7.20
 -19  -5  10  150.88    7.27
 -19  -5  11  244.49   10.01
 -19  -5  11  241.37   10.01
 -19  -5  12   -0.82    3.63
 -19  -5  12    0.22    3.86
 -19  -5  13  144.05    7.12
 -19  -5  13  153.10    7.57
 -20  -5  -1  279.42   11.27
  20   5   1  278.83   11.05
 -20  -5   0   10.98    3.93
  20   5   0    1.85    3.71
 -20  -5   1  107.41    5.93
  20   5  -1  112.01    6.08
 -20  -5   2  428.81   15.58
  20   5  -2  444.02   15.95
 -20  -5   3   39.98    3.93
 -20  -5   4    1.93    3.56
 -20  -5   4   -2.37    3.26
 -20  -5   5   55.93    4.45
 -20  -5   5   53.04    4.67
 -20  -5   6  281.50   11.13
 -20  -5   6  313.69   12.09
 -20  -5   7   93.98    5.64
 -20  -5   7   94.80    5.71
  18  -6  -1  164.89    7.64
 -18   6   1    0.37    5.04
  18  -6   0   83.52    5.27
 -18   6   0    1.11    5.04
  18  -6   1   97.76    5.86
 -18   6  -1   -1.56    4.52
  18  -6   2   95.47    5.71
 -18   6  -2   -1.48    4.67
 -17   6  13   -5.86    8.38
 -17   6   5    1.19    3.49
 -17   6   5   -2.08    3.56
  17  -6  -2  356.72   13.65
  17  -6  -1   57.19    4.67
 -17   6   1   -1.34    4.38
  17  -6   0  160.96    7.57
 -17   6   0   -6.31    4.23
  17  -6   1  430.59   15.80
 -17   6  -1    0.89    4.30
  17  -6   2   94.13    5.64
 -17   6  -2    8.16    5.12
  17  -6   3   -0.89    3.41
 -17   6  -3    2.00    4.75
  17  -6   4  176.10    7.64
 -17   6  -4    8.98    5.27
  17  -6   5   85.45    5.49
 -17   6  -5    5.86    4.60
  17  -6   6  119.50    6.53
 -17   6  -6    7.12    4.82
  17  -6   7   23.29    4.82
 -17   6  -7    2.52    4.23
 -16   6  13    5.71    4.15
 -16   6  13    2.67    4.08
 -16   6   9    2.97    3.86
 -16   6   9   -2.30    3.56
  16  -6  -2    8.46    3.19
 -16   6   2    3.71    3.56
 -16   6   2   -5.34    3.78
  16  -6  -1   99.32    5.64
 -16   6   1   -3.19    4.01
  16  -6   0   32.64    4.08
 -16   6   0   -6.16    3.86
  16  -6   1  348.56   13.13
 -16   6  -1   10.01    4.23
  16  -6   2   98.80    5.79
 -16   6  -2    0.37    4.90
  16  -6   3    9.87    3.78
 -16   6  -3    6.23    4.67
  16  -6   4  211.55    9.05
 -16   6  -4   24.48    5.04
  16  -6   5  511.60   18.17
 -16   6  -5  101.55    6.90
  16  -6   6    3.04    3.63
 -16   6  -6   -2.97    4.23
  16  -6   7  133.89    6.90
 -16   6  -7   73.73    5.79
  16  -6   8  201.54    8.83
 -16   6  -8  152.21    7.71
  16  -6   9   23.37    4.90
 -16   6  -9   25.37    4.38
  16  -6  10   18.40    4.97
 -16   6 -10    9.35    4.30
 -15   6  17    3.86    5.86
 -15   6  17    3.63    4.01
 -15   6  10    5.86    3.78
 -15   6  10   -4.30    3.34
  15  -6  -1   36.05    3.78
 -15   6   1   -2.67    3.78
  15  -6   0  385.94   14.09
 -15   6   0    5.12    4.45
  15  -6   1  163.56    7.42
 -15   6  -1   14.32    4.75
  15  -6   2   49.40    4.38
 -15   6  -2   14.09    4.60
  15  -6   3  486.30   17.36
 -15   6  -3  221.64   10.31
  15  -6   4  417.09   15.35
 -15   6  -4  322.00   12.98
  15  -6   5   92.79    5.93
 -15   6  -5   67.65    5.49
  15  -6   6  146.50    7.49
 -15   6  -6  123.58    6.68
  15  -6   7    9.42    4.38
 -15   6  -7   16.91    4.15
  15  -6   8  382.08   14.54
 -15   6  -8  411.61   15.28
  15  -6   9   39.31    5.19
 -15   6  -9   21.44    4.15
  15  -6  10  184.55    8.90
 -15   6 -10  194.71    8.68
  15  -6  11  207.55    9.72
 -15   6 -11  228.39    9.57
  15  -6  12   11.50    4.75
 -15   6 -12   10.53    3.86
 -15   6 -13    6.08    4.52
 -14   6  19   16.39    6.53
 -14   6  19   18.62    4.45
 -14   6  12    4.67    3.34
 -14   6  12    1.04    3.04
  14  -6  -1  491.12   17.28
 -14   6   1  214.67    9.20
  14  -6   0    8.38    3.12
 -14   6   0    4.75    3.93
  14  -6   1   66.61    4.60
 -14   6  -1   80.63    5.71
  14  -6   2   23.66    3.56
 -14   6  -2   26.93    4.23
  14  -6   3   73.73    4.97
 -14   6  -3   82.26    5.86
  14  -6   4   47.40    4.30
 -14   6  -4   55.19    4.82
  14  -6   5  409.75   15.13
 -14   6  -5  442.46   16.24
  14  -6   6  842.65   28.78
 -14   6  -6  952.43   32.42
  14  -6   7  187.89    8.68
 -14   6  -7  190.04    8.68
  14  -6   8  124.99    7.20
 -14   6  -8  126.62    6.75
  14  -6   9  651.12   23.14
 -14   6  -9  670.70   23.44
  14  -6  10  307.17   12.54
 -14   6 -10  293.67   11.65
  14  -6  11   22.62    5.04
 -14   6 -11   16.54    4.08
  14  -6  12   -6.60    4.45
 -14   6 -12    1.71    3.86
  14  -6  13  130.03    7.49
 -14   6 -13  127.58    6.68
  14  -6  14   95.02    6.53
 -14   6 -14   84.86    5.41
 -14   6 -15    9.79    4.38
 -13   6  17   -0.89    3.86
 -13   6  17   10.09    3.78
 -13   6  16   -1.93    3.41
 -13   6  16   -1.11    3.41
 -13   6   8    9.27    2.89
 -13   6   8    0.45    2.45
 -13   6   3   23.37    4.08
 -13   6   3   14.32    3.49
 -13   6   2   76.25    5.27
 -13   6   2   78.55    5.04
  13  -6  -1   19.29    3.19
 -13   6   1   29.74    4.23
  13  -6   0  171.35    7.27
 -13   6   0  230.91    9.72
  13  -6   1  442.61   15.73
 -13   6  -1  568.79   20.18
  13  -6   2   99.54    5.34
 -13   6  -2  110.60    6.08
  13  -6   3  518.94   18.32
 -13   6  -3  628.57   21.96
  13  -6   4  525.99   18.77
 -13   6  -4  557.36   19.81
  13  -6   5  148.35    7.27
 -13   6  -5  174.02    7.86
  13  -6   6  288.62   11.42
 -13   6  -6  298.93   11.65
  13  -6   7   -1.11    4.01
 -13   6  -7   -1.78    3.56
  13  -6   8  187.44    8.75
 -13   6  -8  185.14    8.46
  13  -6   9  548.61   19.88
 -13   6  -9  539.04   19.29
  13  -6  10   69.95    5.79
 -13   6 -10   70.62    5.27
  13  -6  11   16.02    4.60
 -13   6 -11   16.54    4.08
  13  -6  12  263.85   11.20
 -13   6 -12  252.20   10.46
  13  -6  13  215.19    9.87
 -13   6 -13  206.36    9.12
  13  -6  14   20.70    5.19
 -13   6 -14   24.48    4.38
  13  -6  15   76.03    6.23
 -13   6 -15   74.10    5.41
  13  -6  16  413.39   15.58
 -13   6 -16  391.65   14.46
 -12   6  20    4.97    3.93
 -12   6  20    0.30    4.08
 -12   6   7  296.56   10.53
 -12   6   7  292.33   10.46
 -12   6   6  475.25   16.39
 -12   6   6  483.56   16.62
 -12   6   5   -0.59    2.45
 -12   6   5    3.86    2.67
 -12   6   2    4.15    3.41
 -12   6   2    0.07    2.67
  12  -6  -1  607.73   20.70
 -12   6   1  685.69   23.44
  12  -6   0  435.94   15.43
 -12   6   0  515.53   18.10
  12  -6   1  810.01   27.30
 -12   6  -1  835.23   28.19
  12  -6   2  106.59    5.41
 -12   6  -2  120.39    5.86
  12  -6   3  136.86    6.53
 -12   6  -3  143.98    6.68
  12  -6   4 1107.46   37.09
 -12   6  -4 1059.98   35.53
  12  -6   5  354.34   13.43
 -12   6  -5  361.98   13.35
  12  -6   6   14.84    4.01
 -12   6  -6   17.88    3.49
  12  -6   7   90.20    5.86
 -12   6  -7   93.83    5.64
  12  -6   8  410.94   15.35
 -12   6  -8  401.00   14.98
  12  -6   9  124.32    7.05
 -12   6  -9  124.02    6.82
  12  -6  10  113.56    6.82
 -12   6 -10  120.83    6.60
  12  -6  11  223.35   10.01
 -12   6 -11  208.29    9.20
  12  -6  12   90.20    6.45
 -12   6 -12   93.46    6.08
  12  -6  13  121.20    7.27
 -12   6 -13   99.25    6.01
  12  -6  14   45.25    5.64
 -12   6 -14   41.91    4.75
  12  -6  15  466.94   17.58
 -12   6 -15  462.34   16.84
  12  -6  16   76.18    6.23
 -12   6 -16   75.29    5.56
  12  -6  17   11.65    4.60
 -12   6 -17    5.34    4.15
  12  -6  18   -0.45    4.67
 -12   6 -18    5.79    4.15
 -11   6  23  477.99   18.84
 -11   6  23  476.66   17.58
 -11   6  21  256.80   10.68
 -11   6  21  232.32    9.57
 -11   6  20  554.62   19.43
 -11   6  20  539.63   18.99
 -11   6  18    4.82    3.26
 -11   6  18    0.45    3.26
 -11   6  17   -1.26    2.89
 -11   6  17    5.64    2.89
 -11   6  10    5.86    1.11
 -11   6   4  876.03   29.15
 -11   6   4  893.09   29.82
 -11   6   3   17.06    2.30
 -11   6   3   21.66    2.23
 -11   6   2  237.44    8.90
 -11   6   2  208.29    7.79
  11  -6   0  321.33   11.57
 -11   6   0  364.50   13.06
  11  -6   1    3.71    2.67
 -11   6  -1   -4.52    2.60
  11  -6   2  141.16    6.16
 -11   6  -2  181.29    7.42
  11  -6   3  672.78   23.07
 -11   6  -3  787.76   26.70
  11  -6   4   59.04    4.38
 -11   6  -4   64.76    4.30
  11  -6   5  153.17    7.12
 -11   6  -5  158.96    7.12
  11  -6   6  756.60   26.04
 -11   6  -6  780.34   26.63
  11  -6   7  120.61    6.75
 -11   6  -7  122.98    6.31
  11  -6   8   84.26    5.79
 -11   6  -8   86.79    5.41
  11  -6   9   16.76    4.60
 -11   6  -9   28.85    4.08
  11  -6  10  360.94   13.95
 -11   6 -10  355.01   13.57
  11  -6  11  184.33    8.90
 -11   6 -11  166.01    7.86
  11  -6  12  251.83   10.90
 -11   6 -12  253.68   10.61
  11  -6  13   -3.63    4.60
 -11   6 -13    2.52    3.93
  11  -6  14  617.59   22.10
 -11   6 -14  591.93   21.07
  11  -6  15  229.35   10.01
 -11   6 -15  228.39    9.79
  11  -6  16    9.49    4.75
 -11   6 -16   12.16    4.23
  11  -6  17  434.08   16.32
 -11   6 -17  442.61   16.17
  11  -6  18  196.72    9.20
 -11   6 -18  192.49    8.60
  11  -6  19    2.15    4.38
 -11   6 -19   -1.48    3.93
 -10   6  23   64.16    5.19
 -10   6  23   60.38    6.01
 -10   6  22   36.72    4.45
 -10   6  22   31.45    4.90
 -10   6  21  278.53   10.90
 -10   6  21  255.76   10.46
 -10   6  20  353.53   13.06
 -10   6  20  349.74   12.98
 -10   6  18    4.82    2.74
 -10   6  18    0.45    2.97
 -10   6   1  438.90   14.98
 -10   6   1  459.89   15.65
  10  -6   0   23.29    2.60
 -10   6   0   27.96    2.52
  10  -6   1  359.46   12.68
 -10   6  -1  394.10   13.72
  10  -6   2  134.48    5.79
 -10   6  -2  143.90    6.16
  10  -6   3    2.74    2.82
 -10   6  -3    1.71    2.52
  10  -6   4  341.88   12.46
 -10   6  -4  348.70   12.61
  10  -6   5  280.91   10.76
 -10   6  -5  280.83   10.68
  10  -6   6  979.87   33.01
 -10   6  -6  927.95   31.23
  10  -6   7  136.11    6.82
 -10   6  -7  140.05    6.68
  10  -6   8  261.99   10.76
 -10   6  -8  242.63    9.79
  10  -6   9  883.44   30.34
 -10   6  -9  873.06   29.67
  10  -6  10  145.68    7.57
 -10   6 -10  129.07    6.68
  10  -6  11  210.96    9.57
 -10   6 -11  191.60    8.68
  10  -6  12   87.23    6.16
 -10   6 -12   72.92    5.27
  10  -6  13  531.18   19.36
 -10   6 -13  475.25   17.28
  10  -6  14   86.93    6.23
 -10   6 -14   77.22    5.71
  10  -6  15   13.28    4.75
 -10   6 -15   16.91    4.30
  10  -6  16   59.42    5.49
 -10   6 -16   59.86    5.27
  10  -6  17  265.03   11.20
 -10   6 -17  260.73   10.83
  10  -6  18  561.74   20.40
 -10   6 -18  535.26   19.21
  10  -6  19   11.57    4.45
 -10   6 -19    9.57    4.08
  10  -6  20  546.31   19.43
 -10   6 -20  528.51   18.69
  -9   6  24  175.72    7.86
  -9   6  24  177.43    9.35
  -9   6  23   19.21    4.15
  -9   6  23   20.03    4.82
  -9   6  22  262.44   10.46
  -9   6  22  269.19   10.83
  -9   6  20  228.61    8.98
  -9   6  20  240.33    9.57
  -9   6  19   24.92    3.26
  -9   6  19   28.63    3.41
   9  -6   1  861.93   28.63
  -9   6  -1  827.07   27.52
   9  -6   2  426.00   14.76
  -9   6  -2  446.25   15.43
   9  -6   3  147.98    6.38
  -9   6  -3  162.08    6.68
   9  -6   4  487.19   16.99
  -9   6  -4  474.14   16.69
   9  -6   5  263.62   10.16
  -9   6  -5  248.42    9.57
   9  -6   6  306.65   11.65
  -9   6  -6  332.39   12.31
   9  -6   7   73.36    5.04
  -9   6  -7   78.85    4.97
   9  -6   8  499.80   17.88
  -9   6  -8  499.06   17.73
   9  -6   9  550.02   19.58
  -9   6  -9  530.21   18.69
   9  -6  10   73.36    5.34
  -9   6 -10   54.37    4.60
   9  -6  11   70.69    5.64
  -9   6 -11   80.11    5.27
   9  -6  12  945.75   32.34
  -9   6 -12  885.67   30.26
   9  -6  13  141.68    7.71
  -9   6 -13  157.11    7.71
   9  -6  14    8.09    4.30
  -9   6 -14    9.49    3.93
   9  -6  15  228.69   10.24
  -9   6 -15  223.35    9.57
   9  -6  16  424.73   16.17
  -9   6 -16  368.66   14.17
   9  -6  17  182.40    8.98
  -9   6 -17  184.85    8.53
   9  -6  18   27.30    5.19
  -9   6 -18   29.45    4.60
   9  -6  19  400.33   15.43
  -9   6 -19  392.54   14.76
   9  -6  20  228.76    9.94
  -9   6 -20  205.17    8.98
   9  -6  21   76.40    5.71
  -9   6 -21   76.55    5.49
  -8   6  25  148.87    7.57
  -8   6  25  155.77   10.16
  -8   6  24  199.46    8.60
  -8   6  24  204.95    9.12
  -8   6  23  187.96    8.38
  -8   6  23  193.01    8.53
  -8   6  22    6.82    3.86
  -8   6  22   15.58    4.15
  -8   6  21  203.39    8.60
  -8   6  21  228.98    9.20
  -8   6  20    9.79    3.26
  -8   6  20   17.21    3.49
  -8   6  19  578.21   19.73
  -8   6  19  599.05   20.47
  -8   6  17   -0.96    2.15
  -8   6  17    0.00    1.71
   8  -6   1  279.13    9.72
  -8   6  -1  251.53    8.98
   8  -6   2   23.51    2.30
  -8   6  -2   32.93    2.30
   8  -6   3  226.09    8.46
  -8   6  -3  241.74    8.98
   8  -6   4  746.22   25.07
  -8   6  -4  721.37   24.18
   8  -6   5  263.62    9.94
  -8   6  -5  255.76    9.72
   8  -6   6  107.11    5.56
  -8   6  -6  112.75    5.71
   8  -6   7 1320.34   43.76
  -8   6  -7 1269.90   42.13
   8  -6   8  157.70    7.20
  -8   6  -8  168.45    7.71
   8  -6   9  176.47    7.94
  -8   6  -9  183.14    8.01
   8  -6  10  410.27   15.06
  -8   6 -10  426.29   15.50
   8  -6  11 1224.66   41.09
  -8   6 -11 1125.26   37.68
   8  -6  12  123.43    7.12
  -8   6 -12  118.98    6.38
   8  -6  13   36.87    4.97
  -8   6 -13   28.48    4.15
   8  -6  14  135.00    7.34
  -8   6 -14  125.73    6.90
   8  -6  15  400.70   15.35
  -8   6 -15  386.01   14.69
   8  -6  16   51.48    5.34
  -8   6 -16   48.73    4.97
   8  -6  17   -5.64    4.45
  -8   6 -17    7.64    3.93
   8  -6  18  212.66    9.79
  -8   6 -18  199.68    8.90
   8  -6  19  856.00   29.52
  -8   6 -19  825.59   28.41
   8  -6  20  287.73   12.09
  -8   6 -20  270.00   11.20
   8  -6  21   53.85    5.79
  -8   6 -21   58.30    5.27
   8  -6  22  222.38    9.49
  -8   6 -22  224.98    9.49
  -7   6  25   -0.67    4.15
  -7   6  25    2.08    6.16
  -7   6  24  256.06   10.46
  -7   6  24  266.00   10.90
  -7   6  23  718.92   24.85
  -7   6  23  752.15   25.81
  -7   6  22   79.44    5.34
  -7   6  22   73.81    5.27
  -7   6  21  194.05    8.09
  -7   6  21  208.51    8.53
  -7   6  20  286.17   10.68
  -7   6  20  269.34   10.16
  -7   6  19    2.30    2.67
  -7   6  19    4.30    2.60
   7  -6   2  242.41    8.53
  -7   6  -2  229.95    8.16
   7  -6   3  118.53    4.90
  -7   6  -3  122.09    4.82
   7  -6   4  220.60    8.31
  -7   6  -4  194.27    7.42
   7  -6   5   34.79    3.19
  -7   6  -5   36.20    2.89
   7  -6   6  338.47   12.39
  -7   6  -6  330.31   11.94
   7  -6   7  365.54   13.50
  -7   6  -7  364.43   13.28
   7  -6   8   34.20    3.93
  -7   6  -8   30.56    3.71
   7  -6   9   67.50    4.82
  -7   6  -9   73.36    4.97
   7  -6  10  493.57   17.73
  -7   6 -10  510.78   18.40
   7  -6  11  265.63   10.68
  -7   6 -11  238.26    9.87
   7  -6  12  119.13    6.68
  -7   6 -12  111.78    6.23
   7  -6  13  184.55    8.75
  -7   6 -13  184.92    8.31
   7  -6  14  566.63   20.32
  -7   6 -14  546.90   19.43
   7  -6  15  220.53    9.79
  -7   6 -15  220.08    9.49
   7  -6  16    9.64    4.38
  -7   6 -16    3.34    4.08
   7  -6  17  425.18   16.10
  -7   6 -17  400.70   15.13
   7  -6  18  251.53   10.90
  -7   6 -18  255.02   10.53
   7  -6  19   -5.79    4.67
  -7   6 -19    1.85    3.86
   7  -6  20   16.54    4.60
  -7   6 -20   12.16    4.45
   7  -6  21   11.13    4.82
  -7   6 -21    9.27    4.30
   7  -6  22  108.67    6.82
  -7   6 -22   98.58    6.01
   7  -6  23   78.40    5.49
  -7   6 -23   80.41    5.79
  -6   6  26    4.97    4.97
  -6   6  26   14.61    8.38
  -6   6  25  108.74    6.16
  -6   6  25  109.93    6.90
  -6   6  24    5.79    3.78
  -6   6  24    0.67    4.30
  -6   6  23  489.57   17.51
  -6   6  23  523.69   18.69
  -6   6  22    7.49    3.71
  -6   6  22    5.49    3.78
  -6   6  20   55.26    4.15
  -6   6  20   52.89    3.78
   6  -6   3  957.62   31.82
  -6   6  -3  949.46   31.67
   6  -6   4  410.57   14.17
  -6   6  -4  419.84   14.39
   6  -6   5  543.49   18.54
  -6   6  -5  541.04   18.47
   6  -6   6  549.35   18.92
  -6   6  -6  530.21   18.10
   6  -6   7  239.59    9.42
  -6   6  -7  237.44    9.05
   6  -6   8  251.76    9.94
  -6   6  -8  253.83    9.79
   6  -6   9  610.25   21.29
  -6   6  -9  638.29   21.96
   6  -6  10  102.88    5.86
  -6   6 -10   94.65    5.56
   6  -6  11  121.80    6.60
  -6   6 -11  117.72    6.31
   6  -6  12  545.20   19.43
  -6   6 -12  544.31   19.51
   6  -6  13  726.93   25.22
  -6   6 -13  755.12   26.11
   6  -6  14   74.10    5.49
  -6   6 -14   74.40    5.12
   6  -6  15   27.89    4.52
  -6   6 -15   35.09    4.30
   6  -6  16   51.48    5.12
  -6   6 -16   41.24    4.75
   6  -6  17  319.03   12.76
  -6   6 -17  318.81   12.61
   6  -6  18  315.92   12.54
  -6   6 -18  298.56   12.02
   6  -6  19    1.93    4.75
  -6   6 -19    3.12    3.93
   6  -6  20  194.94    9.49
  -6   6 -20  160.07    8.01
   6  -6  21  137.37    7.42
  -6   6 -21  142.86    7.49
   6  -6  22    7.12    4.38
  -6   6 -22    8.68    3.78
   6  -6  23   24.18    4.67
  -6   6 -23   25.52    4.60
   6  -6  24   15.58    4.01
  -6   6 -24   37.68    4.97
  -5   6  26   53.48    8.23
  -5   6  26   38.35    5.19
  -5   6  25  694.44   24.03
  -5   6  25  688.66   23.96
  -5   6  24   39.61    4.75
  -5   6  24   41.17    4.82
  -5   6  23  334.54   12.76
  -5   6  23  374.29   13.95
  -5   6  22  486.82   17.36
  -5   6  22  468.13   16.69
   5  -6   4 1044.41   34.49
  -5   6  -4 1025.12   33.90
   5  -6   5   87.90    4.23
  -5   6  -5   92.20    4.30
   5  -6   6    2.45    2.30
  -5   6  -6    0.96    2.45
   5  -6   7  106.00    5.34
  -5   6  -7  115.27    5.34
   5  -6   8  304.42   11.50
  -5   6  -8  288.32   10.90
   5  -6   9  466.87   16.62
  -5   6  -9  438.31   15.58
   5  -6  10  172.98    7.86
  -5   6 -10  152.95    6.90
   5  -6  11  283.65   11.35
  -5   6 -11  256.06   10.24
   5  -6  12  929.43   31.67
  -5   6 -12  938.33   31.82
   5  -6  13   86.19    5.71
  -5   6 -13   76.77    5.27
   5  -6  14   29.15    4.45
  -5   6 -14   27.45    4.30
   5  -6  15  143.38    7.49
  -5   6 -15  146.65    7.27
   5  -6  16  521.24   18.92
  -5   6 -16  500.62   18.10
   5  -6  17    2.00    4.15
  -5   6 -17    8.16    3.93
   5  -6  18   -1.78    4.30
  -5   6 -18    1.63    4.08
   5  -6  19   38.72    4.97
  -5   6 -19   33.16    4.75
   5  -6  20  384.61   14.84
  -5   6 -20  398.11   15.06
   5  -6  21  140.94    7.79
  -5   6 -21  124.99    7.12
   5  -6  22  143.75    7.79
  -5   6 -22  140.56    7.34
   5  -6  23  362.13   14.09
  -5   6 -23  341.36   13.13
   5  -6  24  442.98   16.39
  -5   6 -24  437.86   16.10
  -4   6  26  286.32   11.35
  -4   6  26  326.30   14.17
  -4   6  25  294.18   11.65
  -4   6  25  291.51   11.50
  -4   6  24   49.25    4.97
  -4   6  24   39.91    4.67
  -4   6  23  197.16    8.75
  -4   6  23  172.61    8.01
  -4   6  22  145.53    7.12
  -4   6  22  136.11    6.75
  -4   6  21  584.51   20.40
  -4   6  21  616.26   21.21
   4  -6   4 1381.17   45.54
   4  -6   4 1375.98   45.32
   4  -6   5   55.41    3.34
  -4   6  -5   50.66    2.97
   4  -6   6  521.68   17.88
  -4   6  -6  516.19   17.88
   4  -6   7  184.11    7.49
  -4   6  -7  190.56    7.71
   4  -6   8  239.96    9.49
  -4   6  -8  231.88    9.05
   4  -6   9   23.59    3.78
  -4   6  -9   31.75    3.63
   4  -6  10  106.07    6.01
  -4   6 -10  100.81    5.49
   4  -6  11  549.35   19.51
  -4   6 -11  553.73   19.51
   4  -6  12  195.23    8.60
  -4   6 -12  213.41    8.98
   4  -6  13   -2.89    3.71
  -4   6 -13    0.37    3.34
   4  -6  14   31.75    4.38
  -4   6 -14   23.44    4.15
   4  -6  15  581.17   20.77
  -4   6 -15  567.30   20.32
   4  -6  16   92.20    6.08
  -4   6 -16   93.09    5.86
   4  -6  17    9.79    4.38
  -4   6 -17    2.89    3.86
   4  -6  18  482.59   17.88
  -4   6 -18  471.10   17.28
   4  -6  19  429.19   16.17
  -4   6 -19  439.50   16.24
   4  -6  20  135.74    7.57
  -4   6 -20  130.33    7.05
   4  -6  21    5.79    4.30
  -4   6 -21    0.67    4.08
   4  -6  22  982.10   33.38
  -4   6 -22 1023.64   34.71
   4  -6  23  262.29   11.05
  -4   6 -23  260.58   10.90
   4  -6  24    2.82    4.82
  -4   6 -24   -4.23    4.01
   4  -6  25   -2.67    4.82
  -4   6 -25   -0.52    4.23
  -3   6  26  128.03    6.60
  -3   6  26  158.37   10.24
  -3   6  25   61.12    5.49
  -3   6  25   64.16    5.27
  -3   6  24  631.47   22.18
  -3   6  24  636.58   22.18
  -3   6  23  308.06   11.94
  -3   6  23  343.14   13.20
  -3   6  22   24.03    4.52
  -3   6  22   27.82    4.23
  -3   6  21   59.86    4.90
  -3   6  21   65.42    4.60
  -3   6  19    3.71    3.12
  -3   6  19    8.60    3.04
   3  -6   5  111.86    4.75
   3  -6   5  100.66    4.45
   3  -6   6   59.04    3.49
  -3   6  -6   55.41    3.41
   3  -6   7  463.08   16.17
  -3   6  -7  460.71   16.24
   3  -6   8  444.61   15.80
  -3   6  -8  450.92   15.95
   3  -6   9   21.21    3.49
  -3   6  -9   26.33    3.63
   3  -6  10  314.66   11.94
  -3   6 -10  308.28   11.79
   3  -6  11  479.33   17.28
  -3   6 -11  463.01   16.69
   3  -6  12    3.04    3.71
  -3   6 -12    4.52    3.12
   3  -6  13  133.67    7.12
  -3   6 -13  125.58    6.31
   3  -6  14  317.99   12.39
  -3   6 -14  301.08   11.94
   3  -6  15  844.87   29.00
  -3   6 -15  838.20   28.85
   3  -6  16    6.53    4.08
  -3   6 -16    2.89    3.93
   3  -6  17  204.65    8.98
  -3   6 -17  206.58    9.35
   3  -6  18 1451.64   48.44
  -3   6 -18 1456.83   48.51
   3  -6  19  101.03    6.31
  -3   6 -19   86.19    5.86
   3  -6  20   71.80    5.49
  -3   6 -20   70.99    5.41
   3  -6  21   -4.15    4.30
  -3   6 -21    4.75    4.23
   3  -6  22  855.26   29.52
  -3   6 -22  872.32   29.89
   3  -6  23  161.41    8.16
  -3   6 -23  155.77    7.64
   3  -6  24  148.13    7.42
  -3   6 -24  159.26    7.64
   3  -6  25  607.43   21.59
  -3   6 -25  639.85   22.25
   2  -6 -26   12.16    4.01
  -2   6  26   -0.59    3.93
   2  -6 -25  215.78    9.20
  -2   6  25  242.41   10.24
   2  -6 -24   28.11    3.71
  -2   6  24   25.89    4.90
   2  -6 -23   19.81    3.63
  -2   6  23   28.56    4.82
   2  -6 -22   33.82    3.56
  -2   6  22   48.73    4.97
   2  -6 -21  272.08   10.16
  -2   6  21  277.72   11.20
   2  -6 -20  391.65   14.24
  -2   6  19    5.79    3.49
  -2   6  19    0.52    2.52
   2  -6   5  947.23   31.30
   2  -6   5  904.21   29.89
   2  -6   6 1060.72   35.01
   2  -6   6 1078.53   35.60
   2  -6   7  198.64    8.01
   2  -6   8   17.65    3.41
  -2   6  -8    7.42    2.74
   2  -6   9  496.09   17.51
  -2   6  -9  497.21   17.80
   2  -6  10  741.25   25.37
  -2   6 -10  772.92   26.56
   2  -6  11    7.71    3.56
  -2   6 -11    1.63    3.34
   2  -6  12  295.37   11.65
  -2   6 -12  314.51   12.39
   2  -6  13  489.05   17.80
  -2   6 -13  492.46   17.65
   2  -6  14  449.44   16.47
  -2   6 -14  459.60   16.84
   2  -6  15   48.73    4.52
  -2   6 -15   43.76    4.52
   2  -6  16   49.03    4.82
  -2   6 -16   43.32    4.75
   2  -6  17  627.61   22.25
  -2   6 -17  601.05   21.44
   2  -6  18  771.44   26.85
  -2   6 -18  769.95   26.78
   2  -6  19   35.31    4.52
  -2   6 -19   37.76    4.67
   2  -6  20 1515.43   50.59
  -2   6 -20 1531.75   50.96
   2  -6  21    0.45    4.75
  -2   6 -21    2.37    4.15
   2  -6  22    8.83    3.93
  -2   6 -22    1.71    4.15
   2  -6  23   92.94    6.45
  -2   6 -23   86.42    5.93
   2  -6  24  327.49   12.98
  -2   6 -24  317.18   12.31
   2  -6  25   95.47    6.23
  -2   6 -25  100.66    5.86
  -2   6 -26   74.55    5.79
   1  -6 -26  156.51    7.79
  -1   6  26  133.96    6.60
   1  -6 -25  391.13   14.61
  -1   6  25  390.17   14.61
   1  -6 -24  136.04    6.68
  -1   6  24  167.79    8.38
   1  -6 -23  343.96   12.76
  -1   6  23  429.48   15.87
   1  -6 -22  219.71    8.90
  -1   6  22  272.38   11.13
   1  -6 -21   37.61    3.41
  -1   6  21   35.09    4.60
   1  -6 -20   16.39    2.89
  -1   6  20    6.68    3.71
   1  -6 -19   72.92    4.23
  -1   6  19    1.34    3.71
   1  -6 -18  341.88   12.09
  -1   6  18   15.65    4.01
   1  -6 -17   89.83    4.23
  -1   6  17   -0.15    3.12
   1  -6   4  351.37   12.09
   1  -6   4  340.92   11.72
   1  -6   5  247.68    8.98
   1  -6   5  260.43    9.42
   1  -6   6    6.82    2.45
   1  -6   6   13.80    2.45
   1  -6   7    4.75    2.67
   1  -6   7    3.93    2.74
   1  -6   8  526.95   18.54
   1  -6   8  519.90   18.17
   1  -6   9 1467.95   48.51
  -1   6  -9 1521.36   50.59
   1  -6  10   27.67    3.56
  -1   6 -10   24.63    3.78
   1  -6  11  282.54   11.13
  -1   6 -11  293.00   11.50
   1  -6  12  681.39   23.81
  -1   6 -12  699.93   24.55
   1  -6  13  565.67   20.10
  -1   6 -13  540.15   19.29
   1  -6  14   15.73    3.78
  -1   6 -14    8.68    3.93
   1  -6  15  632.36   22.25
  -1   6 -15  589.70   20.77
   1  -6  16 1719.41   56.89
  -1   6 -16 1686.77   55.85
   1  -6  17   13.43    4.45
  -1   6 -17   23.29    4.30
   1  -6  18   60.08    5.64
  -1   6 -18   56.45    5.19
   1  -6  19   27.96    4.75
  -1   6 -19   20.70    4.52
   1  -6  20 1559.19   51.92
  -1   6 -20 1587.38   52.74
   1  -6  21  682.72   24.11
  -1   6 -21  677.45   23.88
   1  -6  22  258.28   11.05
  -1   6 -22  261.69   11.05
   1  -6  23  161.11    8.01
  -1   6 -23  151.91    7.71
   1  -6  24  556.10   20.03
  -1   6 -24  556.62   19.81
   1  -6  25    6.38    3.41
  -1   6 -25   16.17    4.38
   1  -6  26   62.09    5.93
  -1   6 -26   60.75    5.19
   0  -6 -26   55.04    5.27
   0   6  26   93.83    5.49
   0  -6 -25   52.00    4.82
   0   6  25   58.30    5.41
   0  -6 -24   10.98    3.71
   0   6  24    1.41    4.45
   0  -6 -23  250.94    9.94
   0   6  23  294.56   11.94
   0  -6 -22  402.04   14.54
   0   6  22  460.56   17.13
   0  -6 -21   82.86    4.75
   0   6  21   85.45    6.08
   0  -6 -20    2.82    2.60
   0   6  20   -4.45    3.78
   0  -6 -19  182.03    7.42
   0   6  19   38.65    4.45
   0  -6 -18   98.88    4.82
   0   6  18    2.74    4.01
   0  -6 -17  208.44    7.94
   0   6  17    4.82    3.86
   0  -6 -16   13.06    2.37
   0   6  16    0.22    2.82
   0  -6 -15  892.34   29.52
   0   6  15  381.56   13.35
   0  -6 -14  148.95    5.64
   0   6  14  151.10    5.64
   0  -6   4 1253.58   41.17
   0  -6   4 1258.03   41.39
   0  -6   5  358.35   12.61
   0  -6   5  382.97   13.43
   0  -6   6  252.13    9.42
   0  -6   6  254.87    9.57
   0  -6   7  378.60   13.57
   0  -6   7  362.58   13.06
   0  -6   8  948.72   31.90
   0  -6   8  987.29   33.08
   0  -6   9   44.88    4.23
   0  -6   9   49.25    4.01
   0  -6  10  183.44    8.01
   0  -6  10  198.72    8.53
   0  -6  11  592.67   20.92
   0   6 -11  590.67   20.84
   0  -6  12  280.83   11.27
   0   6 -12  272.90   11.20
   0  -6  13   18.25    3.86
   0   6 -13    9.94    3.41
   0  -6  14  187.59    8.53
   0   6 -14  173.87    8.23
   0  -6  15 1097.81   37.01
   0   6 -15 1091.14   36.79
   0  -6  16   14.46    4.23
   0   6 -16   13.95    4.01
   0  -6  17  285.58   11.72
   0   6 -17  291.51   11.65
   0  -6  18  145.46    7.79
   0   6 -18  124.25    6.97
   0  -6  19  240.63   10.38
   0   6 -19  254.28   10.76
   0  -6  20    3.49    4.60
   0   6 -20    0.59    4.08
   0  -6  21  117.42    6.82
   0   6 -21  113.79    6.90
   0  -6  22  531.25   19.29
   0   6 -22  512.78   18.69
   0  -6  23  318.74   12.98
   0   6 -23  309.46   12.39
   0  -6  24   11.87    4.08
   0   6 -24   14.76    4.60
   0  -6  25   65.20    5.27
   0   6 -25   78.48    5.41
   0  -6  26  143.31    7.79
   0   6 -26  139.90    7.12
  -1  -6 -26    4.82    4.52
   1   6  26   48.07    5.19
  -1  -6 -25    6.82    4.01
   1   6  25    9.57    4.23
  -1  -6 -24  433.12   15.58
   1   6  24  499.73   17.95
  -1  -6 -23  123.73    6.23
   1   6  23  142.05    7.64
  -1  -6 -22  197.16    8.16
   1   6  22  241.07   10.24
  -1  -6 -21  496.83   17.43
   1   6  21  562.78   20.10
  -1  -6 -20 1180.15   39.02
   1   6  20 1008.06   34.20
  -1  -6 -19    9.27    2.82
   1   6  19    0.59    3.93
  -1  -6 -18   34.27    3.26
   1   6  18    4.08    4.30
  -1  -6 -17   13.87    2.60
   1   6  17    3.41    4.23
  -1  -6 -16 1293.64   42.58
   1   6  16  284.10   10.98
  -1  -6 -15  474.06   16.17
   1   6  15  268.30   10.01
  -1  -6 -14   11.72    2.15
   1   6  14    7.49    2.23
  -1  -6 -13  486.89   16.54
   1   6  13  514.86   17.43
  -1  -6 -12  633.62   21.29
   1   6  12  746.22   25.15
  -1  -6   3  243.37    8.75
  -1  -6   3  241.07    8.68
  -1  -6   4  266.66    9.64
  -1  -6   4  290.92   10.46
  -1  -6   5   66.61    3.86
  -1  -6   5   72.54    4.01
  -1  -6   6  589.48   20.18
  -1  -6   6  610.62   20.92
  -1  -6   7  640.22   22.03
  -1  -6   7  657.06   22.48
  -1  -6   8  226.98    9.12
  -1  -6   8  233.36    9.27
  -1  -6   9  101.55    5.56
  -1  -6   9  107.41    5.86
  -1  -6  10  818.91   28.04
  -1  -6  10  784.79   26.93
  -1  -6  11  249.98   10.16
  -1  -6  11  231.80    9.64
  -1  -6  12   10.61    3.86
  -1  -6  12    2.89    3.71
  -1  -6  13  208.66    9.20
  -1  -6  14  493.87   17.88
   1   6 -14  498.10   18.25
  -1  -6  15   36.72    4.67
   1   6 -15   33.90    4.45
  -1  -6  16  232.54    9.87
   1   6 -16  218.90    9.49
  -1  -6  17  127.14    7.12
   1   6 -17  111.64    6.45
  -1  -6  18  434.08   16.39
   1   6 -18  431.26   16.10
  -1  -6  19   85.45    5.79
   1   6 -19  100.29    6.23
  -1  -6  20   25.59    4.82
   1   6 -20   27.37    4.52
  -1  -6  21   56.52    5.71
   1   6 -21   60.38    5.56
  -1  -6  22  300.27   12.24
   1   6 -22  295.89   12.09
  -1  -6  23  471.02   17.28
   1   6 -23  506.26   18.54
  -1  -6  24  174.61    8.31
   1   6 -24  187.59    8.68
  -1  -6  25  500.25   18.17
   1   6 -25  495.35   17.88
  -1  -6  26  195.90    9.05
   1   6 -26  205.25    8.98
   2   6  26   57.12    5.93
  -2  -6 -25   77.29    5.64
   2   6  25   82.86    6.16
  -2  -6 -24  249.83    9.94
   2   6  24  323.34   12.61
  -2  -6 -23   61.12    4.45
   2   6  23   86.79    6.08
  -2  -6 -22    4.08    3.26
   2   6  22    5.27    4.38
  -2  -6 -21    4.08    3.19
   2   6  21   12.54    4.52
  -2  -6 -20 1200.18   39.83
   2   6  20 1180.89   39.76
  -2  -6 -19   28.71    3.12
   2   6  19    9.27    4.67
  -2  -6 -18  581.17   20.03
   2   6  18  297.60   12.16
  -2  -6 -17  543.42   18.69
   2   6  17  198.64    8.90
  -2  -6 -16   40.72    3.34
   2   6  16   14.98    3.93
  -2  -6 -15   42.43    3.19
   2   6  15   27.59    3.63
  -2  -6 -14  360.35   12.68
   2   6  14  397.73   14.09
  -2  -6 -13  412.79   14.39
   2   6  13  451.88   15.58
  -2  -6 -12  298.19   10.68
   2   6  12  300.64   10.76
  -2  -6 -11    0.89    1.78
   2   6  11   -1.93    1.93
  -2  -6 -10  678.20   22.70
   2   6  10  733.38   24.55
  -2  -6   1  890.12   29.52
  -2  -6   1  845.61   28.04
  -2  -6   2  642.44   21.51
  -2  -6   2  623.08   20.84
  -2  -6   3   73.95    3.86
  -2  -6   3   70.17    3.78
  -2  -6   4  184.70    7.27
  -2  -6   4  167.12    6.75
  -2  -6   5  647.26   22.10
  -2  -6   5  666.40   22.70
  -2  -6   6  519.31   18.10
  -2  -6   6  505.74   17.65
  -2  -6   7  387.20   14.02
  -2  -6   7  375.41   13.80
  -2  -6   8   45.99    4.08
  -2  -6   8   45.84    3.93
  -2  -6   9 1034.76   34.79
  -2  -6   9 1124.52   37.68
  -2  -6  10  435.12   15.95
  -2  -6  10  440.39   16.17
  -2  -6  11    7.05    3.41
  -2  -6  11   10.68    3.49
  -2  -6  12  311.10   12.39
  -2  -6  12  336.02   13.06
  -2  -6  13  640.00   22.70
  -2  -6  13  603.87   21.51
  -2  -6  14   75.88    5.64
  -2  -6  14   83.52    5.41
  -2  -6  15   22.03    4.23
  -2  -6  15   13.06    3.63
  -2  -6  16  153.69    7.79
  -2  -6  17  976.16   33.38
   2   6 -17 1005.83   34.20
  -2  -6  18  582.95   21.07
   2   6 -18  596.31   21.21
  -2  -6  19    8.68    4.38
   2   6 -19    6.97    4.15
  -2  -6  20  439.13   16.39
   2   6 -20  451.29   16.84
  -2  -6  21  377.48   14.32
   2   6 -21  383.42   14.84
  -2  -6  22   51.40    4.97
   2   6 -22   47.25    5.12
  -2  -6  23   42.65    5.12
   2   6 -23   44.06    4.97
  -2  -6  24   25.96    4.97
   2   6 -24   41.09    4.67
  -2  -6  25  277.27   11.42
   2   6 -25  290.18   11.42
  -2  -6  26    8.46    4.38
   2   6 -26    5.49    4.01
  -3  -6 -25   -1.41    4.30
   3   6  25  545.49   19.51
  -3  -6 -24  128.92    6.60
   3   6  24  141.08    7.86
  -3  -6 -23  122.02    6.23
   3   6  23  148.58    8.01
  -3  -6 -22  729.16   25.07
   3   6  22  824.84   28.56
  -3  -6 -21   -2.45    3.26
   3   6  21   -0.82    4.75
  -3  -6 -20   66.76    4.52
   3   6  20   73.88    5.93
  -3  -6 -19   82.78    4.82
   3   6  19   67.87    5.56
  -3  -6 -18 1163.83   38.72
   3   6  18 1055.53   36.05
  -3  -6 -17  173.35    7.34
   3   6  17  147.02    7.57
  -3  -6 -16    3.34    2.74
   3   6  16   -3.26    3.86
  -3  -6 -15  760.31   25.59
   3   6  15  599.35   20.99
  -3  -6 -14  293.52   10.83
   3   6  14  291.22   10.98
  -3  -6 -13  103.33    5.12
   3   6  13  115.94    5.56
  -3  -6 -12    0.82    2.37
   3   6  12    1.48    2.60
  -3  -6 -11  418.28   14.54
   3   6  11  468.42   16.24
  -3  -6 -10  285.95   10.24
   3   6  10  317.85   11.27
  -3  -6  -9   24.11    2.37
   3   6   9   23.51    2.37
  -3  -6  -8  416.13   14.24
   3   6   8  473.99   16.10
  -3  -6  -7  443.80   15.13
  -3  -6  -7  467.31   15.87
  -3  -6  -6   61.57    2.89
  -3  -6  -6   59.56    2.89
  -3  -6  -3  582.06   19.51
  -3  -6  -3  556.40   18.69
  -3  -6  -2 2006.48   65.72
  -3  -6  -2 1958.26   64.16
  -3  -6  -1  258.95    9.20
  -3  -6  -1  263.10    9.35
  -3  -6   0  532.51   18.02
  -3  -6   0  534.81   18.10
  -3  -6   1 2721.54   88.34
  -3  -6   1 2716.35   88.20
  -3  -6   2 1310.70   43.10
  -3  -6   2 1258.03   41.39
  -3  -6   3  612.77   20.77
  -3  -6   3  617.74   20.99
  -3  -6   4  773.66   26.11
  -3  -6   4  762.54   25.81
  -3  -6   5  130.55    6.01
  -3  -6   5  119.05    5.71
  -3  -6   6   54.89    4.01
  -3  -6   6   53.63    4.01
  -3  -6   7    3.12    3.12
  -3  -6   7    8.09    3.04
  -3  -6   8 1289.93   42.95
  -3  -6   8 1299.57   43.24
  -3  -6   9  482.67   17.36
  -3  -6   9  470.06   16.99
  -3  -6  10   54.07    4.75
  -3  -6  10   49.25    4.60
  -3  -6  11   72.32    5.27
  -3  -6  11   71.06    5.19
  -3  -6  12  748.44   26.11
  -3  -6  12  741.62   25.74
  -3  -6  13  363.54   14.02
  -3  -6  13  384.16   14.61
  -3  -6  14    4.67    4.01
  -3  -6  14    9.27    4.01
  -3  -6  15  829.29   28.85
  -3  -6  15  861.19   29.60
  -3  -6  16  373.26   14.46
  -3  -6  16  365.62   14.17
  -3  -6  17   60.68    5.19
  -3  -6  17   64.90    5.64
  -3  -6  18   14.54    4.15
  -3  -6  18   11.42    4.60
  -3  -6  19   -1.93    4.23
  -3  -6  19    7.34    3.63
  -3  -6  20  651.79   23.22
  -3  -6  21   82.78    6.31
   3   6 -21   82.26    5.71
  -3  -6  22   35.09    5.27
   3   6 -22   35.90    4.82
  -3  -6  23  340.69   13.57
   3   6 -23  382.83   14.54
  -3  -6  24  691.47   24.26
   3   6 -24  674.56   23.51
  -3  -6  25   69.21    5.86
   3   6 -25   66.61    5.12
  -3  -6  26  169.72    8.09
   3   6 -26  154.88    7.42
  -4  -6 -25   10.46    5.34
   4   6  25   -0.59    4.60
  -4  -6 -24   -0.74    3.63
   4   6  24   -3.26    4.67
  -4  -6 -23  211.55    8.98
   4   6  23  265.92   11.50
  -4  -6 -22  977.65   33.08
   4   6  22 1000.64   34.20
  -4  -6 -21    9.42    3.56
   4   6  21    3.41    4.60
  -4  -6 -20  110.52    5.93
   4   6  20  129.73    7.34
  -4  -6 -19  374.15   13.72
   4   6  19  384.75   14.69
  -4  -6 -18  394.40   14.46
   4   6  18  407.82   15.43
  -4  -6 -17   -0.22    2.89
   4   6  17   -1.71    4.38
  -4  -6 -16   82.86    4.75
   4   6  16   87.45    6.08
  -4  -6 -15  550.98   19.14
   4   6  15  491.94   17.65
  -4  -6 -14   22.99    3.26
   4   6  14   26.93    3.56
  -4  -6 -13   -2.23    2.67
   4   6  13    1.11    2.97
  -4  -6 -12  216.74    8.53
   4   6  12  197.31    8.01
  -4  -6 -11  489.79   17.13
   4   6  11  604.39   20.77
  -4  -6 -10  111.93    5.19
   4   6  10  112.30    5.41
  -4  -6  -9   31.75    3.04
   4   6   9   30.71    3.12
  -4  -6  -8  226.09    8.53
   4   6   8  258.88    9.57
  -4  -6  -7  173.65    6.82
   4   6   7  178.69    6.82
  -4  -6  -6  537.63   18.25
  -4  -6  -6  510.41   17.43
  -4  -6  -5   52.00    3.19
  -4  -6  -5   56.82    3.34
  -4  -6  -4 1436.06   47.10
  -4  -6  -4 1428.64   46.88
  -4  -6  -3   42.50    3.04
  -4  -6  -3   45.69    3.12
  -4  -6  -2  457.37   15.80
  -4  -6  -2  448.03   15.50
  -4  -6  -1  334.91   11.94
  -4  -6  -1  345.59   12.31
  -4  -6   0  150.28    6.31
  -4  -6   0  152.14    6.31
  -4  -6   1  240.70    9.12
  -4  -6   1  233.73    8.98
  -4  -6   2  973.20   32.42
  -4  -6   2 1010.28   33.68
  -4  -6   3  841.90   28.34
  -4  -6   3  829.29   27.89
  -4  -6   4  657.58   22.62
  -4  -6   4  666.03   22.85
  -4  -6   5   13.95    2.97
  -4  -6   5   19.73    2.97
  -4  -6   6  215.11    8.75
  -4  -6   6  227.94    9.27
  -4  -6   7 1431.61   47.47
  -4  -6   7 1345.56   44.73
  -4  -6   8  208.07    8.83
  -4  -6   8  220.68    9.20
  -4  -6   9    3.63    3.41
  -4  -6   9    5.27    3.49
  -4  -6  10   81.00    5.49
  -4  -6  10   92.79    5.79
  -4  -6  11  259.32   10.61
  -4  -6  11  257.17   10.46
  -4  -6  12   82.41    5.56
  -4  -6  12   85.45    5.71
  -4  -6  13  136.41    7.20
  -4  -6  13  149.39    7.42
  -4  -6  14  228.61    9.94
  -4  -6  14  225.50    9.72
  -4  -6  15  449.96   16.76
  -4  -6  15  446.91   16.62
  -4  -6  16   92.94    6.01
  -4  -6  16   95.39    6.31
  -4  -6  17    2.60    4.08
  -4  -6  17    6.23    4.23
  -4  -6  18  347.00   13.57
  -4  -6  18  329.86   13.13
  -4  -6  19  595.64   21.29
  -4  -6  19  597.94   21.29
  -4  -6  20   34.94    4.75
  -4  -6  20   33.31    4.52
  -4  -6  21  637.99   22.77
  -4  -6  21  646.60   22.92
  -4  -6  22  154.88    7.71
  -4  -6  22  163.78    8.38
  -4  -6  23  228.54   10.09
  -4  -6  23  234.84   10.46
  -4  -6  24   67.65    5.49
  -4  -6  24   62.53    5.71
  -4  -6  25  357.98   13.80
  -4  -6  25  366.95   14.09
  -4  -6  26  373.40   13.95
  -4  -6  26  345.44   13.28
  -5  -6 -24    1.19    4.67
   5   6  24  410.86   15.73
  -5  -6 -23  302.79   11.79
   5   6  23  380.60   14.91
  -5  -6 -22  132.03    6.75
   5   6  22  154.21    8.38
  -5  -6 -21  124.25    6.60
   5   6  21  128.55    7.42
  -5  -6 -20  379.04   14.09
   5   6  20  406.64   15.65
  -5  -6 -19   27.96    3.86
   5   6  19   34.94    5.12
  -5  -6 -18   -0.45    3.26
   5   6  18    3.34    4.30
  -5  -6 -17   -0.74    2.97
   5   6  17    2.00    3.93
  -5  -6 -16  478.07   17.06
   5   6  16  536.44   19.43
  -5  -6 -15  118.76    5.93
   5   6  15  159.70    7.64
  -5  -6 -14   33.45    3.71
   5   6  14   28.26    4.01
  -5  -6 -13   77.81    4.75
   5   6  13   85.90    5.19
  -5  -6 -12  832.26   28.19
   5   6  12  916.82   30.93
  -5  -6 -11  275.12   10.61
   5   6  11  274.97   10.46
  -5  -6 -10  150.28    6.60
   5   6  10  183.66    7.86
  -5  -6  -9  483.63   16.91
   5   6   9  498.17   17.51
  -5  -6  -8  320.22   11.79
   5   6   8  322.30   11.87
  -5  -6  -7  120.98    5.56
   5   6   7  131.29    6.08
  -5  -6  -6    6.08    2.60
   5   6   6    0.82    2.37
  -5  -6  -5  102.51    4.90
  -5  -6  -5  105.11    5.12
  -5  -6  -4 1090.40   36.20
  -5  -6  -4 1129.71   37.38
  -5  -6  -3  539.34   18.62
  -5  -6  -3  573.38   19.66
  -5  -6  -2   10.61    2.67
  -5  -6  -2   17.51    2.97
  -5  -6  -1  716.99   24.26
  -5  -6  -1  695.85   23.66
  -5  -6   0 2010.18   65.57
  -5  -6   0 1965.68   64.31
  -5  -6   1  706.23   24.03
  -5  -6   1  671.97   22.99
  -5  -6   2  619.30   21.36
  -5  -6   2  633.84   21.88
  -5  -6   3  135.22    6.31
  -5  -6   3  129.59    6.08
  -5  -6   4  302.20   11.42
  -5  -6   4  284.47   10.83
  -5  -6   5   -1.48    2.97
  -5  -6   5   -1.26    2.74
  -5  -6   6  955.39   32.27
  -5  -6   6  945.75   31.97
  -5  -6   7  420.95   15.50
  -5  -6   7  429.48   15.80
  -5  -6   8   22.48    3.71
  -5  -6   8    9.05    3.71
  -5  -6   9   55.93    4.67
  -5  -6   9   45.62    4.67
  -5  -6  10  392.91   14.84
  -5  -6  10  380.08   14.39
  -5  -6  11  295.74   11.87
  -5  -6  11  303.83   12.02
  -5  -6  12  116.38    6.31
  -5  -6  12  114.01    6.31
  -5  -6  13  288.70   11.65
  -5  -6  13  318.51   12.61
  -5  -6  14  560.11   20.25
  -5  -6  14  536.82   19.36
  -5  -6  15   92.20    6.01
  -5  -6  15   93.31    6.01
  -5  -6  16   33.90    4.38
  -5  -6  16   34.34    4.75
  -5  -6  17  807.04   27.89
  -5  -6  17  818.17   28.34
  -5  -6  18  404.48   15.28
  -5  -6  18  447.06   16.76
  -5  -6  19  125.14    7.05
  -5  -6  19  124.02    7.34
  -5  -6  20   29.97    4.38
  -5  -6  20   15.43    4.30
  -5  -6  21  998.42   34.20
  -5  -6  21  974.68   33.16
  -5  -6  22  498.39   18.25
  -5  -6  22  492.53   18.17
  -5  -6  23  439.35   16.32
  -5  -6  23  442.39   16.62
  -5  -6  24   53.78    5.19
  -5  -6  24   38.57    4.60
  -5  -6  25  778.11   26.78
  -5  -6  25  755.12   26.04
  -5  -6  26   64.31    5.71
  -5  -6  26   56.23    5.04
   6   6  24   18.25    4.60
  -6  -6 -23   -6.90    3.86
   6   6  23   29.00    5.27
  -6  -6 -22    3.86    3.49
   6   6  22    6.60    4.82
  -6  -6 -21  122.47    6.45
   6   6  21  151.84    8.09
  -6  -6 -20  152.43    7.42
   6   6  20  176.47    8.90
  -6  -6 -19    8.46    3.63
   6   6  19    8.23    4.90
  -6  -6 -18  288.84   11.35
   6   6  18  334.68   13.35
  -6  -6 -17  312.36   12.16
   6   6  17  338.69   12.98
  -6  -6 -16   40.65    4.38
   6   6  16   43.54    4.67
  -6  -6 -15   27.22    3.63
   6   6  15   37.38    4.38
  -6  -6 -14   67.72    4.60
   6   6  14   86.93    5.49
  -6  -6 -13  719.36   24.63
   6   6  13  724.41   25.00
  -6  -6 -12  559.14   19.66
   6   6  12  549.72   19.36
  -6  -6 -11  132.70    6.38
   6   6  11  125.36    6.31
  -6  -6 -10   96.50    5.34
   6   6  10  100.36    5.56
  -6  -6  -9  629.91   21.73
   6   6   9  669.37   23.07
  -6  -6  -8  246.04    9.72
   6   6   8  267.26   10.38
  -6  -6  -7  222.83    8.98
   6   6   7  235.44    9.35
  -6  -6  -6  546.09   18.99
   6   6   6  541.04   18.77
  -6  -6  -5  562.93   19.58
   6   6   5  548.39   18.92
  -6  -6  -4  413.91   14.84
  -6  -6  -4  433.56   15.73
  -6  -6  -3  963.55   32.34
  -6  -6  -3 1003.61   33.60
  -6  -6  -2  127.14    5.93
  -6  -6  -2  127.29    6.01
  -6  -6  -1  235.07    9.27
  -6  -6  -1  256.95    9.87
  -6  -6   0  168.31    7.27
  -6  -6   0  183.74    7.64
  -6  -6   1  983.58   33.08
  -6  -6   1  965.04   32.42
  -6  -6   2  838.20   28.56
  -6  -6   2  839.68   28.56
  -6  -6   3  124.39    6.08
  -6  -6   3  125.80    6.31
  -6  -6   4   32.86    3.56
  -6  -6   4   35.38    3.78
  -6  -6   5  856.00   29.23
  -6  -6   5  859.71   29.30
  -6  -6   6  146.20    7.12
  -6  -6   6  140.27    6.90
  -6  -6   7   40.95    4.23
  -6  -6   7   49.18    4.45
  -6  -6   8  108.00    6.08
  -6  -6   8   97.47    5.86
  -6  -6   9  631.61   22.25
  -6  -6   9  706.01   24.63
  -6  -6  10  323.34   12.68
  -6  -6  10  310.95   12.39
  -6  -6  11  243.37   10.16
  -6  -6  11  246.93   10.38
  -6  -6  12  340.10   13.43
  -6  -6  12  362.06   13.95
  -6  -6  13  414.72   15.73
  -6  -6  13  418.28   15.65
  -6  -6  14   98.51    6.08
  -6  -6  14  105.48    6.31
  -6  -6  15    7.49    4.08
  -6  -6  15    2.89    3.78
  -6  -6  16   75.51    5.41
  -6  -6  16   88.05    5.79
  -6  -6  17  485.49   17.88
  -6  -6  17  489.42   18.10
  -6  -6  18  718.40   25.15
  -6  -6  18  695.85   24.55
  -6  -6  19  711.58   25.07
  -6  -6  19  707.94   25.00
  -6  -6  20   75.29    5.64
  -6  -6  20   76.77    5.93
  -6  -6  21  525.54   18.92
  -6  -6  21  550.39   20.03
  -6  -6  22    6.82    4.15
  -6  -6  22    3.56    4.45
  -6  -6  23  543.79   19.51
  -6  -6  23  555.80   19.95
  -6  -6  24   -2.89    4.15
  -6  -6  24    4.45    3.93
  -6  -6  25  170.98    8.38
  -6  -6  25  157.03    7.64
  -6  -6  26    1.56    4.52
  -7  -6 -23   12.24    9.05
   7   6  23   64.83    4.90
  -7  -6 -22   -0.37    3.93
   7   6  22  122.24    7.34
  -7  -6 -21   16.02    3.78
   7   6  21   10.90    4.90
  -7  -6 -20   12.54    3.78
   7   6  20   14.76    5.04
  -7  -6 -19    1.34    3.56
   7   6  19   -2.67    4.60
  -7  -6 -18  270.74   10.83
   7   6  18  242.04   10.38
  -7  -6 -17  389.50   14.61
   7   6  17  421.32   15.80
  -7  -6 -16    1.48    3.41
   7   6  16    4.08    3.93
  -7  -6 -15  185.74    8.23
   7   6  15  227.50    9.57
  -7  -6 -14  576.20   20.32
   7   6  14  538.74   19.29
  -7  -6 -13  181.73    8.09
   7   6  13  191.00    8.38
  -7  -6 -12  108.08    5.79
   7   6  12  103.25    5.86
  -7  -6 -11  223.49    9.20
   7   6  11  240.33    9.87
  -7  -6 -10  489.42   17.51
   7   6  10  518.20   18.47
  -7  -6  -9   83.30    4.97
   7   6   9   75.66    5.12
  -7  -6  -8   33.60    3.78
   7   6   8   32.12    3.78
  -7  -6  -7  347.74   13.06
   7   6   7  372.29   13.72
  -7  -6  -6  356.12   13.28
   7   6   6  356.27   13.20
  -7  -6  -5   27.67    3.56
   7   6   5   30.63    3.49
  -7  -6  -4  218.97    8.83
   7   6   4  207.55    8.53
  -7  -6  -3  123.13    5.79
  -7  -6  -3  123.95    6.01
  -7  -6  -2  279.35   10.68
  -7  -6  -2  274.53   10.53
  -7  -6  -1    3.49    2.89
  -7  -6  -1    2.89    2.97
  -7  -6   0  617.22   21.51
  -7  -6   0  601.35   20.92
  -7  -6   1  755.12   25.89
  -7  -6   1  784.79   26.85
  -7  -6   2  204.58    8.68
  -7  -6   2  188.11    8.09
  -7  -6   3    6.31    3.19
  -7  -6   3   -0.30    2.89
  -7  -6   4  781.82   26.85
  -7  -6   4  779.60   26.85
  -7  -6   5  142.27    6.97
  -7  -6   5  143.90    6.90
  -7  -6   6   43.54    4.45
  -7  -6   6   41.69    4.38
  -7  -6   7   10.61    3.41
  -7  -6   7   11.50    3.56
  -7  -6   8  903.47   30.93
  -7  -6   8  861.19   29.52
  -7  -6   9  194.94    8.60
  -7  -6   9  194.49    8.75
  -7  -6  10  178.02    8.31
  -7  -6  10  177.88    8.23
  -7  -6  11  224.38    9.72
  -7  -6  11  242.04   10.16
  -7  -6  12 1119.32   38.05
  -7  -6  12 1132.68   38.20
  -7  -6  13  530.44   19.21
  -7  -6  13  549.20   19.81
  -7  -6  14    9.12    3.78
  -7  -6  14   -3.63    3.86
  -7  -6  15  655.57   23.22
  -7  -6  15  637.77   22.55
  -7  -6  16  251.01   10.61
  -7  -6  16  251.46   10.61
  -7  -6  17    5.27    3.78
  -7  -6  17    1.56    4.23
  -7  -6  18  156.07    7.86
  -7  -6  18  148.06    7.57
  -7  -6  19   12.46    4.23
  -7  -6  19    4.97    4.45
  -7  -6  20  318.29   12.61
  -7  -6  20  335.65   13.50
  -7  -6  21  261.18   11.20
  -7  -6  21  247.68   10.68
  -7  -6  22   98.58    6.23
  -7  -6  22   83.67    6.01
  -7  -6  23  854.51   29.30
  -7  -6  23  805.56   27.67
  -7  -6  24  335.57   13.13
  -7  -6  24  337.65   13.28
  -7  -6  25   10.68    4.08
  -7  -6  25    1.71    3.86
  -8  -6 -22    5.56   25.44
   8   6  22  185.66    8.01
  -8  -6 -21   -0.07    4.45
   8   6  21   45.25    5.64
  -8  -6 -20  256.06   10.53
   8   6  20  279.57   11.87
  -8  -6 -19  837.45   28.71
   8   6  19  890.86   30.78
  -8  -6 -18  192.34    8.46
   8   6  18  205.02    9.72
  -8  -6 -17    1.11    3.34
   8   6  17    5.19    4.38
  -8  -6 -16   45.92    4.45
   8   6  16   37.83    5.12
  -8  -6 -15  401.00   14.91
   8   6  15  415.46   15.50
  -8  -6 -14  116.01    6.23
   8   6  14  121.43    6.75
  -8  -6 -13   33.45    4.08
   8   6  13   36.27    4.60
  -8  -6 -12  135.82    6.68
   8   6  12  129.22    6.82
  -8  -6 -11 1270.64   42.50
   8   6  11 1185.34   39.68
  -8  -6 -10  452.77   16.39
   8   6  10  475.32   17.21
  -8  -6  -9  183.36    8.23
   8   6   9  209.18    8.98
  -8  -6  -8  155.47    7.27
   8   6   8  168.83    7.79
  -8  -6  -7 1279.55   42.73
   8   6   7 1291.41   43.10
  -8  -6  -6  124.76    6.45
   8   6   6  118.46    6.31
  -8  -6  -5  265.85   10.61
   8   6   5  277.79   11.05
  -8  -6  -4  761.05   26.11
   8   6   4  700.15   24.18
  -8  -6  -3  240.11    9.79
   8   6   3  242.04    9.87
  -8  -6  -2   30.86    3.56
  -8  -6  -2   41.69    3.86
  -8  -6  -1  335.95   12.76
  -8  -6  -1  305.76   11.72
  -8  -6   0  106.30    5.71
  -8  -6   0  111.19    5.93
  -8  -6   1  161.04    7.42
  -8  -6   1  145.46    6.97
  -8  -6   2   37.31    4.23
  -8  -6   2   32.49    3.93
  -8  -6   3  338.02   13.06
  -8  -6   3  362.35   13.80
  -8  -6   4  656.83   23.14
  -8  -6   4  663.29   23.29
  -8  -6   5  139.97    6.97
  -8  -6   5  139.97    7.05
  -8  -6   6  407.75   15.28
  -8  -6   6  404.26   15.06
  -8  -6   7  630.50   22.25
  -8  -6   7  640.89   22.62
  -8  -6   8  211.48    9.12
  -8  -6   8  208.96    9.05
  -8  -6   9   34.20    4.30
  -8  -6   9   34.64    4.30
  -8  -6  10  104.37    6.16
  -8  -6  10   97.62    5.93
  -8  -6  11 1151.22   39.02
  -8  -6  11 1162.35   39.17
  -8  -6  12  178.47    8.53
  -8  -6  12  171.64    8.23
  -8  -6  13    7.94    4.01
  -8  -6  13   10.24    4.01
  -8  -6  14   73.14    5.49
  -8  -6  14   72.40    5.56
  -8  -6  15 1022.15   34.86
  -8  -6  15 1002.87   34.12
  -8  -6  16  576.35   20.77
  -8  -6  16  583.92   20.99
  -8  -6  17   -0.15    3.78
  -8  -6  17    0.82    4.30
  -8  -6  18  621.01   22.18
  -8  -6  18  580.28   20.77
  -8  -6  19  633.02   22.55
  -8  -6  19  633.47   22.55
  -8  -6  20   18.77    4.38
  -8  -6  20   18.62    4.52
  -8  -6  21  262.44   11.27
  -8  -6  21  234.69   10.24
  -8  -6  22   16.54    4.01
  -8  -6  22   14.24    4.23
  -8  -6  23  215.04    9.57
  -8  -6  23  219.56    9.64
  -8  -6  24  271.86   11.13
  -8  -6  24  246.12   10.16
  -8  -6  25  181.06    8.46
  -8  -6  25  189.82    9.12
  -9  -6 -21  -15.13   82.56
   9   6  21   53.78    4.67
  -9  -6 -20   -8.98    6.31
   9   6  20  198.05    9.35
  -9  -6 -19  392.39   14.69
   9   6  19  387.50   14.98
  -9  -6 -18   19.29    4.01
   9   6  18   33.97    4.90
  -9  -6 -17  199.46    8.68
   9   6  17  198.94    9.27
  -9  -6 -16  396.84   14.76
   9   6  16  391.65   14.98
  -9  -6 -15  227.72    9.79
   9   6  15  219.93    9.79
  -9  -6 -14   13.50    3.49
   9   6  14   19.95    4.52
  -9  -6 -13  151.77    7.27
   9   6  13  153.47    7.79
  -9  -6 -12  862.67   29.60
   9   6  12  898.28   30.78
  -9  -6 -11   80.26    5.12
   9   6  11   60.68    4.82
  -9  -6 -10   56.15    4.67
   9   6  10   67.20    5.04
  -9  -6  -9  525.99   18.92
   9   6   9  572.79   20.47
  -9  -6  -8  509.67   18.40
   9   6   8  528.88   18.92
  -9  -6  -7   75.73    5.12
   9   6   7   80.56    5.41
  -9  -6  -6  328.01   12.68
   9   6   6  353.90   13.43
  -9  -6  -5  297.23   11.72
   9   6   5  288.99   11.42
  -9  -6  -4  511.15   18.40
   9   6   4  491.20   17.73
  -9  -6  -3  169.35    7.64
   9   6   3  157.77    7.34
  -9  -6  -2  465.38   16.91
   9   6   2  489.94   17.65
  -9  -6  -1  885.67   30.12
  -9  -6  -1  897.54   30.49
  -9  -6   0  213.04    9.05
  -9  -6   0  205.62    8.83
  -9  -6   1  653.27   22.77
  -9  -6   1  598.75   21.14
  -9  -6   2  104.22    6.01
  -9  -6   2   90.87    5.71
  -9  -6   3    2.89    3.34
  -9  -6   3    8.90    3.63
  -9  -6   4  305.53   12.09
  -9  -6   4  327.34   12.76
  -9  -6   5    3.56    3.04
  -9  -6   5    2.82    3.56
  -9  -6   6  501.29   18.32
  -9  -6   6  470.80   17.21
  -9  -6   7  256.80   10.61
  -9  -6   7  261.32   10.90
  -9  -6   8   26.63    3.86
  -9  -6   8   16.10    4.08
  -9  -6   9  145.83    7.34
  -9  -6   9  164.30    7.86
  -9  -6  10  714.17   25.00
  -9  -6  10  667.66   23.51
  -9  -6  11 1015.48   34.64
  -9  -6  11 1031.80   35.09
  -9  -6  12   75.51    5.56
  -9  -6  12   78.63    5.56
  -9  -6  13  264.29   11.05
  -9  -6  13  281.87   11.57
  -9  -6  14  335.87   13.20
  -9  -6  14  368.43   14.24
  -9  -6  15  220.30    9.79
  -9  -6  15  220.60    9.79
  -9  -6  16  102.07    6.45
  -9  -6  16   99.62    6.16
  -9  -6  17  151.47    7.71
  -9  -6  17  145.91    7.64
  -9  -6  18  196.49    9.05
  -9  -6  18  203.47    9.57
  -9  -6  19   42.28    4.97
  -9  -6  19   38.42    4.52
  -9  -6  20  269.34   11.35
  -9  -6  20  277.94   11.50
  -9  -6  21  158.07    7.94
  -9  -6  21  158.37    7.71
  -9  -6  22  298.56   11.94
  -9  -6  22  266.15   10.83
  -9  -6  23   19.43    4.60
  -9  -6  23   28.34    4.75
  -9  -6  24  212.22    9.12
  -9  -6  24  214.37    9.20
 -10  -6 -20  116.09   69.87
  10   6  20  458.41   16.39
 -10  -6 -19   -8.68    8.09
  10   6  19    5.93    4.45
 -10  -6 -18  578.21   20.62
  10   6  18  565.00   20.55
 -10  -6 -17  270.15   10.90
  10   6  17  255.61   10.90
 -10  -6 -16   62.83    5.12
  10   6  16   46.66    5.12
 -10  -6 -15   12.68    3.78
  10   6  15   15.28    4.45
 -10  -6 -14   91.83    5.71
  10   6  14   93.98    6.38
 -10  -6 -13  485.34   17.65
  10   6  13  501.36   18.32
 -10  -6 -12   86.64    5.71
  10   6  12   85.08    6.01
 -10  -6 -11  216.52    9.42
  10   6  11  212.44    9.35
 -10  -6 -10  135.45    6.90
  10   6  10  152.06    7.57
 -10  -6  -9  826.33   28.56
  10   6   9  907.92   31.30
 -10  -6  -8  286.91   11.42
  10   6   8  273.79   11.20
 -10  -6  -7  145.09    7.34
  10   6   7  145.31    7.27
 -10  -6  -6  991.00   33.68
  10   6   6  997.67   33.90
 -10  -6  -5  291.81   11.57
  10   6   5  299.23   11.87
 -10  -6  -4  386.01   14.69
  10   6   4  356.64   13.65
 -10  -6  -3    3.49    3.41
  10   6   3    4.08    3.12
 -10  -6  -2  151.77    7.49
  10   6   2  156.36    7.27
 -10  -6  -1  394.25   14.84
 -10  -6  -1  425.40   15.87
 -10  -6   0   26.41    3.71
 -10  -6   0   29.89    3.71
 -10  -6   1  465.68   17.06
 -10  -6   1  474.88   17.21
 -10  -6   2  678.64   23.96
 -10  -6   2  678.57   23.74
 -10  -6   3  736.28   25.81
 -10  -6   3  702.08   24.48
 -10  -6   4  118.98    6.75
 -10  -6   4  123.95    6.68
 -10  -6   5  847.10   29.30
 -10  -6   5  824.84   28.41
 -10  -6   6  278.31   11.50
 -10  -6   6  267.18   10.90
 -10  -6   7   33.16    4.15
 -10  -6   7   30.41    4.45
 -10  -6   8   63.50    5.19
 -10  -6   8   55.63    4.82
 -10  -6   9  712.24   25.07
 -10  -6   9  658.84   23.14
 -10  -6  10  523.69   18.99
 -10  -6  10  519.01   18.84
 -10  -6  11   36.64    4.30
 -10  -6  11   37.83    4.15
 -10  -6  12   42.80    4.52
 -10  -6  12   47.84    4.52
 -10  -6  13  623.75   22.18
 -10  -6  13  585.33   20.84
 -10  -6  14   88.79    6.08
 -10  -6  14  108.97    6.38
 -10  -6  15   14.09    4.23
 -10  -6  15   10.83    4.23
 -10  -6  16  331.94   13.06
 -10  -6  16  333.72   13.28
 -10  -6  17  242.71   10.38
 -10  -6  17  231.21   10.16
 -10  -6  18    1.56    3.93
 -10  -6  18   10.76    4.01
 -10  -6  19  109.71    6.60
 -10  -6  19  117.27    6.90
 -10  -6  20  391.65   14.76
 -10  -6  20  410.49   15.50
 -10  -6  21  268.07   10.76
 -10  -6  21  282.98   11.05
 -10  -6  22   38.65    4.67
 -10  -6  22   43.99    5.12
 -10  -6  23   91.24    5.86
 -10  -6  23   92.72    6.01
 -11  -6 -19    5.56   15.13
  11   6  19    0.82    3.63
 -11  -6 -18   -8.38    6.97
  11   6  18  179.43    8.31
 -11  -6 -17  515.16   18.62
  11   6  17  436.45   16.24
 -11  -6 -16   11.27    3.86
  11   6  16   13.57    4.67
 -11  -6 -15  228.83    9.79
  11   6  15  249.68   10.83
 -11  -6 -14  594.67   21.07
  11   6  14  583.10   20.84
 -11  -6 -13   -3.12    3.63
  11   6  13    4.75    4.30
 -11  -6 -12  244.04   10.16
  11   6  12  264.74   10.98
 -11  -6 -11  188.63    8.60
  11   6  11  190.71    9.05
 -11  -6 -10  325.78   12.68
  11   6  10  394.47   14.98
 -11  -6  -9   19.06    3.78
  11   6   9   30.71    4.82
 -11  -6  -8   92.57    5.86
  11   6   8   88.20    6.01
 -11  -6  -7  143.01    7.12
  11   6   7  117.64    6.68
 -11  -6  -6  794.43   27.59
  11   6   6  792.95   27.37
 -11  -6  -5  177.58    8.16
  11   6   5  171.50    8.16
 -11  -6  -4   69.13    4.90
  11   6   4   59.27    5.04
 -11  -6  -3  752.15   26.18
  11   6   3  766.24   26.56
 -11  -6  -2  184.48    8.46
  11   6   2  179.21    8.16
 -11  -6  -1    2.00    3.26
  11   6   1   -0.74    3.12
 -11  -6   0  355.97   13.72
 -11  -6   0  353.15   13.57
 -11  -6   1  878.99   30.26
 -11  -6   1  876.77   30.12
 -11  -6   2  225.20    9.87
 -11  -6   2  216.89    9.42
 -11  -6   3   24.92    4.01
 -11  -6   3   22.99    3.78
 -11  -6   4  890.12   30.63
 -11  -6   4  893.83   30.56
 -11  -6   5 1124.52   38.13
 -11  -6   5 1171.25   39.46
 -11  -6   6   56.97    4.97
 -11  -6   6   54.30    4.75
 -11  -6   7   82.56    5.41
 -11  -6   7   79.22    5.41
 -11  -6   8  425.63   15.95
 -11  -6   8  421.32   15.73
 -11  -6   9  374.29   14.32
 -11  -6   9  366.88   14.09
 -11  -6  10    3.34    3.56
 -11  -6  10   10.24    3.78
 -11  -6  11  448.32   16.69
 -11  -6  11  430.22   16.10
 -11  -6  12  448.17   16.69
 -11  -6  12  424.22   15.95
 -11  -6  13  506.26   18.47
 -11  -6  13  509.44   18.69
 -11  -6  14   66.68    5.34
 -11  -6  14   56.97    5.27
 -11  -6  15 1416.03   47.32
 -11  -6  15 1454.60   48.59
 -11  -6  16 1341.85   45.03
 -11  -6  16 1325.54   44.51
 -11  -6  17    9.12    4.01
 -11  -6  17    4.67    3.86
 -11  -6  18    2.97    3.63
 -11  -6  18    8.46    4.23
 -11  -6  19   68.84    5.41
 -11  -6  19   68.76    5.71
 -11  -6  20  599.42   21.14
 -11  -6  20  596.01   21.07
 -11  -6  21  250.72   10.38
 -11  -6  21  234.62    9.64
 -11  -6  22   29.15    4.52
 -11  -6  22   26.63    4.75
 -11  -6  23  617.37   22.25
 -12  -6 -18    2.37    4.90
  12   6  18    0.52    3.78
 -12  -6 -17   -6.97    6.31
  12   6  17    4.08    4.08
 -12  -6 -16   54.07    4.90
  12   6  16   72.25    5.41
 -12  -6 -15  480.14   17.51
  12   6  15  448.69   16.62
 -12  -6 -14   58.90    5.12
  12   6  14   50.51    5.19
 -12  -6 -13   98.28    5.79
  12   6  13   82.34    6.16
 -12  -6 -12   98.88    6.16
  12   6  12  106.52    6.53
 -12  -6 -11  209.77    9.20
  12   6  11  238.48   10.38
 -12  -6 -10  106.37    6.16
  12   6  10  119.65    7.12
 -12  -6  -9  129.66    6.90
  12   6   9  131.37    7.20
 -12  -6  -8  361.31   13.95
  12   6   8  409.68   15.73
 -12  -6  -7   92.28    5.71
  12   6   7   93.61    6.31
 -12  -6  -6   17.28    3.78
  12   6   6   13.13    3.93
 -12  -6  -5  379.04   14.39
  12   6   5  401.07   15.21
 -12  -6  -4 1192.02   40.06
  12   6   4 1171.25   39.54
 -12  -6  -3  163.19    7.71
  12   6   3  146.87    7.49
 -12  -6  -2  131.00    7.05
  12   6   2  135.52    6.97
 -12  -6  -1  893.09   30.71
  12   6   1  933.14   31.90
 -12  -6   0  490.08   17.88
 -12  -6   0  470.28   17.13
 -12  -6   1  676.71   23.74
 -12  -6   1  676.05   23.66
 -12  -6   2   -1.04    3.41
 -12  -6   2    4.30    3.49
 -12  -6   3 1105.23   37.46
 -12  -6   3 1073.33   36.35
 -12  -6   4 1480.56   49.48
 -12  -6   4 1477.60   49.25
 -12  -6   5    4.01    3.49
 -12  -6   5    2.89    3.56
 -12  -6   6  476.07   17.51
 -12  -6   6  447.06   16.54
 -12  -6   7  331.87   13.06
 -12  -6   7  323.19   12.76
 -12  -6   8  368.58   14.09
 -12  -6   8  356.34   13.87
 -12  -6   9   34.05    4.52
 -12  -6   9   28.19    4.38
 -12  -6  10  243.15   10.38
 -12  -6  10  242.71   10.38
 -12  -6  11  635.77   22.55
 -12  -6  11  618.04   22.03
 -12  -6  12  210.81    9.20
 -12  -6  12  191.75    8.90
 -12  -6  13  115.64    6.68
 -12  -6  13  121.28    6.82
 -12  -6  14   58.01    5.19
 -12  -6  14   58.45    5.34
 -12  -6  15  770.69   26.85
 -12  -6  15  780.34   27.22
 -12  -6  16  550.32   19.95
 -12  -6  16  566.04   20.55
 -12  -6  17   37.53    4.75
 -12  -6  17   40.20    4.75
 -12  -6  18 1291.41   43.24
 -12  -6  18 1206.11   40.50
 -12  -6  19  367.47   13.87
 -12  -6  19  351.89   13.50
 -12  -6  20    5.56    3.78
 -12  -6  20   -0.82    4.38
 -12  -6  21   79.89    5.56
 -12  -6  21   83.30    5.56
 -12  -6  22  128.10    7.34
 -13  -6 -16   -6.82    6.68
  13   6  16  355.31   13.13
 -13  -6 -15    2.30    5.27
  13   6  15   69.95    5.19
 -13  -6 -14   31.75    4.60
  13   6  14   30.71    4.60
 -13  -6 -13  215.41    9.42
  13   6  13  206.58    9.27
 -13  -6 -12  292.40   11.87
  13   6  12  285.58   11.72
 -13  -6 -11    3.71    3.78
  13   6  11    4.97    4.52
 -13  -6 -10   71.21    5.27
  13   6  10   77.89    6.31
 -13  -6  -9  519.83   18.92
  13   6   9  598.53   21.44
 -13  -6  -8  200.57    8.90
  13   6   8  208.29    9.57
 -13  -6  -7    2.23    3.41
  13   6   7    4.23    3.93
 -13  -6  -6  304.27   12.16
  13   6   6  342.40   13.57
 -13  -6  -5  165.12    8.01
  13   6   5  182.40    8.75
 -13  -6  -4  581.10   20.77
  13   6   4  568.79   20.40
 -13  -6  -3  594.01   21.07
  13   6   3  588.00   20.84
 -13  -6  -2  137.15    7.12
  13   6   2  114.31    6.31
 -13  -6  -1  501.58   18.32
  13   6   1  501.06   18.02
 -13  -6   0  215.11    9.49
 -13  -6   1   23.29    3.78
 -13  -6   1   25.44    4.15
 -13  -6   2   69.43    5.19
 -13  -6   2   69.95    5.19
 -13  -6   3   27.07    4.15
 -13  -6   3   19.21    4.15
 -13  -6   4   42.50    4.75
 -13  -6   4   32.12    4.60
 -13  -6   5   64.39    5.34
 -13  -6   5   63.72    5.12
 -13  -6   6  208.44    9.42
 -13  -6   6  224.83    9.79
 -13  -6   7  276.01   11.42
 -13  -6   7  250.94   10.46
 -13  -6   8   15.50    4.01
 -13  -6   8    7.42    4.08
 -13  -6   9  230.76    9.94
 -13  -6   9  232.54   10.01
 -13  -6  10  466.35   17.21
 -13  -6  10  472.80   17.36
 -13  -6  11  204.50    9.20
 -13  -6  11  204.65    9.12
 -13  -6  12  101.77    6.23
 -13  -6  12  101.40    6.23
 -13  -6  13  100.36    6.23
 -13  -6  13   91.46    6.01
 -13  -6  14  372.22   14.39
 -13  -6  14  375.93   14.39
 -13  -6  15   10.76    4.23
 -13  -6  15    7.79    4.15
 -13  -6  16   -0.30    3.86
 -13  -6  16   -1.26    4.08
 -13  -6  17    5.79    3.78
 -13  -6  17    7.57    4.38
 -13  -6  18  169.72    7.94
 -13  -6  18  156.29    7.71
 -13  -6  19   39.68    4.45
 -13  -6  19   46.51    4.38
 -13  -6  20  218.15    9.42
 -13  -6  20  205.25    9.05
 -14  -6 -14   -5.64   10.83
  14   6  14   67.28    4.75
 -14  -6 -13    0.89    6.08
  14   6  13  133.52    6.90
 -14  -6 -12    3.04    4.60
  14   6  12    4.01    4.38
 -14  -6 -11   21.88    3.78
  14   6  11   11.35    4.67
 -14  -6 -10  336.84   13.20
  14   6  10  334.02   13.35
 -14  -6  -9  663.66   23.37
  14   6   9  702.53   24.63
 -14  -6  -8  149.76    7.79
  14   6   8  155.40    8.16
 -14  -6  -7  211.33    9.27
  14   6   7  200.28    9.27
 -14  -6  -6  920.53   31.53
  14   6   6  945.01   32.56
 -14  -6  -5  449.58   16.62
  14   6   5  491.86   18.17
 -14  -6  -4   54.30    4.75
  14   6   4   56.45    5.19
 -14  -6  -3   84.86    5.71
  14   6   3   75.51    5.71
 -14  -6  -2   28.93    4.15
  14   6   2   27.67    4.23
 -14  -6  -1   90.79    5.71
  14   6   1   93.09    5.79
 -14  -6   0   -0.82    3.49
  14   6   0    0.07    2.82
 -14  -6   1  603.95   21.59
 -14  -6   1  594.38   21.29
 -14  -6   2  663.73   23.44
 -14  -6   2  638.81   22.62
 -14  -6   3  135.00    7.05
 -14  -6   3  120.76    6.90
 -14  -6   4  322.82   12.76
 -14  -6   4  327.79   12.83
 -14  -6   5  583.32   20.99
 -14  -6   5  590.82   21.14
 -14  -6   6  158.22    7.86
 -14  -6   6  142.79    7.42
 -14  -6   7   43.17    4.67
 -14  -6   7   32.12    4.30
 -14  -6   8   14.24    4.01
 -14  -6   8   26.48    4.38
 -14  -6   9  491.35   18.02
 -14  -6   9  497.28   18.17
 -14  -6  10   47.40    4.75
 -14  -6  10   51.85    5.04
 -14  -6  11   87.31    6.01
 -14  -6  11   74.18    5.64
 -14  -6  12    1.93    3.86
 -14  -6  12    9.64    4.08
 -14  -6  13  195.68    9.05
 -14  -6  13  185.07    8.75
 -14  -6  14  216.67    9.49
 -14  -6  14  227.80   10.01
 -14  -6  15   71.80    5.19
 -14  -6  15   70.84    5.49
 -14  -6  16  208.96    9.05
 -14  -6  16  185.59    8.46
 -14  -6  17  343.36   13.13
 -14  -6  17  342.40   13.28
 -14  -6  18  132.70    7.05
 -14  -6  18  135.45    7.12
 -14  -6  19   30.56    4.90
 -14  -6  19   20.03    4.23
 -15  -6 -12   -2.45    9.94
  15   6  12   12.31    3.93
 -15  -6 -11  154.95   11.87
  15   6  11  231.73   10.16
 -15  -6 -10  285.58   12.09
  15   6  10  219.93    9.94
 -15  -6  -9   32.56    4.45
  15   6   9   37.98    4.82
 -15  -6  -8  422.06   15.80
  15   6   8  423.10   15.95
 -15  -6  -7   16.54    3.93
  15   6   7   19.29    4.45
 -15  -6  -6  144.79    7.27
  15   6   6  174.46    8.46
 -15  -6  -5   94.35    5.86
  15   6   5  111.86    6.82
 -15  -6  -4  481.18   17.58
  15   6   4  490.16   18.02
 -15  -6  -3  584.44   20.77
  15   6   3  542.90   19.58
 -15  -6  -2   64.31    5.12
  15   6   2   57.93    5.04
 -15  -6  -1  191.38    8.68
  15   6   1  191.75    8.90
 -15  -6   0  441.35   16.32
  15   6   0  435.79   16.24
 -15  -6   1   45.69    4.75
 -15  -6   1   50.59    4.60
 -15  -6   2   30.63    4.38
 -15  -6   2   30.12    4.23
 -15  -6   3   41.39    4.75
 -15  -6   3   47.62    4.60
 -15  -6   4  480.37   17.73
 -15  -6   4  453.81   16.84
 -15  -6   5  264.44   11.05
 -15  -6   5  283.06   11.50
 -15  -6   6   62.90    5.27
 -15  -6   6   56.23    4.75
 -15  -6   7   12.09    4.15
 -15  -6   7   13.50    3.93
 -15  -6   8  609.51   21.66
 -15  -6   8  620.56   21.96
 -15  -6   9  173.35    8.09
 -15  -6   9  188.85    8.83
 -15  -6  10   -0.59    4.01
 -15  -6  10   -1.19    3.63
 -15  -6  11   27.07    4.01
 -15  -6  11   19.14    4.30
 -15  -6  12  253.46   10.61
 -15  -6  12  267.33   10.76
 -15  -6  13  203.91    8.83
 -15  -6  13  195.53    8.83
 -15  -6  14   42.73    4.67
 -15  -6  14   48.59    4.75
 -15  -6  15  353.45   13.65
 -15  -6  15  350.26   13.43
 -15  -6  16  472.58   17.28
 -15  -6  16  501.29   17.95
 -15  -6  17    4.23    4.30
 -15  -6  17    8.38    3.86
 -16  -6 -10   19.14   11.57
  16   6  10   10.46    4.23
 -16  -6  -9    3.86    6.82
  16   6   9   26.63    4.67
 -16  -6  -8  293.37   12.54
  16   6   8  245.52   10.38
 -16  -6  -7  169.05    8.01
  16   6   7  187.96    8.83
 -16  -6  -6    9.12    4.08
  16   6   6    4.97    4.30
 -16  -6  -5  606.47   21.51
  16   6   5  668.85   23.66
 -16  -6  -4  264.66   10.90
  16   6   4  271.12   11.27
 -16  -6  -3   14.91    3.93
  16   6   3   11.65    4.38
 -16  -6  -2  119.94    6.38
  16   6   2  113.64    6.60
 -16  -6  -1  402.78   15.13
  16   6   1  392.84   14.84
 -16  -6   0   47.62    4.75
  16   6   0   52.74    4.82
 -16  -6   1  122.76    6.68
 -16  -6   1  134.70    7.20
 -16  -6   2    5.41    3.63
 -16  -6   2   12.61    4.01
 -16  -6   3  238.77   10.09
 -16  -6   3  249.31   10.53
 -16  -6   4  200.28    8.75
 -16  -6   4  222.60    9.87
 -16  -6   5   36.05    4.75
 -16  -6   5   29.45    4.08
 -16  -6   6   20.03    4.30
 -16  -6   6   28.19    4.01
 -16  -6   7  635.10   22.48
 -16  -6   7  608.92   21.51
 -16  -6   8  149.84    7.49
 -16  -6   8  158.59    8.01
 -16  -6   9    2.82    3.63
 -16  -6   9    0.07    3.86
 -16  -6  10  109.78    6.38
 -16  -6  10   98.43    5.86
 -16  -6  11  282.69   11.35
 -16  -6  11  304.12   12.09
 -16  -6  12  108.45    6.23
 -16  -6  12  109.63    6.45
 -16  -6  13    8.09    4.01
 -16  -6  13    3.63    3.56
 -16  -6  14   76.70    5.19
 -16  -6  14   86.93    5.64
 -16  -6  15  434.67   15.80
 -16  -6  15  427.70   15.73
 -17  -6  -7   14.76    7.64
  17   6   7   23.07    4.45
 -17  -6  -6  165.49    8.09
  17   6   6  182.55    8.31
 -17  -6  -5  127.95    6.97
  17   6   5  119.80    6.53
 -17  -6  -4  261.10   10.76
  17   6   4  227.94    9.87
 -17  -6  -3    2.60    3.19
  17   6   3    4.67    4.08
 -17  -6  -2  112.30    6.31
  17   6   2  117.05    6.75
 -17  -6  -1  516.94   18.77
  17   6   1  480.29   17.43
 -17  -6   0  199.46    8.75
  17   6   0  210.22    9.20
 -17  -6   1   76.33    5.41
 -17  -6   1   76.33    5.19
 -17  -6   2  380.90   14.32
 -17  -6   2  379.04   14.24
 -17  -6   3   35.23    4.38
 -17  -6   3   39.91    4.23
 -17  -6   4   39.76    4.82
 -17  -6   4   38.65    4.38
 -17  -6   5   -1.26    3.41
 -17  -6   5    1.48    3.78
 -17  -6   6  418.21   15.50
 -17  -6   6  417.69   15.43
 -17  -6   7  360.79   13.80
 -17  -6   7  351.60   13.35
 -17  -6   8   70.10    5.34
 -17  -6   8   80.63    5.19
 -17  -6   9   23.44    4.15
 -17  -6   9   24.85    3.86
 -17  -6  10  586.66   20.55
 -17  -6  10  607.73   21.36
 -17  -6  11  106.89    6.01
 -17  -6  11   89.53    5.64
 -17  -6  12   39.61    4.15
 -17  -6  12   33.23    4.60
 -18  -6  -2  143.38    7.64
  18   6   2  141.01    6.97
 -18  -6  -1  124.76    6.68
  18   6   1  111.64    6.08
 -18  -6   0  107.70    6.16
  18   6   0  104.51    5.56
 -18  -6   1  205.77    8.98
 -18  -6   1  226.16    9.57
 -18  -6   2  669.30   23.14
 -18  -6   2  660.84   22.99
 -18  -6   3   84.78    5.19
 -18  -6   3   80.93    5.41
 -18  -6   4  111.26    6.01
 -18  -6   4  113.94    6.31
 -18  -6   5  351.08   13.13
 -18  -6   5  372.44   14.02
 -18  -6   6  150.50    7.20
 -18  -6   6  161.26    7.71
 -18  -6   7   69.73    5.12
 -18  -6   7   62.01    5.12
 -18  -6   8   50.59    4.75
 -18  -6   8   51.85    5.71
 -15   7   1   15.50    3.12
 -15   7   1   19.06    3.26
 -15   7   0   67.35    4.52
 -15   7   0   81.82    4.97
 -15   7  -1  195.60    8.38
 -15   7  -1  206.66    8.53
  15  -7   2  308.80   11.87
 -15   7  -2  300.86   11.72
  15  -7   3   -0.82    4.01
 -15   7  -3  -18.92    4.90
  15  -7   4  227.94    9.57
 -15   7  -4  191.60    9.94
 -15   7  -5  103.18    8.83
 -14   7   0  228.02    8.53
 -14   7   0  235.81    8.90
 -14   7  -1  208.14    8.23
 -14   7  -1  213.33    8.31
  14  -7   2   22.85    3.56
 -14   7  -2   12.91    3.71
  14  -7   3  186.78    8.01
 -14   7  -3  175.28    7.86
  14  -7   4   81.00    5.41
 -14   7  -4   95.24    5.93
  14  -7   5  255.91   10.38
 -14   7  -5  291.44   11.50
  14  -7   6   10.24    4.15
 -14   7  -6   -8.23    4.45
  14  -7   7  313.99   12.31
 -14   7  -7  345.59   13.80
  14  -7   8  126.32    7.49
 -14   7  -8  123.95    9.64
 -13   7  -1   25.74    2.74
 -13   7  -1   25.59    2.67
  13  -7   2  184.77    7.49
 -13   7  -2  189.97    7.64
  13  -7   3  127.66    6.16
 -13   7  -3  143.68    6.53
  13  -7   4  254.28   10.01
 -13   7  -4  250.49    9.87
  13  -7   5   24.85    3.78
 -13   7  -5   28.48    4.15
  13  -7   6  211.33    9.05
 -13   7  -6  234.10    9.64
  13  -7   7   71.80    5.34
 -13   7  -7   70.84    5.19
  13  -7   8   60.38    5.41
 -13   7  -8   64.68    5.27
  13  -7   9   -2.74    4.45
 -13   7  -9  -21.66    5.71
  13  -7  10  112.97    7.20
 -13   7 -10  185.22   10.61
  13  -7  11   70.02    7.12
 -13   7 -11   75.36    7.20
  12  -7   3  325.12   11.72
 -12   7  -3  303.98   11.05
  12  -7   4    5.56    3.04
 -12   7  -4    4.67    2.89
  12  -7   5  146.94    6.68
 -12   7  -5  167.71    7.27
  12  -7   6  271.04   10.61
 -12   7  -6  278.98   10.83
  12  -7   7  198.35    8.75
 -12   7  -7  218.52    8.98
  12  -7   8   46.95    4.90
 -12   7  -8   45.99    4.45
  12  -7   9  530.73   19.14
 -12   7  -9  536.07   18.99
  12  -7  10  191.52    8.98
 -12   7 -10  198.57    8.98
  12  -7  11   13.13    4.90
 -12   7 -11   12.54    5.27
  12  -7  12   79.52    6.01
 -12   7 -12   75.07    6.68
  12  -7  13   82.48    6.31
 -12   7 -13  109.63    6.90
  11  -7   3    2.82    2.30
 -11   7  -3    3.86    1.85
  11  -7   4  288.99   10.53
 -11   7  -4  259.77    9.49
  11  -7   5  224.24    8.68
 -11   7  -5  239.15    9.12
  11  -7   6  106.52    5.64
 -11   7  -6  124.32    6.01
  11  -7   7   90.94    5.41
 -11   7  -7   96.95    5.41
  11  -7   8  458.63   16.69
 -11   7  -8  487.79   17.36
  11  -7   9   18.02    4.38
 -11   7  -9   12.46    3.78
  11  -7  10   83.52    5.86
 -11   7 -10   90.79    5.79
  11  -7  11   22.77    4.75
 -11   7 -11   23.88    4.45
  11  -7  12  647.49   22.85
 -11   7 -12  689.40   24.11
  11  -7  13  213.70    9.42
 -11   7 -13  239.52   10.53
  11  -7  14    1.19    4.23
 -11   7 -14    6.53    4.67
  10  -7   4  131.14    5.34
 -10   7  -4  126.55    5.19
  10  -7   5   97.69    4.67
 -10   7  -5  114.83    5.04
  10  -7   6  125.36    5.93
 -10   7  -6  117.87    5.34
  10  -7   7  328.38   12.24
 -10   7  -7  331.35   12.02
  10  -7   8  550.61   19.43
 -10   7  -8  563.15   19.58
  10  -7   9   50.07    4.82
 -10   7  -9   48.07    4.30
  10  -7  10   68.54    5.34
 -10   7 -10   64.68    4.97
  10  -7  11  373.55   14.17
 -10   7 -11  397.14   14.76
  10  -7  12    9.94    4.38
 -10   7 -12    1.04    3.93
  10  -7  13  160.30    7.79
 -10   7 -13  198.64    9.05
  10  -7  14   49.99    4.90
 -10   7 -14   51.03    5.19
  10  -7  15  256.13   10.53
 -10   7 -15  329.42   12.91
  10  -7  16   61.12    5.64
 -10   7 -16   46.14    5.34
   9  -7   4  114.75    4.45
   9  -7   5   33.38    2.82
  -9   7  -5   39.39    2.89
   9  -7   6  162.45    6.82
  -9   7  -6  149.69    6.16
   9  -7   7   41.91    3.78
  -9   7  -7   46.88    3.56
   9  -7   8  274.97   10.61
  -9   7  -8  281.13   10.61
   9  -7   9  176.99    7.94
  -9   7  -9  175.35    7.57
   9  -7  10  398.25   14.69
  -9   7 -10  437.49   15.87
   9  -7  11  238.33    9.94
  -9   7 -11  245.01   10.09
   9  -7  12  156.07    7.71
  -9   7 -12  171.42    8.01
   9  -7  13   36.27    4.90
  -9   7 -13   34.57    4.67
   9  -7  14  487.27   17.73
  -9   7 -14  533.70   19.29
   9  -7  15   86.34    5.79
  -9   7 -15  112.08    6.68
   9  -7  16    8.23    4.30
  -9   7 -16   10.38    4.75
   9  -7  17   42.65    5.27
  -9   7 -17   60.75    5.56
   8  -7   5   78.48    3.49
  -8   7  -5   82.48    3.49
   8  -7   6   76.18    4.01
  -8   7  -6   85.30    4.08
   8  -7   7  519.76   17.95
  -8   7  -7  501.58   17.36
   8  -7   8  226.39    9.12
  -8   7  -8  225.20    8.90
   8  -7   9  766.99   26.11
  -8   7  -9  795.91   26.85
   8  -7  10  578.43   20.32
  -8   7 -10  600.53   20.92
   8  -7  11   82.04    5.56
  -8   7 -11   97.69    5.79
   8  -7  12  276.09   11.05
  -8   7 -12  298.12   11.79
   8  -7  13  113.42    6.53
  -8   7 -13  120.61    6.68
   8  -7  14  589.18   20.92
  -8   7 -14  613.59   21.59
   8  -7  15   41.32    4.82
  -8   7 -15   36.64    4.90
   8  -7  16   28.71    4.45
  -8   7 -16   40.20    4.90
   8  -7  17  448.62   16.32
  -8   7 -17  553.80   19.88
   8  -7  18   76.25    6.16
  -8   7 -18   73.43    5.71
   7  -7   6    9.49    2.23
  -7   7  -6   12.39    2.08
   7  -7   7    1.41    2.67
  -7   7  -7    6.38    2.30
   7  -7   8  530.73   18.40
  -7   7  -8  527.32   18.17
   7  -7   9    2.15    3.12
  -7   7  -9    8.38    2.89
   7  -7  10    1.85    3.41
  -7   7 -10    3.41    3.19
   7  -7  11  179.06    8.09
  -7   7 -11  178.47    7.79
   7  -7  12  968.75   32.71
  -7   7 -12 1034.02   34.94
   7  -7  13    5.71    4.01
  -7   7 -13   -1.56    3.86
   7  -7  14   61.27    5.27
  -7   7 -14   71.58    5.49
   7  -7  15  176.24    8.31
  -7   7 -15  185.37    8.53
   7  -7  16  269.41   11.05
  -7   7 -16  281.87   11.27
   7  -7  17    9.20    4.30
  -7   7 -17    5.19    3.93
   7  -7  18   -0.37    3.93
  -7   7 -18   -2.08    3.93
   7  -7  19   57.41    5.64
  -7   7 -19   49.48    4.97
   6  -7   7  408.34   14.24
  -6   7  -7  457.08   15.73
   6  -7   8  519.98   17.95
  -6   7  -8  531.40   18.25
   6  -7   9    2.23    2.89
  -6   7  -9   -0.74    2.74
   6  -7  10  802.59   27.15
  -6   7 -10  789.98   26.78
   6  -7  11  354.79   13.28
  -6   7 -11  348.11   12.83
   6  -7  12   85.38    5.49
  -6   7 -12   78.63    5.27
   6  -7  13   76.18    5.34
  -6   7 -13   81.07    5.49
   6  -7  14   71.21    5.56
  -6   7 -14   66.98    5.34
   6  -7  15  247.38   10.38
  -6   7 -15  253.09   10.53
   6  -7  16  429.70   16.02
  -6   7 -16  459.67   16.76
   6  -7  17   36.64    5.04
  -6   7 -17   32.27    4.52
   6  -7  18   54.96    5.19
  -6   7 -18   72.99    5.49
   6  -7  19  298.41   12.24
  -6   7 -19  310.58   12.09
   6  -7  20   30.19    4.97
  -6   7 -20   21.96    4.38
   5  -7   7  163.34    6.31
   5  -7   7  177.88    6.90
   5  -7   8   70.02    4.08
  -5   7  -8   65.13    3.63
   5  -7   9    5.27    3.04
  -5   7  -9    0.82    2.82
   5  -7  10  207.92    8.53
  -5   7 -10  210.07    8.53
   5  -7  11  460.78   16.47
  -5   7 -11  443.80   15.80
   5  -7  12   29.08    4.15
  -5   7 -12   26.48    3.78
   5  -7  13  113.05    6.31
  -5   7 -13  132.41    6.82
   5  -7  14  605.43   21.29
  -5   7 -14  669.00   23.37
   5  -7  15   29.97    4.52
  -5   7 -15   20.62    4.60
   5  -7  16   80.33    5.93
  -5   7 -16   63.42    5.27
   5  -7  17    3.86    4.23
  -5   7 -17    6.90    4.15
   5  -7  18  369.62   14.24
  -5   7 -18  362.13   13.72
   5  -7  19  185.00    8.83
  -5   7 -19  190.78    8.60
   5  -7  20    0.52    4.52
  -5   7 -20   -0.45    4.15
  -5   7 -21   82.48    6.08
   4  -7   8   79.00    4.15
   4  -7   8   74.47    3.86
   4  -7   9  832.26   27.89
   4  -7  10   49.99    4.01
  -4   7 -10   49.55    3.86
   4  -7  11   14.76    3.63
  -4   7 -11   20.70    3.41
   4  -7  12   27.07    3.93
  -4   7 -12   28.71    3.78
   4  -7  13  374.52   13.95
  -4   7 -13  352.19   13.35
   4  -7  14  194.05    8.60
  -4   7 -14  204.43    8.98
   4  -7  15   26.78    4.52
  -4   7 -15   25.96    4.38
   4  -7  16  147.46    7.49
  -4   7 -16  170.98    8.31
   4  -7  17  631.47   22.33
  -4   7 -17  646.23   22.77
   4  -7  18   31.75    4.97
  -4   7 -18   27.45    4.82
   4  -7  19   40.28    5.19
  -4   7 -19   38.94    4.75
   4  -7  20  219.64    9.79
  -4   7 -20  209.18    8.98
   4  -7  21  539.41   19.36
  -4   7 -21  530.21   18.77
   3  -7   7   35.16    2.52
   3  -7   7   32.71    2.52
   3  -7   8  126.17    5.49
   3  -7   8  121.20    5.19
   3  -7   9  170.90    6.82
   3  -7   9  189.60    7.64
   3  -7  10  257.47    9.94
   3  -7  10  237.59    9.20
   3  -7  11  159.18    7.27
  -3   7 -11  154.36    6.90
   3  -7  12 1418.26   47.03
  -3   7 -12 1475.37   48.73
   3  -7  13   29.52    4.23
  -3   7 -13   27.89    4.15
   3  -7  14    3.12    3.86
  -3   7 -14   -0.22    3.63
   3  -7  15  436.75   16.02
  -3   7 -15  438.38   16.17
   3  -7  16  726.19   25.22
  -3   7 -16  774.40   26.85
   3  -7  17   11.27    4.52
  -3   7 -17   14.91    4.15
   3  -7  18    3.71    4.45
  -3   7 -18    4.60    4.23
   3  -7  19  265.77   11.20
  -3   7 -19  255.46   10.53
   3  -7  20  347.15   13.80
  -3   7 -20  337.80   12.83
   3  -7  21   -6.60    4.75
  -3   7 -21    5.27    4.08
  -3   7 -22   25.81    4.82
   2  -7   7  650.97   21.81
   2  -7   7  609.66   20.47
   2  -7   8   85.90    4.38
   2  -7   8   81.07    4.01
   2  -7   9  128.62    5.64
   2  -7   9  141.45    6.31
   2  -7  10  229.50    8.98
   2  -7  10  214.89    8.60
   2  -7  11  503.81   17.80
   2  -7  11  474.80   16.84
   2  -7  12   24.33    3.71
   2  -7  12   23.88    3.93
   2  -7  13   16.17    4.15
  -2   7 -13    2.23    3.04
   2  -7  14   11.65    4.08
  -2   7 -14   12.24    3.86
   2  -7  15  919.79   31.38
  -2   7 -15  911.63   31.01
   2  -7  16  122.61    6.90
  -2   7 -16  116.46    6.38
   2  -7  17   40.50    5.12
  -2   7 -17   35.09    4.67
   2  -7  18  417.32   15.73
  -2   7 -18  435.94   16.17
   2  -7  19  698.37   24.40
  -2   7 -19  718.40   25.00
   2  -7  20    5.41    4.52
  -2   7 -20   -4.82    4.01
   2  -7  21   37.61    5.27
  -2   7 -21   36.79    4.60
   2  -7  22   87.68    6.53
  -2   7 -22   71.28    5.41
   1  -7   7   32.79    2.67
   1  -7   7   34.27    2.60
   1  -7   8  367.32   12.91
   1  -7   8  380.38   13.43
   1  -7   9  144.50    6.16
   1  -7   9  155.40    6.60
   1  -7  10  474.95   16.69
   1  -7  10  518.05   18.10
   1  -7  11  608.17   21.14
   1  -7  11  632.36   21.81
   1  -7  12   85.30    5.12
   1  -7  12   91.39    5.34
   1  -7  13  270.82   10.76
   1  -7  13  256.95   10.31
   1  -7  14 1269.90   42.43
   1  -7  14 1131.19   38.05
   1  -7  15   79.59    5.64
  -1   7 -15   73.29    5.19
   1  -7  16   37.53    4.75
  -1   7 -16   34.42    4.45
   1  -7  17   45.40    5.04
  -1   7 -17   47.70    5.12
   1  -7  18  549.72   19.88
  -1   7 -18  555.14   19.81
   1  -7  19  266.00   11.13
  -1   7 -19  265.85   10.76
   1  -7  20    7.64    4.75
  -1   7 -20   -5.49    3.93
   1  -7  21   48.96    5.56
  -1   7 -21   57.93    4.90
   1  -7  22  302.86   11.87
  -1   7 -22  311.47   12.02
   0  -7   6  330.46   11.50
   0  -7   6  297.97   10.38
   0  -7   7  148.13    6.16
   0  -7   7  144.57    5.93
   0  -7   8   82.19    4.38
   0  -7   8   71.58    4.08
   0  -7   9  247.01    9.42
   0  -7   9  267.18   10.09
   0  -7  10   18.84    3.19
   0  -7  10   19.06    3.12
   0  -7  11   36.42    3.71
   0  -7  11   38.05    3.71
   0  -7  12   14.69    3.71
   0  -7  12   10.53    3.34
   0  -7  13  304.87   11.87
   0  -7  13  333.13   12.76
   0  -7  14  374.07   14.02
   0  -7  14  371.40   14.09
   0  -7  15   45.62    4.52
   0  -7  15   41.54    4.82
   0  -7  16  182.33    8.68
   0  -7  16  174.02    8.23
   0  -7  17  629.83   22.48
   0  -7  17  560.70   20.10
   0  -7  18   89.68    6.01
   0   7 -18   77.96    5.86
   0  -7  19   26.33    4.75
   0   7 -19   15.73    4.08
   0  -7  20  149.84    7.94
   0   7 -20  144.87    7.34
   0  -7  21  376.67   14.32
   0   7 -21  369.18   13.95
   0  -7  22   82.04    6.08
   0   7 -22   76.85    5.27
   0   7 -23  148.80    8.01
  -1  -7 -22  198.94    8.09
   1   7  22    0.22    3.93
  -1  -7 -21   36.57    3.78
   1   7  21    3.93    3.41
  -1  -7 -20    1.93    2.60
   1   7  20    0.67    2.82
  -1  -7   5  164.97    6.23
  -1  -7   5  152.73    5.79
  -1  -7   6   64.46    3.49
  -1  -7   6   68.17    3.63
  -1  -7   7   28.11    2.82
  -1  -7   7   23.37    2.74
  -1  -7   8  647.34   22.03
  -1  -7   8  683.61   23.22
  -1  -7   9  211.18    8.38
  -1  -7   9  188.48    7.86
  -1  -7  10  745.47   25.29
  -1  -7  10  789.24   26.78
  -1  -7  11   38.35    3.56
  -1  -7  11   49.10    4.38
  -1  -7  12 1589.60   52.44
  -1  -7  12 1627.43   53.78
  -1  -7  13  111.26    6.01
  -1  -7  13   95.69    6.01
  -1  -7  14   -4.08    3.49
  -1  -7  14   -3.63    3.78
  -1  -7  15    7.27    3.56
  -1  -7  15   16.84    4.45
  -1  -7  16  283.28   11.27
  -1  -7  16  308.06   12.31
  -1  -7  17    1.19    4.08
  -1  -7  17    2.45    4.15
  -1  -7  18   -0.45    4.15
  -1  -7  18    2.45    4.38
  -1  -7  19   93.98    6.16
  -1  -7  19   91.24    6.23
  -1  -7  20  280.68   11.57
  -1  -7  20  260.43   11.05
  -1  -7  21    1.71    3.56
  -1  -7  21    1.71    4.67
  -1  -7  22   41.46    4.45
  -2  -7 -22   43.54    4.38
   2   7  22    2.82    4.30
  -2  -7 -21   16.99    3.41
   2   7  21   -0.30    3.93
  -2  -7 -20    2.82    3.12
   2   7  20   -2.15    3.63
  -2  -7 -19  594.53   20.40
   2   7  19    1.93    3.04
  -2  -7 -18  317.48   11.42
   2   7  18    0.96    2.67
  -2  -7 -17   23.37    2.30
   2   7  17   34.71    2.67
  -2  -7   4  498.32   16.91
  -2  -7   4  462.79   15.73
  -2  -7   6    7.20    2.37
  -2  -7   6    8.31    2.45
  -2  -7   7  629.83   21.44
  -2  -7   7  589.41   20.10
  -2  -7   8  242.33    9.49
  -2  -7   8  261.10    9.87
  -2  -7   9   20.62    3.19
  -2  -7   9   27.00    3.41
  -2  -7  10  131.29    6.31
  -2  -7  10  127.06    6.23
  -2  -7  11   34.94    3.71
  -2  -7  11   39.54    4.15
  -2  -7  12   12.24    3.26
  -2  -7  12    9.49    3.63
  -2  -7  13  116.98    6.45
  -2  -7  13  116.68    6.31
  -2  -7  14   26.48    4.15
  -2  -7  14   26.63    4.15
  -2  -7  15  461.16   17.06
  -2  -7  15  483.93   17.65
  -2  -7  16   84.78    5.71
  -2  -7  16   95.32    6.23
  -2  -7  17   78.63    5.49
  -2  -7  17   76.55    5.86
  -2  -7  18  213.70    9.49
  -2  -7  18  210.59    9.42
  -2  -7  19  429.63   16.02
  -2  -7  19  414.50   15.58
  -2  -7  20   10.98    4.15
  -2  -7  20   14.17    4.60
  -2  -7  21   14.46    4.82
  -2  -7  21   14.39    4.67
  -2  -7  23    6.23   10.68
   3   7  22    3.19    4.82
  -3  -7 -21   -0.30    3.41
   3   7  21    0.37    4.23
  -3  -7 -20  220.01    8.68
   3   7  20    6.45    4.38
  -3  -7 -19  175.95    7.27
   3   7  19   -0.59    3.63
  -3  -7 -18   -1.04    2.60
   3   7  18   -2.30    3.34
  -3  -7 -17    9.72    2.37
   3   7  17   -1.93    3.19
  -3  -7 -16  515.90   17.51
   3   7  16  378.30   13.43
  -3  -7 -15  308.06   10.76
   3   7  15  379.04   13.13
  -3  -7 -14    0.59    1.48
  -3  -7   3 1054.05   34.79
  -3  -7   3 1022.15   33.75
  -3  -7   4   16.91    2.45
  -3  -7   4   16.02    2.30
  -3  -7   5  127.73    5.56
  -3  -7   5  121.50    5.41
  -3  -7   6  325.12   11.79
  -3  -7   6  310.13   11.35
  -3  -7   7  110.60    5.41
  -3  -7   7  113.49    5.49
  -3  -7   8   22.70    3.34
  -3  -7   8   27.96    3.41
  -3  -7   9   33.82    3.56
  -3  -7   9   31.82    3.71
  -3  -7  10  902.73   30.49
  -3  -7  10  872.32   29.60
  -3  -7  11  444.17   15.95
  -3  -7  11  461.01   16.69
  -3  -7  12    2.15    3.04
  -3  -7  12    4.90    3.71
  -3  -7  13  513.75   18.40
  -3  -7  13  502.99   18.17
  -3  -7  14  455.44   16.62
  -3  -7  14  496.98   17.95
  -3  -7  15    9.49    3.78
  -3  -7  15    7.86    3.93
  -3  -7  16    4.82    3.78
  -3  -7  16    3.78    4.23
  -3  -7  17  125.36    6.90
  -3  -7  17  114.60    6.82
  -3  -7  18  322.30   12.76
  -3  -7  18  314.21   12.54
  -3  -7  19   60.38    5.27
  -3  -7  19   52.52    5.19
  -3  -7  20   44.88    5.12
  -3  -7  20   43.17    5.19
  -4  -7 -21  437.42   16.10
   4   7  21   -0.22    4.60
  -4  -7 -20  162.30    7.20
   4   7  20    3.34    4.52
  -4  -7 -19   28.04    3.49
   4   7  19    0.45    3.93
  -4  -7 -18   19.51    3.12
   4   7  18    0.45    3.78
  -4  -7 -17  446.25   15.58
   4   7  17   -1.19    3.56
  -4  -7 -16  100.36    4.82
   4   7  16   -1.34    3.86
  -4  -7 -15   17.80    2.67
   4   7  15    9.87    3.49
  -4  -7 -14  151.69    6.08
   4   7  14  212.29    8.23
  -4  -7 -13  269.48    9.72
   4   7  13  284.24    9.94
  -4  -7 -12   13.06    2.15
  -4  -7   0   11.79    1.85
  -4  -7   0    8.90    1.71
  -4  -7   1  203.54    7.49
  -4  -7   1  207.32    7.57
  -4  -7   2  118.46    5.12
  -4  -7   2  109.71    4.82
  -4  -7   3  109.04    5.04
  -4  -7   3  116.53    5.19
  -4  -7   4   -1.11    2.37
  -4  -7   4   -0.45    2.37
  -4  -7   5  791.46   26.70
  -4  -7   5  761.05   25.59
  -4  -7   6 1001.38   33.45
  -4  -7   6  928.69   31.08
  -4  -7   7   29.60    3.34
  -4  -7   7   25.29    3.34
  -4  -7   8  425.33   15.28
  -4  -7   8  395.44   14.32
  -4  -7   9  719.74   24.63
  -4  -7   9  778.85   26.63
  -4  -7  10    2.89    3.12
  -4  -7  10   12.46    3.63
  -4  -7  11  120.98    6.31
  -4  -7  11  116.83    6.38
  -4  -7  12    2.52    3.41
  -4  -7  12   -0.30    3.49
  -4  -7  13  607.51   21.51
  -4  -7  13  554.32   19.88
  -4  -7  14  152.73    7.49
  -4  -7  14  153.10    7.57
  -4  -7  15   43.62    4.30
  -4  -7  15   41.69    4.90
  -4  -7  16  145.24    7.42
  -4  -7  16  150.28    7.79
  -4  -7  17  623.45   22.10
  -4  -7  17  612.77   21.81
  -4  -7  18   15.58    4.60
  -4  -7  18   10.31    4.15
  -4  -7  19  123.87    6.97
  -4  -7  19  131.14    7.27
  -4  -7  20  101.92    6.53
  -4  -7  20   98.88    6.53
   5   7  21   -2.60    5.34
  -5  -7 -20    0.15    3.86
   5   7  20    2.15    4.67
  -5  -7 -19  162.30    7.27
   5   7  19   -0.37    4.08
  -5  -7 -18  290.77   11.05
   5   7  18   -4.97    4.30
  -5  -7 -17    2.52    2.89
   5   7  17   -4.67    4.01
  -5  -7 -16   52.59    3.93
   5   7  16    4.15    4.15
  -5  -7 -15   18.69    2.97
   5   7  15   -1.48    4.08
  -5  -7 -14  538.74   18.54
   5   7  14  153.03    7.34
  -5  -7 -13  101.47    4.97
   5   7  13  140.05    6.75
  -5  -7 -12   18.25    2.67
   5   7  12   31.01    3.34
  -5  -7 -11  440.91   15.21
   5   7  11  479.03   16.47
  -5  -7 -10  199.98    7.57
  -5  -7 -10  214.30    8.16
  -5  -7  -9    6.60    2.08
  -5  -7  -9    3.56    2.08
  -5  -7  -8   57.71    3.19
  -5  -7  -8   64.24    3.41
  -5  -7  -7  150.65    5.86
  -5  -7  -7  172.02    6.45
  -5  -7  -6  674.78   22.55
  -5  -7  -6  611.59   20.47
  -5  -7  -5  358.05   12.31
  -5  -7  -5  378.52   13.06
  -5  -7  -4   45.77    2.74
  -5  -7  -4   53.48    2.97
  -5  -7  -3  491.05   16.69
  -5  -7  -3  500.91   16.91
  -5  -7  -2  572.12   19.29
  -5  -7  -2  580.80   19.51
  -5  -7  -1    2.82    1.93
  -5  -7  -1    0.52    2.08
  -5  -7   0  145.76    5.93
  -5  -7   0  152.88    6.16
  -5  -7   1  490.53   16.84
  -5  -7   1  486.60   16.76
  -5  -7   2  253.39    9.49
  -5  -7   2  256.28    9.64
  -5  -7   3   91.39    4.75
  -5  -7   3   85.45    4.60
  -5  -7   4  674.49   22.99
  -5  -7   4  705.20   23.88
  -5  -7   6   73.21    4.45
  -5  -7   6   73.21    4.52
  -5  -7   7   18.54    3.34
  -5  -7   7   19.81    3.34
  -5  -7   8  867.12   29.30
  -5  -7   8  894.57   30.26
  -5  -7   9  213.41    8.83
  -5  -7   9  191.08    8.31
  -5  -7  10  302.86   11.72
  -5  -7  10  321.78   12.39
  -5  -7  11  134.41    6.90
  -5  -7  11  151.02    7.34
  -5  -7  12  947.98   32.27
  -5  -7  12  959.84   32.64
  -5  -7  13  383.94   14.54
  -5  -7  13  378.75   14.39
  -5  -7  15   92.72    5.71
  -5  -7  15   89.01    6.01
  -5  -7  16  216.22    9.42
  -5  -7  16  218.00    9.57
  -5  -7  17   35.23    4.38
  -5  -7  17   37.24    4.75
  -5  -7  18  169.72    8.23
  -5  -7  18  158.37    7.71
  -5  -7  19   88.64    6.16
  -5  -7  19   89.23    5.79
  -5  -7  20  634.36   22.62
  -5  -7  20  607.80   21.51
  -6  -7 -20   17.13    4.75
   6   7  20    0.00    4.38
  -6  -7 -19  254.43   10.46
   6   7  19   -3.56    4.01
  -6  -7 -18   62.31    4.75
   6   7  18   -1.26    4.30
  -6  -7 -17   15.28    3.49
   6   7  17   -2.67    4.01
  -6  -7 -16  378.30   13.65
   6   7  16    0.07    4.52
  -6  -7 -15  197.61    8.01
   6   7  15    5.79    5.12
  -6  -7 -14   56.67    3.86
   6   7  14    3.56    4.45
  -6  -7 -13   62.53    4.01
   6   7  13   28.78    4.67
  -6  -7 -12   72.25    4.23
   6   7  12   96.43    5.93
  -6  -7 -11  327.12   11.94
   6   7  11  406.78   14.76
  -6  -7 -10  775.89   26.18
   6   7  10  950.20   31.82
  -6  -7  -9   -0.89    2.37
  -6  -7  -8  540.82   18.47
  -6  -7  -8  541.71   18.54
  -6  -7  -6   53.78    3.41
  -6  -7  -6   56.67    3.63
  -6  -7  -5  191.52    7.34
  -6  -7  -5  211.92    8.09
  -6  -7  -4  161.63    6.60
  -6  -7  -4  169.42    6.75
  -6  -7  -3  215.56    8.23
  -6  -7  -3  224.16    8.46
  -6  -7  -2    2.45    2.30
  -6  -7  -2    0.00    2.37
  -6  -7  -1  198.79    7.71
  -6  -7  -1  224.16    8.68
  -6  -7   0  165.86    6.75
  -6  -7   0  173.42    7.12
  -6  -7   1  509.74   17.73
  -6  -7   1  555.88   19.14
  -6  -7   2    9.79    2.89
  -6  -7   2    5.19    2.67
  -6  -7   3  440.31   15.58
  -6  -7   3  461.16   16.24
  -6  -7   4  190.49    7.79
  -6  -7   4  191.23    7.94
  -6  -7   5   64.16    4.30
  -6  -7   5   59.49    4.23
  -6  -7   7  769.95   26.33
  -6  -7   7  810.01   27.59
  -6  -7   8  274.97   10.83
  -6  -7   8  247.30   10.09
  -6  -7   9   22.18    3.63
  -6  -7   9   14.61    3.71
  -6  -7  10  106.37    6.01
  -6  -7  10  107.41    5.93
  -6  -7  11  202.80    8.83
  -6  -7  11  207.77    9.12
  -6  -7  12  127.58    6.75
  -6  -7  12  122.76    6.60
  -6  -7  13   37.31    4.38
  -6  -7  13   26.41    4.23
  -6  -7  14   91.53    5.71
  -6  -7  14   84.93    5.86
  -6  -7  15  600.39   21.36
  -6  -7  15  587.18   20.92
  -6  -7  16  268.00   11.13
  -6  -7  16  266.74   10.83
  -6  -7  17   75.51    5.56
  -6  -7  17   71.95    5.56
  -6  -7  18  242.63   10.38
  -6  -7  18  256.06   10.90
  -6  -7  19  447.66   16.62
  -6  -7  19  430.59   16.10
  -6  -7  20  101.33    6.97
  -6  -7  20   85.01    5.71
  -7  -7 -19   42.13    4.97
   7   7  19    6.68    3.78
  -7  -7 -18   -3.63    3.71
   7   7  18    1.41    3.86
  -7  -7 -17    1.11    3.49
   7   7  17   -0.37    4.08
  -7  -7 -16  214.96    8.90
   7   7  16    1.78    4.38
  -7  -7 -15  170.75    7.42
   7   7  15    3.04    4.45
  -7  -7 -14   73.51    4.75
   7   7  14    6.08    5.04
  -7  -7 -13   -0.82    2.82
   7   7  13    3.71    4.75
  -7  -7 -12  850.81   28.56
   7   7  12  517.53   19.06
  -7  -7 -11  158.29    6.68
   7   7  11  234.77   10.16
  -7  -7 -10    5.93    2.60
   7   7  10    8.90    3.71
  -7  -7  -9    0.52    2.37
   7   7   9    4.23    3.34
  -7  -7  -8  513.08   17.73
  -7  -7  -7    3.63    2.74
  -7  -7  -7    6.53    2.74
  -7  -7  -6   15.87    2.74
  -7  -7  -6   17.80    3.04
  -7  -7  -5   46.58    3.63
  -7  -7  -5   46.43    3.56
  -7  -7  -4  255.54    9.79
  -7  -7  -4  249.01    9.35
  -7  -7  -3    7.49    2.82
  -7  -7  -3    4.97    2.82
  -7  -7  -2  314.81   11.65
  -7  -7  -2  342.92   12.46
  -7  -7  -1   55.19    3.86
  -7  -7  -1   52.81    3.78
  -7  -7   0  276.38   10.46
  -7  -7   0  284.91   10.68
  -7  -7   1   -0.52    2.52
  -7  -7   1   -1.04    2.67
  -7  -7   2  687.25   23.51
  -7  -7   2  726.78   24.77
  -7  -7   3  206.95    8.46
  -7  -7   3  218.00    8.75
  -7  -7   4   23.96    3.19
  -7  -7   4   23.29    3.49
  -7  -7   5  358.50   13.35
  -7  -7   5  334.76   12.54
  -7  -7   6   73.95    4.82
  -7  -7   6   59.34    4.60
  -7  -7   7    3.86    3.19
  -7  -7   7    6.75    3.49
  -7  -7   8   34.86    4.08
  -7  -7   8   39.54    4.15
  -7  -7   9    1.71    3.12
  -7  -7   9    1.85    3.34
  -7  -7  10  466.27   16.91
  -7  -7  10  454.33   16.54
  -7  -7  11  263.70   10.76
  -7  -7  11  293.67   11.72
  -7  -7  12    6.31    3.63
  -7  -7  12   13.35    3.63
  -7  -7  13  246.93   10.38
  -7  -7  13  262.36   10.98
  -7  -7  14  462.42   16.99
  -7  -7  14  446.17   16.54
  -7  -7  15   38.87    4.52
  -7  -7  15   32.49    4.67
  -7  -7  16   -2.37    3.56
  -7  -7  16   -4.08    4.01
  -7  -7  17   37.31    4.82
  -7  -7  17   31.75    4.60
  -7  -7  18  507.96   18.62
  -7  -7  18  498.84   18.32
  -7  -7  19   57.78    5.12
  -7  -7  19   54.59    5.49
  -8  -7 -18   74.18    5.79
   8   7  18   -0.15    3.56
  -8  -7 -17  468.80   17.06
   8   7  17   -1.78    3.63
  -8  -7 -16   34.94    4.01
   8   7  16   -2.45    4.38
  -8  -7 -15   28.04    3.86
   8   7  15   -8.31    4.75
  -8  -7 -14  520.50   18.32
   8   7  14    0.07    4.60
  -8  -7 -13   94.43    5.19
   8   7  13    3.19    4.67
  -8  -7 -12  242.78    9.42
   8   7  12   11.50    4.75
  -8  -7 -11   94.95    5.12
   8   7  11   74.62    5.93
  -8  -7 -10  530.58   18.47
   8   7  10  726.34   25.52
  -8  -7  -9  692.14   23.51
   8   7   9  901.25   30.56
  -8  -7  -8  241.44    9.35
   8   7   8  291.96   11.35
  -8  -7  -7  499.21   17.43
  -8  -7  -6   95.69    4.97
  -8  -7  -6  110.30    5.41
  -8  -7  -5  106.96    5.27
  -8  -7  -5  118.16    5.79
  -8  -7  -4    6.97    2.89
  -8  -7  -4    4.52    2.52
  -8  -7  -3  143.16    6.38
  -8  -7  -3  157.40    7.05
  -8  -7  -2   44.51    3.86
  -8  -7  -2   48.66    3.86
  -8  -7  -1  145.53    6.75
  -8  -7  -1  143.98    6.45
  -8  -7   0    1.93    3.04
  -8  -7   0    1.71    2.74
  -8  -7   1  201.83    8.46
  -8  -7   1  187.15    7.94
  -8  -7   2   41.32    3.71
  -8  -7   2   43.39    4.01
  -8  -7   3  134.19    6.45
  -8  -7   3  131.96    6.31
  -8  -7   4   64.31    4.45
  -8  -7   4   62.01    4.52
  -8  -7   5  854.51   29.23
  -8  -7   5  821.13   27.96
  -8  -7   6  576.06   20.32
  -8  -7   6  616.48   21.66
  -8  -7   7   14.32    3.63
  -8  -7   7   11.79    3.26
  -8  -7   8  160.30    7.57
  -8  -7   8  153.03    7.42
  -8  -7   9  878.99   30.04
  -8  -7   9  878.99   30.04
  -8  -7  10   37.09    4.15
  -8  -7  10   42.58    4.75
  -8  -7  11   29.30    4.01
  -8  -7  11   23.59    4.60
  -8  -7  12   49.40    4.97
  -8  -7  12   50.22    4.67
  -8  -7  13  553.51   19.88
  -8  -7  13  575.09   20.55
  -8  -7  14  430.37   16.10
  -8  -7  14  432.23   16.10
  -8  -7  15    3.71    4.01
  -8  -7  15    3.78    3.78
  -8  -7  16  181.44    8.53
  -8  -7  16  178.32    8.60
  -8  -7  17  751.41   26.18
  -8  -7  17  726.49   25.29
  -8  -7  18   68.17    5.27
  -8  -7  18   60.90    5.56
  -9  -7 -17   -0.22    4.45
   9   7  17    7.27    4.08
  -9  -7 -16    7.05    4.01
   9   7  16    1.41    3.93
  -9  -7 -15   95.84    5.49
   9   7  15   -2.89    4.82
  -9  -7 -14  451.44   16.17
   9   7  14    1.34    4.90
  -9  -7 -13   39.31    3.78
   9   7  13    2.52    4.60
  -9  -7 -12  157.85    7.20
   9   7  12    1.56    4.67
  -9  -7 -11  185.81    7.94
   9   7  11   60.97    5.79
  -9  -7 -10  407.67   14.84
   9   7  10  396.18   15.06
  -9  -7  -9  186.92    8.01
   9   7   9  187.52    8.46
  -9  -7  -8  269.04   10.46
   9   7   8  276.53   10.68
  -9  -7  -7   51.48    4.08
   9   7   7   56.60    4.30
  -9  -7  -6  163.63    7.20
  -9  -7  -5   38.05    3.56
  -9  -7  -5   42.95    3.93
  -9  -7  -4  156.59    7.27
  -9  -7  -4  147.83    6.82
  -9  -7  -3  311.10   11.87
  -9  -7  -3  318.66   12.16
  -9  -7  -2  196.64    8.31
  -9  -7  -2  190.78    8.16
  -9  -7  -1    1.85    2.89
  -9  -7  -1    1.26    3.12
  -9  -7   0  348.18   13.06
  -9  -7   0  353.90   13.28
  -9  -7   1  375.70   13.95
  -9  -7   1  363.69   13.65
  -9  -7   2  111.49    5.86
  -9  -7   2  104.07    5.86
  -9  -7   3  102.81    5.79
  -9  -7   3  108.37    5.93
  -9  -7   4  713.58   24.70
  -9  -7   4  677.16   23.44
  -9  -7   5    8.16    3.04
  -9  -7   5    9.20    3.63
  -9  -7   6   65.57    4.75
  -9  -7   6   65.94    4.90
  -9  -7   7  172.39    7.79
  -9  -7   7  160.00    7.57
  -9  -7   8  275.71   11.13
  -9  -7   8  279.42   11.20
  -9  -7   9    5.41    3.71
  -9  -7   9    8.23    3.63
  -9  -7  10   66.39    5.12
  -9  -7  10   73.06    5.49
  -9  -7  11 1222.43   41.02
  -9  -7  11 1208.34   40.65
  -9  -7  12  668.92   23.51
  -9  -7  12  625.90   22.25
  -9  -7  13   24.63    4.23
  -9  -7  13   25.96    4.52
  -9  -7  14   17.80    3.86
  -9  -7  14   21.51    4.45
  -9  -7  15  194.42    8.90
  -9  -7  15  203.84    9.20
  -9  -7  16  314.73   12.61
  -9  -7  16  306.79   12.24
  -9  -7  17   85.82    5.71
  -9  -7  17   81.00    5.93
  -9  -7  19   98.65    9.79
  -9  -7  19  101.55    6.23
 -10  -7 -16    4.01    5.04
  10   7  16   -4.01    4.75
 -10  -7 -15  100.44    6.45
  10   7  15   -1.71    4.60
 -10  -7 -14   49.70    4.45
  10   7  14    8.23    4.90
 -10  -7 -13  153.10    7.05
  10   7  13    2.97    4.67
 -10  -7 -12   -1.19    3.12
  10   7  12   -2.89    4.67
 -10  -7 -11  386.53   14.24
  10   7  11   40.35    5.34
 -10  -7 -10   63.94    4.67
  10   7  10   53.56    5.64
 -10  -7  -9   50.59    4.23
  10   7   9   64.61    5.49
 -10  -7  -8  608.47   21.36
  10   7   8  629.24   22.10
 -10  -7  -7  376.15   13.87
  10   7   7  379.26   14.09
 -10  -7  -6  128.99    6.38
  10   7   6  129.07    6.31
 -10  -7  -5  136.26    6.60
 -10  -7  -5  127.06    6.16
 -10  -7  -4  159.41    7.27
 -10  -7  -4  154.51    7.12
 -10  -7  -3  109.48    6.01
 -10  -7  -3  106.59    5.86
 -10  -7  -2    2.52    2.97
 -10  -7  -2    3.34    3.19
 -10  -7  -1  408.19   14.98
 -10  -7  -1  433.12   15.80
 -10  -7   0  217.93    9.12
 -10  -7   0  230.91    9.57
 -10  -7   1  281.50   11.20
 -10  -7   1  263.99   10.61
 -10  -7   2   -0.96    3.12
 -10  -7   2   -0.89    3.19
 -10  -7   3  541.93   19.36
 -10  -7   3  552.47   19.73
 -10  -7   4  514.19   18.47
 -10  -7   4  550.39   19.73
 -10  -7   5  290.03   11.57
 -10  -7   5  288.47   11.50
 -10  -7   6  137.08    6.90
 -10  -7   6  143.23    7.20
 -10  -7   7 1279.55   42.87
 -10  -7   7 1338.15   44.73
 -10  -7   8  901.25   30.71
 -10  -7   8  913.11   31.23
 -10  -7   9  394.69   14.76
 -10  -7   9  396.62   15.06
 -10  -7  10    1.56    3.41
 -10  -7  10    1.85    3.78
 -10  -7  11  533.77   19.21
 -10  -7  11  568.41   20.32
 -10  -7  12  388.61   14.84
 -10  -7  12  406.64   15.28
 -10  -7  13   -1.85    3.49
 -10  -7  13    3.41    4.01
 -10  -7  14   -1.11    3.86
 -10  -7  14    7.57    4.38
 -10  -7  15  853.77   29.45
 -10  -7  15  804.82   27.82
 -10  -7  16    1.04    3.63
 -10  -7  16    0.45    4.23
 -10  -7  18   12.68    4.38
 -10  -7  18   21.14    7.12
 -11  -7 -14   10.46    4.45
  11   7  14    2.97    4.75
 -11  -7 -13  108.74    6.31
  11   7  13    3.19    5.04
 -11  -7 -12  606.39   21.21
  11   7  12    5.49    4.52
 -11  -7 -11   21.96    3.86
  11   7  11    2.89    4.52
 -11  -7 -10   90.57    5.41
  11   7  10   41.24    5.49
 -11  -7  -9   19.14    3.86
  11   7   9   17.65    4.75
 -11  -7  -8  529.99   18.99
  11   7   8  530.29   19.06
 -11  -7  -7  133.67    6.68
  11   7   7  117.57    6.23
 -11  -7  -6  142.34    6.97
  11   7   6  133.44    6.68
 -11  -7  -5  302.64   11.72
 -11  -7  -4  337.35   12.91
 -11  -7  -4  343.88   13.06
 -11  -7  -3    7.57    3.49
 -11  -7  -3    1.19    3.41
 -11  -7  -2  435.19   16.10
 -11  -7  -2  447.51   16.39
 -11  -7  -1  140.42    6.90
 -11  -7  -1  124.84    6.60
 -11  -7   0  221.94    9.35
 -11  -7   0  230.32    9.72
 -11  -7   1   39.02    4.30
 -11  -7   1   42.73    4.52
 -11  -7   2 1038.47   35.16
 -11  -7   2 1095.59   36.94
 -11  -7   3  293.67   11.57
 -11  -7   3  296.11   11.79
 -11  -7   4  127.81    6.68
 -11  -7   4  129.51    6.82
 -11  -7   5   61.05    4.75
 -11  -7   5   59.19    4.82
 -11  -7   6  363.47   13.87
 -11  -7   6  361.39   13.80
 -11  -7   7   55.11    4.52
 -11  -7   7   58.38    4.97
 -11  -7   8  159.70    7.79
 -11  -7   8  168.68    7.94
 -11  -7   9  141.90    7.20
 -11  -7   9  130.48    6.75
 -11  -7  10  661.80   23.29
 -11  -7  10  690.81   24.18
 -11  -7  11    4.97    3.86
 -11  -7  11    2.08    3.93
 -11  -7  12   22.77    4.45
 -11  -7  12   28.63    4.38
 -11  -7  13  221.79    9.79
 -11  -7  13  245.97   10.38
 -11  -7  14  779.60   27.00
 -11  -7  14  782.56   27.15
 -11  -7  15   16.24    4.08
 -11  -7  15    4.52    4.38
 -11  -7  16   50.96    6.31
 -11  -7  16   38.50    4.45
 -11  -7  17   -4.08    7.34
 -11  -7  17   13.72    4.30
 -12  -7 -13    2.08    4.60
  12   7  13   -2.74    4.75
 -12  -7 -12    4.23    4.30
  12   7  12   -5.27    4.52
 -12  -7 -11   -1.11    3.56
  12   7  11    1.85    4.67
 -12  -7 -10  210.14    8.90
  12   7  10   70.91    5.93
 -12  -7  -9  556.92   19.73
  12   7   9  429.78   16.24
 -12  -7  -8   56.15    4.60
  12   7   8   45.40    4.97
 -12  -7  -7  218.15    9.35
  12   7   7  229.72    9.72
 -12  -7  -6  328.60   12.76
  12   7   6  316.07   12.31
 -12  -7  -5  160.15    7.57
  12   7   5  179.95    8.23
 -12  -7  -4    7.57    3.34
 -12  -7  -4    4.52    3.41
 -12  -7  -3  364.65   13.87
 -12  -7  -3  351.23   13.50
 -12  -7  -2   75.44    5.34
 -12  -7  -2   70.32    4.90
 -12  -7  -1  245.38   10.31
 -12  -7  -1  234.10    9.79
 -12  -7   0   56.75    4.52
 -12  -7   0   60.53    5.04
 -12  -7   1  341.14   13.20
 -12  -7   1  317.77   12.54
 -12  -7   2   11.35    3.78
 -12  -7   2    8.09    3.93
 -12  -7   3  730.27   25.44
 -12  -7   3  729.60   25.37
 -12  -7   4   85.45    5.64
 -12  -7   4   94.43    5.79
 -12  -7   5 1315.15   43.99
 -12  -7   5 1355.95   45.40
 -12  -7   6  125.58    6.75
 -12  -7   6  120.76    6.53
 -12  -7   7   29.45    4.23
 -12  -7   7   14.91    3.86
 -12  -7   8   67.87    5.27
 -12  -7   8   66.61    5.27
 -12  -7   9  654.76   23.07
 -12  -7   9  664.99   23.37
 -12  -7  10    4.82    3.78
 -12  -7  10   -3.71    3.86
 -12  -7  11   12.39    3.78
 -12  -7  11    9.27    4.30
 -12  -7  12   27.37    4.23
 -12  -7  12   26.11    4.30
 -12  -7  13  397.59   15.13
 -12  -7  13  413.68   15.58
 -12  -7  15   15.65    4.01
 -12  -7  15   33.01    7.49
 -13  -7 -11    0.45    5.86
  13   7  11   19.58    3.93
 -13  -7 -10   -4.60    8.16
  13   7  10   41.69    4.38
 -13  -7  -9    3.93    4.67
  13   7   9   -0.82    4.01
 -13  -7  -8    9.20    3.78
  13   7   8   58.01    5.49
 -13  -7  -7   71.88    5.12
  13   7   7   80.33    5.79
 -13  -7  -6  247.38   10.16
  13   7   6  257.10   10.53
 -13  -7  -5   42.43    4.45
  13   7   5   34.27    4.30
 -13  -7  -4  299.90   11.79
 -13  -7  -3  197.46    8.75
 -13  -7  -3  198.79    8.83
 -13  -7  -2  246.56   10.16
 -13  -7  -2  244.93   10.24
 -13  -7  -1   42.35    4.45
 -13  -7  -1   46.81    4.67
 -13  -7   0  369.47   14.09
 -13  -7   0  354.64   13.65
 -13  -7   1  359.24   13.80
 -13  -7   1  338.84   13.20
 -13  -7   2   21.14    3.78
 -13  -7   2   26.48    4.45
 -13  -7   3   13.13    3.78
 -13  -7   3    8.01    4.01
 -13  -7   4  560.55   20.03
 -13  -7   4  558.18   19.95
 -13  -7   5  152.66    7.57
 -13  -7   5  145.98    7.42
 -13  -7   6   30.12    4.15
 -13  -7   6   36.35    4.75
 -13  -7   7    2.08    3.56
 -13  -7   7    2.97    3.71
 -13  -7   8  345.22   13.35
 -13  -7   8  342.77   13.28
 -13  -7   9  442.61   16.39
 -13  -7   9  443.35   16.47
 -13  -7  10    4.01    3.71
 -13  -7  10    5.27    4.08
 -13  -7  11  186.41    8.75
 -13  -7  11  169.86    8.16
 -13  -7  13   12.98    4.23
 -13  -7  13   12.91    7.20
 -13  -7  14  -10.53    8.38
 -13  -7  14    4.82    3.86
 -13  -7  15   25.15   14.32
 -13  -7  15    1.85    3.26
 -14  -7  -8   36.57   43.39
  14   7   8   89.90    5.04
 -14  -7  -7  -27.30   61.12
  14   7   7  252.57    9.64
 -14  -7  -6  -15.58   24.18
  14   7   6    9.05    3.12
 -14  -7  -5   -1.04    8.98
  14   7   5  261.32   10.31
 -14  -7  -4   64.24    6.90
 -14  -7  -2   31.53    4.67
 -14  -7  -2   31.82    4.30
 -14  -7  -1  280.16   11.35
 -14  -7  -1  280.39   11.57
 -14  -7   0  316.88   12.46
 -14  -7   0  301.68   12.24
 -14  -7   1  204.06    9.12
 -14  -7   1  194.05    8.83
 -14  -7   2    3.41    3.49
 -14  -7   2    0.45    3.71
 -14  -7   3  301.38   12.02
 -14  -7   3  293.89   11.79
 -14  -7   4  311.47   12.31
 -14  -7   4  327.12   12.76
 -14  -7   5  249.08   10.53
 -14  -7   5  243.97   10.24
 -14  -7   6  120.54    6.60
 -14  -7   6  119.05    6.68
 -14  -7   7  554.40   19.95
 -14  -7   7  534.52   19.21
 -14  -7   8  110.45    6.53
 -14  -7   8  115.57    7.05
 -14  -7  10    7.71    7.79
 -14  -7  10    8.83    4.15
 -14  -7  13    0.96   14.32
 -14  -7  13   20.77    3.71
 -15  -7  -5    0.89   11.27
  15   7   5  137.00    6.31
 -15  -7  -4   -2.45   15.80
  15   7   4  212.74    8.46
 -15  -7  -3    8.01   14.76
 -15  -7  -3   -1.19    3.71
 -15  -7   5    4.75    3.78
 -15  -7   5   -5.04    6.60
 -15  -7   9   18.84    3.63
 -15  -7   9    3.93   11.42
 -15  -7  10   11.35   15.58
 -10   8  -9  186.55    7.42
   9  -8  10   36.05    4.23
  -9   8 -10   40.80    3.86
  -9   8 -11   19.88    5.34
   8  -8  10   22.55    3.93
   8  -8  11  357.01   13.43
  -8   8 -11  394.25   14.17
   8  -8  12   26.26    4.52
  -8   8 -12   31.75    5.64
   7  -8  10  256.13    9.64
   7  -8  10  272.75   10.31
   7  -8  11   77.81    5.27
   7  -8  12   42.35    4.60
  -7   8 -12   45.69    4.45
   7  -8  13   13.35    4.45
  -7   8 -13   10.09    5.64
   6  -8  10    8.75    2.82
   6  -8  10   13.50    2.97
   6  -8  11    6.31    3.34
   6  -8  11    3.86    2.97
   6  -8  12   -0.82    3.78
   6  -8  12   -1.04    2.97
   6  -8  13  325.04   12.54
  -6   8 -13  342.70   13.50
   6  -8  14   40.65    4.90
  -6   8 -14   46.36    6.45
   5  -8  11   -0.45    2.97
   5  -8  11   -2.37    3.04
   5  -8  12  314.88   11.65
   5  -8  12  322.96   12.31
   5  -8  13  103.62    5.56
   5  -8  13   92.79    6.01
   5  -8  14    0.96    4.08
   5  -8  15    7.71    4.90
  -5   8 -15    6.23    5.79
   4  -8  10    9.94    2.60
   4  -8  10    9.12    2.67
   4  -8  12   24.92    3.56
   4  -8  12   33.23    4.23
   4  -8  13    1.56    3.34
   4  -8  13    5.64    3.71
   4  -8  14   29.52    4.30
   4  -8  14   22.48    4.67
   4  -8  15  118.76    6.90
   4  -8  15  138.27    7.20
   4  -8  16   19.29    5.34
   3  -8  10  739.47   24.85
   3  -8  10  680.79   22.99
   3  -8  11   -0.37    2.89
   3  -8  11    2.23    3.12
   3  -8  12    2.08    3.04
   3  -8  12    1.11    3.49
   3  -8  13    0.22    3.19
   3  -8  13    3.71    3.78
   3  -8  14  376.97   14.17
   3  -8  14  402.78   15.06
   3  -8  15   25.52    4.30
   3  -8  15   23.66    4.90
   3  -8  16    2.97    4.15
   3  -8  16    9.20    4.75
   2  -8  10    9.79    2.67
   2  -8  10    6.31    2.67
   2  -8  11   16.84    3.12
   2  -8  11   12.91    3.19
   2  -8  12   -0.52    2.67
   2  -8  12    1.41    3.41
   2  -8  13  213.48    8.68
   2  -8  13  231.21    9.49
   2  -8  14   15.95    4.23
   2  -8  14   26.63    4.01
   2  -8  15    6.38    4.08
   2  -8  15    7.71    4.52
   2  -8  16   10.16    4.23
   2  -8  16    7.94    4.45
   1  -8  10   36.12    3.26
   1  -8  10   39.68    3.34
   1  -8  11    9.35    3.12
   1  -8  11   10.01    3.19
   1  -8  13  128.84    6.16
   1  -8  13  125.28    6.38
   1  -8  14   -2.08    3.63
   1  -8  14    1.56    4.08
   1  -8  15   25.07    4.38
   1  -8  15   23.37    4.45
   1  -8  16  339.21   13.28
   1  -8  16  346.26   13.35
   1  -8  17    4.23    4.23
   1  -8  17    6.75    4.52
   0  -8   9   93.83    4.38
   0  -8   9   82.04    4.15
   0  -8  10   11.05    2.74
   0  -8  10   11.94    2.74
   0  -8  11  547.87   18.99
   0  -8  11  518.86   18.10
   0  -8  12  137.89    6.38
   0  -8  12  148.20    6.90
   0  -8  13   21.81    3.63
   0  -8  13   18.92    3.78
   0  -8  14   47.47    4.38
   0  -8  14   51.03    4.75
   0  -8  15  411.31   15.13
   0  -8  15  424.22   15.80
   0  -8  16   31.30    4.82
   0  -8  16   41.39    4.82
   0  -8  17   65.20    5.64
   0  -8  17   52.67    5.12
  -1  -8   9   22.10    2.82
  -1  -8   9   19.43    2.89
  -1  -8  10  809.27   27.15
  -1  -8  10  796.66   26.85
  -1  -8  11   50.51    4.08
  -1  -8  11   57.19    4.15
  -1  -8  12   31.82    3.71
  -1  -8  12   34.27    4.08
  -1  -8  13  171.35    7.71
  -1  -8  13  159.11    7.49
  -1  -8  14  937.59   31.67
  -1  -8  14  920.53   31.23
  -1  -8  15   12.61    3.71
  -1  -8  15    7.86    4.01
  -1  -8  16  119.05    6.60
  -1  -8  16  122.69    6.82
  -1  -8  17  209.33    9.57
  -1  -8  17  202.87    8.90
  -1  -8  18    1.85    5.71
  -2  -8   8   57.12    3.49
  -2  -8   8   53.26    3.41
  -2  -8   9  651.12   22.10
  -2  -8   9  682.28   23.14
  -2  -8  10  135.45    6.23
  -2  -8  10  143.68    6.53
  -2  -8  11   -4.30    2.97
  -2  -8  11   -2.37    3.26
  -2  -8  12  144.05    6.82
  -2  -8  12  143.68    6.97
  -2  -8  13  571.98   20.03
  -2  -8  13  552.32   19.43
  -2  -8  14   10.38    3.71
  -2  -8  14   12.54    4.08
  -2  -8  15   12.24    3.78
  -2  -8  15   17.58    4.23
  -2  -8  16    2.00    3.78
  -2  -8  16    5.56    4.15
  -3  -8   7   18.62    2.52
  -3  -8   7   18.99    2.74
  -3  -8   8  551.65   18.92
  -3  -8   8  588.44   20.10
  -3  -8   9   46.06    3.63
  -3  -8   9   43.10    3.78
  -3  -8  10   13.50    3.34
  -3  -8  10   16.69    3.49
  -3  -8  11   24.33    3.63
  -3  -8  11   24.48    3.78
  -3  -8  12  554.25   19.43
  -3  -8  12  619.97   21.51
  -3  -8  13   64.31    4.67
  -3  -8  13   71.88    5.19
  -3  -8  14    1.34    3.34
  -3  -8  14    0.59    3.93
  -3  -8  15   10.09    3.56
  -3  -8  15    4.23    3.71
  -3  -8  16  318.59   12.46
  -3  -8  16  296.56   11.57
  -4  -8   5   93.09    4.30
  -4  -8   5   88.27    4.08
  -4  -8   6   99.47    4.67
  -4  -8   6  103.55    4.82
  -4  -8   7  615.74   20.92
  -4  -8   7  631.54   21.51
  -4  -8   8    2.30    2.74
  -4  -8   8    9.35    3.04
  -4  -8   9   31.67    3.78
  -4  -8   9   25.22    3.34
  -4  -8  10   30.04    3.71
  -4  -8  10   33.90    4.01
  -4  -8  11  444.99   15.95
  -4  -8  11  462.42   16.62
  -4  -8  12   25.52    3.63
  -4  -8  12   23.59    4.01
  -4  -8  13   -1.04    3.26
  -4  -8  13    0.07    3.63
  -4  -8  14    7.05    3.49
  -4  -8  14    3.63    3.71
  -4  -8  15  304.05   11.87
  -4  -8  15  299.08   11.65
  -4  -8  17    2.74    5.04
  -4  -8  17   18.92    3.86
  -5  -8   3   21.73    2.15
  -5  -8   3   20.25    2.45
  -5  -8   4   31.38    2.89
  -5  -8   4   36.79    2.97
  -5  -8   5   14.39    2.82
  -5  -8   5   11.27    2.67
  -5  -8   6  476.07   16.54
  -5  -8   6  444.47   15.65
  -5  -8   7  102.07    5.12
  -5  -8   7  103.48    5.34
  -5  -8   8   39.98    3.71
  -5  -8   8   31.38    3.93
  -5  -8   9   28.11    3.63
  -5  -8   9   29.37    3.93
  -5  -8  10  521.09   18.25
  -5  -8  10  572.20   20.10
  -5  -8  11    0.67    3.26
  -5  -8  11    7.27    3.56
  -5  -8  12   58.53    4.52
  -5  -8  12   64.16    4.97
  -5  -8  13   -4.15    3.26
  -5  -8  13   -1.11    3.56
  -5  -8  14  680.57   23.51
  -5  -8  14  692.88   24.03
  -5  -8  15   94.43    5.86
  -5  -8  15   86.19    5.27
  -6  -8   1    4.67    2.00
  -6  -8   1    5.04    2.30
  -6  -8   2  581.69   19.81
  -6  -8   2  599.64   20.25
  -6  -8   3  188.48    7.42
  -6  -8   3  182.62    7.34
  -6  -8   4   10.53    2.97
  -6  -8   4   14.69    2.97
  -6  -8   5  503.44   17.43
  -6  -8   5  531.92   18.40
  -6  -8   6  117.05    5.71
  -6  -8   6  114.68    5.86
  -6  -8   7    8.23    3.04
  -6  -8   7    9.05    3.41
  -6  -8   8    9.12    3.26
  -6  -8   8    1.11    3.41
  -6  -8   9  428.59   15.28
  -6  -8   9  480.29   17.13
  -6  -8  10   41.02    3.86
  -6  -8  10   32.79    3.93
  -6  -8  11   25.81    4.23
  -6  -8  11   22.77    3.56
  -6  -8  12   26.63    3.78
  -6  -8  12   18.40    4.01
  -6  -8  13  437.64   15.87
  -6  -8  13  405.97   14.98
  -6  -8  14    8.68    3.56
  -6  -8  14    6.38    3.93
  -6  -8  15    0.22    4.08
  -6  -8  15    0.45    3.49
  -6  -8  16    5.41    4.60
  -6  -8  16    4.75    4.01
  -7  -8 -13   18.02    3.19
  -7  -8 -13    8.23    3.12
  -7  -8  -3  244.12    8.83
  -7  -8  -3  269.41    9.79
  -7  -8  -2  707.64   23.74
  -7  -8  -2  746.22   25.07
  -7  -8  -1   10.83    2.52
  -7  -8  -1   15.50    2.67
  -7  -8   0  988.03   32.79
  -7  -8   0 1045.89   34.71
  -7  -8   1   61.57    3.93
  -7  -8   1   68.69    4.08
  -7  -8   2    7.05    2.74
  -7  -8   2    8.60    2.89
  -7  -8   3   73.43    4.45
  -7  -8   3   82.48    4.75
  -7  -8   4  237.36    9.35
  -7  -8   4  234.62    9.20
  -7  -8   5   11.87    3.19
  -7  -8   5   15.43    3.41
  -7  -8   6  172.46    7.57
  -7  -8   6  182.18    7.94
  -7  -8   7    3.12    2.89
  -7  -8   7    3.86    3.04
  -7  -8   8  254.94    9.94
  -7  -8   8  270.52   10.61
  -7  -8   9  173.35    7.57
  -7  -8   9  165.41    7.64
  -7  -8  10   48.21    4.15
  -7  -8  10   41.39    4.45
  -7  -8  11    5.64    3.26
  -7  -8  11    0.37    3.63
  -7  -8  12  633.17   22.10
  -7  -8  12  572.79   20.18
  -7  -8  13   61.42    4.90
  -7  -8  13   58.45    4.82
  -8  -8 -12   36.57    4.08
  -8  -8 -12   29.37    4.15
  -8  -8 -11  330.09   12.09
  -8  -8 -11  347.81   12.91
  -8  -8 -10   29.15    3.63
  -8  -8 -10   26.11    3.78
  -8  -8  -9   12.98    3.41
  -8  -8  -9    8.01    3.12
  -8  -8  -8   25.00    3.49
  -8  -8  -8   16.24    3.12
  -8  -8  -6    2.37    2.60
  -8  -8  -6    0.89    2.82
  -8  -8  -5  525.02   18.10
  -8  -8  -5  567.60   19.58
  -8  -8  -4  229.65    8.83
  -8  -8  -4  220.08    8.75
  -8  -8  -3   -0.37    2.82
  -8  -8  -3    4.97    3.04
  -8  -8  -2   14.17    2.97
  -8  -8  -2   16.69    3.26
  -8  -8  -1  243.22    9.27
  -8  -8  -1  235.36    9.27
  -8  -8   0   11.20    3.26
  -8  -8   0    8.09    2.89
  -8  -8   1  327.86   12.02
  -8  -8   1  341.21   12.61
  -8  -8   2   44.88    3.86
  -8  -8   2   44.88    4.08
  -8  -8   3  480.44   16.91
  -8  -8   3  491.57   17.43
  -8  -8   4   64.16    4.52
  -8  -8   4   53.70    4.30
  -8  -8   5  249.75   10.01
  -8  -8   5  234.10    9.49
  -8  -8   6    2.67    2.97
  -8  -8   6    4.67    3.56
  -8  -8   7  463.75   16.62
  -8  -8   7  427.85   15.35
  -8  -8   8  124.69    6.38
  -8  -8   8  125.80    6.16
  -8  -8   9  126.62    6.31
  -8  -8   9  137.82    6.75
  -8  -8  10   53.26    4.23
  -8  -8  10   52.74    4.52
  -8  -8  11  261.77   10.38
  -8  -8  11  271.26   10.76
  -8  -8  12    6.08    3.49
  -8  -8  12   -3.04    3.49
  -8  -8  13   10.68    3.56
  -8  -8  13   -2.15    3.93
  -8  -8  15   -3.12    5.34
  -9  -8 -10   42.95    4.23
  -9  -8 -10   57.93    5.12
  -9  -8  -9  113.94    5.79
  -9  -8  -9  108.37    6.23
  -9  -8  -7    6.08    3.12
  -9  -8  -7   -0.96    3.56
  -9  -8  -6   69.87    4.38
  -9  -8  -6   73.73    4.97
  -9  -8  -5    1.78    2.89
  -9  -8  -5    2.74    3.41
  -9  -8  -4  316.51   11.79
  -9  -8  -4  326.23   12.24
  -9  -8  -3  129.36    6.08
  -9  -8  -3  118.09    6.23
  -9  -8  -2  301.23   11.27
  -9  -8  -2  292.85   11.35
  -9  -8  -1   35.98    3.71
  -9  -8  -1   38.79    4.30
  -9  -8   0  219.79    8.90
  -9  -8   0  234.25    9.49
  -9  -8   1    9.94    3.34
  -9  -8   1    8.83    3.63
  -9  -8   2  478.44   17.06
  -9  -8   2  440.76   15.87
  -9  -8   3   31.01    4.01
  -9  -8   3   31.67    3.71
  -9  -8   4  210.36    8.68
  -9  -8   4  203.24    8.60
  -9  -8   5   60.38    4.38
  -9  -8   5   61.64    4.67
  -9  -8   6  407.08   14.91
  -9  -8   6  416.28   15.06
  -9  -8   7  242.04    9.57
  -9  -8   7  223.72    9.20
  -9  -8   8   22.92    3.56
  -9  -8   8   25.52    4.23
  -9  -8   9   31.97    3.86
  -9  -8   9   34.57    4.23
  -9  -8  10  551.13   19.43
  -9  -8  10  561.74   19.73
  -9  -8  11  116.83    6.38
  -9  -8  11  103.77    5.64
  -9  -8  12   -1.41    3.78
  -9  -8  12    1.11    3.56
  -9  -8  13   13.43    4.23
  -9  -8  13   -1.19    4.75
 -10  -8  -8   33.38    4.75
 -10  -8  -8   35.60    4.52
 -10  -8  -7  127.88    6.68
 -10  -8  -7  129.81    6.82
 -10  -8  -6  183.59    8.16
 -10  -8  -6  200.43    8.90
 -10  -8  -5  317.92   12.39
 -10  -8  -5  308.43   11.94
 -10  -8  -4   25.81    4.23
 -10  -8  -4   35.75    4.75
 -10  -8  -3  398.70   14.69
 -10  -8  -3  374.74   14.02
 -10  -8  -2   80.93    5.56
 -10  -8  -2   76.70    5.04
 -10  -8  -1   80.78    5.04
 -10  -8  -1   79.15    5.19
 -10  -8   0    1.41    3.34
 -10  -8   0    3.78    3.56
 -10  -8   1  141.08    6.68
 -10  -8   1  151.84    7.20
 -10  -8   2   73.58    4.67
 -10  -8   2   71.51    5.04
 -10  -8   3  251.46   10.01
 -10  -8   3  253.54   10.31
 -10  -8   4   31.23    3.78
 -10  -8   4   30.12    4.08
 -10  -8   5  668.55   23.07
 -10  -8   5  714.10   24.63
 -10  -8   6  178.84    7.79
 -10  -8   6  186.03    8.31
 -10  -8   7    4.15    3.12
 -10  -8   7   -0.82    3.56
 -10  -8   8   22.18    3.71
 -10  -8   8   19.81    3.63
 -10  -8  10   -0.74    3.93
 -10  -8  10    7.42    3.49
 -10  -8  11    1.04    3.93
 -10  -8  11   -0.89    3.93
 -10  -8  12   -2.89    4.38
 -10  -8  12   12.31    4.67
 -11  -8  -6   93.54    6.16
 -11  -8  -6   93.39    6.08
 -11  -8  -5   -1.34    3.78
 -11  -8  -5    2.60    3.86
 -11  -8  -4    2.74    3.63
 -11  -8  -4    0.30    3.86
 -11  -8  -3   40.06    4.52
 -11  -8  -3   40.06    4.67
 -11  -8  -2  121.06    6.38
 -11  -8  -2  108.52    6.23
 -11  -8  -1   -1.04    3.63
 -11  -8  -1    0.22    3.86
 -11  -8   0  349.00   13.35
 -11  -8   0  341.43   12.98
 -11  -8   1  242.78   10.01
 -11  -8   1  245.15   10.09
 -11  -8   2   -0.74    3.93
 -11  -8   2    3.26    3.41
 -11  -8   3   46.81    4.60
 -11  -8   3   49.55    4.45
 -11  -8   4  125.28    6.53
 -11  -8   4  131.59    6.68
 -11  -8   5   60.01    4.90
 -11  -8   5   51.26    4.52
 -11  -8   9    5.04    4.67
 -11  -8   9    9.35    4.08
 -11  -8  10   -1.04    4.45
 -11  -8  10    3.71    4.60
 -12  -8   6    0.74    4.67
 -12  -8   6    2.52    3.71
   0   0   0    0.00    0.00

_computing_structure_solution     'SHELXT 2014/5 (Sheldrick, 2014)'
;
_shelx_hkl_checksum   97680

