 
data_Er-1124.1
 
_audit_creation_method            'SHELXL-2018/3'
_shelx_SHELXL_version_number      '2018/3'
_chemical_name_systematic         ?
_chemical_name_common             ?
_chemical_melting_point           ?
_chemical_formula_moiety          ?
_chemical_formula_sum
 'C3.11 H2.22 Mg0.11 N1.33 O1.33 S0.22' 
_chemical_formula_weight          89.44

loop_
 _atom_type_symbol
 _atom_type_description
 _atom_type_scat_dispersion_real
 _atom_type_scat_dispersion_imag
 _atom_type_scat_source
 'C'  'C'   0.0033   0.0016
 'International Tables Vol C Tables 4.2.6.8 and 6.1.1.4'
 'H'  'H'   0.0000   0.0000
 'International Tables Vol C Tables 4.2.6.8 and 6.1.1.4'
 'N'  'N'   0.0061   0.0033
 'International Tables Vol C Tables 4.2.6.8 and 6.1.1.4'
 'O'  'O'   0.0106   0.0060
 'International Tables Vol C Tables 4.2.6.8 and 6.1.1.4'
 'Mg'  'Mg'   0.0486   0.0363
 'International Tables Vol C Tables 4.2.6.8 and 6.1.1.4'
 'S'  'S'   0.1246   0.1234
 'International Tables Vol C Tables 4.2.6.8 and 6.1.1.4'
 
_space_group_crystal_system       triclinic
_space_group_IT_number            2
_space_group_name_H-M_alt         'P -1'
_space_group_name_Hall            '-P 1'
 
_shelx_space_group_comment
;
The symmetry employed for this shelxl refinement is uniquely defined
by the following loop, which should always be used as a source of
symmetry information in preference to the above space-group names.
They are only intended as comments.
;
 
loop_
 _space_group_symop_operation_xyz
 'x, y, z'
 '-x, -y, -z'
 
_cell_length_a                    7.9583(3)
_cell_length_b                    8.1708(3)
_cell_length_c                    12.7513(4)
_cell_angle_alpha                 73.236(3)
_cell_angle_beta                  81.121(3)
_cell_angle_gamma                 80.563(3)
_cell_volume                      778.13(5)
_cell_formula_units_Z             9
_cell_measurement_temperature     290(2)
_cell_measurement_reflns_used     ?
_cell_measurement_theta_min       ?
_cell_measurement_theta_max       ?
 
_exptl_crystal_description        ?
_exptl_crystal_colour             ?
_exptl_crystal_density_meas       ?
_exptl_crystal_density_method     ?
_exptl_crystal_density_diffrn     1.718          
_exptl_crystal_F_000              412
_exptl_transmission_factor_min    ?
_exptl_transmission_factor_max    ?
_exptl_crystal_size_max           ?
_exptl_crystal_size_mid           ?
_exptl_crystal_size_min           ?
_exptl_absorpt_coefficient_mu     0.281
_shelx_estimated_absorpt_T_min    ?
_shelx_estimated_absorpt_T_max    ?
_exptl_absorpt_correction_type    ?
_exptl_absorpt_correction_T_min   ?
_exptl_absorpt_correction_T_max   ?
_exptl_absorpt_process_details    ?
_exptl_absorpt_special_details    ?
_diffrn_ambient_temperature       290(2)
_diffrn_radiation_wavelength      0.71073
_diffrn_radiation_type            MoK\a
_diffrn_source                    ?
_diffrn_measurement_device_type   ?
_diffrn_measurement_method        ?
_diffrn_detector_area_resol_mean  ?
_diffrn_reflns_number             6369
_diffrn_reflns_av_unetI/netI      0.0311
_diffrn_reflns_av_R_equivalents   0.0156
_diffrn_reflns_limit_h_min        -10
_diffrn_reflns_limit_h_max        10
_diffrn_reflns_limit_k_min        -10
_diffrn_reflns_limit_k_max        10
_diffrn_reflns_limit_l_min        -17
_diffrn_reflns_limit_l_max        15
_diffrn_reflns_theta_min          2.611
_diffrn_reflns_theta_max          29.048
_diffrn_reflns_theta_full         25.242
_diffrn_measured_fraction_theta_max   0.822
_diffrn_measured_fraction_theta_full  1.000
_diffrn_reflns_Laue_measured_fraction_max    0.822
_diffrn_reflns_Laue_measured_fraction_full   1.000
_diffrn_reflns_point_group_measured_fraction_max   0.822
_diffrn_reflns_point_group_measured_fraction_full  1.000
_reflns_number_total              3412
_reflns_number_gt                 2767
_reflns_threshold_expression      'I > 2\s(I)'
_reflns_Friedel_coverage          0.000
_reflns_Friedel_fraction_max      .
_reflns_Friedel_fraction_full     .
 
_reflns_special_details
;
 Reflections were merged by SHELXL according to the crystal
 class for the calculation of statistics and refinement.
 
 _reflns_Friedel_fraction is defined as the number of unique
 Friedel pairs measured divided by the number that would be
 possible theoretically, ignoring centric projections and
 systematic absences.
;
 
_computing_data_collection        ?
_computing_cell_refinement        ?
_computing_data_reduction         ?
_computing_structure_solution     'SHELXT 2018/2 (Sheldrick, 2018)'
_computing_structure_refinement 'SHELXL-2018/3 (Sheldrick, 2018)'
_computing_molecular_graphics     ?
_computing_publication_material   ?
_refine_special_details           ?
_refine_ls_structure_factor_coef  Fsqd
_refine_ls_matrix_type            full
_refine_ls_weighting_scheme       calc
_refine_ls_weighting_details
'w=1/[\s^2^(Fo^2^)+(0.0508P)^2^+0.7296P] where P=(Fo^2^+2Fc^2^)/3'
_atom_sites_solution_primary      ?
_atom_sites_solution_secondary    ?
_atom_sites_solution_hydrogens    mixed
_refine_ls_hydrogen_treatment     mixed
_refine_ls_extinction_method      none
_refine_ls_extinction_coef        .
_refine_ls_number_reflns          3412
_refine_ls_number_parameters      260
_refine_ls_number_restraints      0
_refine_ls_R_factor_all           0.0631
_refine_ls_R_factor_gt            0.0498
_refine_ls_wR_factor_ref          0.1257
_refine_ls_wR_factor_gt           0.1173
_refine_ls_goodness_of_fit_ref    1.043
_refine_ls_restrained_S_all       1.043
_refine_ls_shift/su_max           0.000
_refine_ls_shift/su_mean          0.000
 
loop_
 _atom_site_label
 _atom_site_type_symbol
 _atom_site_fract_x
 _atom_site_fract_y
 _atom_site_fract_z
 _atom_site_U_iso_or_equiv
 _atom_site_adp_type
 _atom_site_occupancy
 _atom_site_site_symmetry_order  
 _atom_site_calc_flag
 _atom_site_refinement_flags_posn
 _atom_site_refinement_flags_adp
 _atom_site_refinement_flags_occupancy
 _atom_site_disorder_assembly
 _atom_site_disorder_group
S2 S 0.87903(8) 0.21732(9) 0.41794(6) 0.0426(2) Uani 1 1 d . . . . .
Mg1 Mg 0.000000 1.000000 0.000000 0.0304(3) Uani 1 2 d S . P . .
O1 O 0.0891(3) 0.8881(4) -0.1259(2) 0.0691(8) Uani 1 1 d . . . . .
H1A H 0.189(7) 0.894(6) -0.142(3) 0.104 Uiso 1 1 calc R U . . .
H4 H 0.057(6) 0.811(7) -0.128(4) 0.104 Uiso 1 1 d . U . . .
O2 O 0.4992(2) 0.8733(2) 0.08195(14) 0.0372(4) Uani 1 1 d . . . . .
O4 O 0.9830(3) -0.4156(3) 0.8574(2) 0.0773(9) Uani 1 1 d . . . . .
O5 O 0.7848(3) -0.5077(4) 0.9852(2) 0.1100(13) Uani 1 1 d . . . . .
O6 O 0.2232(2) 0.9148(2) 0.06520(15) 0.0455(5) Uani 1 1 d . . . . .
O7 O 0.1264(3) 1.2133(3) -0.09408(19) 0.0516(6) Uani 1 1 d . . . . .
H7 H 0.234(5) 1.193(2) -0.084(2) 0.077 Uiso 1 1 calc R U . . .
H1B H 0.091(5) 1.321(6) -0.110(3) 0.077 Uiso 1 1 d . U . . .
N1 N 0.7082(2) 0.3413(3) 0.38039(17) 0.0345(5) Uani 1 1 d . . . . .
N2 N 0.3448(2) 0.4972(2) 0.37093(15) 0.0282(4) Uani 1 1 d . . . . .
N3 N 0.5605(2) -0.0786(2) 0.71924(15) 0.0265(4) Uani 1 1 d . . . . .
N4 N 0.4363(2) -0.1577(3) 0.79355(17) 0.0347(5) Uani 1 1 d . . . . .
N5 N 0.1719(3) 0.5514(3) 0.37371(18) 0.0406(5) Uani 1 1 d . . . . .
N6 N 0.8030(2) 0.0879(3) 0.53004(17) 0.0340(5) Uani 1 1 d . . . . .
C1 C 0.7188(3) -0.1557(3) 0.7442(2) 0.0331(5) Uani 1 1 d . . . . .
H1 H 0.822495 -0.123344 0.705530 0.040 Uiso 1 1 calc R U . . .
C2 C 0.6986(3) -0.2894(3) 0.83627(19) 0.0282(5) Uani 1 1 d . . . . .
C3 C 0.5208(3) -0.2838(3) 0.8634(2) 0.0372(6) Uani 1 1 d . . . . .
H3 H 0.468423 -0.360271 0.923721 0.045 Uiso 1 1 calc R U . . .
C4 C 0.5116(3) 0.0656(3) 0.63185(18) 0.0267(5) Uani 1 1 d . . . . .
C5 C 0.3448(3) 0.1394(3) 0.6294(2) 0.0319(5) Uani 1 1 d . . . . .
H5 H 0.263591 0.093823 0.686594 0.038 Uiso 1 1 calc R U . . .
C6 C 0.2911(3) 0.2821(3) 0.54343(19) 0.0322(5) Uani 1 1 d . . . . .
H6 H 0.175863 0.327329 0.545886 0.039 Uiso 1 1 calc R U . . .
C7 C 0.4024(3) 0.3561(3) 0.45684(18) 0.0262(5) Uani 1 1 d . . . . .
C8 C 0.5789(3) 0.2855(3) 0.45660(18) 0.0264(5) Uani 1 1 d . . . . .
C9 C 0.6332(3) 0.1392(3) 0.54372(18) 0.0264(5) Uani 1 1 d . . . . .
C10 C 0.8334(3) -0.4133(3) 0.8942(2) 0.0329(5) Uani 1 1 d . . . . .
C11 C 0.1581(3) 0.6775(3) 0.2832(2) 0.0391(6) Uani 1 1 d . . . . .
H11 H 0.054182 0.739576 0.262343 0.047 Uiso 1 1 calc R U . . .
C12 C 0.3167(3) 0.7085(3) 0.22140(18) 0.0278(5) Uani 1 1 d . . . . .
C13 C 0.4337(3) 0.5902(3) 0.28036(18) 0.0277(5) Uani 1 1 d . . . . .
H13 H 0.551821 0.576247 0.261751 0.033 Uiso 1 1 calc R U . . .
C16 C 0.3455(3) 0.8396(3) 0.11624(19) 0.0276(5) Uani 1 1 d . . . . .
 
loop_
 _atom_site_aniso_label
 _atom_site_aniso_U_11
 _atom_site_aniso_U_22
 _atom_site_aniso_U_33
 _atom_site_aniso_U_23
 _atom_site_aniso_U_13
 _atom_site_aniso_U_12
S2 0.0228(3) 0.0467(4) 0.0370(4) 0.0122(3) 0.0048(2) 0.0059(2)
Mg1 0.0178(5) 0.0352(6) 0.0302(6) 0.0029(5) -0.0053(4) 0.0007(4)
O1 0.0264(11) 0.107(2) 0.0938(19) -0.0633(18) 0.0107(11) -0.0157(12)
O2 0.0197(8) 0.0416(10) 0.0371(10) 0.0104(8) -0.0061(7) -0.0022(7)
O4 0.0319(11) 0.0901(18) 0.0614(15) 0.0329(13) 0.0059(10) 0.0227(11)
O5 0.0376(12) 0.130(2) 0.095(2) 0.0820(18) -0.0204(13) -0.0115(14)
O6 0.0225(8) 0.0524(11) 0.0440(11) 0.0173(9) -0.0136(8) -0.0007(8)
O7 0.0325(10) 0.0362(11) 0.0698(14) 0.0127(10) -0.0122(10) -0.0010(8)
N1 0.0245(10) 0.0364(11) 0.0294(10) 0.0062(8) 0.0013(8) 0.0028(8)
N2 0.0204(9) 0.0309(10) 0.0259(10) 0.0029(8) -0.0048(7) 0.0008(7)
N3 0.0206(9) 0.0263(10) 0.0242(9) 0.0039(7) -0.0008(7) 0.0000(7)
N4 0.0228(10) 0.0346(11) 0.0339(11) 0.0109(9) -0.0023(8) -0.0048(8)
N5 0.0204(10) 0.0493(13) 0.0345(11) 0.0105(10) -0.0013(9) 0.0047(9)
N6 0.0224(10) 0.0363(11) 0.0310(11) 0.0037(9) 0.0007(8) 0.0042(8)
C1 0.0202(11) 0.0350(13) 0.0323(12) 0.0044(10) -0.0008(9) 0.0041(9)
C2 0.0262(11) 0.0245(11) 0.0287(12) 0.0002(9) -0.0048(9) -0.0002(8)
C3 0.0266(12) 0.0363(14) 0.0363(13) 0.0121(10) -0.0071(10) -0.0049(10)
C4 0.0242(11) 0.0250(11) 0.0245(11) 0.0020(9) -0.0043(9) 0.0004(8)
C5 0.0224(11) 0.0345(13) 0.0284(12) 0.0051(10) 0.0006(9) -0.0016(9)
C6 0.0204(11) 0.0334(13) 0.0318(12) 0.0053(10) -0.0031(9) 0.0020(9)
C7 0.0228(11) 0.0256(11) 0.0243(11) 0.0014(9) -0.0054(9) 0.0012(8)
C8 0.0230(11) 0.0271(11) 0.0235(11) -0.0004(9) -0.0016(9) 0.0003(8)
C9 0.0212(10) 0.0273(11) 0.0255(11) -0.0007(9) -0.0030(9) 0.0004(8)
C10 0.0296(12) 0.0252(12) 0.0396(13) 0.0008(10) -0.0107(11) -0.0023(9)
C11 0.0224(11) 0.0462(15) 0.0336(13) 0.0091(11) -0.0054(10) 0.0045(10)
C12 0.0220(11) 0.0291(12) 0.0269(11) 0.0004(9) -0.0057(9) 0.0002(8)
C13 0.0207(10) 0.0289(12) 0.0269(11) 0.0028(9) -0.0037(9) -0.0019(8)
C16 0.0226(11) 0.0273(12) 0.0273(11) 0.0014(9) -0.0065(9) 0.0006(8)
 
_geom_special_details
;
 All esds (except the esd in the dihedral angle between two l.s. planes)
 are estimated using the full covariance matrix.  The cell esds are taken
 into account individually in the estimation of esds in distances, angles
 and torsion angles; correlations between esds in cell parameters are only
 used when they are defined by crystal symmetry.  An approximate (isotropic)
 treatment of cell esds is used for estimating esds involving l.s. planes.
;
 
loop_
 _geom_bond_atom_site_label_1
 _geom_bond_atom_site_label_2
 _geom_bond_distance
 _geom_bond_site_symmetry_2
 _geom_bond_publ_flag
S2 N1 1.604(2) . ?
S2 N6 1.612(2) . ?
Mg1 O6 2.0120(16) . ?
Mg1 O6 2.0120(16) 2_575 ?
Mg1 O1 2.049(2) 2_575 ?
Mg1 O1 2.049(2) . ?
Mg1 O7 2.1176(19) 2_575 ?
Mg1 O7 2.1176(19) . ?
O2 C16 1.280(3) . ?
O4 C10 1.210(3) . ?
O5 C10 1.239(3) . ?
O6 C16 1.231(3) . ?
N1 C8 1.342(3) . ?
N2 C13 1.353(3) . ?
N2 N5 1.373(3) . ?
N2 C7 1.412(3) . ?
N3 C1 1.354(3) . ?
N3 N4 1.364(3) . ?
N3 C4 1.417(3) . ?
N4 C3 1.317(3) . ?
N5 C11 1.312(3) . ?
N6 C9 1.348(3) . ?
C1 C2 1.363(3) . ?
C2 C3 1.400(3) . ?
C2 C10 1.476(3) . ?
C4 C5 1.366(3) . ?
C4 C9 1.423(3) . ?
C5 C6 1.410(3) . ?
C6 C7 1.363(3) . ?
C7 C8 1.428(3) . ?
C8 C9 1.436(3) . ?
C11 C12 1.400(3) . ?
C12 C13 1.367(3) . ?
C12 C16 1.468(3) . ?
 
loop_
 _geom_angle_atom_site_label_1
 _geom_angle_atom_site_label_2
 _geom_angle_atom_site_label_3
 _geom_angle
 _geom_angle_site_symmetry_1
 _geom_angle_site_symmetry_3
 _geom_angle_publ_flag
N1 S2 N6 100.92(10) . . ?
O6 Mg1 O6 180.0 . 2_575 ?
O6 Mg1 O1 89.55(10) . 2_575 ?
O6 Mg1 O1 90.45(10) 2_575 2_575 ?
O6 Mg1 O1 90.45(10) . . ?
O6 Mg1 O1 89.55(10) 2_575 . ?
O1 Mg1 O1 180.0 2_575 . ?
O6 Mg1 O7 95.77(8) . 2_575 ?
O6 Mg1 O7 84.23(8) 2_575 2_575 ?
O1 Mg1 O7 87.00(11) 2_575 2_575 ?
O1 Mg1 O7 93.00(11) . 2_575 ?
O6 Mg1 O7 84.23(8) . . ?
O6 Mg1 O7 95.77(8) 2_575 . ?
O1 Mg1 O7 93.00(11) 2_575 . ?
O1 Mg1 O7 87.00(11) . . ?
O7 Mg1 O7 180.0 2_575 . ?
C16 O6 Mg1 169.04(17) . . ?
C8 N1 S2 106.78(15) . . ?
C13 N2 N5 111.76(18) . . ?
C13 N2 C7 130.15(19) . . ?
N5 N2 C7 118.07(18) . . ?
C1 N3 N4 111.06(18) . . ?
C1 N3 C4 129.85(19) . . ?
N4 N3 C4 119.09(18) . . ?
C3 N4 N3 104.70(19) . . ?
C11 N5 N2 103.93(19) . . ?
C9 N6 S2 106.63(15) . . ?
N3 C1 C2 107.6(2) . . ?
C1 C2 C3 104.5(2) . . ?
C1 C2 C10 127.9(2) . . ?
C3 C2 C10 127.6(2) . . ?
N4 C3 C2 112.2(2) . . ?
C5 C4 N3 120.9(2) . . ?
C5 C4 C9 117.5(2) . . ?
N3 C4 C9 121.67(19) . . ?
C4 C5 C6 122.5(2) . . ?
C7 C6 C5 122.2(2) . . ?
C6 C7 N2 121.0(2) . . ?
C6 C7 C8 117.5(2) . . ?
N2 C7 C8 121.5(2) . . ?
N1 C8 C7 126.6(2) . . ?
N1 C8 C9 113.12(19) . . ?
C7 C8 C9 120.3(2) . . ?
N6 C9 C4 127.3(2) . . ?
N6 C9 C8 112.55(19) . . ?
C4 C9 C8 120.11(19) . . ?
O4 C10 O5 122.3(2) . . ?
O4 C10 C2 121.8(2) . . ?
O5 C10 C2 115.9(2) . . ?
N5 C11 C12 112.8(2) . . ?
C13 C12 C11 104.6(2) . . ?
C13 C12 C16 129.0(2) . . ?
C11 C12 C16 126.4(2) . . ?
N2 C13 C12 106.89(19) . . ?
O6 C16 O2 122.4(2) . . ?
O6 C16 C12 119.8(2) . . ?
O2 C16 C12 117.80(19) . . ?
 
_refine_diff_density_max    0.636
_refine_diff_density_min   -0.460
_refine_diff_density_rms    0.060

_shelx_res_file
;
TITL Er-1124.1_auto_a.res in P-1
    Er-1124.1.res
    created by SHELXL-2018/3 at 12:21:30 on 05-Dec-2022
REM Old TITL Er-1124 in P-1
REM SHELXT solution in P-1: R1 0.255, Rweak 0.029, Alpha 0.051
REM <I/s>   0.000 for    0 systematic absences,  Orientation as input
REM Formula found by SHELXT:  C40 N8 O4 Mg3
CELL  0.71073   7.9583   8.1708  12.7513   73.236   81.121   80.563
ZERR    9.000   0.0003   0.0003   0.0004    0.003    0.003    0.003
LATT  1
SFAC C H N O MG S
UNIT 28 20 12 12 1 2
ACTA
TEMP 17
L.S. 10
BOND
LIST 6
FMAP 2
PLAN 20
WGHT    0.050800    0.729600
FVAR       0.51744
S2    6    0.879034    0.217319    0.417935    11.00000    0.02282    0.04666 =
         0.03702    0.01220    0.00482    0.00591
MG1   5    0.000000    1.000000    0.000000    10.50000    0.01782    0.03516 =
         0.03015    0.00288   -0.00527    0.00072
O1    4    0.089128    0.888133   -0.125941    11.00000    0.02635    0.10698 =
         0.09384   -0.06327    0.01068   -0.01572
AFIX 148
H1A   2    0.189046    0.893619   -0.141613    11.00000   -1.50000
AFIX   0
H4    2    0.057379    0.811047   -0.127721    11.00000   -1.50000
O2    4    0.499193    0.873305    0.081952    11.00000    0.01966    0.04163 =
         0.03710    0.01041   -0.00611   -0.00220
O4    4    0.982978   -0.415563    0.857409    11.00000    0.03188    0.09011 =
         0.06143    0.03293    0.00590    0.02274
O5    4    0.784837   -0.507681    0.985236    11.00000    0.03762    0.13009 =
         0.09526    0.08195   -0.02043   -0.01147
O6    4    0.223220    0.914822    0.065205    11.00000    0.02251    0.05237 =
         0.04404    0.01726   -0.01359   -0.00073
O7    4    0.126399    1.213286   -0.094079    11.00000    0.03248    0.03619 =
         0.06978    0.01274   -0.01223   -0.00103
AFIX 148
H7    2    0.234133    1.192754   -0.083554    11.00000   -1.50000
AFIX   0
H1B   2    0.091239    1.320656   -0.110290    11.00000   -1.50000
N1    3    0.708230    0.341326    0.380388    11.00000    0.02449    0.03637 =
         0.02942    0.00615    0.00130    0.00278
N2    3    0.344767    0.497174    0.370927    11.00000    0.02037    0.03094 =
         0.02588    0.00291   -0.00484    0.00078
N3    3    0.560511   -0.078570    0.719237    11.00000    0.02057    0.02630 =
         0.02416    0.00393   -0.00085   -0.00005
N4    3    0.436302   -0.157663    0.793552    11.00000    0.02280    0.03460 =
         0.03388    0.01088   -0.00234   -0.00480
N5    3    0.171885    0.551414    0.373707    11.00000    0.02037    0.04927 =
         0.03453    0.01054   -0.00126    0.00465
N6    3    0.803036    0.087891    0.530043    11.00000    0.02235    0.03634 =
         0.03099    0.00374    0.00070    0.00423
C1    1    0.718796   -0.155712    0.744202    11.00000    0.02015    0.03501 =
         0.03228    0.00440   -0.00081    0.00405
AFIX  43
H1    2    0.822495   -0.123344    0.705530    11.00000   -1.20000
AFIX   0
C2    1    0.698584   -0.289389    0.836275    11.00000    0.02623    0.02453 =
         0.02873    0.00020   -0.00484   -0.00023
C3    1    0.520793   -0.283806    0.863399    11.00000    0.02656    0.03627 =
         0.03631    0.01207   -0.00708   -0.00492
AFIX  43
H3    2    0.468423   -0.360271    0.923721    11.00000   -1.20000
AFIX   0
C4    1    0.511611    0.065551    0.631845    11.00000    0.02423    0.02503 =
         0.02448    0.00204   -0.00425    0.00037
C5    1    0.344780    0.139411    0.629397    11.00000    0.02238    0.03448 =
         0.02840    0.00511    0.00061   -0.00157
AFIX  43
H5    2    0.263591    0.093823    0.686594    11.00000   -1.20000
AFIX   0
C6    1    0.291080    0.282128    0.543430    11.00000    0.02043    0.03341 =
         0.03184    0.00533   -0.00310    0.00199
AFIX  43
H6    2    0.175863    0.327329    0.545886    11.00000   -1.20000
AFIX   0
C7    1    0.402420    0.356051    0.456843    11.00000    0.02285    0.02560 =
         0.02429    0.00139   -0.00537    0.00118
C8    1    0.578881    0.285489    0.456600    11.00000    0.02295    0.02706 =
         0.02346   -0.00045   -0.00160    0.00034
C9    1    0.633152    0.139154    0.543722    11.00000    0.02121    0.02733 =
         0.02549   -0.00069   -0.00305    0.00036
C10   1    0.833369   -0.413318    0.894185    11.00000    0.02962    0.02524 =
         0.03960    0.00083   -0.01068   -0.00229
C11   1    0.158123    0.677478    0.283207    11.00000    0.02244    0.04617 =
         0.03358    0.00908   -0.00536    0.00452
AFIX  43
H11   2    0.054182    0.739576    0.262343    11.00000   -1.20000
AFIX   0
C12   1    0.316666    0.708520    0.221396    11.00000    0.02202    0.02912 =
         0.02695    0.00040   -0.00571    0.00016
C13   1    0.433676    0.590164    0.280357    11.00000    0.02070    0.02892 =
         0.02685    0.00285   -0.00365   -0.00187
AFIX  43
H13   2    0.551821    0.576247    0.261751    11.00000   -1.20000
AFIX   0
C16   1    0.345475    0.839629    0.116237    11.00000    0.02262    0.02732 =
         0.02728    0.00136   -0.00647    0.00058
HKLF 4




REM  Er-1124.1_auto_a.res in P-1
REM wR2 = 0.1257, GooF = S = 1.043, Restrained GooF = 1.043 for all data
REM R1 = 0.0498 for 2767 Fo > 4sig(Fo) and 0.0631 for all 3412 data
REM 260 parameters refined using 0 restraints

END

WGHT      0.0507      0.7300

REM Highest difference peak  0.636,  deepest hole -0.460,  1-sigma level  0.060
Q1    1   0.8305 -0.5607  0.9374  11.00000  0.05    0.64
Q2    1   0.7949 -0.4368  0.9831  11.00000  0.05    0.58
Q3    1   0.5000  1.0000  0.0000  10.50000  0.05    0.49
Q4    1   0.9954 -0.3562  0.8594  11.00000  0.05    0.28
Q5    1   0.0042  0.8666  0.0146  11.00000  0.05    0.28
Q6    1   0.3320  0.2356  0.5978  11.00000  0.05    0.28
Q7    1   0.9495 -0.4475  0.8139  11.00000  0.05    0.28
Q8    1   0.0685  0.9255 -0.1446  11.00000  0.05    0.27
Q9    1   0.0818  0.8351 -0.0624  11.00000  0.05    0.26
Q10   1   0.8554 -0.5235  1.0347  11.00000  0.05    0.26
Q11   1   0.9529 -0.3643  0.8766  11.00000  0.05    0.26
Q12   1   0.4999  0.3366  0.4607  11.00000  0.05    0.25
Q13   1   0.6023  0.2103  0.5019  11.00000  0.05    0.25
Q14   1   0.3796  0.6552  0.2399  11.00000  0.05    0.25
Q15   1   0.3384  0.7448  0.1668  11.00000  0.05    0.25
Q16   1   0.7173 -0.2574  0.7751  11.00000  0.05    0.22
Q17   1   0.7654 -0.3632  0.8500  11.00000  0.05    0.22
Q18   1   0.5758  0.1204  0.5990  11.00000  0.05    0.21
Q19   1   0.7256 -0.2219  0.8031  11.00000  0.05    0.20
Q20   1   0.5471 -0.0123  0.6605  11.00000  0.05    0.20
;
_shelx_res_checksum   57208

_shelx_hkl_file
;
   0   0   2  393.28    6.54
   0   0  -2  397.80    6.55
   0   0   3   54.04    1.58
   0   0  -3   54.97    1.60
   0   0  -4  404.67    7.30
   0   0   4  400.09    7.30
   0   0   5    7.33    0.67
   0   0  -5    5.72    0.67
   0   0   6  226.84    5.21
   0   0  -6  233.70    5.24
   0   0   7   83.25    2.90
   0   0  -7   87.51    2.95
   0   0  -8  101.90    3.43
   0   0   8  103.85    3.47
   0   0   9    3.11    0.68
   0   0  -9    2.49    0.67
   0   0 -10    0.04    0.51
   0   0 -11  130.67    4.65
   0   0 -12   50.09    2.91
   0   0 -13   24.92    2.17
   0   0 -14   15.31    1.84
   0   0 -14   13.48    1.29
   0   0 -15    1.98    0.66
   0   1 -14    4.58    1.18
   0   1 -13    4.05    1.06
   0   1 -12    7.48    1.23
   0   1 -11   10.98    1.36
   0   1 -10   97.93    3.85
   0   1  -9    1.59    0.63
   0  -1   8   82.33    3.11
   0   1  -8   78.25    3.06
   0  -1   7   18.43    1.32
   0   1  -7   16.83    1.28
   0   1  -6   88.89    2.91
   0  -1   6   94.75    2.99
   0   1  -5  302.75    6.16
   0  -1   5  292.78    6.15
   0   1  -4  374.99    7.01
   0  -1   4  369.49    7.00
   0   1  -3    4.82    0.54
   0  -1   3    5.12    0.52
   0   1  -2   11.73    0.64
   0  -1   2   13.04    0.66
   0  -1   1  244.31    4.19
   0   1  -1  253.29    4.20
   0   1   0   91.79    1.86
   0  -1   0   91.65    1.87
   0   1   1    0.43    0.15
   0  -1  -1    0.39    0.14
   0  -1  -1    0.65    0.20
   0   1   1    0.65    0.16
   0   1   1    0.51    0.19
   0   1   2   92.70    1.74
   0   1   2   95.81    1.92
   0  -1  -2   96.00    1.90
   0  -1  -2   94.00    1.92
   0   1   2   94.14    1.91
   0  -1  -2   95.75    1.78
   0  -1  -3   39.82    1.23
   0  -1  -3   38.98    1.17
   0   1   3   34.91    0.97
   0  -1  -3   38.76    0.97
   0   1   3   39.51    1.21
   0  -1  -4 1271.87   19.66
   0   1   4 1253.44   19.67
   0  -1  -4 1250.46   19.49
   0  -1  -4 1213.01   19.14
   0  -1  -5    1.57    0.29
   0   1   5    2.36    0.44
   0  -1  -5    1.34    0.40
   0  -1  -6   10.72    0.66
   0   1   6   10.51    0.88
   0  -1  -6   11.34    0.92
   0   1   7    2.72    0.53
   0  -1  -7    2.89    0.43
   0  -1  -7    2.65    0.57
   0   1   8  344.86    7.52
   0  -1  -8  342.46    7.49
   0  -1  -8  344.17    6.57
   0  -1  -9   19.80    1.11
   0   1   9   19.96    1.49
   0  -1  -9   20.18    1.49
   0  -1 -10   26.69    1.39
   0  -1 -10   28.88    1.91
   0  -1 -11   20.16    1.29
   0  -1 -11   21.79    1.77
   0  -1 -12   18.71    1.30
   0  -1 -12   17.90    1.72
   0  -1 -13    8.38    0.98
   0  -1 -13    5.52    1.12
   0  -1 -14   23.52    2.15
   0  -1 -14   21.28    1.51
   0  -1 -15    4.32    0.78
   0  -1 -15    5.20    1.15
   0   2 -13    5.97    1.24
   0   2 -12    0.70    0.56
   0   2 -11   31.86    2.31
   0   2 -10   50.33    2.78
   0   2  -9   96.78    3.76
   0   2  -8  549.19   11.24
   0  -2   8  558.38   11.25
   0   2  -7   53.28    2.42
   0  -2   7   57.24    2.47
   0  -2   6  311.02    6.77
   0   2  -6  303.16    6.71
   0   2  -5   63.83    2.30
   0  -2   5   63.48    2.29
   0   2  -4   10.62    0.86
   0  -2   4   10.19    0.81
   0  -2   3  160.02    3.57
   0   2  -3  166.93    3.65
   0   2  -2   66.87    1.80
   0  -2   2   64.62    1.76
   0  -2   2   65.00    1.92
   0   2  -1  247.21    4.73
   0   2  -1  253.55    4.40
   0  -2   1  249.33    4.38
   0  -2   1  247.43    4.81
   0  -2   0  156.06    2.67
   0  -2   0  155.83    3.30
   0   2   0  152.76    3.25
   0   2   1  172.96    3.56
   0  -2  -1  182.03    3.68
   0   2   1  173.31    3.61
   0   2   2  238.79    4.21
   0  -2  -2  232.50    3.84
   0  -2  -2  221.93    4.24
   0   2   2  224.98    3.85
   0   2   2  223.22    4.46
   0   2   2  228.50    4.22
   0   2   3 5847.46   87.45
   0  -2  -3 5849.87   87.28
   0  -2  -3 5831.40   87.24
   0  -2  -3 5850.82   87.49
   0   2   3 5827.57   87.27
   0   2   3 5833.12   87.21
   0  -2  -4   35.86    1.11
   0   2   4   33.31    1.02
   0  -2  -4   35.85    1.28
   0  -2  -4   37.03    1.28
   0   2   4   37.85    1.31
   0   2   4   36.30    1.29
   0  -2  -5   14.75    0.70
   0  -2  -5   15.29    0.88
   0   2   5   12.50    0.63
   0  -2  -5   15.26    0.90
   0   2   5   14.39    0.88
   0   2   6  217.46    4.85
   0  -2  -6  219.99    4.69
   0  -2  -6  218.88    4.17
   0  -2  -6  218.51    4.82
   0  -2  -7    0.40    0.32
   0   2   7    0.21    0.33
   0  -2  -7    0.41    0.26
   0  -2  -7    0.32    0.40
   0  -2  -8    4.69    0.61
   0  -2  -8    3.99    0.46
   0  -2  -8    5.45    0.76
   0   2   8    5.55    0.76
   0   2   9    1.64    0.54
   0  -2  -9    1.04    0.36
   0  -2  -9    1.81    0.35
   0  -2  -9    2.33    0.63
   0  -2 -10   18.74    1.08
   0  -2 -10   17.72    1.47
   0  -2 -11   37.59    2.30
   0  -2 -11   38.20    1.66
   0  -2 -12   11.22    1.35
   0  -2 -12   13.15    1.01
   0  -2 -13    6.08    1.10
   0  -2 -13    5.44    0.72
   0  -2 -14   38.98    2.73
   0  -2 -14   40.07    1.97
   0  -2 -15   18.87    2.01
   0   3 -13   20.25    2.13
   0   3 -12    1.06    0.74
   0   3 -11   15.76    1.75
   0   3 -10   -0.25    0.51
   0   3  -9    1.06    0.59
   0   3  -8    9.79    1.15
   0  -3   7   15.48    1.29
   0   3  -7   13.00    1.20
   0  -3   6    6.07    0.83
   0   3  -6    5.71    0.83
   0  -3   5   47.55    2.02
   0   3  -5   46.26    2.00
   0  -3   4  203.87    4.89
   0  -3   4  207.06    4.69
   0   3  -4  207.14    4.70
   0  -3   3  391.25    7.34
   0   3  -3  403.62    7.44
   0  -3   3  398.43    7.77
   0  -3   2  238.35    4.68
   0   3  -2  243.25    4.75
   0  -3   2  247.40    5.27
   0  -3   1   59.65    1.57
   0  -3   1   62.50    2.09
   0   3  -1   58.07    1.97
   0   3   0  259.22    5.26
   0  -3   0  257.40    5.33
   0  -3   0  252.07    4.31
   0   3   1   10.69    0.85
   0  -3  -1   10.54    0.86
   0   3   2  449.24    8.38
   0   3   2  469.50    8.63
   0  -3  -2  473.49    8.60
   0  -3  -2  472.01    7.34
   0   3   3  237.22    4.66
   0   3   3  241.82    4.68
   0   3   3  229.10    4.15
   0  -3  -3  238.45    4.13
   0   3   3  232.68    5.07
   0  -3  -4   86.49    2.31
   0   3   4   91.33    2.23
   0  -3  -4   89.11    2.40
   0   3   4   89.74    2.39
   0  -3  -4   87.88    2.13
   0   3   4   87.42    2.15
   0   3   5   38.52    1.25
   0  -3  -5   36.45    1.48
   0  -3  -5   37.24    1.39
   0  -3  -5   39.69    1.39
   0   3   5   38.80    1.43
   0   3   5   38.72    1.55
   0  -3  -6  373.64    7.09
   0  -3  -6  367.80    7.01
   0   3   6  370.71    7.14
   0   3   6  358.94    6.40
   0   3   6  368.61    7.05
   0  -3  -6  370.38    6.69
   0   3   7  133.41    2.96
   0  -3  -7  135.70    3.12
   0   3   7  137.94    3.65
   0  -3  -7  137.53    3.57
   0  -3  -7  138.89    3.65
   0  -3  -8    1.66    0.44
   0   3   8    1.21    0.44
   0  -3  -8    1.57    0.49
   0  -3  -8    1.08    0.34
   0  -3  -9    1.10    0.51
   0   3   9    1.17    0.45
   0  -3  -9    0.43    0.27
   0  -3  -9    1.62    0.49
   0  -3 -10   43.19    2.28
   0   3  10   44.42    2.31
   0  -3 -10   42.62    1.71
   0  -3 -11    3.60    0.56
   0  -3 -11    1.25    0.51
   0  -3 -12    4.76    0.66
   0  -3 -12    6.18    1.07
   0  -3 -13   21.52    1.31
   0  -3 -13   17.82    1.75
   0  -3 -14    0.46    0.39
   0  -3 -14    1.08    0.68
   0  -3 -15    5.16    1.10
   0   4 -12   41.44    2.99
   0  -4  12   45.60    3.07
   0  -4  11    1.48    0.81
   0   4 -11    2.48    0.88
   0   4 -10    5.95    1.14
   0  -4  10    4.45    1.00
   0   4  -9   55.79    2.97
   0  -4   9   64.48    3.20
   0  -4   8    7.61    1.15
   0   4  -8    5.90    0.96
   0  -4   7   47.76    2.55
   0   4  -7   46.04    2.40
   0  -4   7   45.62    2.32
   0   4  -6    2.40    0.61
   0  -4   6    2.68    0.62
   0  -4   6    1.75    0.63
   0   4  -5   54.56    2.30
   0  -4   5   58.96    2.35
   0  -4   5   56.86    2.56
   0   4  -4   63.05    2.31
   0  -4   4   58.73    2.55
   0  -4   4   62.42    2.26
   0  -4   3   41.07    1.64
   0   4  -3   43.30    1.71
   0  -4   3   41.17    2.02
   0  -4   2   82.72    2.95
   0  -4   2   90.33    2.38
   0  -4   1    5.85    0.77
   0   4  -1    7.15    0.78
   0  -4   1    6.36    0.51
   0  -4   0   58.67    2.31
   0  -4   0   54.91    1.39
   0   4   0   57.98    2.19
   0   4   1    0.55    0.38
   0  -4  -1    0.36    0.42
   0  -4  -1    0.18    0.13
   0  -4  -2   26.13    0.68
   0   4   2   26.52    1.41
   0  -4  -2   25.64    1.50
   0   4   2   25.59    1.46
   0   4   3   37.53    1.62
   0   4   3   35.25    1.76
   0  -4  -3   34.47    0.95
   0   4   3   40.06    1.58
   0   4   4   12.83    1.08
   0   4   4   12.25    0.65
   0   4   4   13.84    0.91
   0   4   4   13.50    0.94
   0  -4  -4   13.08    0.66
   0   4   5  596.18   10.64
   0   4   5  592.09   10.08
   0  -4  -5  595.59   10.54
   0   4   5  594.07   10.31
   0   4   5  593.85   11.27
   0  -4  -5  605.98   10.06
   0   4   6  112.78    2.96
   0  -4  -6  114.80    2.92
   0  -4  -6  122.73    3.27
   0   4   6  115.17    2.77
   0   4   6  124.91    3.32
   0   4   7   25.11    1.44
   0  -4  -7   25.74    1.34
   0   4   7   24.80    1.08
   0  -4  -7   25.46    1.28
   0   4   7   24.94    1.34
   0  -4  -7   27.25    1.46
   0   4   8    9.70    0.66
   0   4   8    9.81    0.92
   0  -4  -8    8.11    0.76
   0  -4  -8    9.46    0.91
   0  -4  -8    8.79    0.86
   0  -4  -9    3.40    0.63
   0  -4  -9    3.83    0.57
   0   4   9    3.91    0.68
   0  -4 -10   38.90    2.11
   0  -4 -10   37.78    1.66
   0   4  10   33.11    1.97
   0  -4 -11   17.39    1.51
   0  -4 -11   17.27    1.13
   0  -4 -12   17.13    1.15
   0  -4 -12   17.22    1.59
   0  -4 -13    4.47    0.64
   0  -4 -13    3.31    0.85
   0  -4 -14   -0.48    0.63
   0  -4 -15    0.65    0.63
   0  -4 -16    1.94    0.96
   0   5 -11   38.51    2.81
   0   5 -10   97.48    4.34
   0  -5  10  100.53    4.58
   0   5  -9    0.92    0.72
   0  -5   9    0.51    0.91
   0   5  -8   13.26    1.46
   0  -5   8   17.29    1.75
   0   5  -7   28.80    1.95
   0  -5   7   29.11    2.20
   0   5  -6  151.69    4.63
   0  -5   6  161.68    4.63
   0  -5   6  154.17    5.16
   0   5  -5    1.84    0.52
   0  -5   5    2.06    0.60
   0  -5   5    2.69    0.72
   0  -5   4    8.38    0.85
   0  -5   4    8.28    1.12
   0  -5   3   28.25    1.39
   0  -5   3   29.71    1.94
   0  -5   2   20.23    1.06
   0  -5   2   19.42    1.50
   0  -5   1    7.49    0.56
   0  -5   1    5.87    0.88
   0   5  -1    5.89    0.80
   0  -5   0   81.77    1.89
   0   5   0   85.93    3.00
   0  -5   0   83.26    3.12
   0  -5  -1   36.24    1.99
   0  -5  -1   37.16    0.93
   0   5   1   36.78    1.98
   0   5   1   39.50    1.97
   0   5   2    3.48    0.64
   0  -5  -2    3.05    0.71
   0   5   2    2.37    0.62
   0   5   3   -0.03    0.38
   0   5   3    0.64    0.42
   0  -5  -3    0.12    0.12
   0  -5  -3   -0.13    0.50
   0   5   3    0.53    0.43
   0  -5  -4    0.22    0.15
   0   5   4    0.00    0.36
   0   5   4    0.85    0.44
   0   5   4    0.50    0.32
   0   5   5   21.92    1.32
   0   5   5   22.38    1.59
   0  -5  -5   20.52    0.90
   0   5   5   20.35    1.24
   0  -5  -6   12.78    0.82
   0   5   6   13.10    1.06
   0   5   6   14.18    0.99
   0   5   6   13.03    0.84
   0   5   6   14.02    1.30
   0  -5  -7   35.40    1.54
   0  -5  -7   34.59    1.64
   0   5   7   33.44    1.51
   0   5   7   36.81    1.84
   0   5   7   34.91    1.47
   0   5   7   34.74    2.06
   0  -5  -8   13.05    1.01
   0   5   8   12.07    1.12
   0   5   8   14.84    1.39
   0   5   8   13.88    0.89
   0  -5  -8   13.43    1.04
   0   5   8   13.25    1.04
   0   5   9   44.38    2.08
   0   5   9   43.52    1.65
   0   5   9   47.30    2.25
   0  -5  -9   44.91    2.09
   0  -5  -9   42.35    1.85
   0  -5 -10   15.07    1.15
   0  -5 -10   17.09    1.36
   0   5  10   15.89    1.34
   0  -5 -11    2.15    0.57
   0  -5 -11    1.31    0.60
   0  -5 -12   23.95    1.84
   0  -5 -12   25.28    1.45
   0  -5 -13   26.22    2.02
   0  -5 -14    0.83    0.60
   0  -5 -15    1.32    0.70
   0  -5 -16    2.77    1.00
   0  -6   9    1.81    0.88
   0  -6   8   13.48    1.71
   0  -6   7    8.85    1.39
   0  -6   6   19.82    1.91
   0  -6   6   20.05    1.54
   0  -6   5  168.98    4.70
   0  -6   5  181.38    5.93
   0  -6   4    0.22    0.33
   0  -6   4    0.86    0.67
   0  -6   3  102.77    3.00
   0  -6   3  107.10    4.12
   0  -6   2   74.25    2.26
   0  -6   2   79.32    3.44
   0  -6   1    9.71    1.21
   0  -6   1   11.03    0.70
   0  -6   0    0.39    0.19
   0  -6   0    0.70    0.59
   0  -6  -1    2.50    0.19
   0  -6  -1    2.39    0.20
   0   6   1    3.28    0.73
   0  -6  -1    2.56    0.75
   0   6   1    1.53    0.63
   0   6   2  101.60    3.73
   0  -6  -2  100.23    3.77
   0   6   2  106.08    3.73
   0   6   3    5.84    0.88
   0   6   3    4.96    0.76
   0   6   3    5.66    0.82
   0  -6  -3    5.68    0.92
   0   6   4   27.40    1.87
   0  -6  -4   24.32    0.64
   0   6   4   27.78    1.68
   0   6   4   27.20    1.60
   0  -6  -5    0.19    0.17
   0   6   5   -0.03    0.42
   0   6   5    0.98    0.46
   0   6   5    0.22    0.42
   0   6   6    0.56    0.38
   0   6   6    1.74    0.65
   0   6   6    0.90    0.44
   0  -6  -6    2.42    0.40
   0  -6  -7    1.35    0.38
   0   6   7    2.02    0.62
   0   6   7    2.10    0.48
   0   6   8   23.16    1.32
   0   6   8   23.03    1.30
   0   6   8   23.71    1.62
   0  -6  -8   25.73    1.36
   0   6   9   28.09    1.36
   0  -6  -9   28.65    1.59
   0   6   9   28.77    1.59
   0   6   9   27.16    1.82
   0   6  10   -0.31    0.48
   0  -6 -10    0.27    0.47
   0   6  10    0.80    0.46
   0   6  10    0.88    0.37
   0   6  11    2.48    0.70
   0  -6 -11    1.36    0.57
   0  -6 -11    1.05    0.47
   0  -6 -12   -0.32    0.44
   0  -6 -13    7.03    1.10
   0  -6 -14    0.96    0.79
   0  -6 -15    0.85    0.66
   0  -6 -16    7.45    1.40
   0  -7   7    3.42    1.10
   0  -7   6   31.07    2.60
   0  -7   5   -0.42    0.65
   0  -7   4    5.79    1.22
   0  -7   3   29.69    2.36
   0  -7   3   32.58    1.56
   0  -7   2   13.57    1.56
   0  -7   2   12.64    0.88
   0  -7   1   45.78    1.49
   0  -7   1   42.38    2.73
   0  -7   0   10.64    0.52
   0  -7   0   11.86    1.44
   0  -7  -1   58.35    3.12
   0  -7  -2    0.14    0.56
   0  -7  -3   17.19    1.66
   0   7   3   17.27    1.38
   0   7   4   21.10    1.53
   0   7   4   18.53    1.52
   0   7   5   15.29    1.33
   0   7   5   12.63    1.22
   0   7   6    2.60    0.67
   0   7   6    2.37    0.59
   0  -7  -6    2.22    0.28
   0   7   7    0.95    0.51
   0   7   7    0.80    0.48
   0  -7  -7    1.25    0.32
   0   7   8    7.43    1.00
   0   7   8    5.62    0.76
   0  -7  -8    6.50    0.66
   0   7   9   21.58    1.70
   0   7   9   19.17    1.26
   0  -7  -9   22.17    1.30
   0   7  10    3.32    0.82
   0  -7 -10    3.79    0.65
   0   7  11    6.70    1.07
   0  -7 -11    5.65    0.81
   0  -7 -12    0.82    0.49
   0  -7 -13    1.87    0.71
   0  -7 -14    3.75    0.93
   0  -8   5   -0.39    0.82
   0  -8   4   15.73    1.98
   0  -8   3   -0.59    0.77
   0  -8   2  136.56    5.51
   0  -8   1   -0.35    0.72
   0  -8   0    0.31    0.68
   0  -8  -1    0.97    0.80
   0  -8  -2   11.10    1.52
   0  -8  -3    4.47    1.11
   0   8   3    3.39    0.75
   0   8   4    1.82    0.67
   0   8   5    8.34    1.11
   0   8   6    1.07    0.60
   0   8   7    1.21    0.61
   0   8   8    7.23    1.09
   0   8   9    0.87    0.58
   0   8  10    1.54    0.70
   0   8  11    4.99    1.01
   0  -9   2    7.61    1.52
   0  -9   1    0.49    0.71
   0  -9   0    0.66    0.79
   0  -9  -1    1.99    0.93
   0  -9  -2   23.63    2.30
   0   9   3   25.39    1.96
   0  -9  -3   26.54    2.43
   0   9   4   -0.69    0.60
   0   9   5    0.31    0.52
   0   9   6    6.22    1.05
   0   9   7    1.24    0.71
   0   9   8    1.66    0.75
   0   9   9    1.15    0.67
   0   9  10    5.31    1.05
  -1   9   8    0.95    0.56
  -1   9   7   15.14    1.58
  -1   9   6    0.60    0.55
  -1   9   5   15.67    1.61
  -1   9   4    0.72    0.63
  -1   9   3   -0.06    1.41
   1  -9  -2    1.05    1.00
  -1   9   2    1.44    0.75
   1  -9  -1   29.78    2.63
   1  -9   0   58.62    3.72
   1  -9   1    0.07    0.70
  -1   8  11    6.07    1.12
  -1   8  10    3.34    0.95
  -1   8   9    7.96    1.21
  -1   8   8    8.49    1.21
  -1   8   7   18.27    1.62
  -1   8   6    7.20    1.09
  -1   8   5    7.67    1.06
  -1   8   4   29.82    2.02
  -1   8   3   12.78    1.36
  -1   8   2    2.21    0.68
   1  -8  -2    1.39    0.83
   1  -8  -1   16.21    1.84
   1  -8   0   13.35    1.74
   1  -8   1    2.89    0.96
   1  -8   2    6.60    1.25
   1  -8   3    1.40    0.77
   1  -8   4   34.63    2.87
   1  -8   5   17.95    2.13
   1  -7 -13    2.51    0.77
   1  -7 -12    1.70    0.63
   1  -7 -11    1.43    0.59
  -1   7  10    5.83    1.11
   1  -7 -10    3.43    0.69
  -1   7   9   14.03    1.44
   1  -7  -9   16.25    1.24
   1  -7  -8   34.86    1.66
  -1   7   8   29.43    1.53
  -1   7   8   35.46    2.17
  -1   7   7   17.13    1.23
  -1   7   7   18.19    1.55
   1  -7  -7   19.04    1.10
  -1   7   6   16.78    1.31
   1  -7  -6   18.22    1.01
  -1   7   6   16.47    1.45
  -1   7   5    1.32    0.51
   1  -7  -5    1.01    0.30
  -1   7   5    0.14    0.43
   1  -7  -4    6.03    0.47
  -1   7   4    4.54    0.89
  -1   7   4    7.03    0.95
   1  -7  -3   37.55    1.21
  -1   7   3   42.17    2.19
   1  -7  -3   41.81    1.22
  -1   7   3   34.59    2.17
  -1   7   2   16.61    1.37
   1  -7  -2   16.13    0.74
   1  -7  -2   15.11    0.72
   1  -7  -2   13.39    1.56
   1  -7  -1   62.94    1.74
   1  -7  -1   55.42    3.08
   1  -7  -1   60.79    1.74
   1  -7   0   30.98    1.27
   1  -7   0   29.74    2.32
   1  -7   1   33.67    2.47
   1  -7   1   31.96    1.40
   1  -7   2    3.80    0.56
   1  -7   2    3.67    0.98
   1  -7   3    7.44    1.36
   1  -7   4   27.50    2.34
   1  -7   5    1.35    0.81
   1  -7   6   30.28    2.56
   1  -7   7   28.46    2.60
   1  -6 -15    0.58    0.76
   1  -6 -14    3.07    0.83
   1  -6 -13    0.07    0.52
   1  -6 -12    1.84    0.71
   1  -6 -11    3.61    0.75
   1  -6 -10    5.14    0.84
  -1   6  10    5.19    0.90
   1  -6  -9    3.95    0.71
  -1   6   9    2.59    0.40
  -1   6   9    2.62    0.70
  -1   6   9    2.44    0.57
   1  -6  -8    2.93    0.59
  -1   6   8    4.42    0.83
  -1   6   8    3.31    0.48
  -1   6   7    0.76    0.37
   1  -6  -7   -0.35    0.30
  -1   6   7   -0.69    0.50
   1  -6  -6    4.64    0.55
  -1   6   6    5.31    0.77
  -1   6   6    4.48    0.64
  -1   6   5    8.68    0.89
   1  -6  -5    8.68    0.68
  -1   6   5    8.05    0.94
   1  -6  -4  112.84    2.65
  -1   6   4  106.93    3.52
  -1   6   4  111.28    3.52
  -1   6   3   17.53    1.30
  -1   6   3   17.08    1.41
   1  -6  -3   19.35    0.87
   1  -6  -2    3.15    0.77
  -1   6   2    3.76    0.67
  -1   6   2    4.48    0.76
   1  -6  -2    2.79    0.36
   1  -6  -1   11.25    1.32
   1  -6  -1   10.66    0.67
   1  -6   0    6.07    0.56
   1  -6   0    6.28    1.01
   1  -6   1   46.92    2.67
   1  -6   1   45.73    1.72
   1  -6   2   23.32    1.28
   1  -6   2   22.21    1.86
   1  -6   3   63.79    2.37
   1  -6   3   61.56    3.15
   1  -6   4   30.65    1.72
   1  -6   4   33.04    2.34
   1  -6   5   48.07    2.91
   1  -6   5   46.64    2.29
   1  -6   6   26.25    2.19
   1  -6   7    0.61    0.71
   1  -6   8   31.96    2.60
   1  -6   9    0.92    0.74
   1  -5 -15    9.51    1.47
   1  -5 -14    2.15    0.94
   1  -5 -13    3.52    0.90
   1  -5 -12    2.32    0.69
   1  -5 -11   20.19    1.63
   1  -5 -10    9.22    1.07
  -1   5  10    7.39    0.99
   1  -5  -9   49.98    2.27
  -1   5   9   45.74    2.22
  -1   5   8    1.90    0.50
  -1   5   8    2.28    0.34
   1  -5  -8    2.09    0.54
  -1   5   8    2.44    0.65
  -1   5   7    3.21    0.56
  -1   5   7    4.68    0.48
  -1   5   7    4.25    0.70
   1  -5  -7    4.14    0.60
  -1   5   6   47.85    1.71
  -1   5   6   50.57    2.58
  -1   5   6   47.56    2.14
   1  -5  -6   53.17    1.90
  -1   5   5    8.97    0.91
  -1   5   5    8.70    1.08
  -1   5   5    8.10    0.74
   1  -5  -5    6.01    0.60
  -1   5   4    0.31    0.44
   1  -5  -4   -0.16    0.23
  -1   5   4   -0.07    0.39
  -1   5   4   -0.06    0.30
   1  -5  -3    3.65    0.43
  -1   5   3    3.33    0.56
  -1   5   3    2.85    0.68
  -1   5   3    4.68    0.70
  -1   5   2  124.02    3.45
  -1   5   2  124.61    4.01
   1  -5  -2  119.69    2.72
   1  -5  -2  117.82    3.98
   1  -5  -1    6.02    0.89
  -1   5   1    6.49    0.91
   1  -5   0  219.88    5.82
   1  -5   0  212.98    4.40
  -1   5   0  230.95    5.74
  -1   5  -1  153.91    4.37
   1  -5   1  142.09    4.49
   1  -5   1  143.39    3.43
   1  -5   2   -0.04    0.57
   1  -5   2    0.25    0.28
  -1   5  -2    0.13    0.39
   1  -5   3    6.46    0.99
   1  -5   3    5.22    0.67
   1  -5   4  198.33    5.71
   1  -5   4  196.78    4.96
   1  -5   5   14.75    1.22
   1  -5   5   18.04    1.62
   1  -5   6   25.59    1.74
   1  -5   6   25.44    1.97
   1  -5   7   25.91    2.06
   1  -5   8   41.42    2.69
   1  -5   9    1.94    0.93
   1  -5  10   24.10    2.24
   1  -5  11    0.65    0.68
   1  -4 -15    1.31    0.72
   1  -4 -14    5.12    1.12
   1  -4 -13    7.55    1.18
   1  -4 -12    7.45    1.14
   1  -4 -12    8.38    0.69
   1  -4 -11   17.04    0.93
   1  -4 -11   18.16    1.57
   1  -4 -10    3.48    0.47
   1  -4 -10    4.57    0.84
   1  -4  -9    4.67    0.74
  -1   4   9    4.58    0.74
   1  -4  -9    4.83    0.48
  -1   4   8    3.21    0.61
   1  -4  -8    3.52    0.62
   1  -4  -8    3.57    0.43
  -1   4   7   26.37    0.94
  -1   4   7   27.23    1.57
   1  -4  -7   28.28    1.50
   1  -4  -7   29.06    1.56
  -1   4   7   29.23    1.54
  -1   4   6    9.41    0.93
  -1   4   6    9.21    0.81
   1  -4  -6    8.63    0.83
  -1   4   6    9.29    0.57
   1  -4  -6    9.35    0.82
  -1   4   5   -0.02    0.25
  -1   4   5    0.07    0.20
  -1   4   5    0.41    0.42
  -1   4   5    0.32    0.43
   1  -4  -5    0.27    0.31
   1  -4  -5    0.34    0.27
  -1   4   4    6.13    0.58
   1  -4  -4    6.85    0.60
  -1   4   4    6.64    0.86
  -1   4   4    6.62    0.72
  -1   4   3   17.86    1.06
   1  -4  -3   18.33    0.90
  -1   4   3   19.03    1.12
  -1   4   3   17.18    1.33
  -1   4   2   18.51    1.07
   1  -4  -2   20.76    1.46
  -1   4   2   17.89    1.31
   1  -4  -2   18.13    0.84
   1  -4  -1    0.77    0.52
  -1   4   1    0.72    0.47
   1  -4   0  101.08    3.38
  -1   4   0  110.21    3.35
  -1   4  -1  180.45    4.54
   1  -4   1  170.07    3.75
   1  -4   1  175.39    4.68
   1  -4   2   78.91    2.34
   1  -4   2   73.30    2.83
  -1   4  -2   79.22    2.73
   1  -4   3   38.09    2.00
   1  -4   3   37.31    1.65
   1  -4   4    7.88    0.82
   1  -4   4    6.33    0.87
   1  -4   5  291.78    6.69
   1  -4   5  304.67    7.20
   1  -4   6   12.60    1.16
   1  -4   6   11.76    1.23
   1  -4   7   70.92    3.14
   1  -4   8  158.83    5.14
   1  -4   9    0.02    0.55
   1  -4  10   26.81    2.17
   1  -4  11    3.38    1.02
   1  -4  12   11.51    1.58
   1  -3 -15   22.07    2.17
   1  -3 -14    0.11    0.61
   1  -3 -13   -0.29    0.56
   1  -3 -12    2.16    0.43
   1  -3 -12    2.67    0.78
   1  -3 -11    3.49    0.47
   1  -3 -11    3.36    0.79
   1  -3 -10  144.65    4.63
   1  -3 -10  155.69    3.37
   1  -3  -9   61.43    1.72
   1  -3  -9   61.47    2.65
  -1   3   9   65.36    2.75
  -1   3   8   72.01    2.75
   1  -3  -8   72.34    2.61
   1  -3  -8   69.58    1.80
   1  -3  -8   70.55    2.69
   1  -3  -7   24.65    0.92
   1  -3  -7   25.92    1.40
  -1   3   7   23.66    1.42
   1  -3  -7   25.04    1.44
   1  -3  -6   10.39    0.86
   1  -3  -6   10.78    0.88
  -1   3   6    9.41    0.46
  -1   3   6    9.85    0.88
  -1   3   6    8.97    0.82
   1  -3  -6    9.72    0.56
  -1   3   5  316.86    6.24
   1  -3  -5  316.47    6.20
  -1   3   5  305.70    5.19
   1  -3  -5  306.57    6.07
  -1   3   5  305.59    6.10
  -1   3   4    0.07    0.32
   1  -3  -4    0.08    0.27
  -1   3   4   -0.32    0.28
   1  -3  -4    0.11    0.28
  -1   3   4    0.25    0.22
  -1   3   3    4.87    0.70
  -1   3   3    3.58    0.43
   1  -3  -3    4.12    0.46
  -1   3   3    4.04    0.52
  -1   3   2  508.43    8.65
   1  -3  -2  490.44    8.29
  -1   3   2  484.70    9.30
  -1   3   1   33.04    1.57
   1  -3  -1   31.25    1.58
  -1   3   0   82.42    2.61
   1  -3   0   83.95    2.67
   1  -3   1  105.32    3.06
  -1   3  -1  108.38    3.00
   1  -3   1  100.24    2.51
   1  -3   2   11.29    0.95
  -1   3  -2   11.03    0.89
   1  -3   2   10.33    0.74
   1  -3   3  425.26    8.29
   1  -3   3  418.49    7.90
   1  -3   4  217.25    5.21
   1  -3   4  222.38    5.05
  -1   3  -5    9.10    0.93
   1  -3   5    9.22    0.96
   1  -3   5   11.21    1.00
   1  -3   6   18.64    1.36
  -1   3  -6   19.24    1.41
   1  -3   6   18.91    1.38
   1  -3   7    0.28    0.45
   1  -3   7    0.91    0.47
  -1   3  -7   -0.12    0.43
  -1   3  -8    1.99    0.67
   1  -3   8    0.63    0.48
  -1   3  -9  281.44    7.56
   1  -3   9  305.42    7.51
   1  -3  10    2.83    0.73
  -1   3 -10    2.72    0.81
   1  -3  11   10.66    1.34
  -1   3 -11   10.95    1.53
  -1   3 -12   11.03    1.53
   1  -3  12   11.62    1.52
   1  -3  13   25.70    2.27
  -1   3 -13   21.86    2.24
   1  -2 -15    6.30    1.25
   1  -2 -14    4.72    1.08
   1  -2 -13   21.59    1.99
   1  -2 -13   20.69    1.19
   1  -2 -12    1.11    0.70
   1  -2 -12    0.65    0.29
   1  -2 -11   30.42    2.10
   1  -2 -11   30.49    1.34
   1  -2 -10    6.18    0.95
   1  -2 -10    6.46    0.59
   1  -2  -9   13.65    0.76
   1  -2  -9   13.54    1.14
  -1   2   9   13.77    1.27
   1  -2  -9   12.22    1.20
   1  -2  -8  168.33    4.35
  -1   2   8  167.89    4.64
   1  -2  -8  164.41    4.50
   1  -2  -8  161.82    3.27
   1  -2  -7    6.87    0.74
  -1   2   7    8.41    0.89
   1  -2  -7    6.57    0.44
   1  -2  -7    5.64    0.74
   1  -2  -6  223.26    3.91
  -1   2   6  227.66    5.10
   1  -2  -6  219.58    5.00
   1  -2  -6  227.53    4.94
   1  -2  -5  286.55    5.78
  -1   2   5  286.64    5.85
   1  -2  -5  289.45    4.75
   1  -2  -5  284.13    5.71
  -1   2   4  101.00    1.89
  -1   2   4  116.36    2.77
   1  -2  -4  109.39    2.00
   1  -2  -4  107.78    2.67
  -1   2   4  112.35    2.78
   1  -2  -4  111.60    2.73
  -1   2   3  188.34    3.78
  -1   2   3  178.36    3.15
   1  -2  -3  186.27    3.74
   1  -2  -3  183.82    3.75
  -1   2   3  185.38    3.76
   1  -2  -2  569.84    9.57
  -1   2   2  589.93    9.59
   1  -2  -2  582.01    9.52
   1  -2  -1  213.80    4.48
  -1   2   1  216.98    4.02
  -1   2   1  210.92    4.48
  -1   2   0    8.70    0.69
   1  -2   0   10.03    0.78
   1  -2   1    0.57    0.41
  -1   2  -1    0.25    0.32
  -1   2  -2   57.56    1.78
   1  -2   2   58.92    1.89
   1  -2   2   56.56    1.75
   1  -2   3   59.47    1.95
   1  -2   3   61.87    2.00
  -1   2  -4   31.63    1.53
   1  -2   4   31.64    1.48
   1  -2   4   30.50    1.40
  -1   2  -5    1.10    0.44
   1  -2   5    0.69    0.39
  -1   2  -6   79.39    2.85
   1  -2   6   76.58    2.80
   1  -2   7    0.23    0.36
  -1   2  -7    0.32    0.54
  -1   2  -8   71.32    3.02
   1  -2   8   68.78    2.95
  -1   2  -9    3.58    0.83
  -1   2 -10    0.75    0.53
  -1   2 -11    0.04    0.52
  -1   2 -12   18.24    1.85
  -1   2 -13   30.84    2.55
   1  -1 -14    9.76    2.86
   1  -1 -13    9.25    0.90
   1  -1 -13    7.61    1.30
   1  -1 -12    3.22    0.57
   1  -1 -12    2.93    0.79
   1  -1 -11   18.97    1.13
   1  -1 -11   21.27    1.80
   1  -1 -10   71.70    3.21
   1  -1 -10   78.46    2.37
  -1   1   9   41.86    2.23
   1  -1  -9   37.36    2.09
   1  -1  -8    8.54    0.96
  -1   1   8   10.00    1.02
   1  -1  -7  327.11    7.04
  -1   1   7  332.34    7.14
   1  -1  -6    5.16    0.72
  -1   1   6    4.83    0.68
   1  -1  -5  118.86    3.16
  -1   1   5  127.07    3.27
   1  -1  -4   95.41    1.76
   1  -1  -4   94.68    2.42
  -1   1   4   98.05    2.58
   1  -1  -4   99.81    2.59
   1  -1  -3  375.70    6.59
  -1   1   3  370.70    6.75
   1  -1  -3  389.76    6.76
   1  -1  -2  168.42    3.25
   1  -1  -2  171.56    3.38
  -1   1   2  174.75    3.26
  -1   1   2  165.62    3.32
  -1   1   1   17.24    0.63
   1  -1  -1   17.36    0.64
   1  -1   0  607.49    9.71
  -1   1   0  588.41    9.71
   1  -1   1  402.36    6.75
  -1   1  -1  396.34    6.71
   1  -1   2    1.84    0.35
   1  -1   2    2.24    0.38
  -1   1  -3  223.70    4.55
   1  -1   3  218.42    4.49
  -1   1  -4   69.91    2.22
   1  -1   4   68.46    2.19
  -1   1  -5  398.36    7.78
   1  -1   5  398.02    7.79
   1  -1   6  358.26    7.44
  -1   1  -6  354.18    7.41
  -1   1  -7   37.72    1.96
   1  -1   7   38.46    1.94
  -1   1  -8   67.62    2.84
   1  -1   8   72.62    2.92
  -1   1  -9    0.20    0.48
  -1   1 -10    9.72    1.23
  -1   1 -11   14.90    1.58
  -1   1 -12   50.78    3.03
  -1   1 -13   10.70    1.52
  -1   1 -14    3.40    1.03
  -1   1 -15   12.36    1.43
  -1   1 -16    7.12    1.20
   1   0 -14    3.21    0.67
   1   0 -14    3.69    1.02
   1   0 -13   19.80    1.97
   1   0 -12  101.44    4.29
   1   0 -11   33.02    2.30
   1   0 -10    1.19    0.60
   1   0  -9  131.99    4.27
  -1   0   8    2.11    0.58
   1   0  -8    1.25    0.55
   1   0  -7  274.01    6.27
  -1   0   7  278.13    6.37
  -1   0   6    1.52    0.53
   1   0  -6    1.73    0.50
  -1   0   5  147.37    3.71
   1   0  -5  146.87    3.67
  -1   0   4   21.01    1.09
   1   0  -4   21.08    1.09
   1   0  -3  133.36    3.02
  -1   0   3  134.48    3.04
  -1   0   2  884.88   13.99
   1   0  -2  875.37   13.97
   1   0  -1 1689.50   25.54
   1   0  -1 1672.58   25.21
  -1   0   1 1682.06   25.54
  -1   0   1 1675.41   25.25
   1   0   0  257.14    4.21
  -1   0   0  265.26    4.22
  -1   0  -1    1.00    0.19
   1   0   2   12.77    0.67
   1   0   3  185.08    3.82
  -1   0  -3  190.07    3.86
  -1   0  -4  438.94    7.93
   1   0   4  438.41    7.91
   1   0   5    6.96    0.73
  -1   0  -5    6.10    0.71
   1   0   6   26.20    1.77
  -1   0  -6   27.01    1.48
  -1   0  -7   78.48    2.79
   1   0   7   78.18    2.80
   1   0   8   15.46    1.27
  -1   0  -8   16.74    1.36
   1   0   9   30.10    1.92
  -1   0  -9   28.96    1.84
  -1   0 -10  152.74    4.86
  -1   0 -11   95.05    3.88
  -1   0 -12   98.00    4.19
  -1   0 -13    1.90    0.82
  -1   0 -13    2.65    0.68
  -1   0 -14    0.05    0.49
  -1   0 -14    0.66    0.74
  -1   0 -15    1.33    0.64
  -1   0 -16    2.20    0.78
   1   1 -14    0.91    0.80
   1   1 -13    6.27    1.17
   1   1 -12    2.30    0.79
   1   1 -11   91.09    3.91
   1   1 -10   52.43    2.78
   1   1  -9    1.02    0.54
  -1  -1   8    0.92    0.49
   1   1  -8    0.81    0.49
   1   1  -7   15.65    1.28
  -1  -1   7   18.19    1.33
  -1  -1   6   88.83    2.93
   1   1  -6   84.52    2.83
  -1  -1   5  484.45    9.05
   1   1  -5  474.11    8.96
  -1  -1   4   42.67    1.65
   1   1  -4   43.37    1.66
   1   1  -3  179.25    3.78
  -1  -1   3  178.22    3.80
   1   1  -2  150.70    3.10
  -1  -1   2  151.50    3.13
   1   1  -1  623.84   10.24
  -1  -1   1  623.73    9.99
   1   1  -1  631.57    9.99
   1   1   0   81.84    1.89
   1   1   0   80.03    1.65
  -1  -1   0   90.22    1.96
   1   1   1   24.95    0.85
  -1  -1  -1   24.99    0.86
   1   1   1   23.62    0.59
  -1  -1  -1   23.49    0.61
  -1  -1  -2  271.72    4.60
  -1  -1  -2  255.26    4.26
   1   1   2  265.90    4.26
   1   1   2  263.00    4.53
   1   1   2  253.04    4.55
   1   1   3   51.77    1.45
  -1  -1  -3   51.44    1.27
  -1  -1  -3   53.62    1.51
  -1  -1  -3   52.23    1.43
   1   1   3   53.56    1.52
  -1  -1  -4   71.19    1.92
  -1  -1  -4   75.15    1.82
  -1  -1  -4   78.25    2.12
   1   1   4   78.48    2.13
  -1  -1  -5    2.33    0.46
  -1  -1  -5    2.26    0.41
   1   1   5    3.04    0.50
   1   1   6    2.36    0.48
  -1  -1  -6    1.95    0.40
  -1  -1  -6    1.67    0.49
  -1  -1  -7   70.91    2.21
  -1  -1  -7   72.33    2.58
   1   1   7   73.76    2.61
  -1  -1  -8    1.07    0.52
   1   1   8    0.83    0.40
  -1  -1  -8    1.17    0.37
   1   1   9   61.38    2.69
  -1  -1  -9   61.82    2.68
  -1  -1  -9   56.39    2.14
  -1  -1 -10    4.00    0.66
  -1  -1 -10    3.38    0.72
  -1  -1 -11    0.43    0.33
  -1  -1 -11    0.11    0.45
  -1  -1 -12    6.88    1.11
  -1  -1 -12    6.35    0.86
  -1  -1 -13    6.75    0.88
  -1  -1 -13    5.85    1.18
  -1  -1 -14   26.73    2.34
  -1  -1 -14   29.26    1.88
  -1  -1 -15    5.54    0.91
  -1  -1 -15    4.17    1.10
   1   2 -13   21.89    2.14
   1   2 -12   -0.14    0.69
   1   2 -11    0.43    0.56
   1   2 -10   43.47    2.63
   1   2  -9  158.29    4.99
   1   2  -8   41.11    2.25
  -1  -2   7    1.04    0.41
   1   2  -7    0.22    0.46
  -1  -2   6  302.49    6.71
   1   2  -6  302.59    6.68
  -1  -2   5    2.13    0.45
   1   2  -5    2.29    0.54
  -1  -2   4    1.39    0.41
   1   2  -4    1.67    0.45
  -1  -2   3  342.46    6.46
   1   2  -3  343.92    6.41
   1   2  -2   23.48    0.99
  -1  -2   2   22.16    0.97
  -1  -2   1  970.59   15.20
   1   2  -1  977.93   15.18
   1   2   0  199.55    3.37
  -1  -2   0  194.87    3.38
  -1  -2   0  201.38    3.80
   1   2   0  196.85    4.19
   1   2   1  102.39    2.53
   1   2   1  104.72    2.24
  -1  -2  -1  104.32    2.28
  -1  -2  -1   94.18    2.54
   1   2   2 3214.80   49.20
   1   2   2 3249.75   48.54
  -1  -2  -2 3258.93   49.27
  -1  -2  -2 3257.20   48.97
   1   2   2 3246.91   48.98
  -1  -2  -3 9765.40  146.90
   1   2   3 9999.00  146.90
   1   2   3 9852.25  147.08
  -1  -2  -3 9916.33  147.23
   1   2   3 9669.08  146.84
  -1  -2  -3 9931.14  146.87
   1   2   3 9844.85  147.15
  -1  -2  -4   23.07    0.93
   1   2   4   24.81    0.98
   1   2   4   23.38    0.99
  -1  -2  -4   26.71    1.05
  -1  -2  -4   24.27    1.05
   1   2   4   21.39    0.94
  -1  -2  -5   53.16    1.63
  -1  -2  -5   56.34    1.70
   1   2   5   51.48    1.64
   1   2   5   54.20    1.77
  -1  -2  -5   55.36    1.80
   1   2   6  143.81    3.57
  -1  -2  -6  141.69    3.29
  -1  -2  -6  139.58    3.23
  -1  -2  -6  142.70    3.56
  -1  -2  -7   84.01    2.48
  -1  -2  -7   82.48    2.35
   1   2   7   88.11    2.80
  -1  -2  -7   85.20    2.76
  -1  -2  -8    9.37    0.97
   1   2   8    7.58    0.87
  -1  -2  -8    8.20    0.72
  -1  -2  -8    7.58    0.75
  -1  -2  -9  156.23    3.85
   1   2   9  162.54    4.58
  -1  -2  -9  158.45    4.10
  -1  -2  -9  156.60    4.52
  -1  -2 -10   -0.06    0.31
  -1  -2 -10    0.43    0.34
  -1  -2 -10    0.13    0.46
  -1  -2 -11    1.01    0.61
  -1  -2 -11    0.83    0.43
  -1  -2 -12    4.89    0.90
  -1  -2 -12    6.00    0.79
  -1  -2 -13   37.43    1.95
  -1  -2 -13   32.55    2.36
  -1  -2 -14   34.53    2.55
  -1  -2 -14   37.86    2.05
  -1  -2 -15   45.17    2.36
  -1  -2 -15   48.46    3.20
   1   3 -13    5.25    1.18
   1   3 -12   11.67    1.59
   1   3 -11   22.72    2.06
   1   3 -10    0.60    0.60
   1   3  -9   12.33    1.37
   1   3  -8    1.32    0.59
   1   3  -7  108.35    3.68
  -1  -3   7  110.65    3.75
  -1  -3   6    0.78    0.44
   1   3  -6    0.32    0.41
   1   3  -5  181.54    4.56
  -1  -3   5  177.70    4.51
  -1  -3   4   48.47    1.90
   1   3  -4   51.01    1.94
  -1  -3   3   14.69    0.96
   1   3  -3   15.93    0.97
   1   3  -2  911.12   14.69
  -1  -3   2  926.59   15.28
  -1  -3   2  896.61   14.68
  -1  -3   1  692.08   11.26
   1   3  -1  701.66   11.25
  -1  -3   1  722.65   12.04
  -1  -3   0   76.21    1.60
  -1  -3   0   78.81    2.30
   1   3   0   79.81    1.61
   1   3   0   77.03    2.51
   1   3   1    6.06    0.56
   1   3   1    7.58    0.77
  -1  -3  -1    7.13    0.68
  -1  -3  -2  497.07    8.72
  -1  -3  -2  489.00    9.00
   1   3   2  481.67    8.82
   1   3   2  493.60    8.62
  -1  -3  -3    1.14    0.41
   1   3   3    1.61    0.36
   1   3   3    0.97    0.36
   1   3   3    1.02    0.20
   1   3   3    1.87    0.37
  -1  -3  -4    0.21    0.22
   1   3   4    0.23    0.22
   1   3   4    0.58    0.41
   1   3   4    0.60    0.33
  -1  -3  -4    0.79    0.41
   1   3   4   -0.17    0.20
   1   3   5   33.17    1.30
  -1  -3  -5   34.35    1.34
   1   3   5   33.71    1.35
  -1  -3  -5   33.69    1.44
   1   3   5   33.67    1.29
  -1  -3  -5   35.88    1.33
  -1  -3  -6  276.15    5.55
   1   3   6  271.83    5.33
   1   3   6  274.42    5.52
  -1  -3  -6  274.73    5.49
  -1  -3  -6  276.58    5.56
   1   3   6  272.94    5.53
  -1  -3  -7   52.03    1.88
  -1  -3  -7   51.40    1.97
   1   3   7   50.09    1.95
  -1  -3  -7   51.37    1.86
   1   3   7   50.94    1.74
  -1  -3  -8    7.63    0.73
  -1  -3  -8    9.05    0.82
  -1  -3  -8    7.33    0.82
   1   3   8    7.11    0.79
  -1  -3  -9    0.16    0.30
   1   3   9   -0.12    0.32
  -1  -3  -9   -0.44    0.48
  -1  -3  -9    0.18    0.30
  -1  -3 -10    1.56    0.45
   1   3  10    2.04    0.60
  -1  -3 -10    2.46    0.61
  -1  -3 -10    2.00    0.51
  -1  -3 -11   44.15    1.96
  -1  -3 -11   41.91    2.35
  -1  -3 -12    3.32    0.62
  -1  -3 -12    3.28    0.85
  -1  -3 -13   25.06    2.03
  -1  -3 -13   23.73    1.54
  -1  -3 -14    3.41    0.89
  -1  -3 -14    1.03    0.44
  -1  -3 -15   -0.10    0.65
  -1  -3 -15    0.32    0.40
  -1  -3 -16    4.97    1.21
   1   4 -12   -0.34    0.59
   1   4 -11   52.88    3.19
   1   4 -10    8.02    1.24
   1   4  -9   22.42    1.87
   1   4  -8   15.95    1.49
  -1  -4   7   38.75    2.16
   1   4  -7   36.85    2.13
   1   4  -6  240.02    5.96
  -1  -4   6  242.85    6.02
  -1  -4   5  318.00    7.01
   1   4  -5  322.71    7.03
  -1  -4   5  338.55    7.56
   1   4  -4  143.02    3.75
  -1  -4   4  140.53    4.12
  -1  -4   4  132.17    3.63
  -1  -4   3    2.21    0.41
  -1  -4   3    2.60    0.57
   1   4  -3    1.89    0.45
  -1  -4   2   18.45    1.27
   1   4  -2   18.52    0.96
  -1  -4   2   19.25    0.97
  -1  -4   1    3.42    0.38
  -1  -4   1    3.10    0.60
   1   4  -1    2.81    0.36
  -1  -4   0  268.52    5.82
   1   4   0  279.18    5.71
   1   4   0  267.07    6.13
   1   4   0  261.98    4.48
  -1  -4   0  260.66    4.46
   1   4   1  193.46    4.43
  -1  -4  -1  193.88    4.60
   1   4   1  185.97    4.80
   1   4   2   25.64    1.46
   1   4   2   24.01    1.30
  -1  -4  -2   26.14    1.41
   1   4   3  375.36    7.51
  -1  -4  -3  397.23    7.75
   1   4   3  394.56    7.64
  -1  -4  -3  370.78    7.49
   1   4   4   29.74    1.33
  -1  -4  -4   29.28    0.93
   1   4   4   28.85    0.90
   1   4   4   31.07    1.54
  -1  -4  -4   29.31    1.54
   1   4   4   29.80    1.43
  -1  -4  -5  374.75    6.58
   1   4   5  368.61    7.56
   1   4   5  376.27    7.22
   1   4   5  372.60    7.11
   1   4   5  372.44    6.57
  -1  -4  -5  381.34    7.50
  -1  -4  -6 1277.58   21.21
   1   4   6 1298.03   21.06
   1   4   6 1296.17   20.87
  -1  -4  -6 1310.57   21.01
  -1  -4  -6 1288.15   20.66
   1   4   6 1291.87   20.64
   1   4   6 1293.55   21.56
   1   4   7    3.90    0.57
  -1  -4  -7    4.86    0.64
   1   4   7    5.11    0.55
   1   4   7    4.19    0.60
  -1  -4  -7    3.94    0.56
  -1  -4  -7    4.88    0.63
  -1  -4  -8   20.68    1.32
   1   4   8   23.51    1.38
   1   4   8   20.16    1.28
   1   4   8   21.53    1.16
  -1  -4  -8   22.10    1.31
  -1  -4  -8   20.80    1.30
  -1  -4  -9    1.01    0.51
   1   4   9    2.57    0.44
   1   4   9    1.20    0.48
  -1  -4  -9    2.51    0.55
  -1  -4  -9    1.92    0.49
  -1  -4 -10   22.00    1.40
   1   4  10   24.71    1.65
  -1  -4 -10   22.78    1.58
  -1  -4 -11   11.50    1.22
  -1  -4 -11   11.89    1.06
  -1  -4 -12   14.67    1.51
  -1  -4 -12   14.15    1.20
  -1  -4 -13   13.75    1.46
  -1  -4 -13   15.28    1.31
  -1  -4 -14    5.38    1.06
  -1  -4 -14    5.04    0.81
  -1  -4 -15    2.99    0.91
  -1  -4 -16   -0.08    0.75
   1   5 -11   -0.37    0.73
   1   5 -10    1.49    0.75
  -1  -5  10   -1.31    0.76
  -1  -5   9    6.60    1.14
   1   5  -9    5.16    1.02
  -1  -5   8    0.81    0.63
   1   5  -8    0.14    0.57
   1   5  -7    6.85    1.01
  -1  -5   7    7.15    1.12
  -1  -5   6   26.68    1.97
   1   5  -6   23.77    1.65
  -1  -5   6   24.10    1.64
   1   5  -5   15.82    1.27
  -1  -5   5   16.82    1.31
  -1  -5   5   15.23    1.44
  -1  -5   4   77.98    3.24
   1   5  -4   77.69    2.69
  -1  -5   4   77.94    2.65
  -1  -5   3   10.20    1.12
  -1  -5   3    9.55    0.80
   1   5  -3   10.44    0.87
  -1  -5   2   18.46    1.44
  -1  -5   2   16.63    0.92
   1   5  -2   17.07    0.97
  -1  -5   1   80.55    3.02
  -1  -5   1   79.08    2.00
   1   5   0  299.90    6.99
  -1  -5   0  286.64    6.60
  -1  -5   0  281.94    4.78
   1   5   1    2.77    0.53
   1   5   1    2.98    0.63
  -1  -5  -1    2.88    0.62
   1   5   2  145.81    4.27
   1   5   2  147.22    4.02
  -1  -5  -2  136.83    4.07
   1   5   3  117.09    3.52
  -1  -5  -3  110.62    3.51
   1   5   3  115.71    3.57
   1   5   4    4.48    0.67
   1   5   4    3.78    0.59
   1   5   4    4.05    0.55
   1   5   5  101.07    2.20
   1   5   5  105.20    3.42
  -1  -5  -5  104.73    3.34
   1   5   5  105.70    3.06
  -1  -5  -5  102.58    2.22
   1   5   5  101.88    3.14
  -1  -5  -6   10.12    0.68
   1   5   6   11.18    0.93
   1   5   6   10.71    0.69
   1   5   6   11.17    1.06
  -1  -5  -6   11.84    1.06
   1   5   6   10.76    0.97
  -1  -5  -7    0.70    0.28
   1   5   7    0.73    0.35
  -1  -5  -7   -0.23    0.38
   1   5   7    0.89    0.31
   1   5   7    1.46    0.51
   1   5   7    0.79    0.42
   1   5   8    0.95    0.40
  -1  -5  -8    0.38    0.40
  -1  -5  -8    0.39    0.30
   1   5   8    0.00    0.41
   1   5   8    0.67    0.36
  -1  -5  -8    0.88    0.41
   1   5   8    1.09    0.35
   1   5   9    0.65    0.45
   1   5   9    0.08    0.33
  -1  -5  -9    0.34    0.41
   1   5   9    0.04    0.25
   1   5   9   -0.25    0.43
  -1  -5  -9    0.65    0.46
  -1  -5 -10   14.35    1.23
   1   5  10   15.42    1.06
  -1  -5 -10   15.40    1.29
   1   5  10   14.35    1.23
   1   5  11    0.75    0.42
  -1  -5 -11    0.15    0.39
  -1  -5 -11   -0.28    0.40
  -1  -5 -12    1.18    0.52
  -1  -5 -12    1.31    0.60
  -1  -5 -13    3.74    0.85
  -1  -5 -13    5.76    0.86
  -1  -5 -14    5.82    1.14
  -1  -5 -15    0.73    0.62
  -1  -5 -16    1.33    0.90
   1   6 -11    0.35    0.79
   1   6 -10   38.90    2.77
  -1  -6   9   13.75    1.80
   1   6  -9   12.49    1.56
   1   6  -8   57.94    3.05
  -1  -6   8   55.61    3.43
   1   6  -7   40.92    2.43
  -1  -6   7   48.42    3.05
  -1  -6   6   -0.61    0.54
   1   6  -6    1.29    0.58
  -1  -6   6    0.09    0.66
  -1  -6   5    3.15    0.65
  -1  -6   5    4.75    1.02
   1   6  -5    3.29    0.67
  -1  -6   4   10.73    1.36
  -1  -6   4    9.73    0.93
   1   6  -4   11.04    1.03
  -1  -6   3   44.63    2.55
  -1  -6   3   39.66    1.71
  -1  -6   2   69.37    2.12
  -1  -6   2   77.43    3.31
  -1  -6   1    1.59    0.70
  -1  -6   1    0.56    0.23
  -1  -6   0    8.13    1.05
  -1  -6   0    8.39    0.39
   1   6   1    8.00    0.92
  -1  -6  -1    7.77    1.05
   1   6   1    7.70    1.04
   1   6   2   23.07    1.56
  -1  -6  -2   22.61    1.67
   1   6   2   20.42    1.62
  -1  -6  -3  101.85    3.68
   1   6   3  116.91    3.78
   1   6   3  106.62    3.74
   1   6   4  126.80    4.03
   1   6   4  125.92    3.64
  -1  -6  -4  118.39    4.03
   1   6   4  119.44    3.91
   1   6   5   22.99    1.45
   1   6   5   23.27    1.55
   1   6   5   23.10    1.62
   1   6   6   19.59    1.38
   1   6   6   21.68    1.41
   1   6   6   20.75    1.57
  -1  -6  -7   58.92    1.85
   1   6   7   59.91    2.80
  -1  -6  -7   59.27    2.61
   1   6   7   59.09    1.82
   1   6   7   61.70    2.42
   1   6   7   60.99    2.48
   1   6   8   16.88    1.05
   1   6   8   16.34    1.18
   1   6   8   19.10    1.42
  -1  -6  -8   17.66    1.08
   1   6   8   16.38    1.49
  -1  -6  -8   17.00    1.41
   1   6   9   42.19    1.88
   1   6   9   39.46    1.83
  -1  -6  -9   43.09    1.90
   1   6   9   40.77    2.15
  -1  -6  -9   42.75    2.21
  -1  -6 -10    3.12    0.63
  -1  -6 -10    3.71    0.78
   1   6  10    3.11    0.62
   1   6  10    2.44    0.48
   1   6  10    3.11    0.72
   1   6  11   15.43    1.12
  -1  -6 -11   15.87    1.35
   1   6  11   16.29    1.37
  -1  -6 -11   13.64    1.35
  -1  -6 -12    9.84    1.16
  -1  -6 -12   10.00    1.13
  -1  -6 -13   -0.20    0.49
  -1  -6 -13   -0.04    0.44
  -1  -6 -14   13.00    1.50
  -1  -6 -15    0.12    0.59
  -1  -6 -16   -0.55    0.64
  -1  -7   7   29.93    2.58
  -1  -7   6   16.85    1.96
  -1  -7   5   -0.23    0.70
  -1  -7   4    5.63    1.19
  -1  -7   3   53.34    3.13
  -1  -7   3   56.49    2.08
  -1  -7   2    0.30    0.28
  -1  -7   2   -0.57    0.65
  -1  -7   1    5.71    0.44
  -1  -7   1    6.14    1.09
  -1  -7   0   12.88    1.48
  -1  -7  -1   -0.20    0.63
  -1  -7  -2   17.70    1.67
  -1  -7  -3   54.56    2.85
  -1  -7  -4    0.39    0.53
   1   7   4    0.53    0.47
   1   7   5    5.92    0.82
   1   7   5    7.53    0.98
   1   7   6   10.02    1.09
   1   7   6   10.31    1.07
   1   7   7    3.03    0.67
   1   7   7    2.10    0.59
   1   7   8    6.40    0.84
   1   7   8    7.63    1.00
   1   7   9    0.61    0.51
  -1  -7  -9    0.75    0.35
   1   7   9    1.08    0.41
   1   7   9    2.06    0.54
   1   7  10    0.17    0.44
  -1  -7 -10    0.99    0.46
   1   7  10    1.11    0.44
  -1  -7 -11   14.64    1.23
  -1  -7 -11   15.50    1.39
   1   7  11   14.70    1.45
  -1  -7 -12    0.86    0.51
  -1  -7 -12    1.38    0.59
  -1  -7 -13    4.86    0.87
  -1  -7 -14    0.42    0.66
  -1  -8   5    0.00    0.67
  -1  -8   4   59.74    3.70
  -1  -8   3    2.00    0.89
  -1  -8   2    9.13    1.49
  -1  -8   1    6.79    1.29
  -1  -8   0   14.32    1.68
  -1  -8  -1   18.85    1.93
  -1  -8  -2    4.62    1.09
  -1  -8  -3    3.21    0.96
  -1  -8  -4    3.26    0.93
   1   8   4    3.50    0.78
   1   8   5    4.30    0.83
   1   8   6   23.20    1.76
   1   8   7    3.16    0.76
   1   8   8   12.31    1.28
   1   8   9    3.82    0.79
   1   8  10   18.29    1.67
   1   8  11    2.96    0.79
   1   8  12    7.59    1.16
  -1  -9   2    0.55    0.79
  -1  -9   1    6.90    1.67
  -1  -9   0   38.94    2.98
  -1  -9  -1   11.36    1.64
  -1  -9  -2    0.51    0.74
  -1  -9  -3    0.42    0.74
   1   9   3    1.24    0.62
   1   9   4   15.46    1.51
   1   9   5    0.23    0.52
   1   9   6    5.03    0.96
   1   9   7    1.17    0.60
   1   9   8    3.45    0.85
   1   9   9    1.65    0.71
   1   9  10    6.40    1.15
   1   9  11    0.89    0.60
  -1 -10  -2    4.75    1.45
  -1 -10  -3    0.82    0.93
  -2   9   7    2.01    0.77
  -2   9   6    4.26    0.97
  -2   9   5   -0.37    0.53
  -2   9   4   23.30    1.96
  -2   9   3   10.12    1.59
  -2   9   2    4.88    0.94
  -2   9   1    9.91    1.31
   2  -9   0    0.53    0.79
  -2   9   0    1.13    0.62
  -2   8  10    0.55    0.59
  -2   8   9    5.18    1.03
  -2   8   8    1.94    0.76
  -2   8   7    7.35    1.12
  -2   8   6   11.81    1.36
  -2   8   5   -0.36    0.52
  -2   8   4   34.29    2.19
  -2   8   3   35.18    2.23
  -2   8   2   32.65    2.11
  -2   8   1   -0.23    0.52
   2  -8  -1    0.70    1.21
   2  -8   0   69.04    3.85
   2  -8   1   -0.43    0.85
   2  -8   2    5.62    1.26
   2  -8   3    4.00    1.19
   2  -8   4    1.57    0.93
   2  -7 -13    0.95    0.74
   2  -7 -12    0.77    0.55
   2  -7 -11    2.53    0.69
  -2   7  10    3.03    0.84
   2  -7 -10    0.70    0.43
  -2   7   9    6.47    1.12
   2  -7  -9    6.92    0.86
   2  -7  -8    1.56    0.52
  -2   7   8    1.49    0.59
  -2   7   7    1.22    0.58
   2  -7  -7    0.37    0.36
   2  -7  -6    6.25    0.72
  -2   7   6    3.23    0.60
  -2   7   6    5.12    0.91
   2  -7  -5    5.03    0.61
  -2   7   5    3.18    0.76
  -2   7   5    5.11    0.77
  -2   7   4    8.80    1.06
  -2   7   4    9.64    1.13
   2  -7  -4   10.01    0.81
  -2   7   3   33.53    2.10
  -2   7   3   35.64    2.08
   2  -7  -3   38.50    1.58
   2  -7  -2    2.85    0.48
  -2   7   2    4.43    0.79
  -2   7   1   56.99    2.61
   2  -7  -1   51.62    3.10
   2  -7  -1   50.56    1.93
   2  -7   0    2.77    0.47
   2  -7   0    2.42    0.94
   2  -7   1    0.84    0.37
   2  -7   1    1.85    0.87
   2  -7   2  141.85    5.45
   2  -7   2  141.75    4.00
   2  -7   3   64.27    3.62
   2  -7   4   11.53    1.64
   2  -7   5    0.83    0.76
   2  -7   6    2.33    1.09
   2  -7   7    1.33    0.89
   2  -6 -15    1.74    0.90
   2  -6 -14    1.30    0.71
   2  -6 -13    3.20    0.94
   2  -6 -12    0.86    0.64
   2  -6 -11    6.69    1.02
   2  -6 -10    4.16    0.81
   2  -6  -9   -0.23    0.43
  -2   6   9    0.47    0.51
  -2   6   8   24.98    1.79
   2  -6  -8   24.64    1.60
  -2   6   8   23.20    0.93
   2  -6  -7   30.92    1.68
  -2   6   7   32.30    1.97
  -2   6   7   30.09    1.29
  -2   6   6   56.54    2.07
  -2   6   6   57.73    2.61
   2  -6  -6   55.77    2.21
   2  -6  -5   11.94    0.96
  -2   6   5   11.45    0.99
  -2   6   5    9.77    1.04
   2  -6  -4    2.79    0.50
  -2   6   4    2.63    0.60
  -2   6   4    4.07    0.73
  -2   6   3   11.00    1.08
  -2   6   3    8.96    0.99
   2  -6  -3   11.33    0.86
   2  -6  -2    3.01    0.49
  -2   6   2    2.20    0.55
  -2   6   1  200.44    5.14
   2  -6  -1  198.81    6.07
   2  -6   0   12.39    0.96
   2  -6   0   13.44    1.52
   2  -6   1   37.44    1.75
   2  -6   1   45.05    2.64
   2  -6   2   83.04    3.72
   2  -6   2   76.82    2.74
   2  -6   3   26.34    2.13
   2  -6   3   26.77    1.60
   2  -6   4    2.71    0.62
   2  -6   4    4.40    0.93
   2  -6   5   11.53    1.52
   2  -6   6    5.54    1.17
   2  -6   7   52.36    3.30
   2  -6   8   20.76    2.17
   2  -6   9    0.80    0.75
   2  -5 -15    2.50    0.96
   2  -5 -14    4.01    1.05
   2  -5 -13    0.57    0.64
   2  -5 -12    2.93    0.84
   2  -5 -11   19.84    1.69
   2  -5 -10    1.15    0.51
  -2   5   9   10.91    1.16
   2  -5  -9   10.89    1.15
  -2   5   8   -0.01    0.42
   2  -5  -8    0.94    0.46
  -2   5   7    0.08    0.47
   2  -5  -7   -0.10    0.38
  -2   5   7    0.21    0.16
  -2   5   6   92.56    2.33
   2  -5  -6   95.09    3.01
  -2   5   6   92.33    3.22
   2  -5  -5   99.10    2.96
  -2   5   5   93.93    2.61
  -2   5   5   95.84    3.18
  -2   5   4   67.02    2.51
   2  -5  -4   65.96    2.25
  -2   5   4   68.39    3.13
  -2   5   4   63.14    2.27
  -2   5   3   38.12    2.25
  -2   5   3   40.61    1.87
   2  -5  -3   38.42    1.59
  -2   5   2   56.58    2.22
  -2   5   2   56.29    2.69
   2  -5  -2   55.99    1.95
  -2   5   1    0.66    0.46
   2  -5  -1    0.34    0.51
  -2   5   1    0.49    0.35
  -2   5   0   10.78    1.13
   2  -5   0    9.65    1.14
  -2   5  -1   57.32    2.61
   2  -5   1   58.99    2.79
   2  -5   1   55.47    2.12
   2  -5   2   10.56    0.94
   2  -5   2   10.80    1.34
   2  -5   3  152.48    4.95
   2  -5   3  151.97    4.18
   2  -5   4   66.57    3.11
   2  -5   4   61.82    2.56
   2  -5   5  131.00    4.65
   2  -5   5  133.43    4.19
   2  -5   6    3.00    0.79
   2  -5   7    0.82    0.65
   2  -5   8   25.33    2.14
   2  -5   9    5.93    1.14
   2  -5  10    5.02    1.14
   2  -5  11    1.44    0.81
   2  -4 -15    8.20    1.44
   2  -4 -14    1.41    0.65
   2  -4 -13    0.11    1.39
   2  -4 -12   17.29    1.70
   2  -4 -11    6.37    1.04
   2  -4 -10    0.13    0.52
   2  -4  -9   23.81    1.66
   2  -4  -8    8.28    0.95
  -2   4   8    7.06    0.93
  -2   4   7    4.73    0.70
   2  -4  -7    5.57    0.74
  -2   4   7    4.97    0.77
  -2   4   6    5.04    0.71
  -2   4   6    5.91    0.33
   2  -4  -6    6.90    0.80
   2  -4  -6    6.45    0.80
  -2   4   5   64.03    2.86
   2  -4  -5   64.66    2.34
  -2   4   5   56.97    1.59
  -2   4   5   62.64    2.35
   2  -4  -5   61.22    2.23
   2  -4  -4   11.02    0.88
  -2   4   4   10.65    1.13
  -2   4   4   10.09    0.89
  -2   4   4   10.12    0.71
  -2   4   3   81.97    2.59
   2  -4  -3   86.32    2.53
  -2   4   3   87.44    3.24
   2  -4  -2   80.67    2.39
  -2   4   2   83.74    3.14
  -2   4   2   82.02    2.54
  -2   4   1  404.22    8.56
  -2   4   1  404.74    7.69
   2  -4  -1  399.19    8.59
  -2   4   0   53.97    2.36
   2  -4   0   51.56    2.36
  -2   4  -1   38.70    1.96
   2  -4   1   38.04    2.03
   2  -4   2   21.71    1.27
   2  -4   2   18.93    1.46
  -2   4  -2   22.37    1.43
   2  -4   3  115.74    3.42
   2  -4   3  121.93    3.97
  -2   4  -3  121.82    3.70
   2  -4   4    0.85    0.51
   2  -4   4    1.03    0.44
   2  -4   5  489.31    9.87
   2  -4   5  474.06   10.11
   2  -4   6    3.14    0.67
   2  -4   6    3.83    0.92
   2  -4   7   13.60    1.40
   2  -4   8   12.67    1.44
   2  -4   9   19.28    1.79
   2  -4  10   -0.02    0.54
   2  -4  11   39.98    2.76
   2  -4  12    4.74    1.10
   2  -3 -14    0.06    0.70
   2  -3 -13    7.53    1.27
   2  -3 -12   57.94    3.13
   2  -3 -11    0.21    0.47
   2  -3 -10    9.12    1.16
   2  -3  -9    1.22    0.60
  -2   3   8    2.58    0.64
   2  -3  -8    0.76    0.45
   2  -3  -7   12.28    1.04
  -2   3   7   12.91    1.13
   2  -3  -7   12.89    1.12
   2  -3  -6   32.34    1.67
   2  -3  -6   31.25    1.56
  -2   3   6   32.19    1.67
  -2   3   5  143.57    3.77
   2  -3  -5  140.40    3.64
  -2   3   5  146.31    3.74
   2  -3  -5  146.48    3.78
   2  -3  -4   15.31    0.99
  -2   3   4   15.19    1.02
  -2   3   4   14.22    0.60
   2  -3  -4   12.81    0.95
   2  -3  -3  391.42    7.38
  -2   3   3  400.81    7.38
  -2   3   3  392.88    8.21
   2  -3  -3  395.16    7.42
   2  -3  -2    2.72    0.44
  -2   3   2    3.78    0.51
  -2   3   2    2.88    0.66
  -2   3   1    8.87    0.90
  -2   3   1    8.84    0.70
  -2   3   0    6.92    0.82
   2  -3   0    5.44    0.78
  -2   3  -1   33.18    1.63
   2  -3   1   33.69    1.71
  -2   3  -2  240.38    5.34
   2  -3   2  236.91    5.49
   2  -3   3   13.21    1.00
   2  -3   3   15.03    1.18
  -2   3  -3   13.02    0.98
   2  -3   4    3.25    0.66
   2  -3   4    2.96    0.54
   2  -3   5   14.26    1.18
   2  -3   5   16.10    1.23
   2  -3   6   89.75    3.20
   2  -3   6   92.83    3.32
   2  -3   7  616.49   12.25
   2  -3   7  643.53   12.58
   2  -3   8   35.24    2.06
   2  -3   9   48.49    2.55
   2  -3  10    1.49    0.63
   2  -3  11    2.40    0.83
   2  -3  12    0.04    0.64
   2  -3  13   22.76    2.12
   2  -2 -14    2.00    1.06
   2  -2 -13   38.36    2.68
   2  -2 -12    3.52    0.91
   2  -2 -12    3.00    0.40
   2  -2 -11    3.06    0.80
   2  -2 -11    3.47    0.38
   2  -2 -10   47.52    1.34
   2  -2 -10   50.07    2.64
   2  -2  -9    0.16    0.47
   2  -2  -9    0.40    0.17
   2  -2  -8    2.13    0.60
  -2   2   8    1.55    0.52
   2  -2  -8    2.12    0.61
   2  -2  -8    1.59    0.18
   2  -2  -7   11.16    1.04
  -2   2   7   11.05    1.07
   2  -2  -7   11.47    0.98
  -2   2   6   35.01    1.76
   2  -2  -6   32.66    1.56
   2  -2  -6   31.30    1.65
   2  -2  -5   35.16    1.64
   2  -2  -5   30.75    1.44
  -2   2   5   33.44    1.63
  -2   2   4    0.64    0.36
   2  -2  -4    0.94    0.42
   2  -2  -4    0.91    0.34
   2  -2  -3  179.73    3.88
  -2   2   3  183.17    3.91
   2  -2  -3  187.28    4.14
   2  -2  -2   12.61    0.74
  -2   2   2   12.38    0.75
   2  -2  -2   12.17    0.84
  -2   2   1   18.96    0.89
  -2   2   1   17.81    1.09
  -2   2   0   13.70    0.95
   2  -2   0   14.87    1.03
  -2   2   0   14.45    0.73
   2  -2   1   34.78    1.50
  -2   2  -1   35.62    1.49
   2  -2   2  329.26    6.38
  -2   2  -2  313.81    6.19
   2  -2   3  494.40    8.98
   2  -2   3  493.52    9.09
  -2   2  -3  480.75    8.76
   2  -2   4  192.93    4.68
   2  -2   4  201.68    4.55
   2  -2   5    0.68    0.40
   2  -2   5    1.37    0.48
   2  -2   6   59.33    2.48
   2  -2   6   60.65    2.30
   2  -2   7   68.90    2.85
   2  -2   7   63.78    2.49
   2  -2   8    0.52    0.43
   2  -2   9   41.15    2.15
   2  -2  10   75.60    3.15
   2  -2  11  115.97    4.20
   2  -2  12    0.11    0.55
   2  -2  13    5.52    1.08
   2  -2  14    0.83    0.63
   2  -2  15    4.33    1.10
   2  -1 -14    4.39    1.09
   2  -1 -13   47.34    3.02
   2  -1 -12   17.37    1.04
   2  -1 -12   13.82    1.62
   2  -1 -11   17.56    0.99
   2  -1 -11   17.28    1.68
   2  -1 -10    1.69    0.67
   2  -1  -9   40.32    2.26
  -2   1   8   83.27    3.20
   2  -1  -8   76.54    3.02
  -2   1   7  166.91    4.62
   2  -1  -7  159.92    4.43
   2  -1  -6  450.42    8.94
  -2   1   6  462.48    9.11
   2  -1  -5    4.44    0.58
  -2   1   5    4.86    0.67
   2  -1  -5    5.59    0.70
   2  -1  -5    4.25    0.30
   2  -1  -4   55.50    2.03
  -2   1   4   56.53    2.01
   2  -1  -4   53.90    1.82
   2  -1  -3    1.00    0.31
  -2   1   3    1.31    0.39
   2  -1  -3    0.76    0.41
   2  -1  -2  111.09    2.50
   2  -1  -2  116.88    2.86
  -2   1   2  111.16    1.99
   2  -1  -1   64.98    1.59
  -2   1   1   64.10    1.44
  -2   1   1   66.98    1.61
  -2   1   0   18.00    0.90
  -2   1   0   18.96    0.68
  -2   1  -1 1415.48   22.27
   2  -1   1 1442.98   22.29
  -2   1  -2  194.08    3.87
   2  -1   2  206.75    4.02
   2  -1   3  667.43   11.07
   2  -1   4   26.35    1.38
   2  -1   4   26.10    1.15
   2  -1   5  108.85    3.25
   2  -1   5  109.03    2.79
   2  -1   6   78.05    2.80
  -2   1  -7  119.56    3.83
   2  -1   7  121.34    3.82
  -2   1  -8   90.02    3.40
   2  -1   8   86.65    3.32
  -2   1  -9  150.08    4.83
  -2   1 -10  234.22    6.63
  -2   1 -11  116.90    4.59
  -2   1 -12   14.27    1.72
  -2   1 -13    2.02    0.96
  -2   1 -14    5.65    1.03
  -2   1 -14    4.93    1.25
  -2   1 -15    3.95    0.92
   2   0 -14   48.11    3.25
   2   0 -13    6.07    1.16
   2   0 -12    0.41    0.64
   2   0 -11   20.70    1.88
   2   0 -10   12.18    1.34
   2   0  -9   58.98    2.79
   2   0  -8   28.26    1.80
  -2   0   8   31.66    1.93
  -2   0   7  264.30    6.29
   2   0  -7  251.71    6.12
  -2   0   6  191.51    4.86
   2   0  -6  184.04    4.71
  -2   0   5   85.75    2.81
   2   0  -5   90.12    2.81
   2   0  -4   14.81    0.78
  -2   0   4   17.72    1.12
   2   0  -4   15.70    1.05
  -2   0   3  329.26    6.34
   2   0  -3  331.44    6.34
   2   0  -3  324.95    5.63
  -2   0   2  189.38    4.01
   2   0  -2  188.64    3.41
   2   0  -2  191.47    4.03
  -2   0   2  187.73    3.54
   2   0  -1    2.62    0.30
  -2   0   1    2.42    0.30
   2   0  -1    1.92    0.44
   2   0   0   19.20    0.58
   2   0   0   18.18    0.71
  -2   0   0   19.39    0.73
   2   0   1  868.75   13.86
  -2   0  -1  890.16   13.88
  -2   0  -1  879.88   13.61
   2   0   2    5.13    0.35
  -2   0  -2    4.26    0.46
  -2   0  -2    4.92    0.31
  -2   0  -3   28.21    1.15
   2   0   3   27.26    0.85
   2   0   4  159.16    3.80
   2   0   5    4.96    0.64
  -2   0  -6   95.22    3.05
   2   0   6   90.67    2.98
  -2   0  -7    5.64    0.82
   2   0   7    4.93    0.75
  -2   0  -8   35.29    2.00
   2   0   8   36.52    2.01
  -2   0  -9    0.92    0.53
  -2   0 -10   90.42    3.67
  -2   0 -11   10.38    1.16
  -2   0 -11   11.14    1.35
  -2   0 -12    6.91    1.18
  -2   0 -12    6.05    0.90
  -2   0 -13    0.00    0.45
  -2   0 -13    0.53    0.67
  -2   0 -14   10.79    1.58
  -2   0 -14    9.81    1.22
  -2   0 -15   20.53    1.81
  -2   0 -16    5.92    1.10
   2   1 -13   33.38    2.63
   2   1 -12    3.48    0.95
   2   1 -11   20.20    1.86
   2   1 -10   27.48    2.02
   2   1  -9   -0.25    0.49
   2   1  -8    7.38    0.97
   2   1  -7  431.71    9.08
  -2  -1   7  442.91    9.24
  -2  -1   6    1.09    0.45
   2   1  -6    0.81    0.42
  -2  -1   5  596.04   11.03
   2   1  -5  597.44   10.92
   2   1  -4  251.14    5.42
  -2  -1   4  255.84    5.50
   2   1  -3  436.85    7.93
  -2  -1   3  448.03    8.14
   2   1  -3  441.00    8.06
  -2  -1   2   37.92    1.44
   2   1  -2   40.97    1.49
   2   1  -2   38.93    1.42
   2   1  -1  131.90    2.98
   2   1  -1  134.53    3.00
  -2  -1   1  143.36    3.10
   2   1   0  561.09    9.42
  -2  -1   0  575.89    9.53
   2   1   1  152.81    3.18
  -2  -1  -1  157.29    3.26
  -2  -1  -2  115.03    2.61
   2   1   2  108.52    2.54
   2   1   2  113.28    1.90
   2   1   3  721.27   11.99
  -2  -1  -3  748.98   12.01
  -2  -1  -3  727.19   11.20
   2   1   4   62.65    2.02
   2   1   4   64.33    1.92
  -2  -1  -4   64.58    1.93
  -2  -1  -4   65.22    1.49
  -2  -1  -5  219.81    4.55
  -2  -1  -5  210.35    3.98
   2   1   5  208.97    4.71
   2   1   6    4.44    0.63
  -2  -1  -6    4.25    0.55
  -2  -1  -6    2.78    0.55
  -2  -1  -7    7.79    0.79
  -2  -1  -7    7.72    0.88
   2   1   7    6.74    0.83
  -2  -1  -8  179.23    4.88
  -2  -1  -8  176.45    4.48
   2   1   8  180.55    4.87
  -2  -1  -9   64.92    2.45
  -2  -1  -9   64.39    2.78
   2   1   9   65.00    2.80
  -2  -1 -10   11.98    1.27
  -2  -1 -10   12.41    1.11
  -2  -1 -11    0.41    0.39
  -2  -1 -11    1.18    0.59
  -2  -1 -12   64.25    2.80
  -2  -1 -12   64.63    3.33
  -2  -1 -13   25.69    2.19
  -2  -1 -13   28.19    1.86
  -2  -1 -14   28.65    2.42
  -2  -1 -14   31.46    2.02
  -2  -1 -15    4.41    0.94
  -2  -1 -15    5.22    1.10
  -2  -1 -16    1.15    0.62
   2   2 -13    7.94    1.37
   2   2 -12    5.47    1.15
   2   2 -11    0.10    0.58
   2   2 -10   43.07    2.62
   2   2  -9  131.62    4.58
   2   2  -8   69.99    3.02
   2   2  -7   12.42    1.18
  -2  -2   7   12.51    1.20
  -2  -2   6    3.15    0.61
   2   2  -6    3.43    0.66
  -2  -2   5   34.93    1.75
   2   2  -5   35.58    1.74
  -2  -2   4   41.66    1.78
   2   2  -4   39.66    1.70
   2   2  -3  334.41    6.79
   2   2  -3  330.95    6.48
  -2  -2   3  331.69    6.54
   2   2  -2   24.20    1.30
  -2  -2   2   21.53    1.07
   2   2  -2   22.12    1.08
  -2  -2   1   36.35    1.29
   2   2  -1   33.34    1.24
   2   2  -1   36.10    1.57
   2   2   0  189.58    4.12
   2   2   0  182.45    3.64
  -2  -2   0  192.82    4.30
  -2  -2  -1  141.55    2.75
   2   2   1  139.38    3.32
  -2  -2  -1  143.06    3.38
  -2  -2  -2  426.16    6.86
  -2  -2  -2  423.20    7.68
   2   2   2  413.06    7.55
   2   2   2  414.46    6.74
   2   2   3  119.38    2.89
  -2  -2  -3  119.40    2.98
   2   2   3  119.92    2.38
   2   2   3  119.59    2.30
   2   2   4   10.53    0.75
   2   2   4   11.39    0.77
   2   2   4   10.38    0.56
  -2  -2  -4   11.43    0.83
  -2  -2  -4   10.73    0.58
   2   2   4   10.78    0.59
   2   2   5    2.99    0.45
   2   2   5    4.35    0.54
  -2  -2  -5    3.52    0.50
  -2  -2  -5    3.33    0.39
   2   2   6    6.21    0.68
   2   2   6    5.04    0.58
  -2  -2  -6    4.73    0.67
  -2  -2  -6    5.78    0.64
  -2  -2  -6    4.68    0.48
  -2  -2  -7  139.97    3.80
  -2  -2  -7  139.94    3.50
   2   2   7  130.64    3.71
  -2  -2  -7  128.86    3.14
  -2  -2  -8   27.19    1.42
  -2  -2  -8   24.84    1.55
  -2  -2  -8   25.25    1.25
   2   2   8   25.96    1.57
  -2  -2  -9   15.70    1.12
  -2  -2  -9   15.89    1.07
   2   2   9   14.30    1.24
  -2  -2  -9   16.44    1.34
  -2  -2 -10    5.09    0.68
  -2  -2 -10    6.02    0.93
  -2  -2 -10    6.82    0.81
  -2  -2 -11    0.63    0.58
  -2  -2 -11   -0.17    0.36
  -2  -2 -11   -0.01    0.31
  -2  -2 -12   20.02    1.79
  -2  -2 -12   19.76    1.46
  -2  -2 -13   11.57    1.47
  -2  -2 -13   14.37    1.30
  -2  -2 -14   43.16    2.91
  -2  -2 -14   42.17    2.32
  -2  -2 -15    7.25    1.03
  -2  -2 -15    7.85    1.38
  -2  -2 -16    3.62    0.86
   2   3 -12   15.05    1.79
   2   3 -11   20.67    1.98
   2   3 -10   18.06    1.76
   2   3  -9    2.13    0.75
   2   3  -8  232.64    6.31
  -2  -3   7   12.79    1.26
   2   3  -7   14.18    1.30
  -2  -3   6    2.73    0.63
   2   3  -6    2.89    0.58
  -2  -3   5    2.04    0.53
   2   3  -5    1.40    0.46
  -2  -3   4   82.65    2.68
   2   3  -4   85.10    2.69
  -2  -3   3  512.92    9.52
   2   3  -3  536.16    9.49
   2   3  -2   70.68    2.62
  -2  -3   2   66.61    2.06
   2   3  -2   68.84    2.04
   2   3  -1  190.12    3.83
  -2  -3   1  184.68    3.84
   2   3  -1  191.50    4.75
  -2  -3   0   66.04    1.98
   2   3   0   65.24    1.69
   2   3   0   68.45    2.45
  -2  -3  -1   -0.10    0.45
   2   3   1    0.31    0.19
  -2  -3  -1    0.16    0.29
   2   3   1    0.19    0.40
   2   3   2   45.62    1.43
  -2  -3  -2   48.16    1.57
   2   3   2   47.82    1.87
  -2  -3  -2   52.94    2.05
   2   3   3   14.16    0.69
   2   3   3   14.34    0.77
  -2  -3  -3   14.29    0.80
   2   3   3   13.79    0.98
  -2  -3  -3   13.02    1.01
   2   3   4   21.95    1.00
   2   3   4   22.52    0.98
  -2  -3  -4   20.99    1.24
   2   3   4   22.91    1.21
   2   3   4   22.40    0.98
   2   3   5   27.15    1.31
  -2  -3  -5   28.64    1.41
   2   3   5   27.59    1.17
   2   3   5   27.77    1.16
   2   3   5   25.06    1.17
  -2  -3  -6  296.98    6.06
   2   3   6  277.95    5.76
  -2  -3  -6  279.02    5.48
   2   3   6  290.64    5.57
   2   3   6  285.49    5.82
   2   3   7    1.09    0.37
   2   3   7    0.54    0.37
  -2  -3  -7    1.00    0.43
  -2  -3  -7    0.57    0.29
  -2  -3  -7    1.31    0.45
  -2  -3  -8   31.48    1.70
   2   3   8   32.91    1.56
  -2  -3  -8   32.53    1.46
  -2  -3  -8   32.25    1.62
   2   3   8   32.04    1.69
   2   3   9    8.07    0.91
  -2  -3  -9    6.95    0.89
  -2  -3  -9    8.35    0.86
  -2  -3  -9    8.72    0.80
   2   3  10   10.43    1.12
  -2  -3 -10    8.78    1.04
  -2  -3 -10    9.28    0.93
  -2  -3 -10    9.07    0.86
  -2  -3 -11   23.00    1.75
  -2  -3 -11   21.84    1.42
  -2  -3 -11   24.78    1.56
  -2  -3 -12    9.57    1.26
  -2  -3 -12   11.63    1.14
  -2  -3 -13    3.23    0.87
  -2  -3 -13    4.69    0.80
  -2  -3 -14    5.44    1.10
  -2  -3 -14    4.58    0.86
  -2  -3 -15    8.21    1.11
  -2  -3 -15    8.49    1.43
  -2  -3 -16   16.06    1.54
  -2  -3 -16   14.84    1.87
   2   4 -12    2.21    0.92
   2   4 -11    7.75    1.27
   2   4 -10    4.90    1.05
   2   4  -9   20.01    1.78
   2   4  -8    0.04    0.50
   2   4  -7  111.27    3.93
  -2  -4   6  160.92    4.66
   2   4  -6  156.71    4.59
   2   4  -5   11.08    1.09
  -2  -4   5   11.30    1.05
  -2  -4   4   78.82    2.68
   2   4  -4   79.72    2.67
  -2  -4   3  144.63    3.70
   2   4  -3  148.24    4.58
  -2  -4   3  154.35    4.20
   2   4  -3  142.44    3.65
   2   4  -2   19.68    1.49
  -2  -4   2   21.84    1.35
   2   4  -2   19.92    1.04
  -2  -4   2   19.76    1.05
   2   4  -1   25.02    1.64
  -2  -4   1   24.37    1.39
  -2  -4   1   24.01    1.05
   2   4  -1   25.38    1.06
  -2  -4   0   17.84    1.16
   2   4   0   17.47    0.75
   2   4   0   16.34    1.31
  -2  -4  -1  164.74    3.97
   2   4   1  160.74    2.94
   2   4   1  159.48    4.37
  -2  -4  -2   34.75    1.79
   2   4   2   32.32    1.38
  -2  -4  -2   34.60    1.54
   2   4   2   32.08    0.84
   2   4   2   33.96    1.74
   2   4   3   27.38    1.51
   2   4   3   27.09    1.27
  -2  -4  -3   26.68    1.35
  -2  -4  -3   27.07    1.58
   2   4   3   26.71    0.81
   2   4   4    3.83    0.60
  -2  -4  -4    3.79    0.70
   2   4   4    3.40    0.51
   2   4   4    3.11    0.49
   2   4   4    3.81    0.37
   2   4   5  994.57   16.72
   2   4   5 1030.42   17.01
  -2  -4  -5 1010.99   17.25
   2   4   5 1000.04   16.45
   2   4   5  993.20   16.06
   2   4   6  758.73   13.29
   2   4   6  783.82   13.37
   2   4   6  749.72   12.84
   2   4   6  764.74   13.02
  -2  -4  -6  778.06   13.72
   2   4   7    2.16    0.51
   2   4   7    1.00    0.39
   2   4   7    1.14    0.37
  -2  -4  -7    1.50    0.53
   2   4   7    1.94    0.45
  -2  -4  -7    1.94    0.46
  -2  -4  -7    2.36    0.44
  -2  -4  -8   42.59    1.93
   2   4   8   42.98    1.85
  -2  -4  -8   42.87    2.04
  -2  -4  -8   42.81    1.78
   2   4   8   43.92    1.84
   2   4   8   42.82    1.90
  -2  -4  -9    8.36    0.94
  -2  -4  -9    8.79    0.93
   2   4   9    6.96    0.75
   2   4   9    9.15    0.95
  -2  -4  -9    8.52    0.83
  -2  -4 -10    2.30    0.62
   2   4  10    2.15    0.58
  -2  -4 -10    3.15    0.71
  -2  -4 -10    2.83    0.55
  -2  -4 -11    8.67    0.97
  -2  -4 -11    7.74    1.01
  -2  -4 -12    2.45    0.74
  -2  -4 -12    1.85    0.58
  -2  -4 -13    0.93    0.49
  -2  -4 -13    1.71    0.72
  -2  -4 -14    0.00    0.59
  -2  -4 -14   -0.50    0.53
  -2  -4 -15   11.13    1.55
  -2  -4 -15   12.40    1.41
  -2  -4 -16    9.88    1.51
   2   5 -11    1.86    0.75
   2   5 -10    0.53    0.68
  -2  -5  10   -0.84    0.73
  -2  -5   9   31.63    2.49
   2   5  -9   29.70    2.25
   2   5  -8    1.66    0.65
  -2  -5   8    1.60    0.71
   2   5  -7    5.29    0.91
  -2  -5   7    5.38    1.02
  -2  -5   6   25.18    1.94
  -2  -5   6   23.31    1.64
   2   5  -6   24.84    1.71
  -2  -5   5   25.32    1.84
   2   5  -5   22.44    1.51
  -2  -5   5   19.51    1.41
  -2  -5   4   54.49    2.63
  -2  -5   4   52.13    2.19
   2   5  -4   54.01    2.21
  -2  -5   3    6.94    0.73
   2   5  -3    7.21    0.75
  -2  -5   3    8.58    1.03
   2   5  -2  155.56    4.94
  -2  -5   2  152.20    4.42
  -2  -5   2  144.76    3.50
   2   5  -2  148.68    3.53
  -2  -5   1    0.02    0.20
  -2  -5   1    0.42    0.41
   2   5  -1   -0.11    0.40
   2   5  -1    0.17    0.20
  -2  -5   0  192.13    5.01
   2   5   0  191.90    5.43
   2   5   0  197.62    3.67
  -2  -5  -1   26.47    1.58
   2   5   1   28.08    1.81
   2   5   2    4.84    0.80
   2   5   2    4.23    0.60
  -2  -5  -2    4.62    0.77
  -2  -5  -3   16.80    1.23
   2   5   3   16.06    1.10
   2   5   3   15.90    1.27
  -2  -5  -3   15.92    1.36
   2   5   4    2.01    0.18
   2   5   4    1.89    0.46
   2   5   4    2.46    0.53
  -2  -5  -4    2.45    0.59
   2   5   4    2.05    0.49
  -2  -5  -4    2.68    0.68
   2   5   5  226.29    5.30
   2   5   5  237.46    5.13
   2   5   5  229.65    5.51
   2   5   5  224.34    4.14
  -2  -5  -5  225.40    5.76
   2   5   6    0.33    0.21
  -2  -5  -6    0.81    0.56
   2   5   6    0.98    0.47
   2   5   6    0.83    0.42
   2   5   6    0.76    0.37
   2   5   7   17.78    1.22
  -2  -5  -7   18.28    1.41
   2   5   7   18.91    1.34
   2   5   7   17.52    1.17
   2   5   7   17.68    1.01
   2   5   8    2.60    0.58
   2   5   8    1.68    0.43
   2   5   8    2.02    0.57
  -2  -5  -8    0.75    0.48
   2   5   8    1.03    0.33
  -2  -5  -9   18.50    1.30
   2   5   9   17.62    1.24
   2   5   9   16.85    1.19
  -2  -5  -9   17.25    1.39
   2   5   9   16.15    1.32
   2   5   9   17.62    1.26
   2   5  10    5.10    0.82
   2   5  10    7.10    0.81
   2   5  10    7.17    0.89
  -2  -5 -10    6.96    0.91
  -2  -5 -10    5.16    0.79
  -2  -5 -11   -0.06    0.46
   2   5  11    0.31    0.45
  -2  -5 -11   -0.24    0.40
  -2  -5 -12    5.87    0.96
  -2  -5 -12    5.94    0.94
  -2  -5 -13    2.54    0.69
  -2  -5 -13    3.07    0.83
  -2  -5 -14    0.34    0.49
  -2  -5 -14    0.42    0.62
  -2  -5 -15    3.16    0.76
  -2  -5 -15    2.46    0.89
  -2  -5 -16   -0.16    0.73
   2   6 -11   51.95    3.39
   2   6 -10    2.10    0.86
   2   6  -9    0.87    0.66
  -2  -6   8    8.09    1.40
   2   6  -8    6.25    1.09
  -2  -6   7    0.79    0.65
   2   6  -7    0.42    0.50
  -2  -6   6    2.05    0.80
   2   6  -6    2.69    0.69
   2   6  -5   32.96    1.88
  -2  -6   5   35.56    2.40
  -2  -6   5   30.59    1.82
   2   6  -4   91.75    3.09
  -2  -6   4  101.57    4.02
  -2  -6   4   93.96    3.10
   2   6  -3  129.47    3.50
  -2  -6   3  134.98    4.65
  -2  -6   3  125.56    3.47
  -2  -6   2  125.21    4.35
   2   6  -2  125.59    3.15
  -2  -6   2  118.19    3.06
   2   6  -1   12.34    0.73
  -2  -6   1   12.86    1.35
  -2  -6   1   10.81    0.68
  -2  -6   0    2.68    0.70
  -2  -6  -1    5.47    0.89
   2   6   2   92.22    3.13
  -2  -6  -2   86.18    3.30
   2   6   2   93.19    3.58
   2   6   3    3.14    0.59
  -2  -6  -3    2.77    0.62
   2   6   3    4.37    0.76
   2   6   4   30.04    1.72
  -2  -6  -4   29.66    1.82
   2   6   4   31.44    1.63
   2   6   4   29.59    1.88
   2   6   5   28.64    1.57
  -2  -6  -5   29.55    1.94
   2   6   5   27.47    1.67
   2   6   5   30.73    1.86
   2   6   6    4.78    0.77
   2   6   6    4.82    0.73
   2   6   6    3.80    0.32
  -2  -6  -6    5.01    0.89
   2   6   6    5.15    0.76
   2   6   7    4.20    0.46
   2   6   7    2.83    0.66
  -2  -6  -7    3.95    0.81
   2   6   7    3.81    0.63
   2   6   7    4.34    0.71
   2   6   8  240.61    5.76
   2   6   8  239.78    5.77
   2   6   8  231.40    6.07
   2   6   8  231.15    4.99
  -2  -6  -8  236.89    6.30
   2   6   9  196.55    5.08
   2   6   9  198.73    5.58
   2   6   9  201.57    4.79
  -2  -6  -9  199.23    5.67
   2   6   9  203.32    5.28
   2   6  10    3.98    0.75
   2   6  10    3.35    0.65
  -2  -6 -10    4.55    0.86
   2   6  10    5.06    1.10
   2   6  10    4.31    0.84
  -2  -6 -11    3.33    0.77
   2   6  11    0.84    0.50
  -2  -6 -11    1.42    0.53
  -2  -6 -12    4.25    0.87
  -2  -6 -12    4.91    0.88
  -2  -6 -13    0.44    0.48
  -2  -6 -13    0.21    0.43
  -2  -6 -14    1.45    0.69
  -2  -6 -14    1.94    0.69
  -2  -6 -15    0.46    0.67
  -2  -6 -16    2.59    1.04
  -2  -7   7    1.05    0.88
   2   7  -7    1.62    0.59
  -2  -7   6    4.17    1.08
   2   7  -6    5.96    0.95
   2   7  -5    0.58    0.47
  -2  -7   5    1.04    0.73
   2   7  -4    0.14    0.38
  -2  -7   4    0.56    0.65
   2   7  -3   81.55    2.66
  -2  -7   3   79.94    3.82
  -2  -7   2    0.94    0.30
  -2  -7   2    1.31    0.68
  -2  -7   1   65.57    3.29
  -2  -7   0    0.62    0.63
  -2  -7  -1    0.29    0.69
  -2  -7  -2   46.10    2.59
  -2  -7  -3    4.30    0.86
  -2  -7  -4    3.72    0.81
   2   7   4    6.67    0.84
   2   7   5    5.66    0.84
   2   7   5    4.44    0.70
   2   7   6    0.04    0.42
   2   7   6   -0.05    0.33
   2   7   7    5.48    0.83
   2   7   8    0.12    0.21
  -2  -7  -8    0.88    0.66
   2   7   8    0.96    0.48
   2   7   9    5.80    0.90
   2   7   9    4.64    0.59
  -2  -7  -9    5.55    1.02
   2   7  10    5.02    0.84
  -2  -7 -10    4.48    0.94
   2   7  11    0.57    0.45
  -2  -7 -11    0.63    0.67
  -2  -7 -12    0.95    0.63
  -2  -7 -13    3.43    0.91
  -2  -8   5   18.10    2.12
  -2  -8   4    5.11    1.19
  -2  -8   3    4.10    1.13
  -2  -8   2    6.75    1.28
  -2  -8   1   36.86    2.69
  -2  -8   0   27.11    2.24
  -2  -8  -1   63.13    3.41
  -2  -8  -2    0.00    0.61
  -2  -8  -3    5.90    1.05
   2   8   4    3.41    0.69
  -2  -8  -4    2.38    0.86
   2   8   5    8.57    1.03
   2   8   6    0.13    0.43
   2   8   7    0.87    0.54
   2   8   8    3.45    0.75
   2   8   9   -0.20    0.36
   2   8  10    2.51    0.68
   2   8  11    1.18    0.54
  -2  -8 -11    1.04    0.73
  -2  -8 -12   21.52    1.88
   2   8  12   19.97    1.77
  -2  -9   2    1.62    0.84
  -2  -9   1    7.10    1.42
  -2  -9   0    0.62    0.67
  -2  -9  -1    2.26    0.90
  -2  -9  -2    0.78    0.81
  -2  -9  -3    5.41    1.23
  -2  -9  -4    1.99    1.09
   2   9   4    0.93    0.52
   2   9   5   19.70    1.68
   2   9   6    5.00    0.86
   2   9   7    1.01    0.55
   2   9   8   -0.54    0.53
   2   9   9   -0.23    0.44
   2   9  10    3.30    0.74
   2   9  11    0.03    0.44
  -2 -10  -1    7.56    1.50
  -2 -10  -2    1.21    0.86
  -2 -10  -3    4.09    1.25
   2  10   4    1.72    0.71
  -2 -10  -4    0.68    0.78
   2  10   5    4.22    0.93
   2  10   6    0.71    0.50
   2  10   7    1.36    0.69
  -3   9   4    0.15    0.54
  -3   9   3   -0.96    0.70
  -3   9   2    1.81    0.72
  -3   9   1    0.46    0.56
  -3   9   0   12.16    1.47
  -3   8   8    5.23    1.01
  -3   8   7    4.36    0.98
  -3   8   6    0.79    0.65
  -3   8   5   27.35    2.05
  -3   8   4   19.10    1.66
  -3   8   3   91.59    3.77
  -3   8   2   11.24    1.33
  -3   8   1    0.37    0.59
  -3   8   0    1.75    0.74
  -3   8  -1   18.12    1.62
   3  -8   1   17.74    2.13
   3  -8   2    1.79    0.94
   3  -8   3    0.80    0.75
   3  -7 -12    0.23    0.62
   3  -7 -11    0.31    0.52
   3  -7 -10    6.85    1.07
   3  -7  -9    1.80    0.67
  -3   7   9    1.89    0.77
  -3   7   8   -0.91    0.68
   3  -7  -8    0.31    0.50
  -3   7   7   15.94    1.55
   3  -7  -7   16.27    1.33
   3  -7  -6    4.02    0.75
  -3   7   6    4.28    0.88
   3  -7  -5   20.46    1.40
  -3   7   5   20.35    1.65
   3  -7  -4    1.09    0.47
  -3   7   4    0.65    0.49
  -3   7   4    1.06    0.60
  -3   7   3   14.12    1.35
  -3   7   3   14.52    1.37
   3  -7  -3   16.95    1.23
  -3   7   2   32.70    2.03
   3  -7  -2   34.20    1.75
  -3   7   1   26.94    1.82
   3  -7   0   45.07    2.14
   3  -7   0   51.87    3.23
  -3   7   0   51.54    2.53
   3  -7   1   -0.28    0.73
   3  -7   2    0.63    0.65
   3  -7   3   31.64    2.60
   3  -7   4    1.99    0.90
   3  -7   5    2.38    0.98
   3  -7   6    8.40    1.52
   3  -6 -14    6.32    1.25
   3  -6 -13   25.29    2.19
   3  -6 -12   25.28    2.09
   3  -6 -11   15.78    1.64
   3  -6 -10    1.86    0.62
   3  -6  -9   -0.01    0.53
  -3   6   8   45.73    2.55
   3  -6  -8   48.97    2.46
   3  -6  -7    0.16    0.37
  -3   6   7    0.99    0.59
  -3   6   6    3.90    0.77
  -3   6   6    3.88    0.51
   3  -6  -6    4.32    0.75
   3  -6  -5    4.93    0.75
  -3   6   5    3.70    0.60
  -3   6   5    2.54    0.66
   3  -6  -4    8.96    0.93
  -3   6   4    7.69    0.87
  -3   6   4    8.11    0.98
   3  -6  -3   82.75    2.81
  -3   6   3   72.84    2.91
   3  -6  -2   11.15    0.99
  -3   6   2   11.27    1.10
  -3   6   1    9.61    1.01
  -3   6   0  169.98    4.70
   3  -6   0  161.22    5.58
   3  -6   1    1.41    0.48
   3  -6   1    1.90    0.77
   3  -6   2   50.45    2.34
   3  -6   2   56.41    3.09
   3  -6   3   75.73    3.71
   3  -6   3   69.68    2.89
   3  -6   4    0.05    0.64
   3  -6   5   16.19    1.82
   3  -6   6    1.90    0.85
   3  -6   7    8.61    1.42
   3  -6   8    1.22    0.72
   3  -6   9   43.78    3.18
   3  -5 -14    0.90    0.68
   3  -5 -13   -0.78    0.74
   3  -5 -12    2.04    0.79
   3  -5 -11    0.26    0.53
   3  -5 -10    1.77    0.72
   3  -5  -9    0.63    0.58
   3  -5  -8   13.29    1.30
  -3   5   7    8.52    1.04
   3  -5  -7    8.17    1.00
  -3   5   6   -0.14    0.45
  -3   5   6    0.22    0.23
   3  -5  -6    0.36    0.42
  -3   5   5   12.62    0.81
   3  -5  -5   12.56    1.10
  -3   5   5   12.84    1.15
  -3   5   4   78.03    2.49
   3  -5  -4   85.26    2.90
  -3   5   4   80.58    2.90
   3  -5  -3   10.40    0.98
  -3   5   3   10.08    0.98
   3  -5  -2    9.53    0.91
  -3   5   2    9.61    0.95
  -3   5   1  140.37    3.89
   3  -5   0    0.27    0.57
  -3   5   0    0.42    0.39
   3  -5   1  245.59    6.60
   3  -5   2   53.67    2.36
   3  -5   2   52.34    2.76
   3  -5   3   34.83    1.93
   3  -5   3   36.05    2.30
   3  -5   4   33.89    1.98
   3  -5   4   34.41    2.28
   3  -5   5  136.90    4.90
   3  -5   6   64.54    3.29
   3  -5   7    6.49    1.13
   3  -5   8    7.26    1.24
   3  -5   9    1.33    0.78
   3  -5  10    0.17    0.64
   3  -5  11    6.67    1.34
   3  -4 -14    3.24    0.99
   3  -4 -13    1.45    0.72
   3  -4 -12    1.16    0.72
   3  -4 -11    2.41    0.78
   3  -4 -10   29.99    2.09
   3  -4  -9    3.01    0.74
   3  -4  -8   12.94    1.31
   3  -4  -7    5.80    0.84
  -3   4   6   -0.11    0.42
   3  -4  -6   -0.12    0.38
  -3   4   5   13.52    1.14
  -3   4   5   13.69    0.59
   3  -4  -5   14.20    1.16
   3  -4  -5   16.26    1.17
  -3   4   4  224.13    6.11
  -3   4   4  213.99    5.13
   3  -4  -4  220.11    5.28
  -3   4   3   38.68    2.21
  -3   4   3   37.84    1.71
   3  -4  -3   38.29    1.81
  -3   4   2   94.61    3.54
  -3   4   2   91.79    2.79
  -3   4   1    0.31    0.39
  -3   4   1    0.25    0.32
  -3   4   0  118.54    3.87
  -3   4   0  115.17    3.18
  -3   4  -1   29.78    1.79
   3  -4   1   30.97    1.87
  -3   4  -2  175.90    4.83
   3  -4   2  172.64    5.03
   3  -4   3  228.26    5.72
  -3   4  -3  242.09    5.85
   3  -4   3  229.59    6.12
   3  -4   4   10.42    1.08
   3  -4   4   10.36    1.15
   3  -4   5   17.95    1.57
   3  -4   5   18.42    1.47
   3  -4   6   54.31    2.72
   3  -4   7    5.98    1.01
   3  -4   8    2.74    0.78
   3  -4   9   33.30    2.37
   3  -4  10   19.07    1.88
   3  -4  11   12.99    1.66
   3  -4  12   22.46    2.23
   3  -3 -14    0.18    0.64
   3  -3 -13   11.64    1.58
   3  -3 -12   60.35    3.30
   3  -3 -11    0.95    0.73
   3  -3 -10    7.96    1.13
   3  -3  -9    2.68    0.74
   3  -3  -8   47.73    2.48
  -3   3   7   -0.12    0.37
   3  -3  -7    0.53    0.46
   3  -3  -6   27.37    1.53
   3  -3  -6   29.63    1.73
   3  -3  -5  126.56    3.52
   3  -3  -5  125.96    3.76
   3  -3  -4   84.70    2.86
  -3   3   4   86.47    1.70
  -3   3   4   84.53    2.67
   3  -3  -4   81.46    2.61
  -3   3   3   36.96    2.03
  -3   3   3   38.17    1.62
   3  -3  -3   34.69    1.71
   3  -3  -3   38.00    1.59
  -3   3   2  366.92    7.97
  -3   3   2  371.53    7.01
  -3   3   1    1.14    0.53
  -3   3   1    1.54    0.40
  -3   3   0  307.74    5.87
  -3   3   0  297.50    6.71
   3  -3   1   13.81    1.17
  -3   3  -1   12.66    1.06
  -3   3  -2  203.01    4.93
   3  -3   2  200.31    5.09
   3  -3   3   26.99    1.62
  -3   3  -3   29.43    1.55
   3  -3   4    4.48    0.72
   3  -3   4    4.80    0.76
   3  -3   5   88.56    3.22
   3  -3   5   84.76    3.12
   3  -3   6    9.31    1.09
   3  -3   6    8.74    1.04
   3  -3   7   32.58    1.99
   3  -3   8   69.78    3.06
   3  -3   9   18.73    1.61
   3  -3  10    2.88    0.78
   3  -3  11   11.81    1.44
   3  -3  12    2.39    0.79
   3  -3  13    0.55    0.66
   3  -3  14    2.00    0.91
   3  -2 -14    8.94    1.54
   3  -2 -13   11.74    1.61
   3  -2 -12   45.08    2.87
   3  -2 -11    1.66    0.69
   3  -2 -10   23.96    1.92
   3  -2  -9   38.84    2.31
   3  -2  -8   50.11    2.51
  -3   2   7   10.44    1.11
   3  -2  -7   10.44    1.12
   3  -2  -7   10.88    1.01
   3  -2  -6    8.55    0.86
  -3   2   6    8.67    0.97
   3  -2  -6    8.00    0.96
   3  -2  -5   90.68    2.76
  -3   2   5   86.82    3.01
   3  -2  -5   85.92    2.98
   3  -2  -4   66.14    2.18
   3  -2  -4   72.00    2.57
  -3   2   3   80.40    1.66
   3  -2  -3   83.38    2.37
   3  -2  -3   84.35    2.70
  -3   2   3   86.24    2.43
  -3   2   2  117.01    2.82
  -3   2   2  111.96    2.36
   3  -2  -2  107.63    2.74
   3  -2  -2  115.19    3.19
  -3   2   1  551.16   10.28
  -3   2   1  551.96    9.37
  -3   2   0   66.41    2.34
  -3   2   0   67.27    1.83
  -3   2  -1  123.73    3.37
  -3   2  -1  129.27    2.79
  -3   2  -2  410.21    7.86
   3  -2   2  421.40    8.02
  -3   2  -3   88.27    2.60
   3  -2   3   91.17    2.78
   3  -2   4  238.14    5.62
   3  -2   4  227.13    5.21
   3  -2   5    0.98    0.51
   3  -2   5    1.13    0.46
   3  -2   6    4.25    0.74
   3  -2   6    3.44    0.65
   3  -2   7  117.83    3.64
   3  -2   8  201.74    5.27
   3  -2   9    0.00    0.39
   3  -2  10    2.88    0.70
   3  -2  11    0.15    0.54
   3  -2  12    0.84    0.53
   3  -2  13   -0.05    0.54
   3  -2  14   32.81    2.46
   3  -2  15   -0.21    0.71
   3  -1 -13    1.91    0.85
   3  -1 -12    0.07    0.61
   3  -1 -11   11.75    0.68
   3  -1 -11   12.08    1.46
   3  -1 -10  140.01    3.07
   3  -1 -10  139.26    5.00
   3  -1  -9    0.45    0.56
   3  -1  -9    0.54    0.25
   3  -1  -8   62.38    1.60
   3  -1  -8   62.86    2.85
  -3   1   7    0.92    0.45
   3  -1  -7    0.52    0.40
   3  -1  -7    0.57    0.46
   3  -1  -7    0.33    0.18
   3  -1  -6   35.81    0.87
  -3   1   6   38.67    2.00
   3  -1  -6   36.88    1.73
   3  -1  -6   36.40    1.94
  -3   1   5    1.03    0.45
   3  -1  -5    1.45    0.41
   3  -1  -5    0.71    0.12
   3  -1  -5    0.25    0.44
  -3   1   4    9.28    0.88
   3  -1  -4   10.52    0.98
   3  -1  -4    8.13    0.34
   3  -1  -4    9.74    0.78
   3  -1  -3   96.68    2.55
   3  -1  -3  102.20    2.99
  -3   1   3   97.12    2.02
  -3   1   2   34.94    1.05
   3  -1  -2   36.00    1.61
   3  -1  -2   34.58    1.27
  -3   1   1   32.20    1.05
   3  -1  -1   29.86    1.06
  -3   1   0  365.89    6.28
  -3   1   0  351.46    6.70
   3  -1   0  346.61    5.95
  -3   1   0  350.41    5.98
  -3   1  -1  734.36   11.93
  -3   1  -1  715.93   12.07
  -3   1  -1  712.80   11.29
  -3   1  -2  190.74    4.00
   3  -1   2  196.37    4.10
  -3   1  -3  461.33    8.18
   3  -1   3  491.52    8.44
   3  -1   4  288.85    5.65
   3  -1   5   11.27    1.04
   3  -1   5   12.69    0.88
   3  -1   6   77.76    2.92
   3  -1   6   77.68    2.42
   3  -1   7    1.34    0.52
   3  -1   7    0.17    0.34
   3  -1   8   67.14    2.41
   3  -1   9   13.50    1.11
   3  -1  10   59.32    2.50
   3  -1  11   -0.08    0.40
  -3   1 -12   10.35    1.30
   3  -1  12   11.81    1.27
  -3   1 -13    2.83    0.73
   3  -1  13    2.33    0.73
  -3   1 -14   -0.35    0.50
   3  -1  14    0.93    0.71
   3  -1  15   -0.33    0.62
   3   0 -13    1.67    0.90
   3   0 -12    0.66    0.70
   3   0 -11   25.33    2.08
   3   0 -10   97.40    3.07
   3   0 -10  102.79    4.14
   3   0  -9   70.45    2.41
   3   0  -9   73.55    3.28
   3   0  -8   71.60    2.31
   3   0  -8   69.44    2.99
  -3   0   7    7.81    0.98
   3   0  -7    7.10    0.94
   3   0  -7    7.66    0.68
  -3   0   6   44.19    2.15
   3   0  -6   42.71    2.11
   3   0  -6   39.47    1.46
   3   0  -5   28.15    1.11
  -3   0   5   27.19    1.60
   3   0  -5   30.36    1.68
   3   0  -4   74.43    2.61
   3   0  -4   73.12    1.89
  -3   0   4   77.49    2.65
  -3   0   3  325.54    5.85
   3   0  -3  317.79    5.66
  -3   0   3  323.78    6.66
   3   0  -3  330.19    6.70
   3   0  -2  478.64    8.03
   3   0  -2  494.79    8.99
  -3   0   2  482.68    8.21
  -3   0   1  150.76    3.13
   3   0  -1  145.21    3.00
   3   0   0  196.10    3.79
  -3   0   0  191.18    3.83
   3   0   0  188.82    3.40
   3   0   1    8.87    0.62
   3   0   1    9.94    0.36
  -3   0  -1    9.45    0.67
  -3   0  -2   58.13    1.48
  -3   0  -2   59.06    1.82
  -3   0  -3   56.69    1.89
  -3   0  -3   53.43    1.31
   3   0   3   55.27    1.42
  -3   0  -4    1.16    0.41
   3   0   4    1.57    0.28
   3   0   5  424.48    8.61
  -3   0  -5  453.06    8.28
   3   0   5  428.27    7.44
   3   0   6  570.82   10.92
  -3   0  -6  581.03   10.51
   3   0   6  558.84    9.60
  -3   0  -7   -0.06    0.36
   3   0   7   -0.52    0.48
   3   0   7    0.26    0.30
  -3   0  -8   36.48    1.89
   3   0   8   39.27    2.17
  -3   0  -9    0.38    0.37
  -3   0 -10   -0.05    0.39
  -3   0 -11   10.13    1.14
  -3   0 -12   16.60    1.47
  -3   0 -13   66.93    3.21
  -3   0 -14   21.22    1.87
  -3   0 -15    3.20    0.86
   3   1 -13    4.21    1.07
   3   1 -12   12.75    1.62
   3   1 -11   -0.28    0.67
   3   1 -10   23.48    1.93
   3   1  -9   63.72    2.64
   3   1  -9   71.37    3.25
   3   1  -8    4.80    0.72
   3   1  -8    4.38    0.82
   3   1  -7  261.85    5.93
  -3  -1   7  284.46    6.84
   3   1  -7  259.18    6.50
  -3  -1   6    4.42    0.77
   3   1  -6    3.01    0.64
   3   1  -6    2.45    0.53
  -3  -1   5   27.37    1.59
   3   1  -5   27.53    1.60
   3   1  -5   28.05    1.41
  -3  -1   4  718.14   12.79
   3   1  -4  705.32   12.72
   3   1  -4  696.47   12.15
  -3  -1   3   62.89    2.26
   3   1  -3   63.39    2.26
   3   1  -3   58.40    1.94
  -3  -1   2   12.65    0.88
   3   1  -2   11.68    0.79
   3   1  -2   11.78    0.93
  -3  -1   1  150.34    3.51
   3   1  -1  152.67    3.39
   3   1  -1  150.55    3.63
   3   1   0   41.29    1.47
  -3  -1   0   42.53    1.56
  -3  -1  -1   44.92    1.62
   3   1   1   45.22    1.54
   3   1   2    0.72    0.32
  -3  -1  -2    0.15    0.35
   3   1   3  110.57    2.84
  -3  -1  -3  107.95    2.83
   3   1   4   16.10    0.99
  -3  -1  -4   17.51    1.04
  -3  -1  -4   16.17    0.50
  -3  -1  -5  159.20    2.99
   3   1   5  161.90    4.13
  -3  -1  -5  169.59    3.94
   3   1   5  161.99    2.89
  -3  -1  -6    4.65    0.41
   3   1   6    3.75    0.63
  -3  -1  -6    5.23    0.68
  -3  -1  -7  204.25    4.82
  -3  -1  -7  191.18    3.98
   3   1   7  201.99    5.16
  -3  -1  -8    1.50    0.33
  -3  -1  -8    2.82    0.60
   3   1   8    2.28    0.61
  -3  -1  -9   63.06    2.53
  -3  -1  -9   57.00    2.02
  -3  -1 -10  137.72    4.17
  -3  -1 -10  131.23    3.57
  -3  -1 -11    6.76    0.79
  -3  -1 -11    7.90    1.02
  -3  -1 -12    1.50    0.57
  -3  -1 -13   35.05    2.26
  -3  -1 -14   16.56    1.55
  -3  -1 -15   -0.15    0.55
  -3  -1 -16    0.44    0.56
   3   2 -12   17.02    1.88
   3   2 -11   78.62    3.87
   3   2 -10   20.58    1.87
   3   2  -9    2.59    0.75
   3   2  -8    6.30    0.99
   3   2  -8    7.69    1.00
   3   2  -7   21.87    1.54
   3   2  -7   22.77    1.65
  -3  -2   6    7.50    0.92
   3   2  -6    6.70    0.88
   3   2  -6    6.74    0.85
   3   2  -5  358.22    7.70
  -3  -2   5  372.79    7.91
   3   2  -5  361.37    7.71
  -3  -2   4   66.29    2.48
   3   2  -4   65.05    2.45
   3   2  -4   70.98    2.58
   3   2  -3   10.16    0.91
   3   2  -3   10.39    0.93
  -3  -2   3    9.16    0.86
  -3  -2   2  101.70    2.92
   3   2  -2  103.36    2.90
   3   2  -2  104.60    3.01
   3   2  -1    2.31    0.47
  -3  -2   1    1.65    0.53
   3   2  -1    2.23    0.49
   3   2   0   54.12    1.94
   3   2   0   54.76    1.84
  -3  -2   0   57.35    2.12
  -3  -2  -1    4.15    0.68
   3   2   1    4.68    0.59
  -3  -2  -2   42.62    1.73
  -3  -2  -2   43.89    1.07
   3   2   2   43.08    1.65
   3   2   3   77.84    1.64
   3   2   3   77.92    2.34
  -3  -2  -3   74.86    2.42
   3   2   4  225.95    4.82
  -3  -2  -4  219.91    4.91
   3   2   4  220.00    3.89
   3   2   5    1.22    0.42
   3   2   5    1.18    0.37
  -3  -2  -5    0.25    0.36
   3   2   5    0.95    0.18
  -3  -2  -5    0.35    0.18
   3   2   6    4.01    0.57
   3   2   6    4.30    0.63
  -3  -2  -6    5.08    0.67
  -3  -2  -6    3.56    0.38
  -3  -2  -7  164.57    4.14
  -3  -2  -7  153.87    3.35
   3   2   7  157.81    4.28
  -3  -2  -8  109.41    3.34
  -3  -2  -8  106.48    2.74
   3   2   8  114.84    3.65
  -3  -2  -9  223.56    5.52
  -3  -2  -9  223.86    4.87
   3   2   9  237.58    6.02
  -3  -2 -10    6.71    0.71
  -3  -2 -10    8.93    1.00
  -3  -2 -11   -0.07    0.34
  -3  -2 -11    1.20    0.57
  -3  -2 -12    6.83    0.85
  -3  -2 -12    8.02    1.08
  -3  -2 -13   21.56    1.69
  -3  -2 -14    2.87    0.75
  -3  -2 -15    1.89    0.71
  -3  -2 -16   12.02    1.44
  -3  -2 -17    1.04    0.75
   3   3 -12    7.10    1.35
   3   3 -11    4.53    1.11
   3   3 -10   43.82    2.76
   3   3  -9   16.87    1.63
   3   3  -8   21.20    1.74
   3   3  -7   29.64    1.98
   3   3  -7   27.34    1.84
   3   3  -6   40.97    2.28
  -3  -3   6   45.09    2.30
   3   3  -6   43.63    2.23
   3   3  -5  123.54    4.06
  -3  -3   5  120.39    3.82
   3   3  -5  123.49    3.77
   3   3  -4   35.41    1.99
  -3  -3   4   33.58    1.73
   3   3  -4   32.14    1.67
  -3  -3   3  200.22    4.82
   3   3  -3  203.99    4.77
   3   3  -3  210.42    5.34
  -3  -3   2   59.08    2.12
   3   3  -2   63.08    2.12
   3   3  -2   64.43    2.56
   3   3  -1 1283.73   20.76
   3   3  -1 1300.91   21.62
   3   3   0    9.25    0.72
   3   3   0    9.10    0.93
  -3  -3   0   10.46    1.06
   3   3   1    0.33    0.27
   3   3   1    0.63    0.43
  -3  -3  -1   -0.13    0.28
  -3  -3  -1    0.26    0.46
  -3  -3  -2   63.52    1.78
   3   3   2   68.69    2.39
  -3  -3  -2   68.82    2.47
  -3  -3  -3  156.46    3.22
   3   3   3  155.93    3.97
  -3  -3  -3  161.97    4.17
   3   3   4   67.63    1.60
   3   3   4   72.69    2.40
   3   3   4   69.07    1.80
  -3  -3  -4   72.10    2.54
  -3  -3  -5    5.70    0.78
   3   3   5    5.57    0.64
   3   3   5    5.07    0.63
   3   3   5    5.17    0.42
   3   3   5    5.53    0.48
   3   3   6    3.85    0.46
   3   3   6    3.99    0.58
   3   3   6    4.16    0.61
   3   3   6    4.17    0.43
  -3  -3  -6    4.04    0.68
   3   3   7    3.60    0.58
   3   3   7    2.78    0.52
  -3  -3  -7    3.59    0.45
  -3  -3  -7    4.56    0.74
   3   3   8    6.35    0.77
   3   3   8    5.88    0.80
  -3  -3  -8    5.89    0.82
  -3  -3  -8    5.38    0.56
  -3  -3  -9   13.80    1.19
  -3  -3  -9   13.29    0.93
   3   3   9   17.20    1.35
  -3  -3 -10   45.01    1.85
  -3  -3 -10   44.12    2.19
  -3  -3 -11    3.15    0.71
  -3  -3 -11    3.17    0.55
  -3  -3 -12   45.89    2.39
  -3  -3 -13   17.36    1.55
  -3  -3 -14   13.42    1.41
  -3  -3 -15   -0.30    0.61
  -3  -3 -16    1.53    0.67
   3   4 -11   19.10    2.01
   3   4 -10    4.25    1.00
   3   4  -9    1.06    0.69
   3   4  -8    4.82    0.93
   3   4  -7   32.72    2.07
  -3  -4   6  122.98    4.11
   3   4  -6  120.88    4.00
  -3  -4   5   41.97    2.15
   3   4  -5   44.27    2.16
  -3  -4   4    8.50    0.92
   3   4  -4    9.39    0.95
   3   4  -4   10.74    1.23
   3   4  -3    2.93    0.70
  -3  -4   3    2.66    0.55
   3   4  -3    3.04    0.54
   3   4  -2   18.57    1.11
  -3  -4   2   16.78    1.08
   3   4  -2   17.38    1.42
  -3  -4   1   93.71    2.89
   3   4  -1   92.30    2.56
   3   4  -1   94.81    3.41
  -3  -4   0   55.06    2.04
   3   4   0   54.23    1.74
   3   4   0   55.10    2.43
  -3  -4  -1  102.43    3.52
  -3  -4  -1  102.34    2.88
   3   4   1  107.18    3.47
   3   4   1  101.69    2.50
   3   4   2    0.19    0.23
  -3  -4  -2    0.84    0.63
   3   4   2   -0.05    0.36
  -3  -4  -2    0.07    0.34
  -3  -4  -3   12.19    0.87
   3   4   3   12.71    1.08
  -3  -4  -3   14.52    1.26
  -3  -4  -4    0.15    0.43
  -3  -4  -4    0.44    0.28
   3   4   4    0.42    0.27
   3   4   4    0.71    0.29
   3   4   4    0.54    0.31
   3   4   4    1.29    0.44
   3   4   5    3.15    0.45
   3   4   5    4.54    0.49
  -3  -4  -5    3.04    0.63
   3   4   5    4.53    0.65
   3   4   5    3.94    0.49
   3   4   6   28.90    1.57
   3   4   6   28.31    1.25
   3   4   6   29.34    1.29
  -3  -4  -6   29.12    1.71
   3   4   6   29.65    1.40
   3   4   7    8.25    0.73
  -3  -4  -7    7.95    0.94
   3   4   7    8.76    0.88
   3   4   7    8.37    0.81
   3   4   7    8.11    0.71
   3   4   8    5.49    0.66
  -3  -4  -8    5.03    0.81
   3   4   8    5.96    0.77
   3   4   8    5.70    0.75
   3   4   8    5.04    0.62
  -3  -4  -9    2.14    0.60
   3   4   9    2.18    0.55
   3   4   9    3.02    0.63
   3   4   9    2.13    0.49
  -3  -4  -9    1.80    0.43
  -3  -4 -10    0.10    0.43
   3   4  10    0.65    0.43
  -3  -4 -10    0.57    0.35
  -3  -4 -11    7.44    0.83
  -3  -4 -11    8.16    1.05
  -3  -4 -12    3.81    0.83
  -3  -4 -13    8.30    1.19
  -3  -4 -14    1.38    0.70
  -3  -4 -15   -0.10    0.50
  -3  -4 -16    1.35    0.63
   3   5 -11   14.63    1.77
   3   5 -10   19.36    1.94
   3   5  -9   47.78    2.90
   3   5  -8    6.97    1.12
   3   5  -7   97.85    3.84
   3   5  -6   57.05    2.69
  -3  -5   5   34.38    2.22
  -3  -5   5   27.70    1.76
   3   5  -5   30.62    1.83
  -3  -5   4   18.36    1.55
  -3  -5   4   17.49    1.29
   3   5  -4   17.28    1.29
  -3  -5   3   14.59    1.32
  -3  -5   3   13.77    1.07
   3   5  -3   15.18    1.11
  -3  -5   2  147.66    4.37
  -3  -5   2  146.15    3.71
   3   5  -2  147.89    3.71
  -3  -5   1   -0.41    0.46
   3   5  -1    0.03    0.25
   3   5  -1    0.15    0.41
   3   5   0    7.28    1.00
  -3  -5   0    6.35    0.83
   3   5   0    6.09    0.55
   3   5   1    0.76    0.22
  -3  -5  -1    1.05    0.46
   3   5   1    1.70    0.61
  -3  -5  -2   12.95    1.33
  -3  -5  -2   11.24    0.99
   3   5   2   12.59    1.22
   3   5   2   11.99    0.61
   3   5   3    3.60    0.36
   3   5   3    3.92    0.73
  -3  -5  -3    2.60    0.57
  -3  -5  -3    3.71    0.78
   3   5   4    5.34    0.45
   3   5   4    5.98    0.86
  -3  -5  -4    4.93    0.68
   3   5   4    5.97    0.64
  -3  -5  -4    4.79    0.91
   3   5   5   29.60    1.74
   3   5   5   26.13    1.33
   3   5   5   25.21    1.32
  -3  -5  -5   24.33    1.76
   3   5   5   25.65    1.09
   3   5   6   18.65    1.37
  -3  -5  -6   16.57    1.43
   3   5   6   16.87    1.09
   3   5   6   16.74    1.09
   3   5   6   17.79    0.99
   3   5   7    0.96    0.34
   3   5   7    0.31    0.33
   3   5   7    1.18    0.41
  -3  -5  -7    0.04    0.54
   3   5   7    1.42    0.50
   3   5   8   24.33    1.53
   3   5   8   24.20    1.42
   3   5   8   24.56    1.42
  -3  -5  -8   25.65    1.78
   3   5   8   23.41    1.37
   3   5   9   41.85    2.06
   3   5   9   42.97    1.99
  -3  -5  -9   41.12    2.29
   3   5   9   42.29    1.94
   3   5   9   39.73    1.95
   3   5  10    3.30    0.67
   3   5  10    3.43    0.68
  -3  -5 -10    4.14    0.78
  -3  -5 -11    1.55    0.67
   3   5  11    0.73    0.51
  -3  -5 -12    3.25    0.79
   3   5  12    1.09    0.58
  -3  -5 -13   17.74    1.68
  -3  -5 -14    0.09    0.58
  -3  -5 -15   15.73    1.69
   3   6 -10   10.52    1.52
   3   6  -9    8.34    1.29
   3   6  -8    2.09    0.76
  -3  -6   8    2.45    0.94
  -3  -6   7    4.68    1.14
   3   6  -7    3.02    0.72
  -3  -6   6   12.60    1.53
   3   6  -6   15.12    1.39
  -3  -6   5   11.86    1.18
  -3  -6   5   13.80    1.52
   3   6  -5   12.08    1.19
  -3  -6   4   67.64    3.24
  -3  -6   4   62.19    2.57
   3   6  -4   67.30    2.62
  -3  -6   3  167.84    5.29
  -3  -6   3  160.30    4.29
   3   6  -3  174.17    4.39
   3   6  -2    7.65    0.73
  -3  -6   2    6.15    0.99
  -3  -6   1   15.87    1.42
   3   6  -1   16.98    0.96
  -3  -6   0   81.93    3.26
   3   6   0   88.89    2.19
   3   6   1    0.17    0.18
  -3  -6  -1    0.38    0.47
  -3  -6  -2    7.89    0.97
  -3  -6  -3    0.55    0.45
   3   6   4    3.47    0.57
  -3  -6  -4    4.92    0.77
  -3  -6  -4    4.66    0.91
  -3  -6  -5   26.17    1.97
   3   6   5   27.05    1.52
   3   6   5   25.64    1.49
   3   6   5   27.07    0.85
  -3  -6  -6    1.42    0.67
   3   6   6    1.65    0.28
   3   6   6    1.23    0.43
   3   6   6    1.51    0.49
   3   6   7    5.10    0.54
  -3  -6  -7    4.72    1.00
   3   6   7    4.50    0.66
   3   6   7    5.71    0.75
   3   6   8  143.87    4.17
   3   6   8  144.20    4.08
   3   6   8  143.45    3.62
  -3  -6  -8  145.27    4.87
   3   6   9   35.57    1.94
   3   6   9   35.19    1.89
  -3  -6  -9   35.50    2.23
   3   6   9   32.82    1.64
   3   6  10    0.93    0.48
   3   6  10    1.18    0.49
   3   6  10    1.96    0.62
  -3  -6 -10    2.17    0.74
   3   6  11    2.23    0.59
   3   6  11    3.18    0.72
  -3  -6 -11    3.44    0.83
  -3  -6 -12    4.18    0.97
  -3  -6 -13    1.22    0.66
  -3  -6 -14    0.23    0.61
  -3  -6 -15    0.88    0.70
  -3  -7   6    1.49    1.23
   3   7  -6    1.01    0.58
  -3  -7   5    5.54    1.24
   3   7  -5    5.22    0.88
   3   7  -4   12.54    1.14
  -3  -7   4   14.47    1.67
   3   7  -3   14.43    1.10
  -3  -7   3   13.49    1.61
   3   7  -2    0.04    0.27
  -3  -7   2    0.27    0.61
  -3  -7   1   -0.09    0.52
   3   7  -1    0.17    0.26
   3   7   0   56.47    1.41
  -3  -7   0   53.30    2.87
  -3  -7  -1    0.10    0.56
  -3  -7  -2   17.57    1.59
  -3  -7  -3   25.63    1.87
   3   7   4   15.52    1.25
  -3  -7  -4   15.18    1.42
   3   7   5   12.33    1.13
  -3  -7  -5   11.61    1.23
   3   7   5   11.04    1.08
   3   7   6    1.54    0.52
  -3  -7  -6   -0.10    0.63
   3   7   6    1.98    0.62
  -3  -7  -7    5.74    1.08
   3   7   7    7.54    0.95
   3   7   7    7.48    0.44
   3   7   7    8.60    0.98
  -3  -7  -8   10.66    1.46
   3   7   8   10.46    1.13
   3   7   8   10.09    0.70
   3   7   8    8.60    1.00
   3   7   9    9.06    1.06
  -3  -7  -9    7.24    1.16
   3   7   9   10.76    1.18
   3   7  10    1.39    0.59
   3   7  10    0.09    0.55
  -3  -7 -10    1.71    0.77
   3   7  11    6.85    0.97
  -3  -7 -11    4.64    1.09
  -3  -7 -12    1.61    0.80
  -3  -7 -13   -0.24    0.75
  -3  -7 -14    1.83    0.87
  -3  -8   4    2.18    0.99
  -3  -8   3    0.32    0.63
  -3  -8   2    1.38    0.85
  -3  -8   1   31.80    2.47
  -3  -8   0  109.96    4.59
  -3  -8  -1    1.43    0.79
  -3  -8  -2    8.69    1.29
  -3  -8  -3   18.98    1.77
  -3  -8  -4   17.72    1.70
   3   8   5    6.40    0.91
  -3  -8  -5    5.74    1.02
   3   8   6    0.23    0.50
   3   8   7    4.76    0.86
   3   8   8    0.83    0.51
  -3  -8  -9    1.68    0.81
   3   8   9    1.07    0.57
   3   8  10    4.40    0.90
  -3  -8 -10    1.97    0.80
  -3  -8 -11   78.28    4.02
   3   8  11   87.86    3.61
   3   8  12   11.84    1.35
  -3  -8 -12   10.24    1.50
  -3  -8 -13    0.86    0.78
  -3  -9   2    4.44    1.36
  -3  -9   1    6.24    1.28
  -3  -9   0    6.92    1.33
  -3  -9  -1    9.05    1.44
  -3  -9  -2    4.30    1.19
  -3  -9  -3   16.19    1.77
  -3  -9  -4    5.30    1.13
   3   9   5   -0.23    0.43
   3   9   6   -0.18    0.50
   3   9   7    0.61    0.52
   3   9   8    5.52    0.95
   3   9   9    2.81    0.73
   3   9  10    0.67    0.59
   3   9  11    1.52    0.64
   3   9  12    0.31    0.45
  -3 -10  -1    3.35    1.20
  -3 -10  -2    5.83    1.31
  -3 -10  -3   34.89    2.83
  -3 -10  -4    1.27    0.85
   3  10   4    2.67    0.77
   3  10   5    3.46    0.82
   3  10   6    0.14    0.54
   3  10   7    3.15    0.82
   3  10   8    0.00    0.45
  -4   8   7   10.41    1.51
  -4   8   6    0.49    0.56
  -4   8   5    0.20    0.52
  -4   8   4   57.65    3.01
  -4   8   3    0.77    0.58
  -4   8   2    0.40    0.60
  -4   8   1    0.12    0.47
  -4   8   0    7.34    1.13
  -4   8  -1    5.09    0.96
   4  -8   2    3.31    1.12
  -4   8  -2    0.32    0.57
   4  -7 -11    2.75    0.99
   4  -7 -10   -0.44    0.61
   4  -7  -9    1.01    0.57
  -4   7   8    1.72    0.69
   4  -7  -8    1.50    0.57
  -4   7   7   47.33    2.72
   4  -7  -7   48.18    2.55
  -4   7   6    4.85    0.94
   4  -7  -6    5.17    0.91
  -4   7   5   20.52    1.72
   4  -7  -5   22.21    1.63
   4  -7  -4   19.15    1.97
  -4   7   4   18.15    1.59
   4  -7  -3    8.18    1.89
  -4   7   3    5.19    0.88
   4  -7  -2    1.05    1.67
  -4   7   2    0.05    0.50
  -4   7   1    7.77    1.04
  -4   7   0   27.00    1.89
  -4   7  -1   -0.54    0.48
   4  -7   2    0.46    0.71
  -4   7  -2    0.17    0.44
   4  -7   3    4.75    1.22
   4  -7   4   18.35    2.07
   4  -7   5   -0.73    0.87
   4  -7   6    6.04    1.33
   4  -6 -13    2.67    0.93
   4  -6 -12   21.79    2.08
   4  -6 -11    9.56    1.45
   4  -6 -10   16.09    1.66
   4  -6  -9   10.93    1.33
   4  -6  -8   14.32    1.47
  -4   6   7    0.12    0.48
   4  -6  -7    0.76    0.53
  -4   6   6   10.33    1.25
   4  -6  -6    9.67    1.12
  -4   6   5   21.12    1.66
   4  -6  -5   17.99    1.49
   4  -6  -4    0.42    0.47
  -4   6   4    0.28    0.47
  -4   6   3   22.01    1.59
   4  -6  -3   23.99    1.66
  -4   6   2   33.14    1.92
   4  -6  -2   40.15    2.09
  -4   6   1  191.67    5.19
  -4   6   0   41.92    2.16
  -4   6  -1    5.87    0.87
   4  -6   2   23.27    2.09
   4  -6   3   -0.42    0.66
   4  -6   4   79.20    3.98
   4  -6   5    0.86    0.91
   4  -6   6    1.62    0.79
   4  -6   7   18.45    2.07
   4  -6   8    0.84    0.83
   4  -5 -13    4.60    1.07
   4  -5 -12    9.76    1.42
   4  -5 -11   17.68    2.11
   4  -5 -10    6.99    1.14
   4  -5  -9    9.75    1.30
   4  -5  -8   25.62    1.92
   4  -5  -7    1.29    0.56
  -4   5   6   33.03    2.01
   4  -5  -6   34.42    2.08
  -4   5   5    8.65    1.03
   4  -5  -5    9.44    1.09
  -4   5   5    7.31    0.60
  -4   5   4    0.25    0.46
   4  -5  -4    0.81    0.55
  -4   5   3   19.29    1.38
   4  -5  -3   21.31    1.51
   4  -5  -2   10.32    1.07
  -4   5   2   11.32    1.05
  -4   5   1    3.38    0.62
  -4   5   0   12.83    1.10
  -4   5  -1   27.97    1.59
   4  -5   2   66.22    3.24
   4  -5   3    2.91    0.86
   4  -5   4    1.13    0.67
   4  -5   5    4.25    1.02
   4  -5   6  104.14    4.41
   4  -5   7   -0.24    0.61
   4  -5   8    2.42    0.97
   4  -5   9    9.74    1.52
   4  -5  10    8.77    1.50
   4  -5  11    6.05    1.38
   4  -4 -13    0.09    0.74
   4  -4 -12    1.52    0.80
   4  -4 -11   34.33    2.48
   4  -4 -10   66.61    3.39
   4  -4  -9  174.78    5.60
   4  -4  -8   27.46    2.02
   4  -4  -7   34.86    2.17
   4  -4  -6   50.98    2.52
  -4   4   5   34.21    0.84
   4  -4  -5   34.38    2.01
  -4   4   5   31.33    1.80
  -4   4   5   33.21    0.90
  -4   4   4   86.78    2.04
   4  -4  -4   79.51    3.06
  -4   4   4   80.29    2.88
  -4   4   3    1.39    0.47
   4  -4  -3    1.49    0.55
  -4   4   2  135.40    4.56
  -4   4   2  124.54    3.51
  -4   4   1   99.60    2.98
  -4   4   1   98.75    3.74
  -4   4   0   21.35    1.61
  -4   4   0   21.89    1.28
  -4   4  -1    6.51    0.94
  -4   4  -1    5.07    0.63
  -4   4  -2   80.34    3.14
   4  -4   2   76.16    3.21
  -4   4  -3   56.39    2.55
   4  -4   3   56.26    2.71
   4  -4   4    1.71    0.68
   4  -4   5    7.71    1.10
   4  -4   6  105.99    4.09
   4  -4   7   13.89    1.49
   4  -4   8   44.72    2.70
   4  -4   9    1.54    0.80
   4  -4  10   58.35    3.33
   4  -4  11   10.52    1.54
   4  -4  12    0.58    0.75
   4  -3 -13   -0.34    0.59
   4  -3 -12    3.02    0.98
   4  -3 -11    4.47    1.01
   4  -3 -10    0.35    0.71
   4  -3  -9    1.81    0.72
   4  -3  -8    0.94    0.63
   4  -3  -7    1.97    0.72
   4  -3  -6    6.87    0.96
   4  -3  -5   45.09    2.00
   4  -3  -5   45.00    2.28
   4  -3  -4    1.62    0.55
  -4   3   4    0.91    0.19
   4  -3  -4    0.64    0.36
  -4   3   3   36.77    1.21
  -4   3   3   39.34    2.23
   4  -3  -3   38.15    1.67
   4  -3  -3   36.78    1.94
  -4   3   3   36.34    1.66
  -4   3   2  364.68    6.58
  -4   3   2  355.97    8.12
  -4   3   2  358.10    7.07
  -4   3   1   70.30    2.88
  -4   3   1   64.27    2.12
  -4   3   0  223.44    5.63
  -4   3   0  211.61    4.58
  -4   3  -1    0.66    0.45
  -4   3  -1   -0.27    0.29
  -4   3  -2   56.20    2.38
   4  -3   2   58.91    2.53
  -4   3  -2   56.45    1.88
   4  -3   3    3.27    0.70
  -4   3  -3    4.71    0.69
  -4   3  -4  448.95    9.06
   4  -3   4  466.56    9.58
   4  -3   5  133.17    4.20
   4  -3   6   19.35    1.55
   4  -3   7   19.68    1.57
   4  -3   8  110.08    4.02
   4  -3   9    0.31    0.58
   4  -3  10   21.34    1.82
   4  -3  11    0.59    0.64
   4  -3  12    0.35    0.70
   4  -3  13    1.69    0.90
   4  -2 -13    0.84    0.74
   4  -2 -12    2.89    0.88
   4  -2 -11    9.77    1.41
   4  -2 -10   19.94    1.84
   4  -2  -9    2.66    0.82
   4  -2  -8   16.89    1.56
   4  -2  -7   43.58    2.37
   4  -2  -6    3.77    0.81
   4  -2  -6    3.34    0.59
   4  -2  -5   18.86    1.22
   4  -2  -5   16.95    1.39
   4  -2  -4   45.82    1.84
   4  -2  -4   47.21    2.23
  -4   2   4   46.39    1.14
  -4   2   3  111.64    2.40
   4  -2  -3  115.56    3.04
   4  -2  -3  104.78    3.49
  -4   2   2  199.14    3.90
   4  -2  -2  193.23    4.25
   4  -2  -2  197.75    5.00
  -4   2   2  198.12    4.31
  -4   2   1    1.57    0.38
  -4   2   1    1.54    0.33
  -4   2   1    1.29    0.46
  -4   2   0  286.69    5.41
  -4   2   0  291.37    5.65
  -4   2   0  277.56    6.33
  -4   2  -1    0.35    0.32
  -4   2  -1   -0.01    0.24
  -4   2  -2  279.67    5.15
  -4   2  -2  273.95    5.98
  -4   2  -3   48.34    1.92
   4  -2   3   46.75    1.99
   4  -2   4   -0.10    0.37
  -4   2  -4    0.30    0.30
   4  -2   5  326.49    7.62
   4  -2   5  328.96    7.07
   4  -2   6   70.41    2.67
   4  -2   7    0.57    0.43
   4  -2   8   57.02    2.53
   4  -2   9  114.23    3.89
   4  -2  10   26.44    1.84
   4  -2  11    7.90    1.13
  -4   2 -12   66.02    3.44
   4  -2  12   58.92    3.06
  -4   2 -13    7.04    1.26
   4  -2  13    5.43    1.06
   4  -1 -13   21.10    2.19
   4  -1 -12    3.61    0.97
   4  -1 -11   39.51    2.69
   4  -1 -10    5.28    1.01
   4  -1  -9  126.97    2.21
   4  -1  -9  132.29    4.73
   4  -1  -8    0.90    0.56
   4  -1  -7   49.37    2.56
   4  -1  -6   24.40    0.65
   4  -1  -6   26.15    1.52
   4  -1  -6   27.77    1.83
   4  -1  -5  107.96    2.06
   4  -1  -5  107.96    3.18
   4  -1  -5  109.69    3.68
   4  -1  -4   20.19    1.18
   4  -1  -4   19.78    1.44
   4  -1  -3  259.47    5.31
   4  -1  -3  270.89    6.11
  -4   1   3  253.03    4.81
  -4   1   2   51.09    1.57
   4  -1  -2   46.83    1.61
   4  -1  -2   54.05    2.23
  -4   1   1   55.25    1.68
   4  -1  -1   53.10    1.60
  -4   1   0  129.75    3.06
  -4   1   0  131.08    3.47
   4  -1   0  126.03    2.69
  -4   1  -1    0.03    0.19
  -4   1  -1   -0.05    0.31
  -4   1  -1   -0.08    0.32
  -4   1  -2  173.02    4.07
  -4   1  -2  167.95    3.87
  -4   1  -2  170.11    3.14
  -4   1  -3    1.52    0.48
  -4   1  -3    1.43    0.35
  -4   1  -3    1.31    0.22
  -4   1  -4  248.38    5.45
  -4   1  -4  224.31    4.70
   4  -1   4  243.92    5.02
  -4   1  -5  117.21    3.50
   4  -1   5  109.72    3.02
  -4   1  -6    7.28    0.88
   4  -1   6    5.93    0.69
   4  -1   6    5.64    0.87
  -4   1  -7   57.16    2.53
   4  -1   7   58.54    2.19
  -4   1  -8   13.39    1.30
   4  -1   8   13.77    1.08
  -4   1  -9    8.14    1.06
   4  -1   9    9.76    0.98
  -4   1 -10   43.90    2.47
   4  -1  10   43.18    2.13
  -4   1 -11  114.22    4.24
   4  -1  11  107.74    3.71
  -4   1 -12    3.76    0.91
   4  -1  12    3.36    0.78
  -4   1 -13    1.89    0.77
   4  -1  13    0.94    0.66
  -4   1 -14    5.00    1.09
   4  -1  14    5.32    1.01
   4   0 -12    0.18    0.62
   4   0 -11    2.07    0.79
   4   0 -10   12.04    1.50
   4   0  -9   18.93    1.07
   4   0  -9   20.88    1.78
   4   0  -8    1.52    0.64
   4   0  -8    1.17    0.32
   4   0  -7    2.33    0.39
   4   0  -7    3.51    0.81
   4   0  -6  265.56    5.14
   4   0  -6  277.39    6.75
  -4   0   5    9.34    1.03
   4   0  -5    8.55    1.02
   4   0  -5    9.99    0.66
   4   0  -4    2.21    0.59
   4   0  -4    2.36    0.34
   4   0  -3   36.09    1.26
   4   0  -3   33.51    1.80
  -4   0   3   39.32    1.49
   4   0  -2   93.52    2.30
   4   0  -2   97.19    3.10
  -4   0   2   92.04    2.49
   4   0  -2   87.69    2.37
   4   0  -1  250.21    4.86
  -4   0   1  250.48    5.02
   4   0  -1  247.48    4.68
   4   0   0   10.47    0.73
  -4   0   0   10.14    0.75
   4   0   0    9.57    0.53
   4   0   1  907.45   15.02
  -4   0  -1  901.86   15.04
   4   0   1  911.65   13.95
  -4   0  -2  142.20    3.48
  -4   0  -2  138.73    3.04
  -4   0  -3  393.57    6.74
  -4   0  -3  400.54    7.65
  -4   0  -4  492.51    9.29
  -4   0  -5   18.35    1.24
   4   0   5   17.18    0.85
   4   0   6   17.38    1.37
  -4   0  -6   18.74    1.29
   4   0   6   18.86    0.95
   4   0   7   22.68    1.67
  -4   0  -7   23.48    1.54
   4   0   7   23.37    1.13
  -4   0  -8   77.49    3.00
   4   0   8   76.23    2.37
  -4   0  -9    0.11    0.45
   4   0   9    1.00    0.42
  -4   0 -10   75.25    3.24
   4   0  10   79.37    2.68
  -4   0 -11   25.50    1.91
   4   0  11   24.58    1.52
   4   0  12   19.81    1.44
  -4   0 -12   25.41    1.96
  -4   0 -13    9.18    1.29
   4   0  13    7.74    1.01
  -4   0 -14    2.75    0.82
   4   0  14    4.36    0.85
   4   1 -12    6.59    1.30
   4   1 -11   29.31    2.38
   4   1 -10    2.05    0.73
   4   1  -9   54.25    2.97
   4   1  -9   51.49    2.29
   4   1  -8    7.19    0.96
   4   1  -8    7.41    1.09
   4   1  -7   55.07    2.16
   4   1  -7   56.58    2.75
   4   1  -6    8.09    0.99
   4   1  -6    6.34    0.74
  -4  -1   5   78.23    3.05
   4   1  -5   75.28    2.44
   4   1  -5   79.05    3.06
   4   1  -4   13.98    0.94
  -4  -1   4   14.58    1.20
   4   1  -4   16.19    1.29
   4   1  -3    0.57    0.31
   4   1  -3    0.52    0.42
   4   1  -2   90.87    2.54
   4   1  -2   87.50    2.91
  -4  -1   2   93.70    2.80
   4   1  -1   61.55    1.98
   4   1  -1   65.51    2.37
  -4  -1   1   64.21    2.18
  -4  -1   0    0.18    0.35
   4   1   0   -0.17    0.25
  -4  -1  -1    9.06    0.81
   4   1   1    9.03    0.74
   4   1   2   35.80    1.53
  -4  -1  -2   32.28    1.52
   4   1   3  639.99   11.22
  -4  -1  -3  621.92   11.27
   4   1   4   61.28    2.21
  -4  -1  -4   58.43    2.17
  -4  -1  -5   58.39    2.22
   4   1   6   18.56    1.38
  -4  -1  -6   16.85    0.63
  -4  -1  -6   19.68    1.29
   4   1   6   19.11    0.69
  -4  -1  -7    0.27    0.20
  -4  -1  -7    0.45    0.46
   4   1   7    0.13    0.36
   4   1   7    0.26    0.19
   4   1   8   31.08    1.92
  -4  -1  -8   28.23    1.70
   4   1   8   28.19    1.13
  -4  -1  -8   28.50    1.14
  -4  -1  -9    7.47    0.63
  -4  -1  -9    8.43    1.01
   4   1   9    8.08    0.67
  -4  -1 -10   16.54    1.41
  -4  -1 -10   16.01    1.02
  -4  -1 -11   16.67    1.49
  -4  -1 -11   15.83    1.09
  -4  -1 -12    3.19    0.61
  -4  -1 -12    4.43    0.87
  -4  -1 -13    3.57    0.82
  -4  -1 -14    2.52    0.76
  -4  -1 -15    5.14    1.07
   4   2 -12   40.02    2.97
   4   2 -11    0.59    0.57
   4   2 -10   25.73    2.17
   4   2  -9   14.42    1.57
   4   2  -9   15.35    1.41
   4   2  -8   37.09    2.34
   4   2  -8   29.61    1.86
   4   2  -7  266.14    6.87
   4   2  -7  255.70    6.35
   4   2  -6   39.37    2.19
   4   2  -6   39.45    2.03
  -4  -2   5    3.96    0.74
   4   2  -5    3.08    0.60
   4   2  -5    3.41    0.71
  -4  -2   4    6.37    0.85
   4   2  -4    7.22    0.89
   4   2  -4    6.55    0.79
   4   2  -3    2.37    0.57
   4   2  -3    1.91    0.53
   4   2  -2    2.81    0.60
   4   2  -2    2.10    0.52
  -4  -2   2    1.82    0.53
   4   2  -1   86.01    2.70
   4   2  -1   83.78    2.73
  -4  -2   1   80.53    2.84
   4   2   0  216.16    4.90
   4   2   0  218.72    4.93
  -4  -2   0  204.82    5.02
   4   2   1  475.60    8.93
  -4  -2  -1  480.43    9.24
   4   2   2  315.13    6.43
  -4  -2  -2  312.20    6.61
  -4  -2  -3  114.88    3.40
   4   2   3  118.90    3.27
   4   2   3  117.90    2.15
   4   2   4   42.07    1.81
  -4  -2  -4   44.06    1.94
   4   2   4   41.88    0.97
   4   2   5    8.78    0.88
  -4  -2  -5    5.30    0.77
   4   2   6    5.51    0.72
   4   2   6    4.79    0.72
  -4  -2  -6    4.45    0.70
   4   2   7  263.93    6.34
   4   2   7  267.59    4.33
  -4  -2  -7  269.46    6.16
  -4  -2  -7  253.72    4.75
   4   2   8    2.65    0.60
  -4  -2  -8    2.40    0.64
  -4  -2  -8    1.64    0.30
  -4  -2  -9    7.28    0.92
  -4  -2  -9    6.93    0.60
  -4  -2 -10    9.29    1.08
  -4  -2 -10    7.69    0.70
  -4  -2 -11    0.19    0.46
  -4  -2 -11   -0.12    0.28
  -4  -2 -12    1.21    0.63
  -4  -2 -12    1.19    0.45
  -4  -2 -13   14.54    1.47
  -4  -2 -14    6.73    1.09
  -4  -2 -15   21.44    1.89
  -4  -2 -16    6.19    1.14
   4   3 -11    2.29    0.81
   4   3 -10   47.20    2.98
   4   3  -9    4.39    1.00
   4   3  -8   53.50    2.90
   4   3  -7   81.83    3.46
   4   3  -7   85.45    3.52
   4   3  -6    0.75    0.54
   4   3  -6    1.44    0.60
  -4  -3   5   19.88    1.52
   4   3  -5   15.82    1.34
   4   3  -5   17.71    1.50
  -4  -3   4  356.70    7.86
   4   3  -4  358.24    7.78
   4   3  -4  350.13    7.93
   4   3  -3    0.95    0.46
   4   3  -3    0.74    0.43
   4   3  -2   18.43    1.37
   4   3  -2   18.69    1.26
  -4  -3   1  107.52    3.59
   4   3  -1  108.06    3.44
   4   3  -1  103.63    3.10
   4   3   0   97.79    3.17
   4   3   0   97.05    2.87
  -4  -3   0   94.09    3.35
   4   3   1   20.99    1.36
  -4  -3  -1   20.12    1.44
  -4  -3  -2  279.97    5.23
   4   3   2  301.55    6.41
  -4  -3  -2  291.19    6.57
  -4  -3  -3    1.17    0.51
   4   3   3    1.64    0.47
  -4  -3  -3    1.29    0.26
  -4  -3  -4    0.06    0.42
   4   3   4    0.09    0.29
   4   3   4    0.10    0.20
  -4  -3  -5    3.40    0.69
   4   3   5    2.81    0.56
   4   3   5    2.92    0.35
   4   3   6    3.53    0.41
   4   3   6    2.83    0.56
   4   3   6    3.50    0.62
  -4  -3  -6    2.95    0.66
   4   3   7   32.42    1.77
   4   3   7   36.05    1.85
   4   3   7   32.18    0.87
  -4  -3  -7   34.03    1.92
   4   3   8    0.71    0.40
   4   3   8    0.57    0.42
   4   3   8    0.46    0.22
  -4  -3  -8    0.41    0.26
  -4  -3  -8    0.70    0.56
  -4  -3  -9   45.65    2.30
  -4  -3  -9   43.33    1.60
   4   3   9   46.14    2.34
  -4  -3 -10    6.37    0.93
  -4  -3 -10    5.45    0.61
  -4  -3 -11   36.34    2.19
  -4  -3 -11   34.46    1.61
  -4  -3 -12   -0.23    0.52
  -4  -3 -12    0.23    0.30
  -4  -3 -13    3.32    0.92
  -4  -3 -14    0.47    0.58
  -4  -3 -15    3.23    0.88
  -4  -3 -16    3.51    1.00
   4   4 -11    6.32    1.36
   4   4 -10    0.69    0.67
   4   4  -9    5.25    1.07
   4   4  -8  140.44    4.97
   4   4  -7   -0.87    0.66
   4   4  -6   55.90    2.72
  -4  -4   5   22.36    1.65
   4   4  -5   20.58    1.54
  -4  -4   4   21.63    1.54
   4   4  -4   24.51    1.58
   4   4  -3   24.52    1.53
   4   4  -3   27.34    1.85
   4   4  -2  206.08    5.60
   4   4  -2  196.55    4.85
   4   4  -1   31.87    1.93
   4   4  -1   29.47    1.52
   4   4   0    0.73    0.35
  -4  -4   0    1.01    0.55
   4   4   0    0.68    0.46
  -4  -4   0    0.88    0.37
   4   4   1    2.79    0.51
   4   4   1    2.23    0.58
  -4  -4  -1    2.93    0.74
  -4  -4  -1    1.78    0.40
   4   4   2    2.86    0.59
  -4  -4  -2    3.37    0.52
  -4  -4  -2    2.05    0.67
  -4  -4  -3    7.43    1.01
  -4  -4  -3    6.84    0.63
   4   4   3    5.76    0.78
   4   4   4   93.08    3.15
  -4  -4  -4   85.78    2.27
   4   4   4   88.10    2.32
  -4  -4  -4   87.38    3.26
   4   4   5   41.03    1.76
   4   4   5   46.04    2.11
   4   4   5   44.35    1.51
  -4  -4  -5   37.30    2.11
   4   4   6   85.67    2.79
   4   4   6   89.95    3.12
   4   4   6   86.66    1.96
   4   4   6   86.02    2.33
  -4  -4  -6   85.16    3.28
   4   4   7   47.17    2.11
   4   4   7   51.14    2.26
   4   4   7   49.21    1.43
  -4  -4  -7   50.20    2.46
   4   4   7   51.39    1.75
  -4  -4  -8    1.97    0.62
   4   4   8    2.28    0.56
   4   4   8    2.65    0.38
   4   4   9   24.76    1.16
  -4  -4  -9   24.46    1.80
   4   4   9   22.63    1.59
   4   4  10    1.60    0.40
  -4  -4 -10    1.73    0.43
  -4  -4 -10    1.78    0.69
   4   4  11   -0.10    0.32
  -4  -4 -11   -0.32    0.36
  -4  -4 -11    0.14    0.48
  -4  -4 -12   17.75    1.69
  -4  -4 -12   16.88    1.25
  -4  -4 -13    0.73    0.71
  -4  -4 -14    3.11    0.88
  -4  -4 -15    0.88    0.75
  -4  -4 -16    2.08    0.84
   4   5 -10    0.28    0.65
   4   5  -9    0.64    0.67
   4   5  -8    6.20    1.30
   4   5  -7    8.03    1.18
   4   5  -6    9.23    1.16
   4   5  -5    0.53    0.47
  -4  -5   4  158.78    4.67
   4   5  -4  167.37    4.68
   4   5  -3    2.29    0.55
  -4  -5   3    3.09    0.69
   4   5  -2    7.34    0.81
  -4  -5   2    7.83    0.97
   4   5  -1    0.63    0.34
  -4  -5   1    0.73    0.47
  -4  -5   0   81.78    2.88
   4   5   0   81.46    2.49
  -4  -5  -1   51.65    2.19
   4   5   1   53.20    1.85
  -4  -5  -2  360.30    8.58
  -4  -5  -2  351.68    7.28
   4   5   2  352.92    8.20
   4   5   2  355.41    6.68
  -4  -5  -3   20.63    1.27
   4   5   3   25.04    1.72
   4   5   3   21.84    1.09
  -4  -5  -3   23.05    1.81
  -4  -5  -4   22.52    1.28
   4   5   4   24.87    1.71
  -4  -5  -4   21.27    1.75
   4   5   5   15.95    1.01
   4   5   5   15.94    1.01
   4   5   5   15.49    1.34
  -4  -5  -5   15.28    1.49
   4   5   6   87.34    2.69
   4   5   6   89.99    2.39
   4   5   6   92.09    2.67
  -4  -5  -6   85.02    3.47
   4   5   7    0.61    0.36
   4   5   7   -0.16    0.24
  -4  -5  -7   -0.12    0.52
   4   5   7   -0.18    0.30
   4   5   8   21.85    1.13
   4   5   8   18.98    1.20
  -4  -5  -8   21.49    1.76
   4   5   8   19.51    1.34
   4   5   9    2.94    0.56
   4   5   9    3.74    0.72
  -4  -5  -9    2.96    0.77
   4   5   9    2.36    0.46
   4   5  10    5.10    0.87
  -4  -5 -10    2.06    0.70
   4   5  10    4.05    0.63
  -4  -5 -11   -0.02    0.48
   4   5  11   -0.12    0.35
  -4  -5 -12    4.09    0.99
  -4  -5 -13   -0.08    0.49
  -4  -5 -14   14.16    1.68
  -4  -5 -15    0.69    0.65
  -4  -5 -16    0.62    0.82
   4   6  -9    0.15    0.68
   4   6  -8   24.54    2.09
   4   6  -7    9.63    1.24
  -4  -6   7   10.83    1.53
   4   6  -6    2.72    0.79
  -4  -6   6    3.52    0.90
  -4  -6   5   48.20    2.88
   4   6  -5   47.72    2.46
  -4  -6   4   85.19    3.74
  -4  -6   4   79.57    3.10
   4   6  -4   83.27    3.13
   4   6  -3   -0.03    0.38
  -4  -6   3    1.19    0.66
  -4  -6   2  138.44    4.64
   4   6  -2  138.05    3.80
   4   6  -1    3.93    0.58
  -4  -6   1    1.84    0.65
  -4  -6   0   14.86    1.34
   4   6   0   12.29    0.84
  -4  -6  -1   23.44    1.67
   4   6   1   22.44    1.07
  -4  -6  -2   26.71    1.71
   4   6   2   28.12    1.13
  -4  -6  -3    4.44    0.94
   4   6   3    5.80    0.50
  -4  -6  -3    4.28    0.75
   4   6   4   22.73    1.00
  -4  -6  -4   20.27    1.81
  -4  -6  -4   20.01    1.40
   4   6   4   21.98    0.99
  -4  -6  -5    1.82    0.77
   4   6   5    2.42    0.39
  -4  -6  -5    2.51    0.59
   4   6   5    2.14    0.53
   4   6   6   13.64    0.98
   4   6   6   13.33    1.05
  -4  -6  -6   12.16    1.44
   4   6   6   12.13    0.84
   4   6   7   24.89    1.37
   4   6   7   24.67    1.45
  -4  -6  -7   27.26    2.10
   4   6   7   28.17    1.38
  -4  -6  -8    6.59    1.11
   4   6   8    7.84    0.82
   4   6   8    6.55    0.74
   4   6   8    6.31    0.78
   4   6   9    0.24    0.45
   4   6   9    0.27    0.35
   4   6   9    0.08    0.33
  -4  -6  -9    0.10    0.57
   4   6  10    5.19    0.76
   4   6  10    3.47    0.66
   4   6  10    4.38    0.69
  -4  -6 -10    3.42    0.92
  -4  -6 -11    0.00    0.55
  -4  -6 -12    4.78    1.08
  -4  -6 -13    1.25    0.73
  -4  -6 -14   -0.17    0.59
  -4  -6 -15    0.80    0.84
  -4  -6 -16   -1.07    0.83
  -4  -7   6   19.50    2.08
  -4  -7   5   29.20    2.50
   4   7  -5   27.98    1.87
   4   7  -4    5.34    0.81
  -4  -7   4    4.80    1.15
   4   7  -3    1.03    0.48
  -4  -7   3    2.42    0.91
  -4  -7   2   32.20    2.34
   4   7  -2   35.90    1.69
  -4  -7   1   33.41    2.29
   4   7  -1   34.76    1.52
  -4  -7   0   15.89    1.58
   4   7   0   15.55    0.88
  -4  -7  -1   25.60    1.91
   4   7   1   27.45    1.02
   4   7   2    1.99    0.23
  -4  -7  -2    3.37    0.83
  -4  -7  -3    0.30    0.53
  -4  -7  -4   14.45    1.35
  -4  -7  -5    4.57    0.81
   4   7   5    5.32    0.29
   4   7   5    4.25    0.72
   4   7   5    5.00    0.29
  -4  -7  -5    5.78    1.16
   4   7   6    0.77    0.23
   4   7   6    0.96    0.22
   4   7   6    1.00    0.47
   4   7   6    1.00    0.47
  -4  -7  -6    0.99    0.83
  -4  -7  -7    7.01    1.26
   4   7   7    7.50    0.87
   4   7   7    7.03    0.57
   4   7   7    7.96    0.94
   4   7   8    0.40    0.41
  -4  -7  -8   -0.11    0.64
   4   7   8    0.19    0.37
   4   7   9    0.78    0.47
   4   7   9    1.04    0.43
  -4  -7  -9   -0.05    0.63
   4   7  10    1.70    0.58
  -4  -7 -10    0.57    0.97
   4   7  11   -0.76    0.48
  -4  -7 -11    0.27    0.72
  -4  -7 -12   15.31    1.76
  -4  -7 -13    0.44    0.73
  -4  -7 -14   -0.13    0.67
  -4  -7 -15   -0.68    0.71
  -4  -8   4    0.12    0.67
  -4  -8   3   10.77    1.62
  -4  -8   2    0.52    0.79
  -4  -8   1  102.45    4.50
  -4  -8   0   10.61    1.42
  -4  -8  -1   11.75    1.51
  -4  -8  -2   22.89    1.97
  -4  -8  -3    3.50    0.89
  -4  -8  -4    1.35    0.65
  -4  -8  -5    7.54    1.12
   4   8   5    8.50    1.06
   4   8   6   -0.18    0.46
  -4  -8  -7    0.72    0.80
   4   8   7   -0.30    0.47
  -4  -8  -8    0.63    0.75
   4   8   8    2.07    0.64
  -4  -8  -9    1.79    0.84
   4   8   9    3.22    0.79
   4   8  10   12.29    1.31
  -4  -8 -10   13.97    1.81
   4   8  11    3.14    0.76
  -4  -8 -11    5.06    1.29
   4   8  12    4.01    0.93
  -4  -8 -12    5.15    1.32
  -4  -8 -13    0.09    0.66
  -4  -8 -14   -0.18    0.85
  -4  -9   2    2.33    1.05
  -4  -9   1    1.02    0.81
  -4  -9   0    2.31    0.99
  -4  -9  -1    8.37    1.36
  -4  -9  -2   15.46    1.77
  -4  -9  -3    0.50    0.72
  -4  -9  -4    1.13    0.65
  -4  -9  -5   -0.19    0.64
   4   9   5   -0.05    0.45
   4   9   6   11.62    1.31
   4   9   7    0.63    0.63
   4   9   8    0.32    0.48
   4   9   9    0.60    0.50
  -4  -9 -10    0.20    0.87
   4   9  10    0.24    0.57
   4   9  11    6.31    1.06
  -4  -9 -11    4.24    1.22
   4   9  12    0.56    0.59
  -4  -9 -12    0.73    0.73
  -4  -9 -13    0.07    0.85
  -4 -10  -1   -0.05    0.75
  -4 -10  -2   36.80    2.96
  -4 -10  -3    7.48    1.41
  -4 -10  -4    2.30    0.92
   4  10   4    0.69    0.52
   4  10   5    1.81    0.66
   4  10   6    1.22    0.68
   4  10   7    2.09    0.87
   4  10   8   -0.18    0.50
   4  10   9    1.54    0.66
  -5   8   5   -0.77    0.61
  -5   8   4    7.79    1.25
  -5   8   3   21.79    1.88
  -5   8   2   23.09    1.91
  -5   8   1    1.17    0.58
  -5   8   0    1.05    0.71
  -5   8  -1   13.54    1.48
  -5   8  -2    4.24    0.96
  -5   8  -3    9.11    1.32
   5  -7 -10    0.34    0.66
   5  -7  -9    2.16    0.91
   5  -7  -8   10.42    1.40
  -5   7   7    1.22    0.73
   5  -7  -7    0.89    0.59
  -5   7   6    1.91    0.75
   5  -7  -6    2.47    0.80
  -5   7   5    4.39    0.96
   5  -7  -5    3.42    0.84
  -5   7   4    0.09    0.50
   5  -7  -4    0.68    0.55
   5  -7  -3    2.70    0.72
  -5   7   3    2.53    1.29
   5  -7  -2    1.26    0.58
  -5   7   2    1.02    0.58
   5  -7  -1    6.55    1.01
  -5   7   1    5.56    0.90
  -5   7   0   12.35    1.29
  -5   7  -1    0.48    0.43
  -5   7  -2    2.13    0.58
  -5   7  -3   55.71    2.78
   5  -7   4   51.41    3.50
  -5   7  -4   48.51    2.60
   5  -7   5   52.18    3.61
   5  -6 -11    9.12    1.49
   5  -6 -10   13.43    1.68
   5  -6  -9   -0.40    0.61
   5  -6  -8   15.30    1.64
   5  -6  -7    6.97    1.15
  -5   6   6    7.88    1.13
   5  -6  -6    6.71    1.12
  -5   6   5   73.23    3.23
   5  -6  -5   76.91    3.44
  -5   6   4    7.20    1.03
   5  -6  -4    6.73    1.04
  -5   6   3    7.27    0.99
   5  -6  -3    6.78    1.03
   5  -6  -2    0.67    0.48
  -5   6   2    1.70    0.57
  -5   6   1   46.74    2.32
  -5   6   0    1.65    0.57
  -5   6  -1    4.63    0.83
  -5   6  -2   35.59    1.99
  -5   6  -3    0.45    0.43
   5  -6   4   19.81    2.03
   5  -6   5   15.09    1.75
   5  -6   6   -0.76    0.80
   5  -6   7    9.27    1.59
   5  -6   8   -1.19    0.93
   5  -5 -11    1.15    0.73
   5  -5 -10    3.86    1.04
   5  -5  -9    8.78    1.33
   5  -5  -8   27.51    2.15
   5  -5  -7    0.51    0.62
   5  -5  -6   14.87    1.53
  -5   5   5   62.71    1.60
   5  -5  -5   64.70    3.09
  -5   5   5   62.10    2.81
  -5   5   4   60.50    1.89
   5  -5  -4   57.10    2.82
  -5   5   4   56.89    2.60
  -5   5   3   30.81    1.43
   5  -5  -3   27.97    1.94
  -5   5   3   25.57    1.67
  -5   5   2   62.16    2.59
   5  -5  -2   63.33    2.90
  -5   5   1   39.19    1.96
  -5   5   0    8.91    0.96
  -5   5  -1    2.06    0.55
  -5   5  -2    1.99    0.52
  -5   5  -3   22.26    1.45
   5  -5   4    0.69    0.63
   5  -5   5    8.64    1.31
   5  -5   6   51.03    3.06
   5  -5   7    8.89    1.48
   5  -5   8    7.16    1.33
   5  -5   9    7.15    1.44
   5  -5  10   -1.26    0.87
   5  -4 -12    5.26    1.15
   5  -4 -11   12.28    1.64
   5  -4 -10   37.50    2.65
   5  -4  -9    7.13    1.28
   5  -4  -8   16.47    1.66
   5  -4  -7    0.74    0.59
   5  -4  -6    1.35    0.67
  -5   4   5   51.05    1.10
   5  -4  -5   57.35    2.81
  -5   4   4   25.53    1.01
   5  -4  -4   23.54    1.76
  -5   4   4   22.27    1.53
  -5   4   3  122.69    2.97
   5  -4  -3  117.38    4.10
  -5   4   3  116.89    3.64
  -5   4   2   59.92    2.04
   5  -4  -2   57.74    2.69
  -5   4   2   53.70    2.28
  -5   4   1   76.31    2.64
  -5   4   0   20.04    1.25
  -5   4  -1  128.69    3.53
  -5   4  -2  370.17    7.42
  -5   4  -3   23.01    1.33
   5  -4   4   39.15    2.37
   5  -4   5   -0.01    0.58
   5  -4   6   57.37    3.00
   5  -4   7    3.96    0.95
   5  -4   8   26.59    2.12
   5  -4   9    8.34    1.40
   5  -4  10    3.23    1.01
   5  -4  11   16.01    1.83
   5  -3 -12    1.50    0.79
   5  -3 -11   59.39    3.49
   5  -3 -10    5.82    1.11
   5  -3  -9   57.88    3.21
   5  -3  -8   59.52    3.13
   5  -3  -7   60.51    3.07
   5  -3  -6    3.55    0.87
   5  -3  -5   15.89    1.50
   5  -3  -4   31.25    1.65
  -5   3   4   32.55    1.08
   5  -3  -4   30.12    1.96
   5  -3  -3    1.37    0.58
  -5   3   3    1.09    0.29
   5  -3  -3    1.05    0.35
  -5   3   2   34.17    1.39
  -5   3   2   33.55    2.10
   5  -3  -2   32.19    1.95
  -5   3   2   34.04    1.63
  -5   3   1    0.36    0.36
  -5   3   1    1.05    0.37
  -5   3   1    0.41    0.45
  -5   3   0    0.64    0.29
  -5   3   0   -0.11    0.38
  -5   3   0    0.31    0.32
  -5   3  -1   13.25    1.07
  -5   3  -1   12.46    1.22
  -5   3  -1   12.16    0.86
  -5   3  -2    0.39    0.34
  -5   3  -2   -0.09    0.28
  -5   3  -3    7.37    0.91
  -5   3  -3    7.70    0.68
  -5   3  -4    7.78    0.93
   5  -3   4    7.22    1.01
   5  -3   5   48.70    2.43
   5  -3   6    8.50    1.10
   5  -3   7    0.56    0.57
   5  -3   8   77.80    3.37
   5  -3   9    7.51    1.09
   5  -3  10    9.64    1.30
   5  -3  11    0.34    0.62
   5  -2 -12    9.97    1.57
   5  -2 -11    0.37    0.73
   5  -2 -10   21.91    2.06
   5  -2  -9   27.31    2.20
   5  -2  -8    6.97    1.14
   5  -2  -7  353.90    8.74
   5  -2  -6  272.48    7.17
   5  -2  -5  120.91    3.59
   5  -2  -5  123.22    4.28
   5  -2  -4    6.94    0.99
  -5   2   4    6.64    0.50
   5  -2  -4    6.09    0.72
  -5   2   3   21.86    1.00
   5  -2  -3   22.10    1.25
   5  -2  -3   21.81    1.62
  -5   2   2  190.42    4.06
   5  -2  -2  189.73    4.28
   5  -2  -2  189.55    5.23
  -5   2   1    2.28    0.42
  -5   2   1    0.82    0.47
  -5   2   0  388.67    7.44
  -5   2   0  381.08    8.21
  -5   2   0  381.10    7.04
  -5   2  -1    0.69    0.28
  -5   2  -1    0.57    0.36
  -5   2  -1    1.13    0.47
  -5   2  -2    3.76    0.63
  -5   2  -2    2.03    0.49
  -5   2  -2    2.64    0.38
  -5   2  -3   21.02    1.38
  -5   2  -3   21.13    1.31
  -5   2  -3   21.47    1.02
  -5   2  -4   79.02    2.93
  -5   2  -4   76.84    2.59
  -5   2  -4   82.87    2.12
  -5   2  -5   83.95    3.16
   5  -2   5   79.03    2.88
  -5   2  -6   36.83    2.08
   5  -2   6   30.52    1.79
  -5   2  -7   12.70    1.32
   5  -2   7   13.83    1.23
  -5   2  -8   19.63    1.70
   5  -2   8   20.17    1.52
  -5   2  -9   -0.17    0.48
   5  -2   9    0.09    0.43
  -5   2 -10    1.23    0.61
   5  -2  10    1.58    0.61
  -5   2 -11    2.41    0.80
   5  -2  11    1.25    0.62
  -5   2 -12   38.30    2.64
   5  -2  12   38.41    2.43
   5  -1 -11   15.95    1.84
   5  -1 -10    1.46    0.82
   5  -1  -9   -0.16    0.57
   5  -1  -8   50.11    2.85
   5  -1  -7    0.31    0.52
   5  -1  -6   34.03    2.19
   5  -1  -5    2.51    0.57
   5  -1  -5    2.32    0.72
  -5   1   4   94.05    2.45
   5  -1  -4   87.74    2.80
   5  -1  -4   91.74    3.49
   5  -1  -3   41.69    1.69
   5  -1  -3   42.92    2.22
  -5   1   3   42.03    1.55
  -5   1   2  140.10    3.35
   5  -1  -2  136.67    3.32
   5  -1  -2  141.80    4.30
  -5   1   1    2.02    0.41
   5  -1  -1    2.44    0.39
  -5   1   0    2.60    0.47
  -5   1   0    2.72    0.59
  -5   1  -1  260.92    5.59
  -5   1  -1  261.28    5.78
  -5   1  -2  239.60    5.33
  -5   1  -2  232.75    5.17
  -5   1  -2  236.42    4.21
  -5   1  -3   62.29    2.39
  -5   1  -3   58.61    2.03
  -5   1  -3   62.09    1.43
  -5   1  -4   54.53    2.29
  -5   1  -4   49.85    1.75
  -5   1  -4   51.54    1.26
  -5   1  -5   42.19    2.10
   5  -1   5   45.01    1.83
  -5   1  -6   29.02    1.79
   5  -1   6   29.35    1.49
  -5   1  -7  245.36    6.26
   5  -1   7  236.16    5.44
  -5   1  -8  135.86    4.52
   5  -1   8  143.55    3.96
  -5   1  -9    1.42    0.55
   5  -1   9    1.55    0.51
  -5   1 -10   24.47    1.91
   5  -1  10   21.26    1.50
  -5   1 -11   -0.50    0.53
   5  -1  11   -0.35    0.50
  -5   1 -12    3.16    0.85
   5  -1  12    2.26    0.72
  -5   1 -13    0.58    0.60
   5   0 -11    0.75    0.73
   5   0 -10   -0.41    0.63
   5   0  -9    0.94    0.67
   5   0  -8   63.84    1.88
   5   0  -8   67.21    3.35
   5   0  -7   -0.06    0.51
   5   0  -7    0.36    0.25
   5   0  -6   80.85    2.16
   5   0  -6   81.04    3.45
   5   0  -5    0.01    0.48
   5   0  -5    0.26    0.21
   5   0  -4  331.45    6.16
   5   0  -4  341.50    7.87
   5   0  -4  329.52    6.83
   5   0  -3   24.47    1.11
   5   0  -3   25.06    1.71
   5   0  -3   22.84    1.23
  -5   0   3   23.97    1.31
   5   0  -2   34.48    1.39
   5   0  -2   36.77    2.00
   5   0  -2   33.73    1.40
  -5   0   2   32.92    1.53
   5   0  -1    8.21    0.72
  -5   0   1   10.38    0.85
   5   0  -1   10.40    0.68
   5   0   0   17.51    1.03
  -5   0   0   17.13    1.10
   5   0   0   15.72    0.73
   5   0   1    6.57    0.40
  -5   0  -1    6.99    0.75
  -5   0  -2   62.05    2.29
  -5   0  -2   64.81    2.00
  -5   0  -3   11.06    0.95
  -5   0  -3   10.52    0.67
  -5   0  -4  157.33    4.23
  -5   0  -4  154.05    3.14
  -5   0  -5   36.10    1.86
  -5   0  -6  139.27    4.15
   5   0   6  143.87    3.23
  -5   0  -6  137.06    2.41
  -5   0  -7   27.89    1.78
   5   0   7   31.12    1.33
  -5   0  -8   86.85    3.39
   5   0   8   87.82    2.56
  -5   0  -9   33.10    2.07
   5   0   9   31.17    1.51
  -5   0 -10   -0.32    0.52
   5   0  10    0.24    0.33
  -5   0 -11  103.89    4.10
   5   0  11  101.35    3.26
  -5   0 -12   10.31    1.35
   5   0  12   12.99    1.20
  -5   0 -13    0.29    0.57
   5   1 -11   22.35    2.18
   5   1 -10   16.94    1.86
   5   1  -9    2.73    0.82
   5   1  -8   87.27    2.84
   5   1  -8   97.49    4.08
   5   1  -7   86.07    2.74
   5   1  -7   88.10    3.76
   5   1  -6  106.98    3.09
   5   1  -6  105.78    3.99
   5   1  -5   11.00    1.25
   5   1  -5    9.37    0.83
   5   1  -4  206.11    4.68
   5   1  -4  217.03    5.77
  -5  -1   3   11.13    1.00
   5   1  -3    9.04    1.06
   5   1  -3    9.62    0.79
   5   1  -2    0.05    0.41
  -5  -1   2    0.65    0.45
   5   1  -2    0.32    0.27
   5   1  -1   33.38    1.50
   5   1  -1   33.62    1.84
  -5  -1   1   33.80    1.68
   5   1   0  101.42    2.90
  -5  -1   0   97.01    3.07
   5   1   1    1.15    0.21
  -5  -1  -1    1.37    0.44
   5   1   1    0.75    0.33
   5   1   2   36.90    1.70
  -5  -1  -2   36.93    1.80
   5   1   3   -0.05    0.28
  -5  -1  -3    0.33    0.18
  -5  -1  -3    0.74    0.43
   5   1   4    3.28    0.61
  -5  -1  -4    3.45    0.66
  -5  -1  -5    0.30    0.40
  -5  -1  -6    1.56    0.55
  -5  -1  -7   45.16    2.24
  -5  -1  -7   43.29    0.97
  -5  -1  -8   75.29    3.05
   5   1   8   75.89    1.87
  -5  -1  -8   73.13    1.73
  -5  -1  -9    0.74    0.52
   5   1   9    0.92    0.28
  -5  -1  -9    1.48    0.30
  -5  -1 -10   62.37    2.94
   5   1  10   65.06    2.05
  -5  -1 -10   59.92    1.90
  -5  -1 -11    0.19    0.48
   5   1  11    0.26    0.37
  -5  -1 -12    5.15    1.00
   5   1  12    4.21    0.65
  -5  -1 -13   43.85    2.71
  -5  -1 -14   19.43    1.90
   5   2 -11    1.52    0.72
   5   2 -10   12.08    1.53
   5   2  -9    0.31    0.60
   5   2  -8    4.77    1.02
   5   2  -8    2.22    0.62
   5   2  -7    3.46    0.83
   5   2  -7    2.76    0.65
   5   2  -6   31.92    1.79
   5   2  -6   34.57    2.22
   5   2  -5   34.23    1.80
   5   2  -5   36.47    2.19
   5   2  -4   33.23    1.74
   5   2  -4   39.77    2.19
   5   2  -3  103.15    3.23
   5   2  -3  101.05    3.57
  -5  -2   2   55.85    2.47
   5   2  -2   56.85    2.25
   5   2  -2   57.29    2.51
   5   2  -1   73.14    2.57
   5   2  -1   74.46    2.81
  -5  -2   1   71.94    2.80
   5   2   0  467.44    8.94
   5   2   0  462.83    9.24
  -5  -2   0  448.26    9.21
   5   2   1   96.05    3.00
  -5  -2  -1   96.61    3.27
  -5  -2  -2    5.11    0.78
   5   2   2    5.66    0.72
   5   2   3  200.08    4.77
  -5  -2  -3  188.86    3.11
   5   2   3  184.48    3.05
  -5  -2  -3  193.95    4.95
   5   2   4  199.89    4.91
  -5  -2  -4  183.69    4.99
   5   2   5  172.88    4.60
  -5  -2  -5  170.58    4.74
   5   2   6   15.20    1.25
  -5  -2  -6   13.02    1.20
   5   2   7    7.15    0.97
  -5  -2  -7    5.23    0.91
  -5  -2  -8   -0.12    0.43
   5   2   9    7.87    0.38
  -5  -2  -9    7.95    0.56
  -5  -2  -9    8.91    1.09
  -5  -2 -10   52.96    2.68
   5   2  10   51.71    1.48
  -5  -2 -10   50.68    1.66
   5   2  11   16.38    0.89
  -5  -2 -11   14.15    1.46
  -5  -2 -12    3.41    0.84
  -5  -2 -13   32.61    2.33
  -5  -2 -14    8.84    1.29
  -5  -2 -15    2.33    0.90
   5   3 -10   27.02    2.32
   5   3  -9   -0.23    0.57
   5   3  -8    0.87    0.68
   5   3  -7    3.23    0.81
   5   3  -6   47.05    2.44
   5   3  -6   47.89    2.62
   5   3  -5   71.01    2.98
   5   3  -5   68.25    3.06
   5   3  -4   19.26    1.50
   5   3  -4   18.37    1.51
   5   3  -3   14.01    1.24
   5   3  -3   12.81    1.21
   5   3  -2   65.63    2.68
   5   3  -2   64.14    2.68
  -5  -3   1   21.81    1.68
   5   3  -1   25.11    1.60
   5   3  -1   22.94    1.53
   5   3   0   75.60    2.81
   5   3   0   68.27    2.64
  -5  -3   0   68.21    2.91
   5   3   1    0.61    0.44
  -5  -3  -1    1.23    0.56
   5   3   1    0.81    0.41
  -5  -3  -2   15.37    0.78
   5   3   2   14.36    1.17
  -5  -3  -2   12.68    1.25
  -5  -3  -3   -0.13    0.42
   5   3   3    0.78    0.40
  -5  -3  -3    0.18    0.17
  -5  -3  -4    2.28    0.65
   5   3   4    3.20    0.68
   5   3   4    2.85    0.30
   5   3   5   77.94    2.85
  -5  -3  -5   70.56    2.97
   5   3   5   75.57    1.69
  -5  -3  -6   88.51    3.39
   5   3   7   41.99    2.22
  -5  -3  -7   42.57    2.32
   5   3   8    5.97    0.90
  -5  -3  -8    6.61    0.99
  -5  -3  -9   17.42    1.59
   5   3  10    0.66    0.16
   5   3  10    0.72    0.18
  -5  -3 -10   -0.13    0.47
   5   3  11    0.09    0.21
  -5  -3 -11    0.21    0.47
  -5  -3 -11    0.31    0.32
  -5  -3 -12    3.56    0.90
  -5  -3 -13    0.14    0.53
  -5  -3 -14    2.65    0.81
  -5  -3 -15    1.49    0.88
   5   4 -10   29.26    2.46
   5   4  -9   14.98    1.72
   5   4  -8   24.89    2.11
   5   4  -7    9.14    1.25
   5   4  -6    0.32    0.62
   5   4  -5  119.50    4.17
   5   4  -4   73.97    3.07
   5   4  -3   84.47    3.20
   5   4  -2    2.09    0.58
   5   4  -1   33.17    2.01
   5   4  -1   26.78    1.62
  -5  -4   0    9.56    1.24
   5   4   0   12.07    1.21
   5   4   0   11.53    1.06
  -5  -4  -1   19.43    1.13
   5   4   1   18.28    1.46
   5   4   1   19.02    1.29
  -5  -4  -1   18.98    1.63
  -5  -4  -2  174.95    3.98
   5   4   2  192.99    5.16
  -5  -4  -2  169.21    5.27
  -5  -4  -3   32.72    1.30
   5   4   3   33.70    1.91
  -5  -4  -3   31.14    2.01
  -5  -4  -4    4.86    0.46
  -5  -4  -4    4.11    0.79
  -5  -4  -5    3.51    0.82
   5   4   5    2.18    0.36
   5   4   6   20.30    1.42
  -5  -4  -6   24.34    1.80
   5   4   6   24.50    1.05
   5   4   7    1.43    0.34
  -5  -4  -7    1.47    0.67
   5   4   7    1.34    0.46
   5   4   8   47.51    2.33
  -5  -4  -8   44.05    2.48
  -5  -4  -9   12.30    1.37
   5   4  10   27.95    0.77
  -5  -4 -10   27.46    2.07
  -5  -4 -11    0.86    0.66
  -5  -4 -12    3.93    0.98
  -5  -4 -13    0.85    0.69
  -5  -4 -14   -0.39    0.58
  -5  -4 -15   -0.40    0.61
   5   5  -9   13.59    1.70
   5   5  -8   14.58    1.64
   5   5  -7    1.75    0.91
   5   5  -6    6.82    1.08
   5   5  -5   17.84    1.54
   5   5  -4    3.87    0.74
   5   5  -3   11.29    1.13
  -5  -5   2   66.34    2.85
   5   5  -2   66.07    2.67
  -5  -5   1  127.97    3.95
   5   5  -1  124.27    3.75
   5   5   0    3.53    0.64
  -5  -5   0    4.58    0.75
  -5  -5  -1   34.79    2.37
  -5  -5  -1   33.01    1.72
   5   5   1   33.05    1.65
  -5  -5  -2   30.54    2.19
  -5  -5  -2   33.38    1.64
   5   5   2   30.68    1.57
   5   5   3    0.23    0.32
  -5  -5  -3    1.19    0.40
  -5  -5  -3    0.24    0.53
  -5  -5  -4    1.68    0.70
  -5  -5  -4    2.90    0.50
   5   5   5   25.00    1.22
  -5  -5  -5   20.59    1.78
   5   5   6   15.13    1.18
   5   5   6   16.27    1.00
  -5  -5  -6   18.90    1.72
   5   5   7   14.75    1.20
   5   5   7   15.50    0.97
  -5  -5  -7   17.28    1.67
  -5  -5  -8   22.75    1.93
   5   5   8   26.86    1.33
   5   5   8   24.29    1.60
  -5  -5  -9    0.90    0.87
   5   5   9    1.09    0.51
  -5  -5 -10    1.51    0.67
  -5  -5 -11    0.37    0.55
  -5  -5 -12    3.24    0.99
  -5  -5 -13    4.47    1.05
  -5  -5 -14    3.76    1.08
  -5  -5 -15   -0.53    0.87
   5   6  -9   76.74    4.08
   5   6  -8   -0.24    0.56
   5   6  -7    8.42    1.27
  -5  -6   7    8.63    1.41
   5   6  -6    8.21    1.16
  -5  -6   6   11.15    1.54
  -5  -6   5   19.18    1.88
   5   6  -5   19.05    1.61
   5   6  -4    8.91    1.08
  -5  -6   4    9.99    1.31
   5   6  -3    1.96    0.54
  -5  -6   3    4.05    0.89
  -5  -6   2   29.90    2.02
   5   6  -2   25.18    1.56
   5   6  -1    3.03    0.59
  -5  -6   1    3.15    0.79
   5   6   0    1.15    0.43
  -5  -6   0    0.38    0.45
  -5  -6  -1   63.14    2.72
   5   6   1   62.75    2.26
   5   6   2    6.51    0.71
  -5  -6  -2    8.25    1.30
  -5  -6  -2    6.56    0.86
  -5  -6  -3    1.32    0.87
   5   6   3    0.36    0.35
  -5  -6  -3    0.10    0.43
   5   6   4    0.93    0.33
  -5  -6  -4    0.58    0.62
  -5  -6  -4    0.74    0.47
   5   6   5   47.43    1.94
  -5  -6  -5   50.63    2.09
   5   6   5   52.74    2.06
  -5  -6  -5   50.08    3.04
   5   6   6   16.65    1.14
  -5  -6  -6   15.89    1.75
   5   6   6   17.26    1.18
  -5  -6  -7    0.64    0.72
   5   6   7    0.44    0.32
   5   6   7    1.07    0.42
   5   6   8    3.31    0.62
   5   6   8    2.95    0.56
  -5  -6  -8    2.92    0.94
   5   6   9    0.57    0.41
   5   6   9   -0.02    0.42
  -5  -6  -9    0.11    0.61
  -5  -6 -10    1.01    0.66
  -5  -6 -11    4.35    1.15
  -5  -6 -12    1.32    0.85
  -5  -6 -13    0.11    0.68
  -5  -6 -14   -0.26    0.68
  -5  -6 -15    6.40    1.33
  -5  -7   5    7.93    1.37
  -5  -7   4    1.25    0.76
   5   7  -3   -0.14    0.44
  -5  -7   3   -0.63    0.80
   5   7  -2    2.57    0.55
  -5  -7   2    3.31    0.88
  -5  -7   1   34.83    2.39
   5   7  -1   35.80    1.74
   5   7   0    1.07    0.40
  -5  -7   0    0.12    0.53
   5   7   1    0.42    0.33
  -5  -7  -1   -0.39    0.50
  -5  -7  -2   17.57    1.54
   5   7   2   17.32    0.98
  -5  -7  -3   50.60    2.54
   5   7   3   49.30    1.67
   5   7   4    3.13    0.42
  -5  -7  -4    3.43    1.03
  -5  -7  -4    2.72    0.66
  -5  -7  -5   95.22    4.44
  -5  -7  -5   89.24    3.31
   5   7   5   99.16    3.25
   5   7   5   87.40    2.43
  -5  -7  -6    0.75    0.71
   5   7   6    1.64    0.51
   5   7   7    0.76    0.49
  -5  -7  -7    1.81    0.79
  -5  -7  -8    1.71    0.92
   5   7   8    2.30    0.59
   5   7   9    2.46    0.60
  -5  -7  -9    1.72    0.85
   5   7  10    7.58    0.92
  -5  -7 -10    7.00    1.39
  -5  -7 -11    1.17    0.81
   5   7  11    1.56    0.60
  -5  -7 -12    1.04    0.85
  -5  -7 -13    2.33    1.03
  -5  -7 -14    0.05    0.72
  -5  -7 -15   -0.53    0.73
  -5  -8   4    0.36    0.73
  -5  -8   3   15.85    1.88
  -5  -8   2    6.08    1.23
  -5  -8   1    4.42    1.01
  -5  -8   0    6.06    1.14
  -5  -8  -1    8.67    1.29
  -5  -8  -2    1.96    0.77
  -5  -8  -3    1.68    0.77
  -5  -8  -4   16.37    1.59
  -5  -8  -5    2.99    0.78
   5   8   5    3.27    0.77
   5   8   6    0.09    0.43
  -5  -8  -6   -1.22    0.97
  -5  -8  -7    6.01    1.31
   5   8   7    7.84    0.99
  -5  -8  -8    5.30    1.26
   5   8   8    2.56    0.63
  -5  -8  -9    1.45    1.02
   5   8   9    0.17    0.46
   5   8  10    2.37    0.65
  -5  -8 -10    0.06    0.72
   5   8  11    1.15    0.62
  -5  -8 -11    2.12    0.91
  -5  -8 -12    0.16    0.78
  -5  -8 -13    1.60    0.88
  -5  -9   2    1.03    0.88
  -5  -9   1    1.57    0.97
  -5  -9   0   -0.92    0.74
  -5  -9  -1    0.28    0.64
  -5  -9  -2    8.36    1.34
  -5  -9  -3    2.12    0.86
  -5  -9  -4   10.68    1.46
  -5  -9  -5    4.37    1.00
   5   9   5    5.24    0.93
   5   9   6    8.95    1.15
   5   9   7    2.32    0.75
   5   9   8    4.47    0.92
  -5  -9  -9    0.61    0.89
   5   9   9   -0.45    0.54
   5   9  10    0.76    0.60
  -5  -9 -10   -0.34    0.82
   5   9  11   -0.20    0.58
  -5  -9 -11   -0.94    0.73
   5   9  12    1.49    0.81
  -5 -10  -1    4.42    1.33
  -5 -10  -2   16.15    1.95
  -5 -10  -3    6.14    1.27
  -5 -10  -4    1.64    0.86
   5  10   5    1.26    0.61
   5  10   6   -1.39    0.65
   5  10   7   -0.11    0.50
   5  10   8    5.42    1.04
   5  10   9    0.14    0.58
   5  10  10    0.96    0.80
  -6   8   2    1.08    0.76
  -6   8   1   15.72    1.63
   6  -7  -8    1.90    0.88
   6  -7  -7    2.99    1.50
   6  -7  -6    0.07    0.57
  -6   7   5   -0.86    0.61
   6  -7  -5   -1.12    0.74
  -6   7   4    4.97    1.00
   6  -7  -4    4.66    1.13
  -6   7   3   12.36    1.39
   6  -7  -3   13.33    1.55
  -6   7   2   12.74    1.42
   6  -7  -2   12.24    1.57
   6  -7  -1    2.84    0.95
  -6   7   1    2.35    0.77
  -6   7   0   22.44    1.76
  -6   7  -1   11.67    1.29
  -6   7  -2    1.01    0.68
   6  -6  -9    0.29    0.79
   6  -6  -8    1.38    0.76
   6  -6  -7   34.49    2.54
   6  -6  -6    0.77    0.64
  -6   6   5    0.00    0.49
   6  -6  -5    2.45    0.96
  -6   6   4   -0.30    0.46
   6  -6  -4    0.89    0.60
  -6   6   3    0.82    0.59
   6  -6  -3    0.01    0.52
  -6   6   2    3.58    0.79
   6  -6  -2    2.82    0.81
  -6   6   2    3.97    0.69
   6  -6  -1   29.15    2.16
  -6   6   1   30.80    1.97
  -6   6   0   55.11    2.60
  -6   6  -1   11.26    1.15
  -6   6  -2   19.78    1.52
  -6   6  -3   13.98    1.29
  -6   6  -4   -0.37    0.45
   6  -6   6    1.71    0.91
   6  -6   7   45.70    3.27
   6  -5 -10    6.18    1.22
   6  -5  -9    0.46    0.71
   6  -5  -8   25.07    2.22
   6  -5  -7    7.49    1.23
   6  -5  -6    5.16    1.05
   6  -5  -5    4.53    0.98
   6  -5  -4    2.76    0.75
  -6   5   4    4.03    0.76
  -6   5   3    0.35    0.46
   6  -5  -3    0.05    0.51
  -6   5   3    0.42    0.31
  -6   5   2   -0.72    0.48
   6  -5  -2    0.30    0.58
  -6   5   2    0.49    0.38
  -6   5   1   14.88    1.19
  -6   5   1   15.79    1.32
  -6   5   0    2.45    0.65
  -6   5   0    3.37    0.67
  -6   5  -1    3.97    0.67
  -6   5  -2   55.42    2.38
  -6   5  -3    0.90    0.43
  -6   5  -4   27.74    1.62
  -6   5  -5   13.56    1.16
   6  -5   6    7.56    1.38
   6  -5   7   85.45    4.17
   6  -5   8   18.99    1.98
   6  -4 -10    0.67    1.11
   6  -4  -9   -0.39    0.61
   6  -4  -8   61.89    3.48
   6  -4  -7   20.15    1.91
   6  -4  -6   -0.39    0.57
   6  -4  -5   30.50    2.24
   6  -4  -4   14.25    1.54
  -6   4   4   13.57    0.81
   6  -4  -3    9.54    1.24
  -6   4   3   11.43    0.82
  -6   4   2   86.72    2.67
   6  -4  -2   82.78    3.59
  -6   4   2   83.76    2.99
  -6   4   1   39.75    1.85
  -6   4   1   37.92    1.87
  -6   4   0   10.95    1.02
  -6   4   0   11.62    0.99
  -6   4  -1    0.31    0.40
  -6   4  -1    0.24    0.36
  -6   4  -2    3.98    0.76
  -6   4  -2    3.58    0.58
  -6   4  -3   41.47    2.31
  -6   4  -3   40.81    1.78
  -6   4  -4    6.00    0.71
  -6   4  -5    4.50    0.64
   6  -4   6   50.28    2.88
   6  -4   7    3.97    0.93
   6  -4   8    5.06    1.05
   6  -4   9    5.59    1.16
   6  -3 -10   12.11    1.63
   6  -3  -9   34.07    2.60
   6  -3  -8    2.61    0.86
   6  -3  -7    1.97    0.79
   6  -3  -6   75.15    3.61
   6  -3  -5    7.79    1.16
  -6   3   4   35.04    1.30
   6  -3  -4   32.49    2.22
   6  -3  -3    4.76    0.91
  -6   3   3    7.56    0.67
  -6   3   2   86.07    2.59
   6  -3  -2   85.36    3.57
  -6   3   1   60.02    2.23
  -6   3   0    8.45    0.81
  -6   3   0    8.78    0.90
  -6   3   0    7.73    1.09
  -6   3  -1  194.05    4.97
  -6   3  -1  188.70    5.47
  -6   3  -1  190.70    4.37
  -6   3  -2    4.72    0.76
  -6   3  -2    3.27    0.70
  -6   3  -2    4.04    0.52
  -6   3  -3    1.17    0.54
  -6   3  -3    1.34    0.54
  -6   3  -3    2.62    0.47
  -6   3  -4    0.69    0.42
  -6   3  -4    0.81    0.48
  -6   3  -4    0.47    0.30
  -6   3  -5   17.12    1.51
  -6   3  -5   18.87    1.06
  -6   3  -6   28.20    2.01
   6  -3   6   28.61    1.97
  -6   3  -6   30.42    1.38
  -6   3  -7   20.15    1.75
   6  -3   7   20.47    1.66
  -6   3  -8   37.97    2.47
   6  -3   8   35.40    2.26
  -6   3  -9   18.25    1.81
   6  -3   9   19.09    1.70
   6  -2 -10    2.62    0.90
   6  -2  -9   65.73    3.64
   6  -2  -8    1.74    0.82
   6  -2  -7   10.32    1.38
   6  -2  -6    4.82    1.00
   6  -2  -5    5.52    1.03
  -6   2   4   -0.11    0.24
   6  -2  -4    0.99    0.64
   6  -2  -4   -0.43    0.37
   6  -2  -3    1.17    0.68
  -6   2   3    0.67    0.33
   6  -2  -3    0.39    0.29
  -6   2   2  341.71    8.14
  -6   2   2  331.98    6.61
   6  -2  -2  320.40    6.62
   6  -2  -2  341.84    8.20
  -6   2   1    5.57    0.68
  -6   2   1    5.43    0.86
  -6   2   0    3.79    0.61
  -6   2   0    3.72    0.71
  -6   2  -1  100.31    3.16
  -6   2  -1   93.87    3.40
  -6   2  -2   59.50    2.45
  -6   2  -2   59.30    2.50
  -6   2  -2   61.25    1.80
  -6   2  -3   32.37    1.84
  -6   2  -3   30.80    1.70
  -6   2  -3   32.79    1.19
  -6   2  -4  120.37    3.93
  -6   2  -4  106.43    3.32
  -6   2  -4  115.51    2.58
  -6   2  -5  407.94    9.07
  -6   2  -5  403.50    7.03
  -6   2  -6   13.44    1.35
  -6   2  -6   11.74    0.72
  -6   2  -7    0.25    0.52
   6  -2   7    0.40    0.42
  -6   2  -8    6.43    1.03
   6  -2   8    6.59    0.92
  -6   2  -9    5.73    1.05
   6  -2   9    5.44    0.91
  -6   2 -10   14.69    1.63
   6  -1 -10   22.06    2.16
   6  -1  -9    0.31    0.73
   6  -1  -8   49.51    3.02
   6  -1  -7   16.57    1.74
   6  -1  -6   28.99    2.17
   6  -1  -5  332.40    8.48
  -6   1   4    5.21    0.63
   6  -1  -4    3.85    0.83
   6  -1  -4    2.93    0.55
   6  -1  -3  117.61    3.27
   6  -1  -3  117.55    4.26
  -6   1   3  120.51    3.22
   6  -1  -2   33.80    1.48
  -6   1   2   33.81    1.58
   6  -1  -2   37.71    2.24
   6  -1  -1    3.36    0.46
  -6   1   1    2.44    0.51
  -6   1   0   -0.29    0.39
  -6   1   0    0.22    0.35
  -6   1  -1  161.62    4.25
  -6   1  -1  157.18    4.32
  -6   1  -2   40.58    1.94
  -6   1  -2   42.60    1.90
  -6   1  -3    5.86    0.82
  -6   1  -3    5.57    0.66
  -6   1  -4   54.54    2.42
  -6   1  -4   50.36    1.87
  -6   1  -5    8.57    1.02
  -6   1  -5    7.47    0.32
  -6   1  -6    3.90    0.77
  -6   1  -6    4.37    0.29
  -6   1  -7    3.75    0.82
  -6   1  -8   34.82    2.23
   6  -1   8   34.28    1.74
  -6   1  -9   51.55    2.82
   6  -1   9   51.72    2.24
  -6   1 -10   41.74    2.61
   6  -1  10   39.20    2.02
  -6   1 -11    3.47    0.91
   6   0 -10   15.99    1.86
   6   0  -9    7.91    1.29
   6   0  -8   21.93    2.04
   6   0  -7    4.93    0.96
   6   0  -6    8.62    1.25
   6   0  -6    6.27    0.57
   6   0  -5   74.86    2.18
   6   0  -5   76.41    3.49
  -6   0   4  263.32    5.73
   6   0  -4  254.61    5.20
   6   0  -4  243.21    5.73
   6   0  -4  268.73    7.05
   6   0  -3  524.86    9.41
   6   0  -3  518.33    9.67
   6   0  -3  527.34   11.18
  -6   0   3  522.16    9.93
   6   0  -2    7.42    0.70
   6   0  -2    7.45    1.03
   6   0  -2    7.93    0.71
  -6   0   2    7.78    0.83
   6   0  -1   62.15    2.19
   6   0  -1   59.96    1.87
  -6   0   1   62.69    2.38
   6   0  -1   62.60    2.85
  -6   0   0  101.48    3.20
   6   0   0  102.54    2.41
  -6   0  -1    0.31    0.33
  -6   0  -1    0.75    0.41
  -6   0  -2   39.11    1.94
  -6   0  -2   41.13    1.69
  -6   0  -3  245.45    5.91
  -6   0  -3  245.33    4.99
  -6   0  -4    9.00    0.62
  -6   0  -4    9.53    1.03
  -6   0  -5   25.22    1.68
  -6   0  -6   13.04    1.27
  -6   0  -7   29.77    1.96
  -6   0  -8  193.41    5.69
  -6   0  -9   13.86    1.43
   6   0   9   13.93    0.92
  -6   0 -10    1.44    0.66
  -6   0 -11    0.84    0.59
  -6   0 -12   -0.78    0.72
   6   1 -10   -0.30    0.61
   6   1  -9    0.97    0.82
   6   1  -8    6.69    1.15
   6   1  -7    5.91    1.12
   6   1  -6   15.14    1.05
   6   1  -6   17.33    1.72
   6   1  -5   71.22    2.40
   6   1  -5   72.90    3.36
   6   1  -4   88.36    2.74
   6   1  -4   99.10    3.86
   6   1  -3    2.75    0.76
   6   1  -3    2.35    0.46
  -6  -1   3    2.36    0.58
   6   1  -2  175.24    4.29
   6   1  -2  180.32    5.31
  -6  -1   2  175.07    4.78
   6   1  -1    0.37    0.56
   6   1  -1    0.57    0.33
   6   1  -1    0.05    0.30
  -6  -1   1    1.27    0.55
   6   1   0    9.03    0.86
  -6  -1   0    8.27    0.97
   6   1   0    8.07    0.59
   6   1   1  264.76    5.83
  -6  -1  -1  246.26    5.94
   6   1   1  242.66    4.37
   6   1   2    0.94    0.38
  -6  -1  -2    1.09    0.31
  -6  -1  -2    0.18    0.40
   6   1   3    0.64    0.42
  -6  -1  -3    0.26    0.21
  -6  -1  -3    0.29    0.47
  -6  -1  -4   79.84    3.07
  -6  -1  -5   52.59    2.48
  -6  -1  -6   63.94    2.83
  -6  -1  -7    2.95    0.71
  -6  -1  -8    2.36    0.71
  -6  -1  -9   54.51    2.81
  -6  -1 -10   28.37    2.10
  -6  -1 -11   93.82    4.01
  -6  -1 -12   16.45    1.70
  -6  -1 -13    2.49    0.79
   6   2 -10   11.15    1.60
   6   2  -9   22.64    2.14
   6   2  -8    8.72    1.36
   6   2  -7   24.37    2.08
   6   2  -6   22.27    1.48
   6   2  -6   22.66    1.91
   6   2  -5    6.19    1.07
   6   2  -5    5.67    0.76
   6   2  -4   20.71    1.38
   6   2  -4   22.50    1.80
   6   2  -3   45.67    2.08
   6   2  -3   43.54    2.46
  -6  -2   2   49.15    2.50
   6   2  -2   50.17    2.16
   6   2  -2   51.40    2.59
   6   2  -1  168.05    4.44
   6   2  -1  165.86    4.96
  -6  -2   1  166.64    4.91
   6   2   0  124.98    3.67
   6   2   0  128.56    4.14
  -6  -2   0  120.30    3.98
   6   2   1   39.77    1.93
  -6  -2  -1   37.51    2.10
   6   2   2   56.45    2.35
  -6  -2  -2   51.80    2.46
   6   2   3  204.46    5.14
  -6  -2  -3  187.65    3.48
  -6  -2  -3  194.42    5.32
  -6  -2  -4    1.13    0.56
  -6  -2  -5    0.08    0.43
  -6  -2  -6   42.61    2.46
  -6  -2  -7   91.01    3.61
  -6  -2  -8    8.25    1.17
  -6  -2  -9    7.63    1.14
  -6  -2 -10    0.50    0.65
  -6  -2 -11   93.17    3.99
  -6  -2 -12    4.63    1.02
  -6  -2 -13   13.62    1.61
   6   3  -9    3.06    1.08
   6   3  -8   13.13    1.59
   6   3  -7   27.91    2.23
   6   3  -6   12.97    1.50
   6   3  -5   64.96    3.18
   6   3  -4  118.58    4.31
   6   3  -3   10.63    1.12
   6   3  -3   11.94    1.30
   6   3  -2    0.22    0.49
  -6  -3   2    0.28    0.53
   6   3  -2   -0.01    0.36
  -6  -3   1   27.41    1.96
   6   3  -1   25.44    1.66
   6   3  -1   27.19    1.80
   6   3   0    9.09    1.08
  -6  -3   0    9.55    1.18
   6   3   0    9.42    1.02
   6   3   1   54.15    2.41
   6   3   1   49.21    2.39
  -6  -3  -1   50.91    2.60
  -6  -3  -2    1.33    0.62
  -6  -3  -3   76.26    1.76
  -6  -3  -3   74.28    3.22
   6   3   4   74.01    1.49
  -6  -3  -4   69.87    3.10
  -6  -3  -5    2.45    0.70
  -6  -3  -6    2.95    0.78
  -6  -3  -7   17.95    1.62
  -6  -3  -8    3.33    0.87
  -6  -3  -9    1.45    0.63
  -6  -3 -10    9.56    1.36
  -6  -3 -11   13.80    1.62
  -6  -3 -12   15.83    1.73
  -6  -3 -13    8.61    1.32
  -6  -3 -14   10.99    1.56
   6   4  -9   23.11    2.26
   6   4  -8    1.27    0.85
   6   4  -7    3.90    0.95
   6   4  -6   31.03    2.27
   6   4  -5   23.16    1.86
   6   4  -4    7.31    1.11
   6   4  -3    4.82    0.92
   6   4  -2   12.28    1.28
   6   4  -1    5.24    0.89
  -6  -4   1    2.66    0.77
  -6  -4   0   51.52    2.88
   6   4   0   52.69    2.48
   6   4   1    0.92    0.49
  -6  -4  -1    0.69    0.36
  -6  -4  -1    1.21    0.70
   6   4   2    2.44    0.62
  -6  -4  -2    3.46    0.89
  -6  -4  -2    2.86    0.43
  -6  -4  -3   11.01    1.35
  -6  -4  -3   12.83    0.80
  -6  -4  -4    6.69    0.44
   6   4   4    6.25    0.52
  -6  -4  -4    6.17    1.07
   6   4   5   33.52    1.14
  -6  -4  -5   35.06    2.36
   6   4   6    0.74    0.24
  -6  -4  -6    1.41    0.70
  -6  -4  -7   91.77    3.90
  -6  -4  -8   17.11    1.67
  -6  -4  -9    0.32    0.58
  -6  -4 -10    3.26    0.92
  -6  -4 -11    2.95    0.94
  -6  -4 -12    0.03    0.54
  -6  -4 -13    1.67    0.83
  -6  -4 -14   22.69    2.26
   6   5  -8    7.22    1.37
   6   5  -7   11.14    1.49
   6   5  -6    0.47    0.56
   6   5  -5    5.20    0.99
   6   5  -4    3.33    0.80
   6   5  -3    8.91    1.11
   6   5  -2   75.48    3.12
  -6  -5   1  162.61    4.64
   6   5  -1  149.02    4.59
   6   5   0    0.90    0.51
  -6  -5   0    1.66    0.56
   6   5   1    0.59    0.48
  -6  -5  -1    0.07    0.59
  -6  -5  -1   -0.46    0.44
   6   5   2    3.08    0.67
  -6  -5  -2    3.55    0.99
  -6  -5  -2    5.06    0.68
   6   5   3    6.95    0.88
  -6  -5  -3    7.22    0.74
  -6  -5  -3    6.42    1.17
  -6  -5  -4    4.32    1.03
  -6  -5  -4    3.38    0.48
  -6  -5  -5    2.39    0.89
   6   5   5    1.79    0.37
   6   5   6   30.31    1.29
  -6  -5  -6   29.08    2.23
   6   5   7   21.80    1.62
   6   5   7   26.05    1.19
  -6  -5  -7   24.15    2.06
   6   5   8    0.01    0.28
  -6  -5  -8    0.08    0.62
  -6  -5  -9   25.78    2.20
  -6  -5 -10    0.96    0.56
  -6  -5 -11    0.36    0.75
  -6  -5 -12    2.53    1.04
  -6  -5 -13   -1.36    0.92
  -6  -5 -14   -0.25    0.63
   6   6  -7   10.73    1.46
   6   6  -6    6.08    1.09
  -6  -6   6    7.72    1.38
   6   6  -5   14.01    1.53
  -6  -6   5   17.64    1.83
   6   6  -4   12.90    1.38
  -6  -6   4   14.89    1.62
  -6  -6   3   17.16    1.65
   6   6  -3   15.08    1.42
   6   6  -2    9.22    1.08
  -6  -6   2    6.27    1.02
  -6  -6   1   78.00    3.29
   6   6  -1   77.82    3.06
   6   6   0    4.98    0.78
  -6  -6   0    4.64    0.88
   6   6   1    2.06    0.58
  -6  -6  -1    2.56    0.66
   6   6   2    5.86    0.79
  -6  -6  -2    6.45    0.88
  -6  -6  -2    6.09    1.23
  -6  -6  -3   35.48    2.71
  -6  -6  -3   37.94    1.90
   6   6   3   34.59    1.80
  -6  -6  -4    1.83    0.81
   6   6   4    1.06    0.46
  -6  -6  -4    1.26    0.48
  -6  -6  -5    1.66    0.78
  -6  -6  -5    1.32    0.46
   6   6   5    2.30    0.50
  -6  -6  -6   -1.26    0.74
   6   6   6    0.74    0.49
   6   6   6    0.73    0.38
  -6  -6  -7    3.94    1.10
   6   6   7    4.18    0.73
   6   6   7    3.61    0.53
   6   6   8   20.48    1.56
   6   6   8   25.99    1.37
  -6  -6  -8   20.11    2.09
   6   6   9    1.54    0.48
  -6  -6  -9    0.37    0.61
  -6  -6 -10   16.59    1.96
  -6  -6 -11    4.09    1.12
  -6  -6 -12    0.19    0.80
  -6  -6 -13    1.68    0.79
  -6  -7   5   -0.19    0.69
  -6  -7   4    0.11    0.65
  -6  -7   3    7.62    1.29
  -6  -7   2    3.10    0.94
   6   7  -1    0.50    0.43
  -6  -7   1    0.83    0.73
  -6  -7   0   11.80    1.37
   6   7   0   12.58    1.11
  -6  -7  -1   86.43    3.58
   6   7   1   87.76    2.96
   6   7   2    1.29    0.45
  -6  -7  -2    1.33    0.64
  -6  -7  -3    3.08    0.98
   6   7   3    2.35    0.50
  -6  -7  -3    4.09    0.81
   6   7   4    1.45    0.47
  -6  -7  -4    1.56    0.84
  -6  -7  -4    2.31    0.65
   6   7   5    1.20    0.41
  -6  -7  -5    2.67    1.00
  -6  -7  -5    1.96    0.64
   6   7   5    1.64    0.50
   6   7   6    0.40    0.36
  -6  -7  -6   -0.66    0.81
   6   7   6    0.48    0.41
  -6  -7  -7    0.98    0.98
   6   7   7   -0.21    0.35
  -6  -7  -8    6.70    1.42
   6   7   8    4.99    0.72
   6   7   9    2.05    0.54
  -6  -7  -9    0.69    0.76
   6   7  10    1.44    0.57
  -6  -7 -10   -0.01    0.65
  -6  -7 -11   -0.76    0.79
  -6  -7 -12    6.83    1.50
  -6  -8   3    0.06    0.75
  -6  -8   2    5.29    1.12
  -6  -8   1    0.61    0.77
  -6  -8   0    8.04    1.33
  -6  -8  -1    9.36    1.35
  -6  -8  -2   14.79    1.56
  -6  -8  -3    0.48    0.71
  -6  -8  -4    1.48    0.65
  -6  -8  -5   10.31    1.70
   6   8   5   10.58    1.12
  -6  -8  -6   13.02    1.84
   6   8   6   11.92    1.17
  -6  -8  -7    8.36    1.64
   6   8   7    7.93    0.96
  -6  -8  -8    2.59    1.02
   6   8   8    2.25    0.59
  -6  -8  -9   -0.05    0.82
   6   8   9    0.27    0.44
  -6  -8 -10    0.96    0.91
  -6  -8 -11    1.62    1.04
  -6  -9   1    0.51    0.79
  -6  -9   0    1.55    0.98
  -6  -9  -1    0.98    0.79
  -6  -9  -2    2.80    0.96
   6   9   5    1.66    0.70
   6   9   6    3.23    0.81
   6   9   7    1.71    0.67
   6   9   8    8.56    1.13
   6  10   5    0.58    0.66
   6  10   6    1.62    0.68
   6  10   7    0.93    0.68
   7  -7  -4   21.25    2.12
  -7   7   4   19.76    1.85
  -7   7   3    0.94    0.65
   7  -7  -3    1.07    0.82
   7  -7  -2   14.42    1.76
   7  -7  -1   -0.09    0.66
   7  -7   0    0.08    0.72
   7  -6  -7    0.98    0.75
   7  -6  -6    0.30    0.66
   7  -6  -5   17.24    1.92
   7  -6  -4   27.11    2.29
   7  -6  -3    0.67    0.61
  -7   6   3    1.31    0.68
  -7   6   2   13.89    1.37
   7  -6  -2   13.36    1.66
  -7   6   1   10.04    1.20
   7  -6  -1    9.13    1.35
  -7   6  -1    2.58    0.80
  -7   6  -2   18.70    1.69
  -7   6  -3   21.00    1.87
  -7   6  -4    1.05    0.66
   7  -5  -7    1.05    0.90
   7  -5  -6    3.54    0.96
   7  -5  -5    7.90    1.33
   7  -5  -4    4.28    1.08
   7  -5  -3   18.71    1.89
   7  -5  -2    9.40    1.37
  -7   5   2   10.14    1.13
   7  -5  -1   12.53    1.53
  -7   5   1   12.31    1.15
  -7   5   1   12.70    1.20
  -7   5   0   94.53    3.44
  -7   5   0   93.05    3.31
  -7   5  -1    0.62    0.46
  -7   5  -1    1.44    0.61
  -7   5  -2   15.18    1.49
  -7   5  -3   27.07    2.01
  -7   5  -4    0.70    0.52
  -7   5  -5    0.43    0.78
   7  -4  -8   -0.90    0.85
   7  -4  -7    1.48    0.86
   7  -4  -6    3.13    0.91
   7  -4  -5   -0.13    0.61
   7  -4  -4   47.78    2.96
   7  -4  -3    4.59    1.01
   7  -4  -2   10.87    1.49
  -7   4   2   10.32    0.93
  -7   4   1   54.58    2.31
  -7   4   0    3.35    0.67
  -7   4   0    2.83    0.61
  -7   4  -1    0.22    0.38
  -7   4  -1   -0.71    0.51
  -7   4  -2   62.13    2.87
  -7   4  -2   62.47    2.32
  -7   4  -3   19.95    1.66
  -7   4  -4   37.46    2.38
  -7   4  -5   18.79    1.75
  -7   4  -6    0.30    0.64
  -7   4  -7    0.88    0.69
   7  -3  -8   39.02    2.89
   7  -3  -7   -0.18    0.60
   7  -3  -6   20.72    2.05
   7  -3  -5   32.32    2.47
   7  -3  -4    2.05    0.80
  -7   3   3   29.65    1.46
   7  -3  -3   30.24    2.31
   7  -3  -2    1.00    0.64
  -7   3   2    0.42    0.35
  -7   3   1   26.24    1.54
  -7   3   0   23.24    1.51
  -7   3  -1  118.35    3.82
  -7   3  -2    7.59    0.70
  -7   3  -2    9.44    1.07
  -7   3  -3  145.02    4.65
  -7   3  -3  149.43    3.52
  -7   3  -4   15.53    1.49
  -7   3  -5    6.53    1.07
  -7   3  -6    8.32    1.18
  -7   3  -7    5.73    1.13
  -7   3  -8    1.65    0.79
   7  -2  -8   -0.92    0.78
   7  -2  -7   15.49    1.80
   7  -2  -6    8.23    1.40
   7  -2  -5   89.92    4.14
   7  -2  -4   13.01    1.56
  -7   2   4   14.16    0.97
   7  -2  -3    6.33    1.10
  -7   2   3    8.37    0.81
   7  -2  -3    7.78    0.84
  -7   2   2    0.34    0.39
   7  -2  -2    0.01    0.48
  -7   2   1   39.83    1.91
   7  -2  -1   36.76    2.44
  -7   2   0   23.27    1.49
  -7   2   0   20.10    1.64
  -7   2  -1   98.07    3.33
  -7   2  -1   95.25    3.58
  -7   2  -2   12.72    1.17
  -7   2  -2   11.03    1.11
  -7   2  -3   47.49    2.40
  -7   2  -3   49.16    2.28
  -7   2  -4    5.96    0.96
  -7   2  -4    4.29    0.70
  -7   2  -5   82.26    3.45
  -7   2  -6    1.08    0.55
  -7   2  -7    1.17    0.66
  -7   2  -8    6.02    1.05
  -7   2  -9   39.74    2.69
   7  -1  -8    1.93    0.89
   7  -1  -7   90.16    4.30
   7  -1  -6   23.13    2.14
   7  -1  -5   56.43    3.22
   7  -1  -4   19.84    1.36
   7  -1  -4   22.62    1.93
  -7   1   4   20.62    1.30
  -7   1   3    6.55    0.76
   7  -1  -3    7.10    1.12
   7  -1  -3    6.34    0.74
   7  -1  -2   20.96    1.21
  -7   1   2   23.07    1.44
   7  -1  -2   21.75    1.88
   7  -1  -1   61.46    2.01
  -7   1   1   58.76    2.42
   7  -1  -1   61.49    3.13
  -7   1   0    2.04    0.58
  -7   1   0    0.99    0.50
  -7   1  -1   58.60    2.56
  -7   1  -1   61.07    2.57
  -7   1  -2    1.26    0.50
  -7   1  -2    1.67    0.51
  -7   1  -3   96.51    3.48
  -7   1  -3   95.86    3.03
  -7   1  -4    0.53    0.48
  -7   1  -4    0.06    0.37
  -7   1  -5   90.63    3.58
  -7   1  -6   56.71    2.84
  -7   1  -7   52.66    2.82
  -7   1  -8   -0.01    0.49
  -7   1  -9    2.98    0.84
  -7   1 -10   -0.83    0.67
   7   0  -8    1.63    0.85
   7   0  -7   11.70    1.58
   7   0  -6   29.49    2.33
   7   0  -5    5.24    1.03
  -7   0   4   12.89    1.12
   7   0  -4   12.31    1.49
   7   0  -4   13.64    0.96
   7   0  -4   14.44    1.15
   7   0  -3   30.56    1.51
   7   0  -3   29.66    1.54
   7   0  -3   30.52    2.22
  -7   0   3   30.11    1.77
   7   0  -2   20.22    1.14
   7   0  -2   20.58    1.79
  -7   0   2   19.87    1.41
   7   0  -1   25.21    1.20
   7   0  -1   27.71    2.04
  -7   0   1   27.03    1.69
   7   0   0   45.05    1.46
  -7   0   0   46.24    2.22
  -7   0  -1  219.14    5.35
  -7   0  -1  227.62    5.80
  -7   0  -2   32.60    1.62
  -7   0  -2   35.83    2.03
  -7   0  -3   51.63    1.89
  -7   0  -3   53.82    2.54
  -7   0  -4   75.96    2.13
  -7   0  -4   74.45    3.13
  -7   0  -5   36.57    2.21
  -7   0  -6    0.70    0.56
  -7   0  -7  213.24    6.19
  -7   0  -8   16.19    1.59
  -7   0  -9    0.18    0.57
  -7   0 -10    2.11    0.74
  -7   0 -11    0.32    0.73
   7   1  -8    5.90    1.19
   7   1  -7    6.56    1.19
   7   1  -6    8.22    1.29
   7   1  -5   65.55    3.42
   7   1  -4   21.81    1.34
   7   1  -4   24.88    2.07
   7   1  -4   21.78    1.47
  -7  -1   3  143.40    4.44
   7   1  -3  133.00    3.76
   7   1  -3  144.30    5.06
   7   1  -3  139.98    3.83
   7   1  -2   64.41    2.43
   7   1  -2   65.06    3.17
   7   1  -2   59.74    2.15
  -7  -1   2   64.97    2.83
   7   1  -1   68.79    2.60
   7   1  -1   73.08    3.34
   7   1  -1   70.37    2.17
  -7  -1   1   66.45    2.85
   7   1   0   54.66    2.32
   7   1   0   54.08    1.66
   7   1   0   52.23    2.78
  -7  -1   0   54.31    2.57
   7   1   1    0.43    0.40
  -7  -1  -1    1.03    0.58
   7   1   1    0.05    0.15
  -7  -1  -2   -0.10    0.48
  -7  -1  -2    0.51    0.34
  -7  -1  -3    0.73    0.31
  -7  -1  -3    0.33    0.50
  -7  -1  -4  276.77    4.67
  -7  -1  -4  273.59    7.02
  -7  -1  -5   -0.07    0.44
  -7  -1  -6   30.89    2.09
  -7  -1  -7    8.61    1.20
  -7  -1  -8   23.90    1.92
  -7  -1  -9   14.84    1.56
  -7  -1 -10   18.65    1.80
  -7  -1 -11    4.06    0.95
   7   2  -8    1.72    0.78
   7   2  -7   -0.82    0.65
   7   2  -6   38.46    2.68
   7   2  -5    3.89    0.92
   7   2  -4   38.46    1.98
   7   2  -4   41.68    2.62
   7   2  -3   12.19    1.43
  -7  -2   3   12.82    1.33
   7   2  -3   12.42    1.10
  -7  -2   2   49.59    2.64
   7   2  -2   46.71    2.16
   7   2  -2   48.63    2.72
   7   2  -1  216.13    5.47
   7   2  -1  219.29    6.30
  -7  -2   1  215.86    6.13
   7   2   0  114.13    4.19
  -7  -2   0  109.23    3.98
   7   2   1   22.12    0.93
  -7  -2  -1   19.22    1.62
  -7  -2  -2    2.40    0.69
   7   2   2    2.16    0.21
  -7  -2  -3   -0.45    0.50
  -7  -2  -3    0.87    0.27
  -7  -2  -4   14.57    1.44
  -7  -2  -5   66.95    3.21
  -7  -2  -6   18.93    1.71
  -7  -2  -7    6.05    1.03
  -7  -2  -8   49.67    2.86
  -7  -2  -9    0.56    0.69
  -7  -2 -10  121.57    4.81
  -7  -2 -11   11.34    1.47
  -7  -2 -12    0.15    0.67
   7   3  -8    8.58    1.46
   7   3  -7   24.29    2.18
   7   3  -6    6.01    1.21
   7   3  -5   16.73    1.75
   7   3  -4    9.86    1.36
   7   3  -3   -0.23    0.57
  -7  -3   2  191.50    5.94
   7   3  -2  199.62    6.00
   7   3  -1   10.61    1.27
  -7  -3   1   10.96    1.32
   7   3   0  104.53    4.00
  -7  -3   0  105.38    4.15
   7   3   1   76.00    3.29
  -7  -3  -1   73.86    3.41
  -7  -3  -2   13.95    1.49
  -7  -3  -3   33.66    1.04
  -7  -3  -3   27.69    2.07
  -7  -3  -4   26.92    2.03
  -7  -3  -5    4.35    0.94
  -7  -3  -6    8.15    1.22
  -7  -3  -7    5.11    1.05
  -7  -3  -8   38.51    2.59
  -7  -3  -9    2.55    0.86
  -7  -3 -10    2.18    0.84
  -7  -3 -11   20.10    2.03
  -7  -3 -12    0.80    0.67
   7   4  -7    3.58    0.96
   7   4  -6   -0.25    0.53
   7   4  -5    8.03    1.26
   7   4  -4    1.20    0.63
   7   4  -3    2.00    0.71
   7   4  -2   11.16    1.33
   7   4  -1    0.64    0.56
  -7  -4   1    1.15    0.80
  -7  -4   0   38.07    2.63
   7   4   0   38.68    2.32
   7   4   1   27.65    1.95
  -7  -4  -1   25.71    2.12
  -7  -4  -2  209.99    4.51
   7   4   2  199.75    5.72
  -7  -4  -2  195.08    6.36
  -7  -4  -3   29.12    1.16
  -7  -4  -3   28.00    2.20
  -7  -4  -4   -0.27    0.59
   7   4   4   -0.06    0.18
  -7  -4  -5   -0.28    0.72
   7   4   5    0.12    0.15
  -7  -4  -6   34.05    2.48
  -7  -4  -7    1.52    0.79
  -7  -4  -8    5.73    1.17
  -7  -4  -9   14.13    1.70
  -7  -4 -10   38.33    2.77
  -7  -4 -11    3.60    1.04
  -7  -4 -12    5.54    1.21
   7   5  -7   13.46    1.72
   7   5  -6    0.02    0.58
   7   5  -5    8.88    1.28
   7   5  -4    1.34    0.70
   7   5  -3   52.48    2.87
   7   5  -2    1.27    0.57
   7   5  -1    0.17    0.46
  -7  -5   0   25.92    2.28
  -7  -5   0   27.64    1.68
   7   5   0   25.70    1.87
  -7  -5  -1   46.82    3.06
  -7  -5  -1   50.20    2.17
   7   5   1   43.11    2.40
  -7  -5  -2   23.67    1.37
   7   5   2   24.34    1.77
  -7  -5  -2   21.57    2.09
   7   5   3    3.42    0.73
  -7  -5  -3    5.47    1.13
  -7  -5  -3    5.03    0.63
  -7  -5  -4   23.26    1.04
  -7  -5  -4   24.87    2.22
  -7  -5  -5    0.03    0.59
   7   5   5    0.52    0.28
  -7  -5  -6    0.83    0.74
   7   5   6    0.12    0.23
  -7  -5  -7    7.82    1.37
  -7  -5  -8    0.42    0.64
  -7  -5  -9   18.60    2.03
  -7  -5 -10   -1.34    0.86
  -7  -5 -11    8.13    1.98
  -7  -5 -12   -0.02    0.62
   7   6  -6   21.00    2.02
   7   6  -5    4.51    1.00
  -7  -6   5    4.27    1.03
   7   6  -4    3.11    0.82
  -7  -6   4    2.49    0.81
   7   6  -3    6.67    1.06
  -7  -6   3    8.10    1.23
   7   6  -2    1.31    0.58
  -7  -6   2    1.81    0.75
   7   6  -1   -0.39    0.49
  -7  -6   1    0.69    0.58
   7   6   0    0.54    0.57
  -7  -6   0    1.43    0.61
  -7  -6  -1   34.26    1.99
   7   6   1   31.75    1.98
  -7  -6  -2   11.99    1.12
  -7  -6  -2   13.66    1.75
   7   6   2   13.26    1.29
   7   6   3    0.53    0.39
  -7  -6  -3   -0.59    0.68
  -7  -6  -3    0.12    0.35
   7   6   4    0.97    0.54
  -7  -6  -4    1.35    0.83
  -7  -6  -5    9.10    1.46
   7   6   5    6.89    0.71
  -7  -6  -6    3.28    1.02
   7   6   6    5.21    0.61
  -7  -6  -7   -0.21    0.64
  -7  -6  -8    1.53    0.88
  -7  -6  -9    0.35    0.66
  -7  -6 -10   15.43    1.92
  -7  -6 -11    1.76    0.90
  -7  -7   4    3.56    1.04
  -7  -7   3    2.06    0.88
  -7  -7   2    8.53    1.30
  -7  -7   1    3.40    0.92
  -7  -7   0   13.97    1.48
  -7  -7  -1    0.57    0.63
  -7  -7  -2   21.83    1.67
  -7  -7  -3    6.45    1.46
  -7  -7  -4    3.54    1.08
  -7  -7  -5   12.34    1.87
   7   7   5   12.19    1.05
   7   7   6    5.47    0.71
  -7  -7  -6    5.89    1.40
  -7  -7  -7    0.90    0.83
  -7  -7  -8    3.81    1.13
  -7  -7  -9    0.70    0.77
  -7  -7 -10    3.98    1.25
  -7  -8   2    5.99    1.27
  -7  -8   1   -0.39    0.64
  -7  -8   0    5.44    1.13
  -7  -8  -5   23.21    2.56
   7   8   5   23.31    1.59
   8  -5  -3    0.38    0.68
   8  -5  -2    6.29    1.24
   8  -5  -1    6.65    1.28
  -8   5  -2    4.83    0.95
  -8   5  -3    1.70    0.64
  -8   5  -4    6.09    1.10
   8  -4  -5    9.20    1.49
   8  -4  -4    0.28    0.67
   8  -4  -3   23.29    2.18
   8  -4  -2    3.05    1.08
   8  -4  -1    1.73    0.87
  -8   4   0    3.54    0.75
  -8   4  -1    6.96    0.96
  -8   4  -2   43.27    2.47
  -8   4  -3    2.35    0.79
  -8   4  -4    0.47    0.61
  -8   4  -5   32.97    2.39
   8  -3  -5    1.41    0.87
   8  -3  -4    1.14    0.79
   8  -3  -3    3.74    1.10
   8  -3  -2    0.30    0.62
  -8   3   1   60.94    2.60
   8  -3  -1   63.07    3.51
  -8   3   0    0.59    0.45
  -8   3  -1   19.99    1.55
  -8   3  -2    1.65    0.64
  -8   3  -3    7.61    1.19
  -8   3  -4    3.67    0.83
  -8   3  -5   20.65    1.85
  -8   3  -6   27.71    2.18
   8  -2  -6   -1.09    0.78
   8  -2  -5    0.23    0.65
   8  -2  -4   16.62    1.87
   8  -2  -3   -0.79    0.74
   8  -2  -2    8.38    1.36
  -8   2   2    9.64    0.99
  -8   2   1   76.84    2.99
   8  -2  -1   74.81    3.82
  -8   2   0    5.82    0.90
  -8   2  -1    0.70    0.52
  -8   2  -2   46.76    2.46
  -8   2  -3    3.81    0.81
  -8   2  -4    7.22    1.11
  -8   2  -5    0.04    0.51
  -8   2  -6   47.89    2.84
  -8   2  -7    3.98    0.96
  -8   2  -8   40.45    2.76
   8  -1  -6   -0.52    0.54
   8  -1  -5    5.03    1.12
   8  -1  -4   10.02    1.47
   8  -1  -3    7.80    1.27
  -8   1   3    9.99    1.03
   8  -1  -2   71.50    3.73
  -8   1   2   76.39    2.96
   8  -1  -1    3.01    0.95
  -8   1   1    2.32    0.64
  -8   1   0   77.85    3.15
  -8   1  -1   15.20    1.40
  -8   1  -2    7.84    1.05
  -8   1  -3    7.38    1.07
  -8   1  -4   15.13    1.49
  -8   1  -5   16.96    1.60
  -8   1  -6   47.04    2.74
  -8   1  -7    0.40    0.54
  -8   1  -8    5.30    1.06
   8   0  -6   26.45    2.37
   8   0  -5    2.56    0.84
   8   0  -4   23.27    2.17
   8   0  -3    0.29    0.59
  -8   0   3    1.12    0.53
   8   0  -2   82.36    3.96
  -8   0   2   79.91    3.17
   8   0  -1   10.73    1.44
  -8   0   1   11.96    1.24
   8   0   0    5.82    1.09
  -8   0   0    6.55    0.95
  -8   0   0    5.57    0.88
  -8   0  -1   -0.46    0.53
  -8   0  -2   69.30    3.14
  -8   0  -3   37.09    2.30
  -8   0  -4   20.73    1.71
  -8   0  -5   11.85    1.39
  -8   0  -6    0.76    0.61
  -8   0  -7   26.70    2.13
  -8   0  -8   11.67    1.48
  -8   0  -9   20.39    1.91
   8   1  -6    4.99    1.14
   8   1  -5   17.77    1.91
   8   1  -4   44.70    2.98
  -8  -1   3   69.15    3.11
   8   1  -3   71.31    3.67
   8   1  -2   39.71    2.67
  -8  -1   2   35.27    2.21
   8   1  -1    1.02    0.69
  -8  -1   1    1.98    0.72
   8   1   0    2.31    0.76
  -8  -1   0    1.47    0.63
  -8  -1  -1   -0.09    0.49
  -8  -1  -2   81.23    3.49
  -8  -1  -3   84.68    3.63
  -8  -1  -4   19.15    1.73
  -8  -1  -5   13.66    1.50
  -8  -1  -6    3.47    0.87
  -8  -1  -7    2.32    0.75
  -8  -1  -8    4.23    1.02
  -8  -1  -9    9.14    1.36
  -8  -1 -10    5.76    1.20
   8   2  -6   24.69    2.31
   8   2  -5    1.87    1.01
   8   2  -4   -0.38    0.65
   8   2  -3    2.51    0.85
   8   2  -2    1.87    0.80
  -8  -2   2    1.45    0.70
   8   2  -1    5.41    1.05
  -8  -2   1    6.97    1.12
   8   2   0   47.40    2.80
  -8  -2   0   38.72    2.45
   8   2   1   70.05    3.45
  -8  -2  -1   70.19    3.33
  -8  -2  -2    1.12    0.72
  -8  -2  -3    7.76    1.18
  -8  -2  -4   89.86    3.91
  -8  -2  -5   50.66    2.92
  -8  -2  -6  121.45    4.75
  -8  -2  -7   10.37    1.41
  -8  -2  -8    0.58    0.79
  -8  -2  -9    8.47    1.38
  -8  -2 -10   21.99    2.10
   8   3  -6    2.80    0.98
   8   3  -5    8.78    1.43
   8   3  -4   30.32    2.42
   8   3  -3    0.81    0.57
   8   3  -2    0.33    0.61
  -8  -3   2    0.73    0.68
   8   3  -1    7.37    1.18
  -8  -3   1    9.08    1.34
   8   3   0   42.03    2.65
  -8  -3   0   40.22    2.66
   8   3   1   11.90    1.43
  -8  -3  -1   11.71    1.51
  -8  -3  -2   33.18    2.36
  -8  -3  -3   51.89    3.03
  -8  -3  -4    3.55    0.99
  -8  -3  -5   46.11    2.86
  -8  -3  -6   66.18    3.53
  -8  -3  -7   12.89    1.59
  -8  -3  -8    8.99    1.36
  -8  -3  -9    4.23    1.19
  -8  -3 -10   15.75    1.89
   8   4  -6    1.06    0.70
   8   4  -5    3.62    1.09
   8   4  -4    0.40    0.58
   8   4  -3    0.63    0.68
   8   4  -2   15.33    1.69
  -8  -4   1   12.54    1.66
   8   4  -1   14.79    1.59
   8   4   0   13.99    1.57
  -8  -4   0   11.03    1.54
   8   4   1   32.53    2.32
  -8  -4  -1   35.48    2.62
   8   4   2   46.15    2.73
  -8  -4  -2   51.30    3.16
  -8  -4  -3   12.72    1.60
  -8  -4  -4   -0.07    0.68
  -8  -4  -5    0.53    0.65
  -8  -4  -6    8.78    1.44
  -8  -4  -7   20.85    2.09
  -8  -4  -8   54.01    3.37
  -8  -4  -9   16.08    1.88
  -8  -4 -10    4.58    1.10
   8   5  -5   19.40    1.98
   8   5  -4    2.44    0.89
   8   5  -3    3.61    0.95
   8   5  -2   -0.60    0.54
   8   5  -1    5.73    1.10
  -8  -5   0   21.91    2.23
  -8  -5   0   26.99    1.70
   8   5   0   23.53    1.98
  -8  -5  -1   24.38    2.33
   8   5   1   22.60    1.89
  -8  -5  -2   18.56    2.13
   8   5   2   23.77    1.92
   8   5   3   62.87    3.14
  -8  -5  -3   69.12    3.85
  -8  -5  -4   31.23    2.64
  -8  -5  -5    7.85    1.44
  -8  -5  -6    1.75    0.92
  -8  -5  -7   12.90    1.77
  -8  -5  -8   12.97    1.78
  -8  -5  -9   14.28    1.88
   8   6  -4    6.53    1.19
  -8  -6   4    2.42    0.89
   8   6  -3    0.98    0.70
  -8  -6   3    0.58    0.73
   8   6  -2    2.27    0.78
  -8  -6   2    2.86    0.78
   8   6  -1    5.49    1.04
   8   6   0    0.03    0.48
   8   6   1    1.93    0.67
   8   6   2    4.39    0.95
  -8  -6  -2    2.06    0.96
   8   6   3    0.49    0.49
  -8  -6  -3    1.12    0.81
   8   6   4   36.71    2.31
  -8  -6  -4   32.44    2.83
   8   6   5   56.48    2.92
  -8  -6  -5   60.34    3.85
  -8  -6  -6    7.00    1.42
  -8  -6  -7    0.03    0.71
  -8  -6  -8    0.86    0.80
  -8  -7  -3   -0.29    0.81
  -8  -7  -4    5.60    1.33
  -9   4  -3    5.14    1.09
  -9   3  -2   20.48    1.80
  -9   3  -3   19.69    1.81
  -9   3  -4   10.23    1.38
  -9   3  -5   16.14    1.72
   9  -2  -1   16.13    1.92
  -9   2   0    1.60    0.72
   9  -2   0    1.48    0.91
  -9   2  -1   18.56    1.64
  -9   2  -2    0.57    0.59
  -9   2  -3    2.51    0.87
  -9   2  -4   26.75    2.13
  -9   2  -5    0.61    0.69
  -9   2  -6    2.13    0.82
   9  -1  -3    8.84    1.49
   9  -1  -2   28.48    2.48
   9  -1  -1    7.73    1.41
  -9   1   1    4.94    0.94
   9  -1   0   14.53    1.76
  -9   1   0   12.68    1.35
  -9   1  -1   11.11    1.31
  -9   1  -2   20.92    1.82
  -9   1  -3    7.21    1.14
  -9   1  -4   18.01    1.75
  -9   1  -5    2.26    0.80
  -9   1  -6   -0.35    0.58
  -9   1  -7    2.93    0.91
   9   0  -3    9.38    1.52
   9   0  -2   11.36    1.65
   9   0  -1    5.28    1.16
  -9   0   1    4.58    0.90
   9   0   0   29.61    2.45
  -9   0   0   30.87    2.18
  -9   0  -1    3.62    0.90
  -9   0  -2   -0.44    0.64
  -9   0  -3    1.05    0.64
  -9   0  -4    2.10    0.80
  -9   0  -5   54.36    3.13
  -9   0  -6    2.64    0.95
  -9   0  -7   11.81    1.56
   9   1  -3    7.10    1.36
   9   1  -2    1.46    0.73
  -9  -1   2    1.32    0.72
   9   1  -1    2.23    0.84
  -9  -1   1    1.75    0.67
   9   1   0   11.68    1.54
  -9  -1   0   11.15    1.42
   9   1   1    7.55    1.35
  -9  -1  -1    6.19    1.10
  -9  -1  -2   25.29    2.11
  -9  -1  -3   -0.37    0.59
  -9  -1  -4    9.23    1.36
  -9  -1  -5    0.95    0.73
  -9  -1  -6    0.53    0.67
  -9  -1  -7    4.55    1.08
  -9  -1  -8   11.82    1.61
   9   2  -3   28.79    2.50
   9   2  -2    1.48    0.82
  -9  -2   2    0.11    0.64
   9   2  -1   30.48    2.49
  -9  -2   1   31.68    2.39
   9   2   0    4.56    1.11
  -9  -2   0    2.38    0.92
   9   2   1    0.59    0.58
  -9  -2  -1    0.77    0.70
  -9  -2  -2    0.08    0.56
  -9  -2  -3    6.41    1.22
  -9  -2  -4   34.49    2.54
  -9  -2  -5    0.18    0.59
  -9  -2  -6    0.50    0.71
  -9  -2  -7   27.35    2.36
  -9  -2  -8    5.49    1.14
   9   3  -3   -0.98    0.67
   9   3  -2    1.28    0.88
  -9  -3   2    0.10    0.65
  -9  -3   1   19.46    2.05
   9   3  -1   21.19    2.09
   9   3   0   32.30    2.50
  -9  -3   0   31.29    2.62
   9   3   1   17.50    1.89
  -9  -3  -1   15.92    1.89
  -9  -3  -2    1.44    0.78
   9   3   2    0.12    0.59
  -9  -3  -3    5.91    1.15
  -9  -3  -4    5.81    1.26
  -9  -3  -5    1.67    0.85
  -9  -3  -6    1.37    0.65
  -9  -3  -7   -0.62    0.72
  -9  -3  -8    0.74    0.77
   9   4  -3    0.08    0.58
   9   4  -2    1.03    0.78
   9   4  -1    1.17    0.84
  -9  -4   1    0.98    0.77
   9   4   0    9.95    1.44
  -9  -4   0    8.12    1.50
   9   4   1    2.97    0.89
  -9  -4  -1    1.50    0.85
   9   4   2   10.52    1.51
  -9  -4  -2    8.71    1.50
   9   4   3   37.76    2.63
  -9  -4  -3   44.21    3.11
  -9  -4  -4   10.85    1.62
  -9  -4  -5    2.12    0.89
  -9  -4  -6   13.19    1.76
  -9  -4  -7    1.52    0.92
   9   5  -3    0.77    0.69
   9   5  -2    6.96    1.32
   9   5  -1    0.38    0.58
   9   5   0    3.17    0.95
  -9  -5   0    2.33    0.95
  -9  -5  -1    1.31    1.00
   9   5   1    0.32    0.61
   9   5   2   10.96    1.46
  -9  -5  -2   14.42    2.02
   9   5   3   11.39    1.48
  -9  -5  -3    7.56    1.39
   9   5   4    0.40    0.68
  -9  -5  -4    0.55    0.71
  -9  -5  -5   17.50    2.12
  -9  -5  -6    3.33    1.07
   9   6  -1    4.20    1.05
   9   6   0    4.31    1.09
   9   6   1    2.17    0.83
   9   6   2    8.56    1.32
   9   6   3    0.02    0.65
   9   6   4    3.18    0.96
   9   6   5   12.76    1.56
 -10   2  -3    2.92    0.98
 -10   2  -4    9.33    1.46
 -10   1  -2    3.60    0.97
 -10   1  -3   22.10    2.05
 -10   1  -4   16.49    1.83
 -10   0  -1   10.97    1.50
 -10   0  -2    3.25    1.00
 -10   0  -3    1.99    0.86
 -10   0  -4    6.96    1.24
 -10   0  -5    8.43    1.40
 -10  -1   0   31.32    2.41
 -10  -1  -1    2.46    0.98
 -10  -1  -2   -0.05    0.71
 -10  -1  -3    5.53    1.16
 -10  -1  -4    0.65    0.73
 -10  -1  -5   19.46    2.05
 -10  -2   1    9.43    1.50
 -10  -2   0    1.26    0.87
 -10  -2  -1    6.03    1.28
 -10  -2  -2    0.83    0.73
 -10  -2  -3   -0.38    0.60
 -10  -2  -4    5.62    1.16
 -10  -2  -5    4.79    1.17
 -10  -3   1   19.73    2.22
 -10  -3   0    0.94    0.81
 -10  -3  -1    2.23    0.92
  10   3   2    8.40    1.52
 -10  -3  -2    7.24    1.44
  10   3   3    1.99    0.80
 -10  -3  -3    2.19    0.95
 -10  -3  -4    6.66    1.33
 -10  -4   0   -0.73    0.85
  10   4   1   11.85    1.66
 -10  -4  -1   10.75    1.85
  10   4   2   -1.55    0.86
 -10  -4  -2   -0.59    0.90
  10   4   3    5.45    1.24
 -10  -4  -3    5.19    1.38
  10   4   4    7.22    1.37
  10   5   1    0.06    0.79
  10   5   2   -0.25    0.65
  10   5   3   27.72    2.43
  10   5   4   -1.25    0.87
  10   5   5    6.78    1.28
   0   0   0    0.00    0.00


TITL Er-1124 in P-1
REM P-1 (#2 in standard setting)
CELL 0.71073   7.958253   8.170824  12.751321  73.2361  81.1208  80.5626
ZERR    9.00   0.000287   0.000326   0.000441   0.0033   0.0029   0.0032
LATT  1
SFAC C H N O Mg S
UNIT 9.00 9.00 9.00 9.00 9.00 9.00
REM  CrysAlisPro recorded range (K): Min=289.2; max=290.2; aver:289.7
TEMP 17
TREF
HKLF 4
END
_computing_structure_solution     'SHELXT 2018/2 (Sheldrick, 2018)'
;
_shelx_hkl_checksum   23002

