 
data_er1658_sq
 
_audit_creation_method            'SHELXL-2019/3'
_shelx_SHELXL_version_number      '2019/3'
_chemical_name_systematic         ?
_chemical_name_common             ?
_chemical_melting_point           ?
_chemical_formula_moiety          ?
_chemical_formula_sum
 'C H N O S Zn' 
_chemical_formula_weight          140.46

loop_
 _atom_type_symbol
 _atom_type_description
 _atom_type_scat_dispersion_real
 _atom_type_scat_dispersion_imag
 _atom_type_scat_source
 'C'  'C'   0.0033   0.0016
 'International Tables Vol C Tables 4.2.6.8 and 6.1.1.4'
 'H'  'H'   0.0000   0.0000
 'International Tables Vol C Tables 4.2.6.8 and 6.1.1.4'
 'N'  'N'   0.0061   0.0033
 'International Tables Vol C Tables 4.2.6.8 and 6.1.1.4'
 'O'  'O'   0.0106   0.0060
 'International Tables Vol C Tables 4.2.6.8 and 6.1.1.4'
 'S'  'S'   0.1246   0.1234
 'International Tables Vol C Tables 4.2.6.8 and 6.1.1.4'
 'Zn'  'Zn'   0.2839   1.4301
 'International Tables Vol C Tables 4.2.6.8 and 6.1.1.4'
 
_space_group_crystal_system       tetragonal
_space_group_IT_number            88
_space_group_name_H-M_alt         'I 41/a'
_space_group_name_Hall            '-I 4ad'
 
_shelx_space_group_comment
;
The symmetry employed for this shelxl refinement is uniquely defined
by the following loop, which should always be used as a source of
symmetry information in preference to the above space-group names.
They are only intended as comments.
;
 
loop_
 _space_group_symop_operation_xyz
 'x, y, z'
 '-x+1/2, -y, z+1/2'
 '-y+3/4, x+1/4, z+1/4'
 'y+3/4, -x+3/4, z+3/4'
 'x+1/2, y+1/2, z+1/2'
 '-x+1, -y+1/2, z+1'
 '-y+5/4, x+3/4, z+3/4'
 'y+5/4, -x+5/4, z+5/4'
 '-x, -y, -z'
 'x-1/2, y, -z-1/2'
 'y-3/4, -x-1/4, -z-1/4'
 '-y-3/4, x-3/4, -z-3/4'
 '-x+1/2, -y+1/2, -z+1/2'
 'x, y+1/2, -z'
 'y-1/4, -x+1/4, -z+1/4'
 '-y-1/4, x-1/4, -z-1/4'
 
_cell_length_a                    28.532(4)
_cell_length_b                    28.532(4)
_cell_length_c                    11.664(3)
_cell_angle_alpha                 90
_cell_angle_beta                  90
_cell_angle_gamma                 90
_cell_volume                      9495(4)
_cell_formula_units_Z             88
_cell_measurement_temperature     150(2)
_cell_measurement_reflns_used     ?
_cell_measurement_theta_min       ?
_cell_measurement_theta_max       ?
 
_exptl_crystal_description        ?
_exptl_crystal_colour             ?
_exptl_crystal_density_meas       ?
_exptl_crystal_density_method     ?
_exptl_crystal_density_diffrn     2.162          
_exptl_crystal_F_000              5984
_exptl_transmission_factor_min    ?
_exptl_transmission_factor_max    ?
_exptl_crystal_size_max           ?
_exptl_crystal_size_mid           ?
_exptl_crystal_size_min           ?
_exptl_absorpt_coefficient_mu     5.984
_shelx_estimated_absorpt_T_min    ?
_shelx_estimated_absorpt_T_max    ?
_exptl_absorpt_correction_type    ?
_exptl_absorpt_correction_T_min   ?
_exptl_absorpt_correction_T_max   ?
_exptl_absorpt_process_details    ?
_exptl_absorpt_special_details    ?
_diffrn_ambient_temperature       150(2)
_diffrn_radiation_wavelength      0.71073
_diffrn_radiation_type            MoK\a
_diffrn_source                    ?
_diffrn_measurement_device_type   ?
_diffrn_measurement_method        ?
_diffrn_detector_area_resol_mean  ?
_diffrn_reflns_number             13246
_diffrn_reflns_av_unetI/netI      0.1523
_diffrn_reflns_av_R_equivalents   0.2467
_diffrn_reflns_limit_h_min        -25
_diffrn_reflns_limit_h_max        25
_diffrn_reflns_limit_k_min        -25
_diffrn_reflns_limit_k_max        25
_diffrn_reflns_limit_l_min        -10
_diffrn_reflns_limit_l_max        10
_diffrn_reflns_theta_min          1.427
_diffrn_reflns_theta_max          18.865
_diffrn_reflns_theta_full         18.865
_diffrn_measured_fraction_theta_max   0.991
_diffrn_measured_fraction_theta_full  0.991
_diffrn_reflns_Laue_measured_fraction_max    0.991
_diffrn_reflns_Laue_measured_fraction_full   0.991
_diffrn_reflns_point_group_measured_fraction_max   0.991
_diffrn_reflns_point_group_measured_fraction_full  0.991
_reflns_number_total              1858
_reflns_number_gt                 939
_reflns_threshold_expression      'I > 2\s(I)'
_reflns_Friedel_coverage          0.000
_reflns_Friedel_fraction_max      .
_reflns_Friedel_fraction_full     .
 
_reflns_special_details
;
 Reflections were merged by SHELXL according to the crystal
 class for the calculation of statistics and refinement.
 
 Structure factors included contributions from the .fab file.
 
 _reflns_Friedel_fraction is defined as the number of unique
 Friedel pairs measured divided by the number that would be
 possible theoretically, ignoring centric projections and
 systematic absences.
;
 
_computing_data_collection        ?
_computing_cell_refinement        ?
_computing_data_reduction         ?
_computing_structure_solution     'SHELXT 2018/2 (Sheldrick, 2018)'
_computing_structure_refinement 'SHELXL-2019/2 (Sheldrick, 2019)'
_computing_molecular_graphics     ?
_computing_publication_material   ?
_refine_special_details           ?
_refine_ls_structure_factor_coef  Fsqd
_refine_ls_matrix_type            full
_refine_ls_weighting_scheme       calc
_refine_ls_weighting_details
'w=1/[\s^2^(Fo^2^)+(0.2000P)^2^] where P=(Fo^2^+2Fc^2^)/3'
_atom_sites_solution_primary      ?
_atom_sites_solution_secondary    ?
_atom_sites_solution_hydrogens    geom
_refine_ls_hydrogen_treatment     constr
_refine_ls_extinction_method      none
_refine_ls_extinction_coef        .
_refine_ls_number_reflns          1858
_refine_ls_number_parameters      321
_refine_ls_number_restraints      120
_refine_ls_R_factor_all           0.1438
_refine_ls_R_factor_gt            0.0897
_refine_ls_wR_factor_ref          0.3003
_refine_ls_wR_factor_gt           0.2589
_refine_ls_goodness_of_fit_ref    0.956
_refine_ls_restrained_S_all       0.929
_refine_ls_shift/su_max           0.003
_refine_ls_shift/su_mean          0.001
 
loop_
 _atom_site_label
 _atom_site_type_symbol
 _atom_site_fract_x
 _atom_site_fract_y
 _atom_site_fract_z
 _atom_site_U_iso_or_equiv
 _atom_site_adp_type
 _atom_site_occupancy
 _atom_site_site_symmetry_order  
 _atom_site_calc_flag
 _atom_site_refinement_flags_posn
 _atom_site_refinement_flags_adp
 _atom_site_refinement_flags_occupancy
 _atom_site_disorder_assembly
 _atom_site_disorder_group
Zn01 Zn 0.500000 0.750000 0.625000 0.0629(13) Uani 1 4 d S T P . .
Zn02 Zn 0.500000 0.250000 -0.125000 0.0655(13) Uani 1 4 d S T P . .
S003 S 0.4445(2) 0.6949(2) 0.8747(4) 0.126(2) Uani 1 1 d . . . . .
O004 O 0.4825(3) 0.6992(4) 0.5177(9) 0.086(3) Uani 1 1 d . . . . .
O006 O 0.4829(4) 0.2983(4) -0.0164(9) 0.086(3) Uani 1 1 d . . . . .
O008 O 0.4630(4) 0.6571(4) 0.6741(10) 0.106(4) Uani 1 1 d . . . . .
O009 O 0.4640(4) 0.3432(4) -0.1705(12) 0.109(4) Uani 1 1 d . . . . .
C00G C 0.4680(6) 0.6616(6) 0.5664(16) 0.078(5) Uani 1 1 d . . . . .
C00K C 0.4706(6) 0.3368(7) -0.0621(16) 0.081(5) Uani 1 1 d . . . . .
N100 N 0.4208(11) 0.4013(9) 0.573(2) 0.113(5) Uani 0.524(5) 1 d . U P A 1
N101 N 0.4276(11) 0.4870(9) 0.614(2) 0.113(5) Uani 0.524(5) 1 d . U P A 1
S100 S 0.4206(4) 0.4372(3) 0.6757(7) 0.116(3) Uani 0.524(5) 1 d . U P A 1
C100 C 0.4444(12) 0.5050(13) 0.403(3) 0.098(5) Uani 0.524(5) 1 d . U P A 1
C101 C 0.4486(12) 0.4859(11) 0.299(3) 0.097(6) Uani 0.524(5) 1 d . U P A 1
H101 H 0.456022 0.505103 0.234552 0.117 Uiso 0.524(5) 1 calc R U P A 1
C102 C 0.4423(12) 0.4388(12) 0.284(3) 0.101(6) Uani 0.524(5) 1 d . U P A 1
C103 C 0.4310(13) 0.4053(12) 0.373(2) 0.103(6) Uani 0.524(5) 1 d . U P A 1
H103 H 0.428840 0.372588 0.357932 0.124 Uiso 0.524(5) 1 calc R U P A 1
C104 C 0.4240(13) 0.4227(12) 0.474(3) 0.107(5) Uani 0.524(5) 1 d . U P A 1
C105 C 0.4338(13) 0.4731(11) 0.498(3) 0.106(5) Uani 0.524(5) 1 d . U P A 1
S200 S 0.4200(4) 0.5624(3) -0.1769(7) 0.101(3) Uani 0.476(5) 1 d . U P A 2
N200 N 0.4303(11) 0.5135(9) -0.110(2) 0.098(5) Uani 0.476(5) 1 d . U P A 2
N201 N 0.4185(11) 0.5985(9) -0.072(2) 0.094(5) Uani 0.476(5) 1 d . U P A 2
C200 C 0.4422(13) 0.5627(11) 0.222(3) 0.086(6) Uani 0.476(5) 1 d . U P A 2
C201 C 0.4481(12) 0.5147(11) 0.199(3) 0.084(6) Uani 0.476(5) 1 d . U P A 2
H201 H 0.453532 0.494355 0.262451 0.101 Uiso 0.476(5) 1 calc R U P A 2
C202 C 0.4465(13) 0.4960(12) 0.095(3) 0.085(5) Uani 0.476(5) 1 d . U P A 2
C203 C 0.4341(13) 0.5260(11) 0.009(3) 0.089(5) Uani 0.476(5) 1 d . U P A 2
C204 C 0.4257(13) 0.5749(11) 0.028(3) 0.087(5) Uani 0.476(5) 1 d . U P A 2
C205 C 0.4311(13) 0.5946(11) 0.128(2) 0.087(5) Uani 0.476(5) 1 d . U P A 2
H205 H 0.427956 0.627423 0.138865 0.105 Uiso 0.476(5) 1 calc R U P A 2
N300 N 0.4456(6) 0.5506(5) 0.4215(14) 0.114(5) Uani 1 1 d . . . . .
N301 N 0.4498(5) 0.5812(6) 0.3288(12) 0.092(4) Uani 1 1 d . . . . .
N302 N 0.4518(6) 0.4207(6) 0.1705(13) 0.111(5) Uani 1 1 d . . . . .
N303 N 0.4464(7) 0.4497(6) 0.0755(14) 0.134(6) Uani 1 1 d . . . . .
C300 C 0.4490(8) 0.5751(9) 0.5154(18) 0.124(7) Uani 1 1 d . . . . .
H300 H 0.445308 0.563222 0.590889 0.148 Uiso 1 1 calc R U . . .
C301 C 0.4587(6) 0.6204(8) 0.4881(15) 0.095(6) Uani 1 1 d . . . . .
C302 C 0.4580(6) 0.6234(7) 0.3697(16) 0.089(5) Uani 1 1 d . . . . .
H302 H 0.462573 0.651021 0.325688 0.107 Uiso 1 1 calc R U . . .
C303 C 0.4518(7) 0.4237(8) -0.0178(16) 0.110(6) Uani 1 1 d . . . . .
H303 H 0.450125 0.435241 -0.094102 0.133 Uiso 1 1 calc R U . . .
C304 C 0.4601(6) 0.3774(7) 0.0114(13) 0.088(5) Uani 1 1 d . . . . .
C305 C 0.4595(5) 0.3772(7) 0.1311(15) 0.087(5) Uani 1 1 d . . . . .
H305 H 0.463956 0.350252 0.177740 0.104 Uiso 1 1 calc R U . . .
 
loop_
 _atom_site_aniso_label
 _atom_site_aniso_U_11
 _atom_site_aniso_U_22
 _atom_site_aniso_U_33
 _atom_site_aniso_U_23
 _atom_site_aniso_U_13
 _atom_site_aniso_U_12
Zn01 0.0819(17) 0.0819(17) 0.025(2) 0.000 0.000 0.000
Zn02 0.0849(17) 0.0849(17) 0.027(2) 0.000 0.000 0.000
S003 0.176(5) 0.168(5) 0.035(3) 0.003(3) 0.011(3) 0.062(4)
O004 0.100(8) 0.111(9) 0.046(7) -0.034(7) -0.013(6) -0.007(6)
O006 0.105(8) 0.082(7) 0.071(8) -0.009(7) 0.007(6) 0.000(6)
O008 0.172(12) 0.104(9) 0.041(8) -0.010(6) -0.010(7) 0.013(7)
O009 0.163(11) 0.090(9) 0.072(10) -0.020(7) 0.019(8) -0.002(7)
C00G 0.092(12) 0.089(14) 0.053(14) 0.015(12) -0.014(9) 0.017(10)
C00K 0.107(13) 0.094(15) 0.042(13) -0.051(12) 0.022(10) -0.029(11)
N100 0.182(10) 0.107(9) 0.050(8) -0.003(8) 0.006(8) 0.009(8)
N101 0.184(10) 0.107(9) 0.047(8) -0.012(7) -0.006(8) 0.006(8)
S100 0.194(8) 0.106(6) 0.048(5) -0.005(4) 0.009(5) 0.004(6)
C100 0.159(12) 0.098(11) 0.038(9) -0.019(9) -0.009(10) 0.005(10)
C101 0.156(12) 0.099(11) 0.037(10) -0.021(10) -0.015(10) 0.006(11)
C102 0.160(12) 0.104(11) 0.040(10) -0.022(10) -0.017(10) 0.011(11)
C103 0.166(12) 0.106(11) 0.039(10) -0.016(9) -0.017(10) 0.009(10)
C104 0.173(10) 0.106(9) 0.043(9) -0.009(8) -0.004(9) 0.010(9)
C105 0.171(10) 0.106(9) 0.042(8) -0.015(8) -0.010(9) 0.009(9)
S200 0.184(8) 0.089(6) 0.032(5) -0.008(4) -0.001(5) 0.007(5)
N200 0.176(10) 0.087(8) 0.030(8) -0.012(7) 0.005(8) -0.002(8)
N201 0.172(10) 0.081(8) 0.030(8) -0.003(7) -0.002(8) 0.002(8)
C200 0.153(12) 0.073(10) 0.031(10) -0.002(9) 0.000(10) -0.003(10)
C201 0.153(12) 0.068(10) 0.032(10) -0.005(9) -0.004(10) -0.003(10)
C202 0.155(12) 0.070(10) 0.029(9) -0.009(9) -0.005(10) 0.000(10)
C203 0.163(10) 0.079(8) 0.026(8) -0.009(7) 0.000(8) -0.004(8)
C204 0.163(10) 0.077(8) 0.021(8) -0.006(7) -0.002(8) -0.001(8)
C205 0.159(12) 0.077(10) 0.026(10) -0.004(9) 0.001(10) -0.002(10)
N300 0.222(18) 0.092(12) 0.028(10) -0.018(11) 0.012(9) 0.003(10)
N301 0.149(12) 0.086(11) 0.041(10) -0.006(10) 0.002(8) -0.002(8)
N302 0.174(15) 0.092(12) 0.066(13) -0.012(11) 0.024(10) 0.007(10)
N303 0.25(2) 0.130(15) 0.027(11) 0.006(12) -0.002(10) 0.016(12)
C300 0.20(2) 0.109(18) 0.062(17) -0.008(15) 0.004(13) -0.001(15)
C301 0.129(14) 0.121(18) 0.035(14) -0.040(12) 0.023(10) -0.021(12)
C302 0.123(14) 0.085(14) 0.059(16) -0.007(11) -0.029(10) 0.002(10)
C303 0.176(18) 0.115(18) 0.040(13) -0.023(13) -0.007(11) 0.006(13)
C304 0.150(15) 0.089(14) 0.024(12) -0.004(10) 0.002(9) -0.010(11)
C305 0.102(12) 0.100(15) 0.058(15) 0.004(11) -0.005(9) 0.003(10)
 
_geom_special_details
;
 All esds (except the esd in the dihedral angle between two l.s. planes)
 are estimated using the full covariance matrix.  The cell esds are taken
 into account individually in the estimation of esds in distances, angles
 and torsion angles; correlations between esds in cell parameters are only
 used when they are defined by crystal symmetry.  An approximate (isotropic)
 treatment of cell esds is used for estimating esds involving l.s. planes.
;
 
loop_
 _geom_bond_atom_site_label_1
 _geom_bond_atom_site_label_2
 _geom_bond_distance
 _geom_bond_site_symmetry_2
 _geom_bond_publ_flag
Zn01 O004 1.979(9) 12_767 ?
Zn01 O004 1.979(9) 6_564 ?
Zn01 O004 1.979(9) 15_566 ?
Zn01 O004 1.979(9) . ?
Zn02 O006 1.935(11) 16_655 ?
Zn02 O006 1.935(11) 11_665 ?
Zn02 O006 1.935(11) 6_554 ?
Zn02 O006 1.935(11) . ?
O004 C00G 1.282(17) . ?
O006 C00K 1.27(2) . ?
O008 C00G 1.271(19) . ?
O009 C00K 1.29(2) . ?
C00G C301 1.51(2) . ?
C00K C304 1.47(2) . ?
N100 C104 1.32(4) . ?
N100 S100 1.57(3) . ?
N101 C105 1.42(4) . ?
N101 S100 1.61(3) . ?
C100 N300 1.32(3) . ?
C100 C101 1.34(4) . ?
C100 C105 1.46(4) . ?
C101 C102 1.37(4) . ?
C101 H101 0.9500 . ?
C102 C103 1.44(4) . ?
C102 N302 1.45(3) . ?
C103 C104 1.29(4) . ?
C103 H103 0.9500 . ?
C104 C105 1.49(4) . ?
S200 N201 1.60(3) . ?
S200 N200 1.62(3) . ?
N200 C203 1.43(4) . ?
N201 C204 1.37(4) . ?
C200 N301 1.37(3) . ?
C200 C201 1.41(4) . ?
C200 C205 1.46(4) . ?
C201 C202 1.33(4) . ?
C201 H201 0.9500 . ?
C202 N303 1.34(3) . ?
C202 C203 1.37(4) . ?
C203 C204 1.43(4) . ?
C204 C205 1.30(4) . ?
C205 H205 0.9500 . ?
N300 C300 1.30(2) . ?
N300 N301 1.394(17) . ?
N301 C302 1.315(19) . ?
N302 C305 1.34(2) . ?
N302 N303 1.390(19) . ?
N303 C303 1.33(2) . ?
C300 C301 1.36(2) . ?
C300 H300 0.9500 . ?
C301 C302 1.38(2) . ?
C302 H302 0.9500 . ?
C303 C304 1.38(2) . ?
C303 H303 0.9500 . ?
C304 C305 1.40(2) . ?
C305 H305 0.9500 . ?
 
loop_
 _geom_angle_atom_site_label_1
 _geom_angle_atom_site_label_2
 _geom_angle_atom_site_label_3
 _geom_angle
 _geom_angle_site_symmetry_1
 _geom_angle_site_symmetry_3
 _geom_angle_publ_flag
O004 Zn01 O004 113.6(4) 12_767 6_564 ?
O004 Zn01 O004 101.5(8) 12_767 15_566 ?
O004 Zn01 O004 113.6(4) 6_564 15_566 ?
O004 Zn01 O004 113.6(4) 12_767 . ?
O004 Zn01 O004 101.5(8) 6_564 . ?
O004 Zn01 O004 113.6(4) 15_566 . ?
O006 Zn02 O006 98.2(7) 16_655 11_665 ?
O006 Zn02 O006 115.4(4) 16_655 6_554 ?
O006 Zn02 O006 115.4(4) 11_665 6_554 ?
O006 Zn02 O006 115.4(4) 16_655 . ?
O006 Zn02 O006 115.4(4) 11_665 . ?
O006 Zn02 O006 98.2(7) 6_554 . ?
C00G O004 Zn01 114.4(10) . . ?
C00K O006 Zn02 114.3(10) . . ?
O008 C00G O004 124.0(16) . . ?
O008 C00G C301 119.9(17) . . ?
O004 C00G C301 116.1(16) . . ?
O006 C00K O009 125.0(14) . . ?
O006 C00K C304 119.5(17) . . ?
O009 C00K C304 115.4(19) . . ?
C104 N100 S100 112(2) . . ?
C105 N101 S100 101(2) . . ?
N100 S100 N101 103.6(14) . . ?
N300 C100 C101 123(3) . . ?
N300 C100 C105 120(3) . . ?
C101 C100 C105 117(3) . . ?
C100 C101 C102 120(3) . . ?
C100 C101 H101 120.1 . . ?
C102 C101 H101 120.1 . . ?
C101 C102 C103 127(3) . . ?
C101 C102 N302 116(3) . . ?
C103 C102 N302 118(3) . . ?
C104 C103 C102 115(3) . . ?
C104 C103 H103 122.3 . . ?
C102 C103 H103 122.3 . . ?
C103 C104 N100 129(3) . . ?
C103 C104 C105 121(3) . . ?
N100 C104 C105 107(3) . . ?
N101 C105 C100 125(3) . . ?
N101 C105 C104 115(3) . . ?
C100 C105 C104 120(3) . . ?
N201 S200 N200 100.9(13) . . ?
C203 N200 S200 105(2) . . ?
C204 N201 S200 109(2) . . ?
N301 C200 C201 122(3) . . ?
N301 C200 C205 119(3) . . ?
C201 C200 C205 120(3) . . ?
C202 C201 C200 124(3) . . ?
C202 C201 H201 118.1 . . ?
C200 C201 H201 118.1 . . ?
C201 C202 N303 123(3) . . ?
C201 C202 C203 116(3) . . ?
N303 C202 C203 120(3) . . ?
C202 C203 N200 125(3) . . ?
C202 C203 C204 122(3) . . ?
N200 C203 C204 113(3) . . ?
C205 C204 N201 125(3) . . ?
C205 C204 C203 123(3) . . ?
N201 C204 C203 111(3) . . ?
C204 C205 C200 115(3) . . ?
C204 C205 H205 122.3 . . ?
C200 C205 H205 122.3 . . ?
C300 N300 C100 132(2) . . ?
C300 N300 N301 108.0(15) . . ?
C100 N300 N301 119.5(19) . . ?
C302 N301 C200 135.1(19) . . ?
C302 N301 N300 107.9(13) . . ?
C200 N301 N300 116.9(18) . . ?
C305 N302 N303 107.2(14) . . ?
C305 N302 C102 132(2) . . ?
N303 N302 C102 120(2) . . ?
C303 N303 C202 133(2) . . ?
C303 N303 N302 108.0(16) . . ?
C202 N303 N302 116.9(19) . . ?
N300 C300 C301 109.2(18) . . ?
N300 C300 H300 125.4 . . ?
C301 C300 H300 125.4 . . ?
C300 C301 C302 106.8(15) . . ?
C300 C301 C00G 129(2) . . ?
C302 C301 C00G 124(2) . . ?
N301 C302 C301 107.9(15) . . ?
N301 C302 H302 126.0 . . ?
C301 C302 H302 126.0 . . ?
N303 C303 C304 110.6(17) . . ?
N303 C303 H303 124.7 . . ?
C304 C303 H303 124.7 . . ?
C303 C304 C305 104.4(15) . . ?
C303 C304 C00K 130.0(18) . . ?
C305 C304 C00K 125.5(19) . . ?
N302 C305 C304 109.8(15) . . ?
N302 C305 H305 125.1 . . ?
C304 C305 H305 125.1 . . ?
 
_refine_diff_density_max    0.440
_refine_diff_density_min   -0.486
_refine_diff_density_rms    0.091

_shelx_res_file
;
TITL er1658_a.res in I4(1)/a
    er1658_sq.res
    created by SHELXL-2019/3 at 19:05:19 on 05-Oct-2023
REM Old TITL er1658 in I4(1)/a
REM SHELXT solution in I4(1)/a: R1 0.296, Rweak 0.008, Alpha 0.068
REM <I/s>   0.858 for  135 systematic absences,  Orientation as input
REM Formula found by SHELXT:  C36 N18 O14 S2 Zn
CELL  0.71073  28.5318  28.5318  11.6639   90.000   90.000   90.000
ZERR   88.000   0.0041   0.0041   0.0027    0.000    0.000    0.000
LATT  2
SYMM 1/2-X, -Y, 1/2+Z
SYMM 3/4-Y, 1/4+X, 1/4+Z
SYMM 3/4+Y, 3/4-X, 3/4+Z
SFAC C H N O S ZN
UNIT 88 88 88 88 88 88
OMIT 0 4 0

OMIT 2 4 0
OMIT -2 4 0
OMIT 2 6 0
OMIT -2 6 0
OMIT 3 4 1
OMIT -3 4 1

LIST 4
ACTA
OMIT 0 8 0
TEMP -123.150

L.S. 5 0   95
BOND $H
OMIT 0

SIMU 0.009 0.007 S200 > C205
SIMU 0.009 0.007 N100 > C105

FMAP 2
PLAN 20
ABIN
WGHT    0.200000
FVAR       0.14220   0.52415
ZN01  6    0.500000    0.750000    0.625000    10.25000    0.08192    0.08192 =
         0.02473    0.00000    0.00000    0.00000
ZN02  6    0.500000    0.250000   -0.125000    10.25000    0.08489    0.08489 =
         0.02661    0.00000    0.00000    0.00000
S003  5    0.444522    0.694866    0.874656    11.00000    0.17568    0.16797 =
         0.03473    0.00292    0.01056    0.06236
O004  4    0.482472    0.699212    0.517671    11.00000    0.09971    0.11075 =
         0.04634   -0.03404   -0.01258   -0.00735
O006  4    0.482922    0.298348   -0.016388    11.00000    0.10460    0.08212 =
         0.07070   -0.00857    0.00750   -0.00046
O008  4    0.462967    0.657149    0.674115    11.00000    0.17172    0.10410 =
         0.04086   -0.01021   -0.01019    0.01264
O009  4    0.463994    0.343223   -0.170483    11.00000    0.16347    0.08982 =
         0.07234   -0.02015    0.01923   -0.00208
C00G  1    0.467954    0.661649    0.566361    11.00000    0.09202    0.08872 =
         0.05349    0.01455   -0.01395    0.01692
C00K  1    0.470577    0.336804   -0.062084    11.00000    0.10689    0.09436 =
         0.04236   -0.05145    0.02156   -0.02910
PART 1 21.0
N100  3    0.420807    0.401297    0.573319    21.00000    0.18213    0.10709 =
         0.05045   -0.00333    0.00571    0.00927
N101  3    0.427587    0.486964    0.613949    21.00000    0.18419    0.10665 =
         0.04728   -0.01234   -0.00590    0.00553
S100  5    0.420649    0.437150    0.675651    21.00000    0.19379    0.10552 =
         0.04801   -0.00492    0.00908    0.00378
C100  1    0.444426    0.504994    0.403028    21.00000    0.15890    0.09792 =
         0.03755   -0.01935   -0.00896    0.00497
C101  1    0.448634    0.485919    0.298622    21.00000    0.15564    0.09864 =
         0.03734   -0.02145   -0.01534    0.00583
AFIX  43
H101  2    0.456022    0.505103    0.234552    21.00000   -1.20000
AFIX   0
C102  1    0.442271    0.438753    0.284430    21.00000    0.15990    0.10399 =
         0.03961   -0.02207   -0.01697    0.01130
C103  1    0.430991    0.405252    0.372824    21.00000    0.16558    0.10559 =
         0.03912   -0.01555   -0.01679    0.00933
AFIX  43
H103  2    0.428840    0.372588    0.357932    21.00000   -1.20000
AFIX   0
C104  1    0.424000    0.422696    0.473763    21.00000    0.17276    0.10624 =
         0.04288   -0.00868   -0.00388    0.00953
C105  1    0.433836    0.473106    0.497860    21.00000    0.17133    0.10618 =
         0.04196   -0.01454   -0.00958    0.00950
PART 2 -21.0
S200  5    0.420012    0.562391   -0.176947   -21.00000    0.18376    0.08867 =
         0.03195   -0.00816   -0.00081    0.00676
N200  3    0.430330    0.513547   -0.109946   -21.00000    0.17606    0.08663 =
         0.03040   -0.01192    0.00525   -0.00165
N201  3    0.418465    0.598524   -0.072083   -21.00000    0.17154    0.08130 =
         0.02961   -0.00322   -0.00216    0.00193
C200  1    0.442200    0.562734    0.221665   -21.00000    0.15337    0.07274 =
         0.03119   -0.00243   -0.00022   -0.00294
C201  1    0.448094    0.514685    0.199336   -21.00000    0.15292    0.06836 =
         0.03161   -0.00468   -0.00431   -0.00308
AFIX  43
H201  2    0.453532    0.494355    0.262451   -21.00000   -1.20000
AFIX   0
C202  1    0.446488    0.496023    0.094673   -21.00000    0.15505    0.07028 =
         0.02923   -0.00895   -0.00490   -0.00040
C203  1    0.434115    0.526045    0.008548   -21.00000    0.16275    0.07859 =
         0.02632   -0.00900   -0.00042   -0.00373
C204  1    0.425690    0.574932    0.028379   -21.00000    0.16264    0.07727 =
         0.02113   -0.00557   -0.00219   -0.00139
C205  1    0.431067    0.594576    0.127928   -21.00000    0.15871    0.07671 =
         0.02587   -0.00434    0.00119   -0.00187
AFIX  43
H205  2    0.427956    0.627423    0.138865   -21.00000   -1.20000
AFIX   0
PART 0
N300  3    0.445605    0.550617    0.421481    11.00000    0.22236    0.09192 =
         0.02780   -0.01846    0.01191    0.00256
N301  3    0.449831    0.581190    0.328826    11.00000    0.14876    0.08637 =
         0.04122   -0.00574    0.00192   -0.00207
N302  3    0.451751    0.420747    0.170484    11.00000    0.17350    0.09232 =
         0.06573   -0.01205    0.02388    0.00725
N303  3    0.446356    0.449671    0.075480    11.00000    0.24539    0.13017 =
         0.02739    0.00564   -0.00157    0.01647
C300  1    0.449001    0.575119    0.515357    11.00000    0.19960    0.10925 =
         0.06168   -0.00805    0.00359   -0.00136
AFIX  43
H300  2    0.445308    0.563222    0.590889    11.00000   -1.20000
AFIX   0
C301  1    0.458665    0.620398    0.488068    11.00000    0.12919    0.12106 =
         0.03476   -0.03997    0.02318   -0.02142
C302  1    0.457976    0.623382    0.369690    11.00000    0.12335    0.08527 =
         0.05857   -0.00659   -0.02927    0.00227
AFIX  43
H302  2    0.462573    0.651021    0.325688    11.00000   -1.20000
AFIX   0
C303  1    0.451767    0.423703   -0.017807    11.00000    0.17582    0.11512 =
         0.04044   -0.02304   -0.00724    0.00576
AFIX  43
H303  2    0.450125    0.435241   -0.094102    11.00000   -1.20000
AFIX   0
C304  1    0.460142    0.377436    0.011393    11.00000    0.15036    0.08913 =
         0.02412   -0.00447    0.00217   -0.01039
C305  1    0.459531    0.377192    0.131115    11.00000    0.10218    0.10029 =
         0.05765    0.00450   -0.00514    0.00252
AFIX  43
H305  2    0.463956    0.350252    0.177740    11.00000   -1.20000
AFIX   0
HKLF 4




REM  er1658_a.res in I4(1)/a
REM wR2 = 0.3003, GooF = S = 0.956, Restrained GooF = 0.929 for all data
REM R1 = 0.0897 for 939 Fo > 4sig(Fo) and 0.1438 for all 1858 data
REM 321 parameters refined using 120 restraints

END

WGHT      0.2000      0.0000

REM Highest difference peak  0.440,  deepest hole -0.486,  1-sigma level  0.091
Q1    1   0.3812  0.5377 -0.1629  11.00000  0.05    0.37
Q2    1   0.3781  0.4536  0.6394  11.00000  0.05    0.35
Q3    1   0.4001  0.6713  0.8763  11.00000  0.05    0.28
Q4    1   0.4333  0.6828  0.8754  11.00000  0.05    0.25
Q5    1   0.4433  0.6745  0.8771  11.00000  0.05    0.25
Q6    1   0.5224  0.6912  0.6274  11.00000  0.05    0.24
Q7    1   0.3936  0.5662 -0.2416  11.00000  0.05    0.24
Q8    1   0.4135  0.5879 -0.1830  11.00000  0.05    0.22
Q9    1   0.4543  0.5616 -0.1824  11.00000  0.05    0.22
Q10   1   0.2901  0.5169 -0.2706  11.00000  0.05    0.22
Q11   1   0.3834  0.5859  0.0682  11.00000  0.05    0.22
Q12   1   0.3910  0.5020 -0.2378  11.00000  0.05    0.22
Q13   1   0.4862  0.4842  0.2238  11.00000  0.05    0.21
Q14   1   0.3921  0.4225  0.4273  11.00000  0.05    0.21
Q15   1   0.4401  0.4873  0.2703  11.00000  0.05    0.21
Q16   1   0.4953  0.4879  0.0543  11.00000  0.05    0.21
Q17   1   0.4007  0.5964  0.0260  11.00000  0.05    0.21
Q18   1   0.4354  0.4303  0.4911  11.00000  0.05    0.20
Q19   1   0.2762  0.5263 -0.1376  11.00000  0.05    0.20
Q20   1   0.4970  0.4786  0.5349  11.00000  0.05    0.20
;
_shelx_res_checksum   33228

_shelx_hkl_file
;
   0   2   0   -1.30    1.10
  -1   3   0   10.00    4.60
  -1  -3   0  118.59   32.00
  -3   3   0   -0.40    3.20
  -3  -3   0   -2.00    4.90
   3  -3   0    2.40    5.70
   3   3   0    3.30    4.50
   2  -4   0  558.74  152.58
  -2   4   0  714.83  154.38
  -4   0   0 1748.93  416.96
   0  -4   0 1766.52  418.76
   4   0   0 1705.73  416.96
   2   4   0  550.64  133.89
  -2  -4   0  562.84  133.99
   4  -2   0  532.25  134.29
  -4  -4   0    3.80    6.40
   4  -4   0    2.30    5.70
   4   4   0   -0.20    6.00
  -4   4   0  -11.30    5.90
  -3   5   0    0.60   14.70
   3  -5   0    9.50   11.50
  -5  -1   0   76.49   18.20
   5   1   0   88.49   18.40
   1  -5   0   29.50   19.10
   1   5   0   45.10   17.30
  -1  -5   0   92.59   23.10
  -5   1   0   48.40   17.70
   5  -1   0   86.19   20.20
   5  -3   0   -8.60    6.30
  -3  -5   0    5.20    7.70
   3   5   0   -4.30    7.70
  -5  -5   0   -0.50    6.90
   5  -5   0   -2.80   10.90
  -5   5   0   10.00   12.80
   5   5   0    2.00    7.60
   6   4   0  221.08   48.90
  -6  -4   0  174.88   48.70
   4  -6   0  221.78   59.19
  -2   6   0 4243.78  931.81
   2  -6   0 3554.74  929.91
   0  -6   0  144.99   34.80
  -6   0   0   98.99   26.10
   0   6   0   72.89   27.40
   6   0   0   90.69   27.40
  -2  -6   0 3498.65  794.22
  -6   2   0 3253.77  793.52
   6  -2   0 3261.87  793.72
   2   6   0 3207.08  793.92
   4   6   0  243.88   59.49
  -4  -6   0  268.27   61.89
   6  -4   0  183.68   58.59
  -6  -6   0  965.50  231.28
   6  -6   0  973.30  235.58
   6   6   0 1002.50  231.38
  -6   6   0  836.02  234.38
   5  -7   0  126.09   39.00
   7   5   0   86.39   27.70
  -5   7   0  176.88   45.30
  -7  -5   0  118.69   28.20
  -3   7   0  110.39   41.10
   3  -7   0  235.48   50.49
  -1   7   0   19.70   12.80
   1  -7   0    3.00   11.00
  -7  -1   0   28.50    9.70
   7   1   0   35.60    9.70
   1   7   0   18.70   11.50
  -1  -7   0   39.30   17.30
   7  -1   0   28.40   13.20
  -7   1   0   35.20   13.80
  -3  -7   0  188.18   51.59
  -7   3   0  156.18   50.59
   3   7   0  298.87   56.99
   7  -3   0  185.78   52.49
  -5  -7   0   80.39   22.60
   5   7   0  111.59   25.60
   7  -5   0   40.50   21.20
   7   7   0  -10.80    5.60
  -7   7   0   -7.20    7.20
   7  -7   0   36.30   18.20
  -7  -7   0   -4.90    6.90
  -8  -6   0  419.46  101.09
  -6   8   0  476.45  113.69
   6  -8   0  309.47  107.59
   8   6   0  428.06  101.19
   4  -8   0  776.82  224.78
  -4   8   0 1227.18  245.98
  -2   8   0 3144.19  665.63
   8   2   0 2614.14  657.63
   2  -8   0 3260.37  666.63
  -8  -2   0 2587.64  657.63
  -8   0   0 9999.00 2345.67
   8   0   0 9725.23 2345.67
   0  -8   0 9710.43 2348.97
   0   8   0 9696.03 2348.97
   2   8   0 2587.24  586.84
  -8   2   0 2313.17  585.04
  -2  -8   0 2476.25  586.74
   8  -2   0 2382.86  585.34
   8  -4   0  577.64  146.69
   4   8   0  596.24  145.79
  -8   4   0  460.05  148.79
  -4  -8   0  680.13  146.39
   8  -6   0  347.57  104.99
  -6  -8   0  422.76  101.89
   6   8   0  426.86  101.89
  -8   8   0 1738.03  377.06
   8   8   0 1500.15  370.76
   8  -8   0 1410.86  377.66
  -7   9   0   -4.30   11.30
   7  -9   0   -1.10   33.70
  -9  -7   0    0.40    5.50
   9   7   0    7.80    6.70
   5  -9   0   25.50   18.70
  -5   9   0    5.40    8.40
   3  -9   0   35.20   21.00
  -3   9   0    4.80   35.80
  -9  -1   0   -2.00    6.40
  -1   9   0    7.60   10.90
   9   1   0    6.30    7.20
   1  -9   0   -4.80   11.30
   1   9   0    8.90    9.20
  -1  -9   0    4.80   11.40
  -9   1   0    0.30    8.60
   9  -1   0   19.20   10.10
   9  -3   0   13.40   12.00
  -3  -9   0   17.50   13.80
  -9   3   0   19.40   12.20
   3   9   0   22.80   15.60
  -5  -9   0   21.20   12.50
   5   9   0   56.89   16.90
   9  -5   0    4.60   13.90
   7   9   0  -10.40    7.20
  -9   7   0   15.00   11.10
  -7  -9   0   -1.10    7.00
   9  -7   0  -11.60    8.30
   9   9   0    0.20    7.30
   9  -9   0    4.80   35.40
  -9  -9   0    3.20    9.10
   8 -10   0  303.87  108.09
 -10  -8   0  417.36   98.99
  10   8   0  411.36   98.99
   6 -10   0  493.35  132.19
   4 -10   0  569.24  158.18
  -4  10   0  698.93  163.48
  10   2   0  873.11  210.38
 -10  -2   0  859.11  210.28
  -2  10   0  943.91  219.38
   2 -10   0  866.31  217.38
   0 -10   0 1041.50  238.18
 -10   0   0  952.30  232.68
  10   0   0  930.01  232.58
   0  10   0  970.40  237.38
   2  10   0  832.82  199.18
 -10   2   0  754.12  196.38
  -2 -10   0  912.21  199.98
  10  -2   0  765.62  196.48
  10  -4   0  851.81  193.28
  -4 -10   0  705.63  192.38
 -10   4   0  765.92  192.38
   4  10   0  802.22  192.78
   6  10   0  559.24  137.09
  10  -6   0  602.04  146.69
  -6 -10   0  520.05  136.89
 -10   8   0  430.26  117.09
   8  10   0  373.26  109.09
  -8 -10   0  466.45  110.69
  10  -8   0  491.35  120.89
  10 -10   0  169.48   56.99
  10  10   0  190.08   50.19
 -10 -10   0  193.08   50.69
 -10  10   0  153.48   58.59
   9 -11   0    6.90   19.10
  -9  11   0  -11.90    9.60
  11   9   0    2.20    7.10
 -11  -9   0    9.60    8.10
  -7  11   0   -3.10   33.10
   7 -11   0    6.30   12.10
   5 -11   0  -11.10    9.70
  -5  11   0   14.40   21.10
   3 -11   0   46.70   42.10
  11   1   0   10.50    8.20
  -1  11   0   -4.40   11.80
 -11  -1   0    0.50    6.60
   1 -11   0   10.30   12.30
  -1 -11   0   -0.60    9.20
   1  11   0    5.10    9.70
  11  -1   0    4.60    7.70
 -11   1   0   11.60    9.10
 -11   3   0   11.70   10.70
  11  -3   0    7.90    9.50
   3  11   0  -10.60    7.90
  11  -5   0    4.90   13.80
   5  11   0   -1.30   11.50
  -5 -11   0  -10.60    7.00
 -11   5   0    8.80   13.20
  -7 -11   0   -1.90    9.60
   7  11   0   -8.50    7.10
  11  -7   0    3.60   14.00
   9  11   0   -0.80    7.90
 -11   9   0   -6.70   12.10
  -9 -11   0   -7.60    6.90
  11  -9   0    2.70   17.70
  11 -11   0  -22.70   10.20
 -11 -11   0   -1.80    7.10
 -11  11   0   -3.40   10.80
  11  11   0   -7.40    7.70
 -10  12   0   49.10   24.20
 -12 -10   0   14.50   12.40
  10 -12   0   47.00   28.00
  12  10   0   84.99   17.40
  -8  12   0   28.40   15.70
   8 -12   0    3.40   13.60
  -6  12   0  299.07   75.49
   6 -12   0  179.08   60.69
  -4  12   0 1117.59  197.68
   4 -12   0  550.74  176.28
  -2  12   0  648.94  126.59
 -12  -2   0  381.16   97.59
   2 -12   0  439.66  112.69
  12   2   0  394.56   97.69
   0  12   0   65.29   28.80
  12   0   0   46.00   16.70
 -12   0   0   59.49   17.70
   0 -12   0   19.40   18.70
  12  -2   0  436.76   95.99
  -2 -12   0  434.16  101.99
 -12   2   0  400.76   94.09
   2  12   0  241.78   92.29
 -12   4   0  643.84  176.08
  -4 -12   0  816.22  178.78
   4  12   0  698.83  177.48
 -12   6   0  286.87   75.79
  -6 -12   0  286.87   72.59
   6  12   0  220.18   69.79
  12  -6   0  264.87   74.99
  12  -8   0  -10.10    8.80
   8  12   0    1.90   10.40
  -8 -12   0    7.00   10.30
  10  12   0   56.49   19.80
  12 -10   0   29.10   24.00
 -12  10   0   25.80   21.40
 -10 -12   0   42.10   18.80
 -12  12   0  101.29   47.80
  12  12   0  179.58   48.40
  12 -12   0  237.68   65.49
 -12 -12   0  220.88   49.10
  11 -13   0    5.00   14.30
  13  11   0   16.50   10.10
 -11  13   0    2.30   19.30
 -13 -11   0   -2.20    7.10
   9 -13   0    6.60   17.00
  -9  13   0    6.10   13.40
  -7  13   0   18.10   19.10
   7 -13   0   -3.40   10.50
   5 -13   0   -3.30   13.40
  -5  13   0    7.20   13.30
  -3  13   0   12.10   12.40
   3 -13   0   -6.40    9.70
  -1  13   0   46.60   25.30
   1 -13   0   -9.70   34.20
 -13  -1   0   -6.20    6.30
  13   1   0   11.00    8.60
  -1 -13   0    3.90   11.10
   1  13   0  -12.70    8.10
 -13   1   0  -11.40    7.30
  13  -1   0    0.70    7.60
  13  -3   0    4.40   12.40
   3  13   0   14.10   13.20
 -13   3   0   10.30   11.90
  -3 -13   0   -2.00   14.70
  13  -5   0    5.10   10.10
   5  13   0    1.00   11.20
  -5 -13   0   19.60   16.00
 -13   5   0    0.20   12.00
 -13   7   0   -7.80   11.20
   7  13   0   -4.80    7.90
  13  -7   0   -0.90    8.40
  -7 -13   0  -12.90    9.20
  -9 -13   0    3.80    8.90
   9  13   0    3.30    9.50
  13  -9   0    2.50   13.00
 -13   9   0   -0.70    4.60
 -13  11   0    3.00   10.90
  11  13   0    3.80    9.70
 -11 -13   0   13.60   10.50
  13 -11   0   -3.80    8.30
 -13 -13   0    5.90    8.90
  13  13   0   -5.70    7.20
  13 -13   0  -12.20    8.80
 -13  13   0   -1.60   12.50
  14  12   0  311.07   70.09
  12 -14   0  173.68   73.69
 -14 -12   0  292.67   69.59
 -12  14   0  241.98   83.89
 -10  14   0  163.68   60.29
  10 -14   0  184.08   64.19
   8 -14   0  238.48   71.59
  -8  14   0  192.48   70.29
  -6  14   0  597.24  174.18
   6 -14   0  879.81  193.08
   4 -14   0  656.43  176.48
  -4  14   0  637.64  175.18
 -14  -2   0   17.00   10.60
   2 -14   0   37.80   31.00
  -2  14   0   21.70   19.10
  14   2   0   25.00   10.50
   0 -14   0   70.19   27.00
 -14   0   0   98.79   27.00
  14   0   0   69.19   24.90
   0  14   0   77.79   33.20
 -14   2   0   25.70   14.30
  14  -2   0    3.50    9.40
  -2 -14   0   82.79   29.40
   2  14   0    3.60   13.90
 -14   4   0  495.45  140.69
  14  -4   0  496.05  141.29
  -4 -14   0  650.13  149.09
   4  14   0  685.63  150.08
  -6 -14   0  560.94  164.78
   6  14   0  717.33  168.98
 -14   6   0  589.44  166.58
  14  -6   0  798.62  173.18
   8  14   0  177.38   54.49
  -8 -14   0  240.38   58.59
  14  -8   0  171.48   55.79
  14 -10   0  191.48   54.59
 -10 -14   0  105.29   37.60
  10  14   0  122.09   38.70
  14 -12   0  177.38   68.99
  12  14   0  230.88   65.29
 -12 -14   0  285.97   66.19
 -14  14   0  267.97   79.89
  14  14   0  232.88   58.79
 -14 -14   0  213.08   57.89
  14 -14   0  151.48   64.39
 -13  15   0    8.10   14.90
  13 -15   0  -14.50   11.10
  15  13   0   10.10    7.70
 -15 -13   0   -3.60    6.60
  11 -15   0   16.70   22.30
 -11  15   0   -5.50   16.90
  -9  15   0   16.00   25.80
   9 -15   0   45.60   30.40
  -7  15   0  -18.40   35.30
   7 -15   0   16.00   20.90
  -5  15   0   19.50   17.10
   5 -15   0   33.10   30.60
 -15  -3   0    5.70    5.80
  -3  15   0    7.70   34.00
   3 -15   0   30.40   20.40
 -15  -3   0   14.70    5.60
 -15  -1   0    8.60    9.70
  -1  15   0   20.90   20.40
  15   1   0    5.80    8.90
   1 -15   0   37.20   19.30
  15  -1   0   17.30   12.20
  -1 -15   0  -14.90   10.30
 -15   1   0   20.90   12.40
   1  15   0   -3.70   13.50
   3  15   0    1.00   10.40
  -3 -15   0   -9.00   11.00
  15  -3   0   12.70   11.50
 -15   3   0   17.20   13.40
 -15   5   0   19.10   14.40
   5  15   0    2.80   12.00
  -5 -15   0   29.20   16.10
  15  -5   0    6.10   11.50
  -7 -15   0   18.70   15.40
   7  15   0   -7.60    8.00
 -15   7   0   18.00   13.90
  15  -7   0  -13.40    9.10
   9  15   0   15.40   13.10
  -9 -15   0   -1.00   10.20
  15  -9   0    5.20   10.10
  15 -11   0   23.10   15.40
 -11 -15   0   -6.50    8.10
  11  15   0   -4.00    8.40
 -15  11   0   -6.10    9.20
  13  15   0   -4.50    8.70
 -13 -15   0  -12.20    6.90
 -15  13   0   -1.70   18.80
  15 -13   0   27.90   26.30
  15 -15   0   32.50   29.30
 -15  15   0    1.40   15.40
 -15 -15   0    9.70   10.60
  15  15   0    5.90    9.50
  14 -16   0  175.08   63.69
 -14  16   0  135.29   52.59
  16  14   0  137.09   37.90
  12 -16   0   82.09   41.60
 -12  16   0  185.38   59.69
  10 -16   0   11.40   26.40
 -10  16   0   33.10   32.40
   8 -16   0   -0.50   19.30
  -8  16   0   90.99   54.99
  -6  16   0   52.09   24.60
  -4  16   0  884.51  231.38
   4 -16   0  829.42  232.88
 -16  -2   0  198.28   42.40
  16   2   0  123.79   40.40
   2 -16   0  388.66   81.09
  -2  16   0  112.19   49.00
 -16   0   0  711.53  172.38
   0  16   0  470.65  176.98
   0 -16   0  663.63  182.88
  16   0   0  843.22  173.08
  -2 -16   0   81.69   36.50
 -16   2   0   94.09   32.30
  16  -2   0  135.89   35.70
   2  16   0  100.19   34.30
  16  -4   0  421.96  130.39
 -16   4   0  537.85  132.29
   4  16   0  516.65  135.59
  -4 -16   0  629.24  144.69
  16  -6   0   96.19   34.20
   6  16   0  117.99   36.00
  -6 -16   0   77.09   35.40
 -16   6   0  101.99   37.20
 -16   8   0    0.30   12.00
  -8 -16   0   -2.30   11.70
  16  -8   0   10.40   14.30
   8  16   0    3.70   12.00
  10  16   0    4.70   13.10
 -10 -16   0   22.20   16.40
  16 -10   0    5.20   12.50
 -12 -16   0  145.49   39.60
  16 -12   0   92.59   38.70
 -16  12   0   88.59   39.30
  12  16   0  113.59   36.90
  14  16   0  112.79   38.40
 -14 -16   0  127.89   37.10
  16 -14   0  154.88   56.69
 -16  14   0   82.49   42.30
 -16 -16   0  176.38   39.30
  16 -16   0  159.48   57.99
 -16  16   0   58.79   38.00
  16  16   0  142.69   38.20
 -15  17   0   -2.80   22.00
  17  15   0    2.20    7.60
  15 -17   0   14.50   21.30
 -13  17   0  -11.00   11.50
  13 -17   0   -4.90   13.60
 -11  17   0   -2.00   17.70
  11 -17   0    1.80   16.30
   9 -17   0   16.90   25.00
  -9  17   0   -4.80   11.30
   7 -17   0   26.60   21.60
  -7  17   0   -7.00   13.30
   5 -17   0   -8.00    9.50
  -5  17   0  -16.30   10.50
   3 -17   0    2.90   13.30
 -17  -3   0   11.00    6.70
 -17  -3   0   13.20    6.00
  -3  17   0   20.30   17.50
 -17  -1   0   10.80   15.60
  -1  17   0    1.60   14.70
   1 -17   0   -7.40   11.50
  17   1   0    7.90    9.80
  17  -1   0    8.20    9.20
   1  17   0    5.40   14.80
 -17   1   0    7.30   10.90
  -1 -17   0    0.80   17.50
  17  -3   0    7.90   11.00
   3  17   0   -4.80    9.10
 -17   3   0   40.90   17.80
  -3 -17   0    0.40   14.60
 -17   5   0   -1.60   11.80
   5  17   0    0.80   11.40
  17  -5   0   -7.30    8.40
  -5 -17   0    5.80   12.10
 -17   7   0    9.80   16.30
  -7 -17   0   34.80   22.70
   7  17   0   -1.20   10.90
  17  -7   0   31.50   23.20
   9  17   0   -5.80    8.20
  17  -9   0    3.20   14.00
  -9 -17   0   -3.40   10.40
 -17   9   0   -0.70   11.60
  11  17   0    5.00   12.00
  17 -11   0   -2.80   11.10
 -11 -17   0   -2.10    9.40
  13  17   0   -1.20    9.50
 -13 -17   0    9.40   12.20
 -17  13   0   -2.30   11.70
  17 -13   0    5.40   16.00
  15  17   0    0.10   10.30
  17 -15   0   16.90   20.20
 -17  15   0  -15.00   10.00
 -15 -17   0   -8.10    9.50
  17 -17   0   14.00   21.20
 -17  17   0   31.80   31.50
 -17 -17   0    6.00    9.60
  17  17   0    8.70   11.00
  18  16   0  119.19   30.40
  16 -18   0  151.48   49.70
  18  16   0  100.99   30.50
 -16  18   0  105.39   53.29
  14 -18   0   95.29   40.70
 -14  18   0   37.20   27.40
  12 -18   0   38.30   28.50
 -12  18   0   73.79   34.20
 -10  18   0    9.90   48.70
   8 -18   0   52.79   34.80
  -8  18   0  115.99   46.00
  -6  18   0  175.38   60.29
   4 -18   0  470.35  145.09
  -4  18   0  503.15  146.69
  18   2   0   86.89   24.50
   2 -18   0  163.68   52.99
 -18  -2   0  131.39   26.60
  -2  18   0   25.30   25.80
 -18   0   0  168.28   51.39
  18   0   0  184.88   44.10
   0  18   0   73.79   46.60
   0 -18   0  150.48   55.09
   2  18   0   44.20   24.80
  -2 -18   0   35.60   22.40
 -18   2   0  108.59   28.10
  18  -2   0   65.19   25.30
  18  -4   0  322.97   82.49
   4  18   0  198.78   79.29
  -4 -18   0  323.57   90.99
 -18   4   0  383.36   84.99
  -6 -18   0  362.36   81.09
  18  -6   0  235.48   69.59
   6  18   0  191.48   71.59
 -18   6   0  229.38   72.29
 -18   8   0   75.79   27.80
   8  18   0   31.70   21.80
  18  -8   0  124.09   35.80
  -8 -18   0   86.59   33.30
 -10 -18   0   59.19   28.40
 -18  10   0   37.70   22.30
  10  18   0   64.89   28.00
  18 -10   0   44.60   27.00
  12  18   0   63.99   29.60
 -12 -18   0   61.29   27.00
  18 -12   0  103.39   38.70
 -18  14   0   61.49   37.60
 -14 -18   0   75.29   29.60
  14  18   0   89.49   31.40
  18 -14   0   63.39   37.00
  18 -16   0  119.69   51.49
 -18  16   0  126.89   57.09
  16  18   0  148.29   43.10
 -16 -18   0  138.29   54.49
 -18  18   0   31.20   38.40
  18 -18   0   73.09   41.20
  18  18   0  100.39   27.40
 -17  19   0  -15.00   12.80
  17 -19   0   17.10   23.90
  15 -19   0  -19.40   17.70
 -15  19   0    6.90   21.50
  13 -19   0   15.10   19.50
 -13  19   0   34.60   58.09
 -11  19   0    8.20   18.10
  11 -19   0    3.10   14.00
   9 -19   0    1.80   15.50
  -9  19   0   12.10   23.40
   7 -19   0    3.90   12.30
  -7  19   0  -14.80   11.60
   5 -19   0   23.60   24.00
  -5  19   0    9.60   15.80
  -3  19   0    4.70   17.50
   3 -19   0  -31.80   35.40
 -19  -1   0   -1.20    8.40
   1 -19   0   -8.50   15.90
  -1  19   0   10.20   11.80
  19   1   0    8.40   10.80
   1  19   0   -3.70   13.60
  19  -1   0   25.80   14.30
 -19   1   0    4.10   13.60
  -1 -19   0    6.50   16.60
  -3 -19   0   -4.60    9.40
   3  19   0    7.00   12.50
  19  -3   0   25.90   17.50
 -19   3   0   15.10   13.40
   5  19   0   -9.50   10.90
 -19   5   0   -4.00   11.90
  -5 -19   0   -5.30   12.20
  19  -5   0   -5.90    9.40
  -7 -19   0    7.40   15.00
   7  19   0   15.00   16.10
  19  -7   0    9.00   16.20
 -19   7   0  -15.70    9.30
 -19   9   0  -16.20    8.80
  -9 -19   0   15.60   17.70
   9  19   0    3.20   13.90
 -11 -19   0   13.40   14.20
  11  19   0    1.30   13.70
  19 -11   0   -8.00    9.90
 -19  11   0   -9.40   11.60
  19 -13   0   14.60   21.50
 -13 -19   0    7.90   13.30
 -19  13   0   -0.50    8.40
  13  19   0   -0.10   13.30
  15  19   0   16.20   16.20
 -15 -19   0    7.30   13.60
 -19  15   0   -1.20   15.60
  19 -15   0    4.60   20.60
 -19  17   0  -13.40   16.60
  19 -17   0   18.90   28.40
 -17 -19   0   -9.00    9.50
  17  19   0    2.50   11.70
  16 -20   0   35.40   28.20
 -16  20   0   61.69   42.60
 -14  20   0   17.90   22.10
  12 -20   0   63.69   31.50
 -12  20   0   41.40   27.90
 -10  20   0   60.49   40.90
  10 -20   0   98.29   44.50
   8 -20   0   99.69   46.00
  -8  20   0  195.28   67.59
   6 -20   0  101.79   40.20
  -6  20   0  131.89   49.20
   4 -20   0  284.47   89.99
  -4  20   0  164.68   74.19
  -2  20   0   71.89   37.90
   2 -20   0   54.59   39.30
 -20  -2   0  120.49   29.40
  20   0   0  154.08   46.00
   0 -20   0  103.99   56.09
   0  20   0  150.88   57.19
 -20   0   0  196.68   47.80
  20  -2   0  123.29   33.00
 -20   2   0   95.89   32.10
   2  20   0   38.00   30.70
  -2 -20   0   85.89   39.00
  20  -4   0  122.49   39.70
   4  20   0  129.39   45.00
 -20   4   0  166.18   45.40
  -4 -20   0   64.29   41.10
  20  -6   0  170.38   49.00
  -6 -20   0  143.49   46.40
   6  20   0   75.79   39.70
 -20   6   0  205.88   53.89
   8  20   0   87.59   39.70
  -8 -20   0  157.58   43.90
 -20   8   0  118.79   44.40
  20  -8   0   91.09   38.90
  10  20   0   49.50   27.90
 -10 -20   0   57.79   28.00
  20 -10   0  138.29   50.19
 -20  10   0   88.79   33.20
 -20  12   0   39.40   31.00
  20 -12   0   64.39   32.70
  12  20   0   59.99   28.80
 -20  14   0    6.00   11.50
  20 -14   0   -1.30   23.00
 -14 -20   0   28.20   20.10
  14  20   0   18.00   17.00
  16  20   0   46.10   25.90
 -16 -20   0   29.80   18.20
  20 -16   0   19.50   21.50
  15 -21   0  -14.10   20.70
 -15  21   0   -8.50   19.10
  13 -21   0   51.19   35.90
 -13  21   0   23.70   29.20
 -11  21   0  -14.60   15.10
  11 -21   0  -11.60   15.40
  -9  21   0  -11.30   15.20
   9 -21   0    6.30   23.90
   7 -21   0   12.20   21.90
  -7  21   0    1.50   27.90
   5 -21   0   -2.20   13.10
  -5  21   0    0.30   17.40
   3 -21   0   -3.60   12.30
  -3  21   0   17.00   24.80
  21   1   0   16.20   10.70
   1 -21   0   -1.50   17.40
 -21  -1   0   -2.30    8.70
  -1  21   0   15.10   17.50
  -1 -21   0   19.60   20.10
   1  21   0    3.40   14.20
 -21   1   0    6.80   14.70
  21  -1   0   -5.10   10.70
 -21   3   0   -4.20   10.80
  21  -3   0  -11.30    8.20
  -3 -21   0  -11.80    9.90
   3  21   0    7.60   14.10
   5  21   0  -15.40   11.30
  -5 -21   0   -1.30   15.90
  21  -5   0    8.30   12.40
 -21   5   0   16.00   17.00
  21  -7   0   -2.60   11.00
   7  21   0   -2.70   10.20
  -7 -21   0    0.70   13.00
 -21   7   0  -12.50    9.00
   9  21   0   -9.70   13.80
  21  -9   0   30.70   24.90
  -9 -21   0    1.70   13.60
 -21   9   0   -2.00   13.20
  11  21   0   -5.20   13.80
 -21  11   0    2.70   13.40
 -11 -21   0    6.50   13.70
  21 -11   0    3.20   16.60
  13  21   0   -8.40   13.30
 -21  13   0   -8.80   17.00
 -13 -21   0   -6.80   11.40
  21 -13   0    1.20   16.50
 -21  15   0   -3.20   12.10
  15  21   0   -8.00   11.60
 -15 -21   0    6.80   13.80
  21 -15   0  -10.20   15.30
  12 -22   0  166.88   64.79
 -12  22   0   14.30   27.40
  10 -22   0   13.80   23.60
 -10  22   0   79.99   41.50
   8 -22   0   32.40   33.20
  -8  22   0   17.20   26.00
   6 -22   0   87.29   41.70
  -6  22   0   83.99   41.80
  -4  22   0   58.79   34.70
   4 -22   0  116.99   50.59
  -2  22   0  170.38   67.99
 -22  -2   0  201.28   51.89
   2 -22   0  225.88   70.09
   0  22   0  464.85  128.29
  22   0   0  399.26  107.89
   0 -22   0  441.26  123.19
 -22   0   0  421.36  108.89
  -2 -22   0  151.88   67.09
 -22   2   0  280.47   63.19
  22  -2   0  174.88   57.39
   2  22   0  220.18   74.79
  -4 -22   0  105.09   40.20
 -22   4   0   82.19   34.60
  22  -4   0   97.89   37.10
   4  22   0   93.09   40.10
  -6 -22   0   93.29   34.10
  22  -6   0   37.80   25.10
 -22   6   0   57.89   28.50
   6  22   0   60.79   28.50
 -22   8   0   37.40   25.70
   8  22   0   59.99   29.70
  22  -8   0   52.79   27.40
  22 -10   0   21.30   19.70
  10  22   0   11.70   16.90
 -10 -22   0    1.60   14.60
 -22  10   0   18.10   19.70
  22 -12   0   46.90   28.90
 -12 -22   0   47.00   28.70
 -22  12   0   -2.50   16.40
  12  22   0  -10.80   13.70
 -11  23   0   23.20   51.79
  11 -23   0  -12.40   16.50
   9 -23   0  -15.50   19.10
  -9  23   0    4.70   22.70
  -7  23   0   12.30   34.50
   7 -23   0   54.29   39.10
   5 -23   0   -9.10   16.20
  -5  23   0   18.60   26.40
   3 -23   0   13.50   21.90
  -3  23   0   76.29   41.20
 -23  -1   0    8.80   11.20
  -1  23   0    8.10   26.60
   1 -23   0   16.60   18.80
  -1 -23   0    2.80   18.20
   1  23   0    3.30   13.60
 -23   1   0   16.70   13.80
  23  -1   0    6.10   13.30
   3  23   0   -2.50   19.00
 -23   3   0   -7.10   15.20
  -3 -23   0  -15.40   12.90
  23  -3   0   -1.60   12.80
 -23   5   0   18.60   18.00
  23  -5   0   18.00   19.60
  -5 -23   0   11.80   16.00
   5  23   0  -11.20   13.00
 -23   7   0   18.80   16.70
   7  23   0  -11.50   13.30
  23  -7   0  -13.00   11.20
  -7 -23   0   49.20   29.70
  -9 -23   0   14.30   21.80
  23  -9   0   -6.90   14.30
 -23   9   0   16.20   17.50
   9  23   0   -7.60   11.00
 -23  11   0   -3.10   16.80
  11  23   0    5.70   19.20
  23 -11   0   -2.20   14.80
 -11 -23   0    2.90   12.20
   8 -24   0   67.99   53.89
  -8  24   0   89.09   45.80
   6 -24   0  108.89   45.40
  -6  24   0   77.29   40.40
   4 -24   0   21.50   27.70
  -4  24   0    7.50   18.90
 -24  -2   0   57.99   17.70
   2 -24   0    4.50   24.90
  -2  24   0  124.79   51.39
 -24  -2   0   65.79   17.50
   0 -24   0   27.60   27.30
  24   0   0  117.69   28.10
 -24   0   0   77.59   25.00
   0  24   0   24.60   29.50
  -2 -24   0   59.59   39.00
   2  24   0  116.69   47.80
  24  -2   0   73.69   31.60
 -24   2   0  122.79   36.70
  24  -4   0   39.80   24.70
   4  24   0   30.90   27.20
 -24   4   0   71.59   28.20
 -24   6   0  190.58   50.29
  -6 -24   0   60.59   39.30
   6  24   0  110.79   45.60
  24  -6   0  141.79   43.90
  -8 -24   0   88.19   42.70
   8  24   0  152.38   62.69
  24  -8   0   96.59   38.30
 -24   8   0   67.19   41.20
   5 -25   0   11.20   29.40
  -5  25   0   -7.10   20.50
  -3  25   0   14.20   25.90
   3 -25   0   18.60   37.50
   1 -25   0    5.10   21.30
 -25  -1   0   -1.20    8.50
  -1  25   0   -4.50   13.40
  25  -1   0   -6.60   10.50
   1  25   0   10.50   20.20
 -25   1   0   -1.00   11.80
  -1 -25   0   -3.80   18.80
  25  -3   0    2.40   13.60
  -3 -25   0   10.00   23.70
 -25   3   0   -5.00   12.50
   3  25   0  -15.80   16.10
 -25   5   0   23.00   24.60
   5  25   0   17.50   21.90
  -5 -25   0   14.90   18.70
  25  -5   0   29.50   20.30
   0  -1  -1   -0.20    3.70
   0   1  -1   -3.80    2.70
   1   0  -1   -4.30    2.70
   2   1  -1    5.70    6.90
  -1   2  -1   19.80    8.70
  -2  -1   1   34.40   10.60
  -1   2   1   41.00   12.10
  -1  -2   1   24.20    9.60
  -2   3  -1  110.09   28.00
   3   2  -1   71.39   22.90
  -3  -2  -1   88.89   23.60
   2  -3  -1  111.09   31.20
  -2   3   1   50.59   23.40
   3   2   1   79.49   22.80
  -3  -2   1   87.99   23.50
   2  -3   1  149.99   38.70
   0  -3  -1   13.60   10.80
  -3   0   1   13.30    8.00
   0  -3   1   23.00    9.20
   3  -2  -1   89.09   23.80
   2   3  -1   39.00   18.10
  -2  -3  -1   53.89   19.80
  -2  -3   1   58.99   19.50
   3  -2   1   93.99   22.30
   2   3   1  109.49   22.50
   3  -4  -1   46.70   19.30
   4   3  -1   53.79   15.10
  -3   4  -1   40.10   18.60
  -4  -3   1   36.50   14.40
   3  -4   1   30.60   16.00
  -3   4   1   63.49   20.10
   4   3   1   35.50   13.60
   4   3   1   26.40   13.50
   4   1  -1  135.49   45.80
  -4  -1  -1  181.98   46.60
  -1   4  -1  166.18   50.09
   1  -4  -1  315.57   58.69
   4   1   1  192.98   47.00
  -4  -1   1  190.48   47.60
  -1   4   1  155.98   49.90
   1  -4   1  319.47   57.29
  -1  -4  -1  267.87   52.59
   1   4  -1  160.48   48.70
   4  -1  -1  178.48   48.40
   1   4   1  198.68   50.59
  -1  -4   1  171.18   49.30
   4  -1   1  169.08   48.10
   4  -3  -1   22.90   14.40
  -3  -4  -1   21.10   12.00
   3   4  -1   37.10   12.40
  -4   3   1    2.60    6.40
  -3  -4   1   55.99   15.00
   3   4   1   20.80   12.70
   4  -3   1   26.30   14.80
   5   4  -1  302.37   75.79
   4  -5  -1  450.05   88.19
  -4   5  -1  226.58   78.39
   5   4   1  282.27   75.89
  -4   5   1  300.77   80.49
  -5  -4   1  349.37   77.19
   5   4   1  288.27   74.49
  -5  -2  -1  241.58   57.89
   2  -5  -1  346.57   76.09
   5   2  -1  253.37   58.29
  -2   5  -1  224.58   62.49
  -5  -2   1  212.98   57.89
   2  -5   1  192.28   61.89
  -2   5   1  190.68   60.49
  -5   0  -1   11.90   10.80
   0   5  -1   26.10   13.50
   0  -5  -1   12.90   12.50
   5   0  -1   31.10   12.90
  -5   0   1   42.70   14.90
   5   0   1   20.00   10.60
   0   5   1   38.00   16.90
   0  -5   1   33.40   15.50
   5  -2  -1  280.77   63.39
   2   5  -1  301.67   65.09
  -2  -5  -1  196.68   61.09
   2   5   1  175.08   59.69
   5  -2   1  340.77   65.79
  -2  -5   1  219.28   61.99
   5  -4  -1  187.18   76.49
  -4  -5  -1  298.37   78.49
   4   5  -1  349.07   78.89
   5  -4   1  364.46   83.79
   4   5   1  406.76   80.89
  -4  -5   1  332.17   78.79
   6   5  -1  852.11  201.28
   5  -6  -1  863.91  206.88
  -5   6  -1  775.92  204.68
   6   5   1  825.42  201.28
  -6  -5   1  794.72  201.28
   5  -6   1  934.61  206.58
  -5   6   1  795.52  206.18
   6   3  -1 1504.85  367.76
  -6  -3  -1 1558.44  367.56
  -3   6  -1 1693.33  373.86
   3  -6  -1 1339.57  370.66
  -6  -3   1 1538.05  367.66
  -3   6   1 1619.14  372.36
   6   3   1 1508.95  367.56
  -1   6  -1  131.99   40.10
   1  -6  -1  226.08   58.59
  -6  -1  -1  148.19   38.20
  -6  -1   1  154.98   39.10
  -6  -1   1  171.38   39.60
  -1   6   1  135.99   41.90
   1  -6   1   91.49   38.10
   6   1   1  164.88   39.10
  -1  -6  -1  125.59   41.30
   6  -1  -1  202.98   44.00
   1   6  -1   96.49   41.00
  -6   1  -1  240.58   46.30
  -6   1   1  134.79   41.90
  -1  -6   1  125.39   42.20
   6  -1   1  161.58   41.10
   1   6   1  157.48   42.20
   6  -3  -1 1513.15  369.36
  -3  -6  -1 1440.76  368.86
   3   6  -1 1616.74  369.26
   6  -3   1 1522.25  369.56
  -3  -6   1 1551.54  368.96
   3   6   1 1504.35  368.66
  -5  -6  -1  850.51  203.68
   5   6  -1  876.81  203.48
  -6   5  -1  791.22  205.18
   6  -5  -1  776.82  205.28
  -5  -6   1  842.82  203.38
   5   6   1  846.22  203.18
   6  -5   1  801.22  205.98
  -6   5   1  850.41  206.28
   7   6  -1   15.70   10.00
   6  -7  -1   11.80   18.80
   6  -7   1    1.30   13.30
   7   6   1    3.30    7.90
  -7  -6   1  -12.80    5.80
   4  -7  -1  123.79   44.00
   7   4  -1   38.60   19.00
  -4   7  -1   72.59   26.60
   7   4   1   84.89   20.10
  -4   7   1   68.49   27.00
   4  -7   1   45.80   21.50
  -7  -4   1   69.69   20.10
   7   4   1   67.69   19.70
  -7  -2  -1 2399.16  564.14
   7   2   1 2263.67  564.04
   2  -7   1 2511.25  569.14
  -7  -2   1 2367.76  564.34
  -7  -2   1 2285.07  564.34
   0  -7  -1   21.90   17.80
  -7   0  -1   44.50   17.30
   0   7  -1   42.50   19.10
   0  -7   1   73.19   43.60
  -7   0   1   37.50   16.60
   7   0   1   22.90   14.80
   0   7   1   73.29   23.70
   7  -2  -1 2364.66  560.24
  -7   2  -1 2323.37  560.04
  -2  -7  -1 2292.87  560.64
   2   7  -1 2279.17  560.84
   7  -2   1 2271.57  560.04
  -7   2   1 2407.66  560.24
  -2  -7   1 2400.76  561.14
   2   7   1 2237.78  560.94
   4   7  -1   85.09   25.40
  -4  -7  -1  124.39   28.70
   7  -4  -1   27.90   19.50
   4   7   1   48.20   21.90
   7  -4   1   87.29   25.70
  -4  -7   1   91.09   25.60
   7  -6  -1   11.80   13.60
  -7   6  -1    5.90   10.70
   6   7  -1   16.90   10.50
  -6  -7  -1   -1.30    9.70
  -6  -7   1   -0.40    8.40
  -7   6   1   -2.90   12.30
   6   7   1    2.30    7.70
   7  -6   1   -1.80   14.90
  -7   8  -1   88.89   35.30
   8   7  -1   82.09   23.40
   7  -8  -1   39.70   25.40
  -8  -7  -1   97.19   24.50
   7  -8   1   58.09   29.30
  -8  -7   1  111.59   25.20
   8   7   1   46.30   20.80
  -7   8   1  107.19   53.99
   8   5  -1  438.16   97.99
   5  -8  -1  487.75  112.29
  -5   8  -1  518.75  113.49
  -8  -5   1  387.56   97.79
   8   5   1  355.16   97.39
   8   5   1  386.46   97.49
  -5   8   1  345.77  106.09
   5  -8   1  461.35  111.09
  -8  -3  -1  675.23  160.68
   3  -8  -1  743.03  171.68
  -8  -3   1  656.73  160.78
   8   3   1  622.14  160.38
   3  -8   1  799.52  175.48
  -1   8  -1  135.19   46.50
   1  -8  -1   97.99   45.00
  -8  -1  -1  162.48   44.10
  -8  -1   1  205.48   45.30
   8   1   1  191.18   45.20
  -8  -1   1  250.17   47.30
  -1   8   1  140.09   48.00
   1  -8   1  168.48   49.40
   1   8  -1  207.78   55.49
  -1  -8  -1  311.87   61.19
  -8   1  -1  201.78   49.70
   8  -1  -1  236.38   55.19
  -1  -8   1  118.69   47.70
   1   8   1  139.99   48.90
  -8   1   1  190.28   49.80
  -8   3  -1  656.13  156.58
  -3  -8  -1  611.54  156.38
   3   8  -1  655.03  156.98
   8  -3  -1  532.55  155.68
  -3  -8   1  622.14  156.78
   3   8   1  754.92  157.88
  -8   3   1  606.34  156.78
   8  -3   1  643.04  156.88
   5   8  -1  417.76  109.79
   8  -5  -1  515.45  116.79
  -5  -8  -1  372.86  107.69
   5   8   1  422.36  109.19
  -5  -8   1  417.76  108.59
   8  -5   1  475.55  114.49
  -8   7  -1   65.29   28.20
  -7  -8  -1   91.39   25.00
   8  -7  -1   53.89   24.80
   7   8  -1   62.69   22.60
  -8   7   1   58.89   25.70
   7   8   1   65.29   22.10
   8  -7   1   40.80   19.50
  -7  -8   1   86.99   24.80
   9   8  -1   58.69   18.10
  -9  -8  -1   43.80   16.70
   8  -9  -1   32.70   18.50
  -8   9  -1   39.90   23.90
   8  -9   1   25.50   23.80
   9   8   1   60.19   17.30
  -8   9   1   22.90   18.50
  -9  -8   1   36.80   15.90
   6  -9  -1  219.88   69.29
   9   6  -1  163.18   40.70
   9   6   1  155.18   40.00
   9   6   1  173.08   40.40
  -9  -6   1  146.89   40.70
  -6   9   1   91.49   45.50
   6  -9   1  126.09   47.70
   4  -9  -1  308.27   85.69
  -4   9  -1  359.16   89.59
   9   4   1  324.07   77.49
   4  -9   1  400.96   93.29
  -4   9   1  250.07   83.99
  -9  -4   1  327.17   77.69
   9   4   1  298.37   77.09
  -2   9  -1 2970.60  654.03
   2  -9  -1 3026.90  654.43
  -9  -2  -1 2673.33  646.54
  -9  -2   1 2633.74  646.84
  -2   9   1 2604.84  652.33
  -9  -2   1 2640.24  646.74
   9   2   1 2719.13  646.54
   2  -9   1 2476.75  651.73
   9   0  -1   20.30   11.60
   0  -9  -1   10.50   15.50
   0   9  -1    1.40    9.60
  -9   0  -1   -6.70    9.20
  -9   0   1   17.80   10.80
   0  -9   1    6.50   15.40
   9   0   1    6.10    9.20
   0   9   1   -1.60   14.00
  -2  -9  -1 2603.44  622.04
   2   9  -1 2465.95  621.84
   9  -2  -1 2547.84  620.64
  -9   2  -1 2670.93  620.64
   9  -2   1 2525.65  620.94
  -9   2   1 2657.73  621.04
  -2  -9   1 2536.75  622.34
   2   9   1 2560.94  622.54
   9  -4  -1  263.07   62.79
  -4  -9  -1  224.68   61.19
   4   9  -1  304.17   63.99
  -9   4  -1  184.08   57.59
  -4  -9   1  237.38   59.69
  -9   4   1  149.99   57.49
   4   9   1  310.37   64.69
   9  -4   1  176.78   57.49
   6   9  -1  205.58   51.89
   9  -6  -1  131.29   51.09
   6   9   1  192.68   49.30
   9  -6   1  149.49   51.69
   8   9  -1   33.70   15.40
  -9   8  -1    7.10   16.60
  -8  -9  -1   43.70   16.70
   9  -8  -1   26.10   15.80
   8   9   1   22.30   12.70
  -9   8   1   46.70   25.00
  -8  -9   1   23.10   13.80
   9  -8   1   78.99   29.10
  -9  10  -1  -15.30    8.00
  10   9  -1    3.20    8.50
 -10  -9  -1   -2.80    8.60
   9 -10  -1   26.90   19.30
   9 -10   1   -5.40    9.40
  10   9   1   -6.70    6.20
  -9  10   1   26.20   18.90
 -10  -9   1   11.70    8.90
  -7  10  -1    9.60   15.80
   7 -10  -1   -1.90   11.90
  10   7  -1    5.10    8.10
   7 -10   1    3.10   10.60
  10   7   1   12.10    7.20
 -10  -7   1    3.60    7.00
  10   7   1    4.30    6.70
  -7  10   1   15.60   45.90
  10   5  -1   41.70   13.40
  -5  10  -1   23.90   21.20
   5 -10  -1   70.79   37.90
   5 -10   1   82.89   39.00
  10   5   1   62.59   13.70
 -10  -5   1   34.90   13.50
  -5  10   1   12.10   17.10
  10   5   1   45.50   13.60
   3 -10  -1   95.99   33.50
  -3  10  -1   62.49   27.00
 -10  -3  -1   51.59   15.70
 -10  -3   1   36.70   15.40
  -3  10   1   24.40   24.20
   3 -10   1   88.59   35.20
 -10  -3   1   46.50   15.80
  10   3   1   49.30   15.10
  -1  10  -1    4.00   10.60
 -10  -1  -1   22.60   11.70
   1 -10  -1   31.30   19.90
 -10  -1   1    9.00   10.00
   1 -10   1   -0.40   12.40
  -1  10   1   50.09   30.30
  10   1   1   22.90   11.20
  10  -1  -1   18.70   13.60
   1  10  -1   25.60   16.30
 -10   1  -1    7.20   11.80
  -1 -10  -1   12.10   13.00
   1  10   1    4.10   14.50
  10  -1   1   15.30   11.40
  -1 -10   1   20.00   16.30
 -10   1   1    6.70   11.00
  -3 -10  -1   45.20   22.20
 -10   3  -1   52.29   21.50
  10  -3  -1   74.69   23.60
   3  10  -1   26.20   17.90
  10  -3   1   35.40   20.10
   3  10   1   38.80   19.20
 -10   3   1   72.49   25.60
  -3 -10   1   69.39   24.80
  10  -5  -1   26.30   15.00
 -10   5  -1   27.80   19.10
  -5 -10  -1    8.40   14.10
   5  10  -1   32.00   16.40
  10  -5   1   21.50   15.80
  -5 -10   1   38.00   19.10
 -10   5   1   36.10   24.10
   5  10   1   53.29   18.90
  10  -7  -1   13.30   13.10
   7  10  -1   19.90   12.70
  -7 -10  -1   10.90   10.50
 -10   7  -1   -0.90    2.80
  10  -7   1    9.60   10.40
   7  10   1    3.00    9.50
  -7 -10   1    8.80   11.20
 -10   7   1   -1.90    4.20
  -9 -10  -1   -6.00    8.20
   9  10  -1    9.30   10.20
  10  -9  -1   12.50   16.90
 -10   9  -1   29.00   15.40
  -9 -10   1   -3.40    7.80
  10  -9   1  -18.70    8.80
 -10   9   1   -2.90   17.00
   9  10   1   -3.00    7.60
 -11 -10  -1    7.30    9.60
  11  10  -1    7.00    9.30
  10 -11  -1   13.60   15.60
 -10  11  -1  -16.20   10.20
  10 -11   1  -12.90   11.50
 -11 -10   1   12.30    9.20
  11  10   1   -7.80    5.70
 -10  11   1  -12.60    9.10
   8 -11  -1    0.50   12.00
  11   8  -1  -11.20    7.00
  -8  11  -1   -3.00   10.90
  -8  11   1   -9.90   13.00
   8 -11   1  -17.40   15.30
 -11  -8   1    5.50    7.10
  11   8   1    9.50    6.30
  11   8   1   -6.00    6.30
   6 -11  -1  106.99   41.40
  -6  11  -1   58.69   27.40
  11   6  -1   56.29   15.00
  11   6   1   49.00   14.00
   6 -11   1   17.40   16.40
 -11  -6   1   54.89   14.80
  -6  11   1   80.69   31.00
  11   6   1   41.70   13.70
   4 -11  -1  235.58   58.09
  -4  11  -1   53.99   34.70
  11   4   1  139.99   32.20
 -11  -4   1  126.99   33.40
   4 -11   1   96.09   40.00
 -11  -4   1  142.59   33.30
  -4  11   1  140.29   43.00
 -11  -2  -1  392.56  104.09
  -2  11  -1  421.46  114.79
   2 -11  -1  622.94  124.59
 -11  -2   1  448.56  108.49
 -11  -2   1  418.76  104.19
  11   2   1  423.26  103.99
 -11   0  -1    7.90   10.20
   0 -11  -1  -15.50    7.60
  11   0  -1    8.40   11.30
   0  11  -1    1.00   17.60
   0  11   1   -1.20    9.50
  11   0   1    0.80    8.40
   0 -11   1   13.20   16.20
 -11   0   1    4.00    9.20
   2  11  -1  338.07  100.69
  11  -2  -1  477.45  103.59
 -11   2  -1  576.14  106.99
  -2 -11  -1  389.66  104.99
  11  -2   1  349.67  101.29
  -2 -11   1  321.67  101.19
   2  11   1  322.17  104.49
 -11   2   1  501.05  105.89
  11  -4  -1  123.49   42.40
  -4 -11  -1   96.29   41.80
 -11   4  -1  225.88   50.09
   4  11  -1  160.18   46.70
  -4 -11   1  113.39   43.50
 -11   4   1  185.48   48.40
  11  -4   1  128.69   41.50
   4  11   1  121.99   43.10
  11  -6  -1   25.60   17.90
  -6 -11  -1   52.59   20.80
   6  11  -1   48.80   21.60
  -6 -11   1   57.99   21.70
   6  11   1   48.80   19.90
  11  -6   1   44.10   19.30
  -8 -11  -1   14.80   12.70
  11  -8  -1   -4.30   11.00
 -11   8  -1    5.20    7.40
   8  11  -1    4.00   11.10
   8  11   1    9.10    9.80
  11  -8   1    0.30    8.40
  -8 -11   1    4.80   10.80
 -11   8   1   15.40   12.80
  10  11  -1   -4.90    7.70
  11 -10  -1   -9.10   11.70
 -11  10  -1    3.20   18.20
 -10 -11  -1    8.00   10.70
  10  11   1   -1.00    7.80
 -10 -11   1    6.90   10.10
  11 -10   1   -2.50   13.80
 -11  12  -1   10.70   12.70
  11 -12  -1    7.20   17.30
  12  11  -1   49.30   17.70
 -11  12   1   68.29   30.40
 -12 -11   1   35.90   14.90
  11 -12   1   24.20   21.50
  -9  12  -1   -8.40   15.90
  12   9  -1   14.30    8.10
   9 -12  -1    2.20   12.00
  12   9   1   -8.60    5.90
 -12  -9   1    3.90    7.00
  -9  12   1   -7.20   11.60
   9 -12   1  -13.20   17.10
  12   9   1    5.70    6.60
   7 -12  -1  124.99   41.80
  -7  12  -1   50.39   29.10
  12   7  -1   59.49   15.90
 -12  -7   1   79.39   16.60
  12   7   1   48.10   14.70
   7 -12   1    9.90   20.20
  12   7   1   45.70   14.50
  -7  12   1   44.40   28.40
  -5  12  -1  491.35   93.19
   5 -12  -1  384.16   96.79
 -12  -5   1  248.48   62.99
   5 -12   1  334.47   85.99
 -12  -5   1  246.08   63.19
  -3  12  -1  264.57   68.59
 -12  -3  -1  234.48   49.00
   3 -12  -1  345.07   75.79
  12   3   1  212.18   49.70
 -12  -3   1  236.78   50.79
   3 -12   1   85.69   51.99
 -12  -3   1  164.58   49.20
  -3  12   1  122.19   53.29
   1 -12  -1   10.50   37.30
 -12  -1  -1   13.80    9.20
  -1  12  -1   20.30   16.20
  -1  12   1   -2.80    9.10
   1 -12   1    0.90   13.90
 -12  -1   1    1.50    7.40
  12   1   1   -5.90    6.90
 -12   1  -1   10.50   10.60
  12  -1  -1   -6.50   10.60
   1  12  -1   34.10   20.00
   1  12   1    6.20   10.30
  12  -1   1   19.60   12.60
 -12   1   1    3.50   11.90
 -12   3  -1  147.99   48.60
   3  12  -1  199.38   54.79
  -3 -12  -1  143.99   48.30
  12  -3  -1  198.88   50.69
  12  -3   1  293.47   57.69
   3  12   1  128.39   46.60
  -3 -12   1  115.69   50.39
 -12   3   1  226.58   53.39
   5  12  -1  379.86   77.09
  12  -5  -1  255.67   71.69
 -12   5  -1  295.47   71.59
  -5 -12  -1  303.97   72.79
  -5 -12   1  187.68   64.79
  12  -5   1  188.58   65.69
   5  12   1  241.68   70.09
 -12   5   1  205.68   69.19
   7  12  -1   29.10   18.10
  -7 -12  -1   64.29   23.90
  12  -7  -1   33.50   24.80
   7  12   1   30.90   18.70
  -7 -12   1   62.09   22.80
  12  -7   1   66.19   24.30
  12  -9  -1   19.40   15.00
 -12   9  -1    0.40    6.80
  -9 -12  -1   -3.50    9.20
   9  12  -1    4.90   10.50
 -12   9   1   11.20   13.20
   9  12   1   -0.30    9.10
  -9 -12   1   10.40   11.40
  12  -9   1    2.20   14.60
 -12  11  -1  112.29   38.30
  11  12  -1   56.19   21.90
  12 -11  -1   56.19   23.80
 -11 -12  -1   45.30   21.00
  12 -11   1   92.39   38.20
 -11 -12   1   64.69   23.00
 -12  11   1   23.50   23.20
  11  12   1   61.99   22.20
  13  12  -1  150.68   36.70
  12 -13  -1  142.69   46.70
 -12  13  -1   58.29   38.30
 -13 -12   1  153.58   37.60
 -12  13   1  116.69   48.00
  12 -13   1  110.29   44.90
  13  12   1  125.79   36.30
  10 -13  -1   20.30   16.70
 -10  13  -1   10.90   12.30
  13  10  -1    8.00    9.70
  10 -13   1   -5.10   12.40
  13  10   1   24.90   10.20
 -13 -10   1   29.20   11.30
 -10  13   1  142.99   73.09
  13  10   1   24.90   10.30
  -8  13  -1    3.30   11.20
   8 -13  -1    4.10   11.20
  13   8  -1    8.00    5.90
  13   8   1    6.00    3.90
  13   8   1   -0.40    4.00
  -8  13   1    1.50   10.60
 -13  -8   1    5.00    5.70
   6 -13  -1  139.19   58.79
  -6  13  -1   98.09   42.70
   6 -13   1   67.39   35.70
  -6  13   1  111.29   42.90
  -4  13  -1  164.18   66.99
   4 -13  -1  259.27   88.09
 -13  -4   1  240.08   60.69
  13   4   1  268.67   60.09
  -4  13   1  177.88   68.99
 -13  -4   1  251.77   60.79
 -13  -2  -1   63.19   18.40
  -2  13  -1   48.00   21.80
   2 -13  -1   16.80   18.90
  13   2   1   70.49   18.70
 -13  -2   1   47.70   18.50
   2 -13   1   87.19   36.20
  -2  13   1   29.10   23.90
 -13  -2   1   71.39   19.30
 -13   0  -1    8.30    9.60
   0 -13  -1  -11.10    8.70
   0  13  -1   20.30   18.20
  13   0  -1   -1.00   11.20
   0  13   1    3.30   13.80
  13   0   1    1.00    8.40
   0 -13   1  -18.60    8.90
 -13   0   1   -5.40    8.70
   2  13  -1    5.70   17.30
 -13   2  -1   77.59   24.50
  13  -2  -1   80.79   24.10
  -2 -13  -1   47.20   22.00
   2  13   1   30.10   17.90
  -2 -13   1   40.80   24.40
 -13   2   1   58.39   21.50
  13  -2   1   90.39   25.40
   4  13  -1  312.57   73.19
 -13   4  -1  273.67   66.79
  -4 -13  -1  149.29   60.79
  13  -4  -1  240.58   67.39
  13  -4   1  278.07   69.59
 -13   4   1  269.17   68.79
   4  13   1  291.47   70.69
  -4 -13   1  182.98   64.59
  -6 -13  -1   65.59   26.90
 -13   6  -1   98.99   27.70
   6  13  -1   72.09   26.20
  13  -6  -1  109.69   32.00
  -6 -13   1   50.09   25.20
   6  13   1   54.89   23.70
 -13   6   1   47.50   23.20
  13  -6   1   39.70   22.30
  13  -8  -1    9.70   11.70
  -8 -13  -1  -14.50    7.30
   8  13  -1   -9.10    9.20
   8  13   1    1.90   13.10
  -8 -13   1   42.00   17.90
  13  -8   1   -6.80    9.60
 -10 -13  -1   19.50   14.40
  10  13  -1   16.70   14.70
  13 -10  -1    7.30   17.30
 -13  10  -1   18.50   14.30
  10  13   1   19.30   12.80
 -13  10   1   29.40   21.90
  13 -10   1   -1.70   13.90
 -10 -13   1   10.20   12.30
 -12 -13  -1  190.08   43.60
  13 -12  -1  130.69   48.40
  12  13  -1  208.78   44.60
 -13  12  -1   63.69   38.20
 -13  12   1  147.79   57.09
  12  13   1  157.38   42.20
  13 -12   1  142.79   53.49
 -12 -13   1  137.29   41.30
  14  13  -1   39.70   14.50
 -13  14  -1   36.80   21.60
  13 -14  -1   -0.60   12.70
 -14 -13   1   16.70   10.70
  14  13   1   15.70   10.40
 -13  14   1    2.30   13.70
  13 -14   1   -4.30   16.90
  14  11  -1    4.20    7.60
 -11  14  -1    9.10   11.50
  11 -14  -1    7.40   15.00
 -14 -11   1   10.90    8.00
  14  11   1   10.90    7.00
  14  11   1   -4.90    6.40
 -11  14   1    4.80   20.00
  11 -14   1   -6.00   16.70
  14   9  -1    1.90    4.40
   9 -14  -1   15.50   23.80
  -9  14  -1    5.50   19.90
  -9  14   1  -25.00   12.70
 -14  -9   1   -1.10    3.70
   9 -14   1   -5.40   18.80
   7 -14  -1   24.20   25.40
  -7  14  -1   11.00   16.20
  -7  14   1   13.00   16.80
   7 -14   1   32.80   21.50
  -5  14  -1   15.30   17.70
   5 -14  -1   10.50   12.70
   5 -14   1   38.50   26.30
  -5  14   1    1.80   17.60
 -14  -3  -1   55.39   12.60
  -3  14  -1   43.10   28.50
   3 -14  -1   28.30   28.90
 -14  -3   1   26.10   11.40
 -14  -3   1   15.40   11.20
  14   3   1   31.90   11.10
   3 -14   1   10.30   12.80
 -14  -1  -1  200.98   42.00
  -1  14  -1  109.19   45.20
   1 -14  -1  101.69   44.10
  -1  14   1  289.57   65.09
   1 -14   1   69.99   38.50
  14   1   1  177.98   41.10
 -14  -1   1  183.48   41.30
  14  -1  -1  191.28   45.00
   1  14  -1   98.89   40.40
  -1 -14  -1  162.58   47.60
 -14   1  -1  156.78   42.90
  -1 -14   1  143.59   49.99
  14  -1   1  120.69   41.60
 -14   1   1  178.98   44.00
   1  14   1  155.78   50.99
  14  -3  -1   21.20   14.30
  -3 -14  -1    4.20   12.00
   3  14  -1   -0.20   12.60
 -14   3  -1    7.60   12.10
  14  -3   1   15.40   14.80
   3  14   1   21.70   14.20
 -14   3   1   30.10   15.60
  -3 -14   1   57.29   26.60
  14  -5  -1   17.90   15.20
  -5 -14  -1   -0.40    9.80
   5  14  -1   -1.30   10.50
 -14   5  -1   -7.00   10.40
 -14   5   1   -3.90    8.70
  14  -5   1    1.50   11.50
  -5 -14   1   -7.60   12.40
   5  14   1   17.00   16.70
  -7 -14  -1   42.60   20.20
   7  14  -1   52.39   23.10
 -14   7  -1   13.80   16.30
  14  -7  -1    8.90   16.20
  14  -7   1   31.70   24.00
  -7 -14   1   34.00   19.80
 -14   7   1   19.40   19.40
   7  14   1   28.00   21.20
   9  14  -1    1.90   11.20
  -9 -14  -1   -3.70   10.00
  14  -9  -1   -8.70    6.20
  14  -9   1   -9.20    8.20
   9  14   1   -2.40    8.10
  -9 -14   1   -6.80    9.20
 -14  11  -1   -5.90    9.00
 -11 -14  -1   -5.60   10.80
  14 -11  -1   -4.80   14.40
  11  14  -1  -12.90    7.60
 -14  11   1    6.90   14.00
 -11 -14   1    2.60    9.30
  14 -11   1  -11.70   12.40
  11  14   1   24.00   14.10
  14 -13  -1   -7.40   16.10
 -13 -14  -1   18.20   12.00
  13  14  -1   -1.70    9.50
 -14  13  -1   11.20   12.80
 -13 -14   1   10.90   12.20
  13  14   1    8.30   10.40
  14 -13   1   33.20   21.40
 -14  13   1   21.10   16.80
  15  14  -1  -13.20    7.10
  14 -15  -1  -14.40   11.00
 -14  15  -1   -2.60   10.20
 -14  15   1  -10.00    9.20
 -15 -14   1   15.60   11.20
  15  14   1   -1.50    7.70
  14 -15   1   30.30   26.90
  15  14   1    9.40    9.70
 -12  15  -1    5.60   15.70
  15  12  -1   70.69   16.90
  12 -15  -1   39.50   26.60
  15  12   1   61.99   16.00
  12 -15   1   23.20   24.00
  15  12   1   25.20   13.30
 -12  15   1   46.30   27.90
 -15 -12   1   62.49   16.50
  10 -15  -1   17.60   20.90
 -10  15  -1   47.00   26.90
 -10  15   1   -1.10   12.40
  10 -15   1   20.00   16.10
  -8  15  -1   24.40   22.70
   8 -15  -1   16.50   17.00
  -8  15   1   66.89   36.70
   8 -15   1   55.09   29.20
   6 -15  -1    9.40   23.50
  -6  15  -1   35.40   48.90
  -6  15   1   31.30   30.80
   6 -15   1  -35.90   45.90
  -4  15  -1  122.99   68.39
   4 -15  -1  293.87   84.99
 -15  -4   1  235.68   58.49
 -15  -4   1  258.27   58.59
  -4  15   1  201.58   70.19
   4 -15   1  257.97   77.99
 -15  -2  -1   35.30   14.70
   2 -15  -1   47.60   25.00
  -2  15  -1   21.40   23.50
  15   2   1   51.59   15.90
 -15  -2   1   31.60   14.80
 -15  -2   1   37.90   14.50
   2 -15   1   17.20   17.10
  -2  15   1   49.30   30.10
   0 -15  -1  -21.40   22.30
 -15   0  -1    3.50   10.80
   0  15  -1    5.10   15.80
  15   0  -1   12.70   11.50
 -15   0   1    1.80    9.60
  15   0   1  -11.40    6.60
   0  15   1   18.80   21.00
   0 -15   1   -9.50   10.20
  15  -2  -1   16.20   14.10
 -15   2  -1   37.40   17.40
  -2 -15  -1  -17.00    9.70
   2  15  -1   13.00   14.30
   2  15   1   52.59   25.40
  -2 -15   1   46.30   20.80
 -15   2   1   26.60   15.50
  15  -2   1   21.40   13.70
 -15   4  -1  224.88   64.79
  -4 -15  -1  151.18   60.89
   4  15  -1  237.98   70.69
  15  -4  -1  243.78   66.29
 -15   4   1  208.38   62.89
  -4 -15   1  393.66   80.29
   4  15   1  239.48   69.19
  15  -4   1  241.98   65.49
  15  -6  -1   11.30   22.20
 -15   6  -1   -7.10   11.80
  -6 -15  -1   18.90   16.40
   6  15  -1   21.80   15.30
  -6 -15   1   18.80   15.40
   6  15   1   35.10   21.40
 -15   6   1    1.00   13.90
  -8 -15  -1   30.60   18.30
  15  -8  -1   39.90   24.10
 -15   8  -1   25.40   17.70
   8  15  -1   13.40   15.80
 -15   8   1   23.70   18.60
  -8 -15   1   25.70   17.40
   8  15   1   65.79   25.80
  15  -8   1   58.39   26.80
 -10 -15  -1   13.10   13.10
  10  15  -1   44.20   19.00
  15 -10  -1   -6.90    9.50
  15 -10   1   24.10   24.20
 -10 -15   1   21.30   16.80
 -15  10   1   -1.10    6.70
  10  15   1   10.70   14.30
 -15  12  -1   39.00   21.90
  12  15  -1   90.79   24.60
 -12 -15  -1   39.00   18.50
  15 -12  -1   -1.30   18.10
  15 -12   1   11.00   21.70
  12  15   1   52.19   21.50
 -15  12   1   56.49   30.50
 -12 -15   1   30.20   19.10
 -15  14  -1  -13.30   10.10
 -14 -15  -1   -0.10   10.00
  15 -14  -1   15.50   16.60
  14  15  -1  -11.00    6.90
 -15  14   1  -12.50   13.30
  14  15   1   10.80   10.50
 -14 -15   1    6.50    9.30
  15 -14   1   22.40   19.00
  15 -16  -1    9.40   21.20
 -15  16  -1   16.80   23.30
  16  15  -1    0.50    7.70
  15 -16   1    3.50   21.40
  16  15   1    4.30    8.90
  16  15   1    1.40    6.90
 -16 -15   1    3.00    7.60
 -15  16   1   14.50   21.30
  16  13  -1   46.70   12.60
 -13  16  -1   -5.80   10.90
  13 -16  -1  -11.60   14.70
  16  13   1   28.80    9.80
 -13  16   1   -6.40   11.90
 -16 -13   1   32.10   11.20
  13 -16   1   34.20   27.00
 -11  16  -1   -2.20   17.60
  11 -16  -1   -4.20   21.60
  11 -16   1   42.40   28.00
 -11  16   1   26.50   17.60
  -9  16  -1   13.70   18.60
   9 -16  -1  -24.10   31.90
  -9  16   1   18.60   25.50
   9 -16   1  -25.20   14.00
  -7  16  -1   21.80   25.20
   7 -16  -1    8.00   12.00
  -7  16   1   28.30   26.80
   7 -16   1   -5.50   11.50
   5 -16  -1   -1.90   13.80
  -5  16  -1   26.50   25.10
  -5  16   1   61.99   27.60
   5 -16   1   11.70   24.00
  -3  16  -1   95.99   38.10
   3 -16  -1   75.89   32.60
 -16  -3  -1   90.59   23.10
  16   3   1   85.89   22.20
 -16  -3   1   66.59   22.50
   3 -16   1   20.00   26.10
  -3  16   1   69.29   35.80
 -16  -3   1  110.89   24.80
  -1  16  -1   16.70   16.60
 -16  -1  -1   60.29   18.20
   1 -16  -1   47.40   27.40
   1 -16   1  -17.20   15.50
 -16  -1   1   84.29   19.30
  16   1   1   55.79   17.90
  -1  16   1   26.10   18.10
  16  -1  -1   77.59   24.80
 -16   1  -1   94.19   25.60
   1  16  -1   56.49   30.50
  -1 -16  -1   60.39   32.00
  -1 -16   1   28.30   27.20
 -16   1   1   36.20   19.90
   1  16   1   50.39   30.80
  16  -1   1   80.99   24.60
   3  16  -1   66.09   41.70
  -3 -16  -1   97.89   31.50
 -16   3  -1  100.19   27.10
  16  -3  -1   62.09   24.20
 -16   3   1   63.99   24.40
  16  -3   1   46.30   23.70
  -3 -16   1   16.80   21.60
   5  16  -1    4.70   11.70
  -5 -16  -1   21.80   18.80
 -16   5  -1   26.00   19.50
  16  -5  -1   21.30   14.80
  16  -5   1   33.50   18.80
 -16   5   1   17.30   17.50
  -5 -16   1   17.20   17.20
   5  16   1   14.30   15.20
  -7 -16  -1  -12.00    7.60
  16  -7  -1   -9.80   10.70
   7  16  -1   11.90   13.80
 -16   7  -1   -7.00   12.50
  16  -7   1   -9.70    9.80
  -7 -16   1   -3.20   10.70
 -16   7   1   -7.40    8.40
   7  16   1   -6.30    8.70
   9  16  -1   18.10   16.20
 -16   9  -1   10.30   14.10
  -9 -16  -1   11.20   14.80
  16  -9  -1   -2.30   10.20
   9  16   1    3.20   10.40
  16  -9   1   65.49   31.50
 -16   9   1   17.00   18.50
  -9 -16   1   -2.60    9.70
  11  16  -1    1.60   11.00
 -11 -16  -1   47.20   21.40
 -16  11  -1   -0.40    5.90
  16 -11  -1   -1.70   10.50
  16 -11   1   30.30   20.00
  11  16   1   -0.50    9.30
 -11 -16   1   17.60   13.80
 -16  11   1   -0.90    6.30
 -16  13  -1   33.90   24.90
  13  16  -1    5.90   12.90
 -13 -16  -1   14.90   15.40
  16 -13  -1   -2.50   15.20
  13  16   1   18.10   13.80
 -16  13   1   67.29   30.40
  16 -13   1   11.80   18.60
 -13 -16   1   16.90   13.90
  15  16  -1  -10.10    8.20
 -16  15  -1   28.30   29.40
  16 -15  -1   -3.20   11.20
 -15 -16  -1   16.20   11.70
  15  16   1   25.90   12.50
  16 -15   1   22.40   25.80
 -16  15   1  -10.70   15.10
 -15 -16   1   13.70   12.40
  17  16  -1   14.10   12.30
  16 -17  -1    0.20   19.70
 -16  17  -1   15.50   19.80
 -17 -16   1   20.30   12.80
 -16  17   1   14.20   23.20
  16 -17   1   11.20   22.30
  17  16   1   17.50   12.00
  17  16   1   12.30   10.90
 -14  17  -1   31.70   29.00
  17  14  -1   31.10   12.60
  14 -17  -1   31.90   28.60
 -17 -14   1   37.70   12.20
  17  14   1   35.70   12.00
  17  14   1   23.90   11.20
  14 -17   1    9.70   25.10
 -14  17   1   25.90   23.90
  12 -17  -1   34.80   25.30
 -12  17  -1  -13.90   11.40
  12 -17   1   -6.90   14.20
 -12  17   1   27.00   23.60
 -10  17  -1    9.70   18.30
  10 -17  -1    2.60   17.30
 -10  17   1   38.70   31.20
  10 -17   1   38.00   31.40
   8 -17  -1   20.50   15.60
  -8  17  -1  129.99   43.50
  -8  17   1   17.60   24.30
   6 -17  -1   97.69   41.20
   6 -17   1  123.99   46.10
  -6  17   1   19.50   20.50
   4 -17  -1  167.28   57.29
  -4  17  -1  194.88   54.49
   4 -17   1   67.99   34.30
  -4  17   1  127.79   40.70
 -17  -2  -1  109.09   31.50
   2 -17  -1   96.89   40.40
  -2  17  -1  202.08   57.39
  -2  17   1  126.69   46.80
   2 -17   1  141.49   49.10
 -17  -2   1  116.59   32.10
 -17  -2   1   87.79   30.80
  17   2   1  102.79   30.70
  17   0  -1    2.70   11.00
 -17   0  -1   -5.90    8.30
   0  17  -1   17.80   20.30
   0 -17  -1   16.60   15.40
   0 -17   1   -2.30   13.40
   0  17   1  -14.40    7.40
  17   0   1   -0.40    8.60
 -17   0   1   -6.50    7.10
  17  -2  -1  122.29   34.50
 -17   2  -1   91.19   31.30
  -2 -17  -1   88.89   36.40
   2  17  -1  117.59   41.90
  17  -2   1  125.59   33.80
   2  17   1   72.79   29.80
  -2 -17   1   53.39   30.60
 -17   2   1   64.89   28.00
  17  -4  -1  118.69   43.50
 -17   4  -1  106.59   42.30
   4  17  -1  139.29   50.19
  -4 -17  -1  134.29   43.60
 -17   4   1  163.48   47.00
  17  -4   1  146.29   45.40
   4  17   1  111.99   42.90
  -4 -17   1  331.57   68.19
  -6 -17  -1   48.60   28.60
   6  17  -1  127.79   38.10
 -17   6  -1   67.59   33.80
  17  -6  -1  105.39   38.90
   6  17   1   93.69   35.40
  17  -6   1  146.59   44.20
  -6 -17   1   97.29   35.10
 -17   6   1  126.29   40.10
  17  -8  -1  108.79   36.00
   8  17  -1   60.49   27.20
  -8 -17  -1   59.09   27.10
 -17   8  -1   74.09   35.30
  17  -8   1   44.50   26.90
  -8 -17   1   54.29   25.90
   8  17   1   68.39   26.30
 -17   8   1   64.89   30.90
  17 -10  -1   28.60   18.10
 -10 -17  -1   10.30   15.50
  10  17  -1   12.20   15.80
  10  17   1   21.40   16.90
  17 -10   1   33.40   19.80
 -10 -17   1  -10.70   10.00
 -12 -17  -1  -16.90    9.50
 -17  12  -1    2.20    8.80
  12  17  -1   -9.10   10.00
  17 -12  -1   -3.20   10.60
 -12 -17   1   -7.50    8.50
  17 -12   1   29.00   29.10
 -17  12   1   26.40   18.20
  12  17   1    0.20    9.70
  14  17  -1   52.79   19.50
  17 -14  -1    2.90   14.60
 -14 -17  -1   -7.00    9.20
 -17  14   1   -2.90   20.90
  14  17   1   32.90   18.20
 -14 -17   1    1.60   10.60
  17 -14   1   46.30   32.30
 -17  16  -1    3.30   20.20
  16  17  -1    4.50   11.00
  17 -16  -1  -17.80   14.00
 -16 -17   1    2.30   11.20
  17 -16   1   28.20   33.80
 -17  16   1   17.20   31.20
  16  17   1    7.10   11.10
  17 -18  -1   40.80   28.30
  18  17  -1   22.20   14.50
 -17  18  -1   43.60   33.30
  17 -18   1   23.40   26.80
 -17  18   1   77.39   37.40
  18  17   1   17.70   13.50
  18  17   1   40.60   15.10
 -15  18  -1  -12.80   13.00
  15 -18  -1    2.60   18.10
  18  15  -1    1.70    6.60
  18  15   1    7.40    6.00
  15 -18   1   30.20   32.20
 -18 -15   1    1.50    6.70
 -15  18   1   12.50   20.20
 -13  18  -1    7.10   47.70
  13 -18  -1   -8.70   16.50
  13 -18   1   -5.70   23.20
 -13  18   1    6.30   23.10
 -11  18  -1  -10.80   14.60
  11 -18  -1    6.00   18.40
 -11  18   1    1.40   21.50
  11 -18   1   28.40   28.10
  -9  18  -1   -2.60   16.40
   9 -18  -1  -27.50   32.30
   9 -18   1  -12.00   13.40
  -9  18   1   -2.60   21.60
  -7  18  -1   12.60   13.30
   7 -18  -1  -11.80    9.80
  -7  18   1    0.10    9.60
   7 -18   1   -5.70   20.10
   5 -18  -1  -53.09   25.60
  -5  18  -1   -3.40    8.70
  -5  18   1    6.80   15.20
   5 -18   1  -13.30   12.70
   3 -18  -1   -1.20   16.70
 -18  -3  -1    4.50    6.60
  -3  18  -1  -13.80   10.90
 -18  -3   1   -2.20    6.00
 -18  -3   1    9.00    7.90
  18   3   1   -1.40    5.10
   3 -18   1   28.60   15.60
  -3  18   1    5.10   16.00
   1 -18  -1    4.30   15.90
  -1  18  -1   -7.80    7.90
 -18  -1  -1   12.60   10.40
  -1  18   1   -6.60   14.60
  18   1   1    1.50    7.80
   1 -18   1   -3.90   18.10
 -18  -1   1    5.80    9.20
  18  -1  -1    4.70   11.00
  -1 -18  -1    3.60   19.20
   1  18  -1  -15.40    9.30
 -18   1  -1   17.30   14.30
  -1 -18   1   -9.80   10.00
   1  18   1   -0.80    8.30
 -18   1   1   -3.80    8.30
  18  -1   1   14.80   11.40
  18  -3  -1   14.20   16.10
  -3 -18  -1   14.70   18.80
 -18   3  -1    1.00   11.20
   3  18  -1   18.90   21.10
 -18   3   1   13.90   15.80
  -3 -18   1  -11.80   11.80
   3  18   1    4.40   14.90
  18  -3   1   -5.60   11.30
  18  -5  -1    4.40   15.30
 -18   5  -1    9.80   13.80
  -5 -18  -1   -2.20   14.80
   5  18  -1   -1.40   10.20
 -18   5   1    6.00   12.90
   5  18   1   -4.40   11.80
  18  -5   1  -10.70   11.00
  -5 -18   1   -2.40   13.30
  18  -7  -1   -9.70    7.70
 -18   7  -1    0.60   12.60
   7  18  -1    7.20   13.20
  -7 -18  -1   -8.20    8.70
 -18   7   1    1.20   17.10
  18  -7   1   -2.10   11.50
   7  18   1   -6.70    9.70
  -7 -18   1  -10.80   11.40
 -18   9  -1   -7.70   14.00
  -9 -18  -1    7.50   12.50
  18  -9  -1   -3.20   15.40
   9  18  -1    8.10   17.90
  18  -9   1    5.50   17.40
  -9 -18   1   10.80   16.20
 -18   9   1   -3.30   16.40
   9  18   1    9.70   14.10
  18 -11  -1   -4.20   12.60
 -11 -18  -1    6.30   14.60
  11  18  -1    4.50   15.70
  18 -11   1   -6.00   14.50
  11  18   1   11.00   14.10
 -11 -18   1   -7.40   10.80
  13  18  -1  -17.50    9.10
  18 -13  -1    5.50   15.60
 -18  13  -1    1.70    9.30
 -13 -18  -1    5.80   14.30
 -13 -18   1   18.40   15.80
  13  18   1   13.70   14.60
 -18  13   1   16.50   18.40
  18 -13   1    0.00   17.50
  15  18  -1   17.90   14.10
 -15 -18  -1   32.00   20.50
  18 -15  -1  -10.00   12.80
 -18  15  -1  -13.30   13.00
 -15 -18   1    4.40   12.70
  15  18   1  -10.00    9.40
 -18  15   1   42.10   31.20
  18 -15   1    0.10   20.00
  17  18  -1   29.80   16.60
 -18  17  -1   43.50   35.10
  18 -17  -1  -18.70   13.30
 -18  17   1   24.50   28.00
 -17 -18   1   32.00   18.30
  17  18   1   35.30   15.80
  18 -17   1   15.80   31.00
  16 -19  -1   28.40   27.80
 -16  19  -1   16.40   28.70
  16 -19   1   -8.90   26.10
 -16  19   1  -10.60   13.50
  14 -19  -1   18.60   26.50
 -14  19  -1  -14.60   16.10
 -14  19   1    9.80   25.50
  14 -19   1  -17.90   17.20
 -12  19  -1  -10.30   12.00
 -12  19   1   58.59   39.20
  10 -19  -1    5.60   18.30
 -10  19  -1   23.80   30.10
  10 -19   1   27.80   25.50
 -10  19   1   -5.70   22.80
  -8  19  -1   97.49   37.60
   8 -19  -1   45.10   30.40
  -8  19   1   13.20   25.10
   8 -19   1   38.10   29.60
   6 -19  -1   85.29   40.80
  -6  19  -1   79.59   48.00
  -6  19   1  116.59   54.09
   6 -19   1  124.09   54.99
  -4  19  -1   20.40   17.70
   4 -19  -1   83.79   31.20
   4 -19   1   36.00   30.40
  -4  19   1   96.89   40.60
   2 -19  -1    3.20   15.90
 -19  -2  -1   -2.90    7.60
 -19  -2   1    6.40    8.20
  19   2   1    2.90    7.70
  -2  19   1   -5.70   17.70
 -19  -2   1   -2.60    7.70
   2 -19   1   33.30   24.40
   0 -19  -1   21.50   19.80
 -19   0  -1   -1.20    9.20
  19   0  -1    0.40    9.50
   0  19  -1   10.10   13.80
 -19   0   1   -1.70    8.90
   0 -19   1  -10.60   15.70
   0  19   1   -2.50    8.90
  19   0   1    1.00    8.00
 -19   2  -1   -6.90   10.60
   2  19  -1   -0.60   15.30
  -2 -19  -1  -18.60   11.10
  19  -2  -1    5.70   12.60
   2  19   1    4.00   14.30
  -2 -19   1   24.40   19.60
  19  -2   1  -14.10    7.10
 -19   2   1   -3.30    9.90
   4  19  -1   -2.90   13.80
 -19   4  -1   27.30   20.10
  19  -4  -1   53.59   22.70
  -4 -19  -1   88.89   31.60
  19  -4   1   86.59   29.40
 -19   4   1  120.19   31.50
  -4 -19   1   44.70   28.60
   4  19   1   51.29   29.50
 -19   6  -1   53.39   28.10
  -6 -19  -1   60.79   30.90
  19  -6  -1   80.19   31.80
   6  19  -1   56.59   27.90
  -6 -19   1   85.39   36.70
   6  19   1   77.49   34.50
  19  -6   1   83.99   33.90
 -19   6   1   65.29   30.60
 -19   8  -1   20.80   19.60
   8  19  -1   12.90   15.50
  19  -8  -1   44.60   25.50
  -8 -19  -1   16.50   16.00
   8  19   1   26.50   18.80
 -19   8   1   33.00   20.30
  19  -8   1   47.90   28.00
  -8 -19   1   17.70   16.30
 -10 -19  -1   37.20   20.90
 -19  10  -1  -11.30   13.00
  10  19  -1   31.50   20.50
  19 -10  -1   14.40   18.40
  10  19   1   16.80   15.80
  19 -10   1  -14.20   12.30
 -19  10   1    5.80   15.60
 -10 -19   1   -5.60   10.00
  12  19  -1  -12.40    8.80
 -12 -19  -1   12.20   15.30
  19 -12  -1  -11.30   11.30
 -12 -19   1   -8.30   13.80
  19 -12   1   39.80   28.70
  12  19   1   19.60   17.30
 -19  14  -1   -0.20   13.90
  19 -14  -1   11.20   22.50
  14  19  -1    5.90   13.80
 -14 -19  -1   -7.20   12.60
 -14 -19   1    1.50   12.50
 -19  14   1   23.50   23.80
  19 -14   1    8.20   17.60
  14  19   1    6.20   13.10
  16  19  -1    6.10   14.20
 -16 -19  -1   -8.50   10.70
 -19  16  -1    0.30   15.60
  19 -16  -1    0.10   19.80
 -19  16   1   -3.50   21.10
  16  19   1    3.70   12.60
 -16 -19   1    1.20   10.70
  19 -16   1    3.70   21.90
 -15  20  -1   -1.60   13.30
  15 -20  -1   -7.00   14.60
  15 -20   1   18.00   22.20
 -15  20   1    0.10   16.80
 -13  20  -1    9.50   21.50
  13 -20  -1  -16.60   13.60
 -13  20   1  -18.30   17.40
  13 -20   1   -3.40   25.00
  11 -20  -1   27.00   29.40
 -11  20  -1   15.40   20.20
  11 -20   1  -23.30   56.59
 -11  20   1   12.10   22.60
   9 -20  -1   59.99   38.80
  -9  20  -1   14.70   18.50
  -9  20   1   46.20   36.00
   9 -20   1   64.49   29.90
   7 -20  -1   12.90   17.90
  -7  20  -1    6.00   26.70
  -7  20   1   29.00   21.40
   7 -20   1   29.10   26.90
   5 -20  -1   12.80   22.20
  -5  20  -1    0.50   24.00
  -5  20   1    0.00   18.30
   5 -20   1  -10.40   12.50
 -20  -3  -1   -0.90    6.20
  -3  20  -1    5.90   15.40
   3 -20  -1    7.50   14.10
  20   3   1   13.30    7.90
   3 -20   1   31.30   29.70
 -20  -3   1   10.60    8.30
 -20  -3   1    3.50    6.40
  -3  20   1   -8.90   16.00
 -20  -1  -1    4.50    9.10
  -1  20  -1   12.60   16.90
   1 -20  -1    9.60   19.00
 -20  -1   1    8.00    8.90
   1 -20   1   -7.90   16.30
 -20  -1   1   -6.10    8.00
  20   1   1   -5.70    5.90
  -1  20   1    3.80   11.60
   1  20  -1   -5.10   13.30
  20  -1  -1   -2.20   10.60
  -1 -20  -1  -13.90   10.80
 -20   1  -1    2.10   11.80
  -1 -20   1  -15.50    9.00
  20  -1   1    2.30   11.20
 -20   1   1   -3.10    9.00
   1  20   1   -3.20   11.90
  20  -3  -1    3.40   13.60
 -20   3  -1    5.50   14.90
   3  20  -1    1.80   13.90
  -3 -20  -1  -15.00   11.80
  20  -3   1    2.80   10.90
 -20   3   1   -2.10    9.60
  -3 -20   1  -12.20   10.30
   3  20   1    1.20   19.50
   5  20  -1   21.30   18.00
 -20   5  -1   -1.20   14.40
  -5 -20  -1   13.00   15.20
  20  -5  -1   -2.00   13.40
   5  20   1  -10.60    9.50
 -20   5   1   10.80   15.50
  20  -5   1    0.70   12.00
  -5 -20   1  -19.10   17.40
   7  20  -1   -0.50   14.20
  20  -7  -1    0.00   14.30
 -20   7  -1   17.10   18.20
  -7 -20  -1   24.30   20.40
   7  20   1   18.50   18.00
  20  -7   1    2.10   10.90
 -20   7   1   13.20   17.50
  -7 -20   1   10.40   21.40
 -20   9  -1   18.40   19.30
  20  -9  -1   15.20   16.90
  -9 -20  -1   16.20   19.50
   9  20  -1   40.10   22.20
  20  -9   1   16.60   22.90
 -20   9   1   23.30   22.30
   9  20   1   17.10   19.20
  -9 -20   1   11.40   15.90
  20 -11  -1    9.90   17.20
 -11 -20  -1   -7.60   11.70
  11  20  -1  -11.60   13.10
 -20  11  -1    4.30   15.60
 -20  11   1   34.70   21.20
  11  20   1   -8.70    9.10
  20 -11   1   12.30   15.80
 -11 -20   1   11.70   15.50
 -13 -20  -1    3.90   15.50
  20 -13  -1   -4.80   16.30
  13  20  -1   13.30   17.50
  13  20   1    1.80    9.90
 -13 -20   1   33.60   18.30
  20 -13   1   22.90   24.00
  20 -15  -1   13.30   24.50
 -20  15  -1   15.70   22.30
 -15 -20  -1    0.80   14.80
  15  20  -1   -3.80   21.50
  20 -15   1    4.70   12.80
 -20  15   1   -7.80   13.00
  15  20   1  -12.70   12.90
 -15 -20   1    3.70   13.20
 -14  21  -1  -10.60   16.40
  14 -21  -1   28.80   29.60
  14 -21   1   -4.30   21.60
 -14  21   1   26.40   27.50
  12 -21  -1   30.20   26.00
 -12  21  -1  -14.50   15.60
  12 -21   1   -1.50   21.70
 -12  21   1   -3.70   16.30
 -10  21  -1    2.40   13.60
  10 -21  -1   16.90   24.00
  10 -21   1   17.90   32.10
 -10  21   1  -20.20   13.10
  -8  21  -1   29.80   33.00
   8 -21  -1  -10.10   13.50
  -8  21   1    8.70   23.40
   8 -21   1  -26.20   47.00
   6 -21  -1  -24.00   17.00
  -6  21  -1  -10.30   15.30
   6 -21   1   19.60   28.80
  -6  21   1   14.60   31.10
   4 -21  -1  -16.90   12.60
  -4  21  -1   -3.00   12.80
  -4  21   1    3.00   16.30
   4 -21   1   17.50   18.90
   2 -21  -1    0.70   14.90
 -21  -2  -1    6.80   10.10
  -2  21  -1  -10.40    9.60
  -2  21   1   61.09   24.80
   2 -21   1  -20.10   13.40
 -21  -2   1   -1.40    9.00
 -21  -2   1   17.60   10.50
   0 -21  -1   11.60   17.70
 -21   0  -1   -8.90   10.10
   0  21  -1  -14.00   12.90
  21   0   1   -2.40    8.20
   0 -21   1  -18.40   10.10
   0  21   1    4.30   18.70
 -21   0   1    0.30    9.50
  -2 -21  -1    2.40   13.70
  21  -2  -1   -2.70   12.70
   2  21  -1    5.30   11.80
 -21   2  -1    0.60   11.90
   2  21   1  -11.00    8.10
  21  -2   1   15.40   12.30
 -21   2   1    3.60   15.50
  -2 -21   1   28.80   22.30
  21  -4  -1   -0.60   12.70
  -4 -21  -1   -8.60   12.30
 -21   4  -1    3.00   13.40
   4  21  -1   37.40   27.00
  -4 -21   1   -9.00   14.60
   4  21   1  -11.70    9.40
 -21   4   1    2.20   13.30
  21  -4   1   -2.10   12.30
  -6 -21  -1   20.30   17.90
 -21   6  -1   15.70   17.90
   6  21  -1  -11.60   10.50
  21  -6  -1    5.80   15.10
  21  -6   1    2.80   14.00
   6  21   1    2.50   13.20
  -6 -21   1  -12.60   12.00
 -21   6   1   21.30   19.00
 -21   8  -1    8.70   17.90
  21  -8  -1   -2.00   16.10
  -8 -21  -1   24.80   23.00
   8  21  -1    2.60   16.60
  21  -8   1  -13.70    9.50
  -8 -21   1   -7.40   10.30
   8  21   1   29.40   22.00
 -21   8   1   -2.80   15.10
  10  21  -1   -4.40   13.30
 -10 -21  -1  -16.60   12.40
 -21  10  -1   13.20   20.60
  21 -10  -1   -5.20   11.60
 -10 -21   1   11.90   20.20
  10  21   1   -2.80   13.20
 -21  10   1    3.50   20.30
  21 -10   1  -13.00   14.00
  21 -12  -1   -2.00   17.50
 -12 -21  -1   -4.20   13.80
  12  21  -1  -12.70   11.60
 -21  12  -1  -14.70   17.00
  21 -12   1   18.30   22.00
  12  21   1   22.80   19.20
 -21  12   1   13.20   17.40
 -12 -21   1   21.80   17.90
  14  21  -1   -8.00   12.50
 -14 -21  -1   11.60   17.90
  21 -14  -1   32.40   23.10
  14  21   1    7.70   14.70
  21 -14   1  -10.80   12.50
 -14 -21   1    3.50   13.50
  13 -22  -1   19.90   27.20
 -13  22  -1   13.30   26.10
 -13  22   1   24.60   32.10
  13 -22   1   -8.90   31.50
 -11  22  -1   -0.60   22.00
  11 -22  -1  -26.70   14.60
 -11  22   1   -2.20   25.20
  11 -22   1  -19.50   17.00
   9 -22  -1   43.70   30.60
  -9  22  -1  -11.10   18.70
   9 -22   1    2.20   25.50
  -7  22  -1    8.60   22.60
   7 -22  -1    5.50   31.20
  -7  22   1   12.50   67.89
   7 -22   1   21.50   27.70
  -5  22  -1  -14.50   17.90
   5 -22  -1   87.79   43.30
  -5  22   1   26.70   32.90
   5 -22   1   33.80   31.10
  -3  22  -1   56.89   28.80
   3 -22  -1   24.90   22.00
 -22  -3   1   33.80   11.20
  -3  22   1    6.20   20.00
 -22  -3   1   28.20   10.20
   3 -22   1   22.60   26.90
  -1  22  -1   18.80   27.70
   1 -22  -1   23.30   20.00
 -22  -1  -1   -3.60    8.90
  22   1   1    6.30    9.70
   1 -22   1  -22.70   10.90
 -22  -1   1    4.00   10.70
 -22  -1   1    4.50   12.20
  -1  22   1   -9.80   15.60
   1  22  -1    0.50   15.50
  -1 -22  -1   18.40   19.50
 -22   1  -1   -4.50   12.70
  22  -1  -1    9.00   13.30
  22  -1   1   10.20   11.80
   1  22   1   50.09   33.10
 -22   1   1   -5.20   10.70
  -1 -22   1  -11.10   13.90
  22  -3  -1   68.09   25.00
   3  22  -1   20.60   26.00
  -3 -22  -1   14.30   23.60
 -22   3  -1   40.90   23.80
   3  22   1    0.50   18.30
 -22   3   1   72.89   41.70
  -3 -22   1   -5.80   16.30
  22  -3   1   28.70   16.30
 -22   5  -1  -16.70   10.50
  -5 -22  -1   37.70   25.30
   5  22  -1    7.80   17.30
  22  -5  -1   18.10   17.80
  22  -5   1   31.60   20.10
   5  22   1   20.60   22.00
 -22   5   1   -8.30   11.80
  -5 -22   1   31.40   23.20
  22  -7  -1   -2.80   15.60
 -22   7  -1   -6.10   15.10
   7  22  -1    9.60   16.00
  -7 -22  -1    8.20   13.80
 -22   7   1    5.10   18.80
  22  -7   1   -0.90   15.90
   7  22   1   -2.70   11.90
  -7 -22   1   -6.10   12.80
   9  22  -1   14.20   18.10
  22  -9  -1  -18.00   11.30
  -9 -22  -1    6.40   15.60
 -22   9  -1   13.50   22.20
  -9 -22   1    0.00   17.30
   9  22   1  -12.90    9.50
  22  -9   1   29.10   19.80
 -22   9   1   12.50   16.30
  11  22  -1  -10.70   12.60
  22 -11  -1   -8.00   13.60
 -22  11  -1   -1.70   16.80
 -11 -22  -1   -5.40   11.40
  11  22   1    3.10   14.30
 -22  11   1   26.90   26.00
 -11 -22   1    3.80   13.60
  22 -11   1    6.80   19.60
  13  22  -1   15.80   19.00
  22 -13  -1    1.50   15.90
 -22  13  -1    0.90   17.90
 -13 -22  -1   11.10   17.20
 -13 -22   1   17.90   16.80
  22 -13   1   34.70   24.00
 -22  13   1   -5.20   20.00
  13  22   1    2.10   12.70
  10 -23  -1   35.70   41.90
 -10  23  -1  -13.30   61.19
  10 -23   1  -15.50   15.30
 -10  23   1   -9.20   26.10
  -8  23  -1   10.30   35.10
   8 -23  -1    3.10   20.60
   8 -23   1  -18.00   17.40
  -8  23   1  -29.60   19.80
  -6  23  -1   32.60   34.00
   6 -23  -1   37.50   39.80
  -6  23   1   -2.80   23.80
   6 -23   1   19.10   23.50
  -4  23  -1   51.89   31.20
   4 -23  -1  125.59   47.70
   4 -23   1   34.50   27.40
  -4  23   1  101.99   46.60
   2 -23  -1    3.80   23.00
  -2  23  -1    6.80   19.20
 -23  -2  -1   40.00   14.20
  23   2   1   31.80   13.70
  -2  23   1    0.40   22.10
   2 -23   1   41.10   26.10
 -23  -2   1   29.70   14.40
 -23  -2   1   49.90   16.00
 -23   0  -1  -16.50    8.90
   0  23  -1   -0.50   18.80
   0 -23  -1   18.40   19.20
 -23   0   1   18.90   14.60
  23   0   1    4.20   11.50
   0 -23   1  -19.90   13.70
   0  23   1   14.90   20.40
  -2 -23  -1   22.00   18.80
   2  23  -1   50.29   26.90
  23  -2  -1   37.20   20.90
 -23   2  -1   19.30   17.50
   2  23   1   36.40   31.40
 -23   2   1   85.29   26.70
  -2 -23   1   -2.80   22.50
  23  -2   1   26.60   19.60
  -4 -23  -1   67.79   34.30
   4  23  -1   66.19   31.00
  23  -4  -1   57.69   27.20
 -23   4  -1   72.19   33.90
  -4 -23   1   21.30   28.90
   4  23   1   83.09   39.10
  23  -4   1   77.59   28.80
   6  23  -1    3.70   20.00
  -6 -23  -1   -2.90   30.90
 -23   6  -1    7.80   17.10
  23  -6  -1  -12.60   14.40
   6  23   1   -2.30   20.90
  -6 -23   1   19.00   38.90
  23  -6   1   -3.70   12.50
 -23   6   1   -4.70   14.40
  -8 -23  -1   -6.80   14.40
  23  -8  -1  -15.70   13.10
 -23   8  -1   -9.60   15.10
   8  23  -1   19.40   22.10
  23  -8   1    0.40   16.90
   8  23   1    9.10   19.40
  -8 -23   1  -10.10   13.50
 -23   8   1  -17.20   14.80
 -23  10  -1   10.90   17.90
  23 -10  -1    5.10   15.40
  10  23  -1   -8.70   11.80
 -10 -23  -1    1.40   14.90
  23 -10   1   15.50   15.30
 -10 -23   1  -12.80   12.90
 -23  10   1   79.49   34.60
  10  23   1   -7.50    9.80
   9 -24  -1   -0.30   17.50
  -9  24  -1   -2.20   18.80
  -9  24   1   -7.70   21.50
   9 -24   1  -15.60   16.40
  -7  24  -1  -26.10   17.30
   7 -24  -1   38.80   32.60
  -7  24   1  -21.30   13.60
   7 -24   1   45.90   28.10
   5 -24  -1   15.30   29.80
  -5  24  -1  -19.50   17.00
   5 -24   1   -0.10   21.40
  -5  24   1    6.10   24.40
   3 -24  -1   28.70   21.90
  -3  24  -1  -15.70   15.50
  -3  24   1   14.30   27.10
   3 -24   1   -6.30   13.00
   1 -24  -1   -0.10   18.20
  -1  24  -1   39.70   30.80
 -24  -1  -1   17.50   13.60
  -1  24   1   22.00   24.50
 -24  -1   1   34.00   14.60
   1 -24   1   -2.80   21.10
 -24  -1   1    8.40   13.30
  24   1   1    8.10   11.30
  24  -1  -1   15.00   15.50
   1  24  -1   50.99   30.50
 -24   1  -1   -8.80    9.80
  -1 -24  -1    5.60   16.00
 -24   1   1   11.60   15.00
   1  24   1   -7.30   11.90
  -1 -24   1   -9.50   11.40
  24  -1   1    2.70   12.20
   3  24  -1   15.90   21.50
 -24   3  -1    2.30   15.80
  24  -3  -1   -9.80   12.80
  -3 -24  -1  -11.90   14.00
   3  24   1    2.00   15.80
  -3 -24   1    9.40   25.10
  24  -3   1   -3.20   11.10
 -24   3   1   -1.70   15.80
 -24   5  -1   -5.20   16.20
  -5 -24  -1    4.60   17.40
  24  -5  -1   33.40   22.90
   5  24  -1   12.30   20.60
  24  -5   1   13.90   18.90
  -5 -24   1   39.90   26.20
   5  24   1    8.80   15.50
 -24   7  -1  -10.30   12.10
  -7 -24  -1    5.50   19.60
  24  -7  -1    9.00   20.00
   7  24  -1   11.50   20.80
   7  24   1    4.30   16.10
  -7 -24   1   39.00   27.60
  24  -7   1  -10.90   12.10
 -24   7   1    4.20   16.10
  -9 -24  -1   -2.10   14.60
 -24   9  -1    3.60   16.60
  24  -9  -1   -1.70   14.50
   9  24  -1   30.10   23.10
 -24   9   1   -9.30   15.60
   9  24   1    9.30   16.80
  24  -9   1   13.40   18.40
  -9 -24   1   -6.20   16.60
  -6  25  -1   19.00   28.00
   6 -25  -1   34.10   33.00
  -6  25   1  -21.20   19.90
   6 -25   1   -8.50   22.90
   4 -25  -1   -7.10   14.50
  -4  25  -1    9.00   18.70
   4 -25   1   16.80   18.60
  -4  25   1  -16.00   19.70
   2 -25  -1   27.30   28.90
  -2  25  -1  -19.70   13.00
 -25  -2  -1   -4.80    6.30
  -2  25   1   10.40   28.30
   2 -25   1   -2.60   17.40
 -25  -2   1   14.90    8.50
 -25  -2   1   -1.10    7.80
   0  25  -1   54.39   35.40
   0 -25  -1   18.10   20.80
 -25   0  -1   19.30   14.80
   0 -25   1    5.70   21.30
 -25   0   1  -16.50   10.80
  25   0   1   -3.30   11.40
 -25   0   1   12.80   13.60
   0  25   1   11.50   27.60
  25  -2  -1   14.30   18.10
  -2 -25  -1  -19.90   12.00
 -25   2  -1  -13.00   13.20
   2  25  -1    5.10   15.10
   2  25   1   -3.30   13.90
  -2 -25   1   -6.40   23.60
 -25   2   1    9.50   17.80
  25  -2   1   -1.00   10.50
   4  25  -1   13.40   19.50
 -25   4  -1    9.30   17.40
  -4 -25  -1   36.00   23.00
  25  -4  -1   -3.30   16.40
  -4 -25   1  -10.90   14.10
 -25   4   1   12.80   17.20
   4  25   1   33.20   23.30
  25  -4   1   -4.80   12.20
  -6 -25  -1   41.40   28.20
   6  25  -1  -15.40   13.40
 -25   6  -1   21.50   24.40
  25  -6  -1  -23.90   12.70
  -6 -25   1    2.50   15.80
  25  -6   1   -5.20   12.60
   6  25   1   12.30   20.80
   0   0  -2    1.30    8.80
   0   0   2    0.50    9.50
   1  -1  -2  124.09   30.00
  -1  -1  -2   54.69   18.60
  -1   1  -2  126.19   28.20
   1   1  -2   71.19   25.90
  -1   1   2   18.10   15.40
   1  -1   2   35.70   15.90
  -1  -1   2   77.29   22.80
   1   1   2   23.60   13.60
   0  -2  -2  818.52  211.58
   2   0  -2  802.92  211.58
  -2   0  -2  834.02  211.48
   0   2  -2  874.31  212.08
   0  -2   2 1060.29  215.18
   2   0   2  850.41  211.78
  -2   0   2  875.41  211.98
   0   2   2  906.01  212.28
  -2   2  -2    1.20    9.90
   2   2  -2    4.70    9.60
  -2  -2  -2    0.90    2.30
  -2   2   2    4.00   10.10
   2  -2   2  -14.00   11.40
  -2  -2   2   -1.50    8.80
   2   2   2   10.00   11.70
  -2   2   2    5.50   10.80
   3   1  -2 3142.39  757.62
  -1   3   2 3007.70  758.32
   3   1   2 3020.60  757.32
   1  -3   2 3199.88  758.42
  -1   3   2 3566.74  759.52
  -3  -1   2 3036.90  757.42
   1   3  -2 2856.91  698.73
   3  -1  -2 2869.01  698.33
   3  -1   2 3021.60  698.63
   1   3   2 2872.31  698.63
   1   3   2 2839.12  698.63
  -3   1   2 2950.80  698.83
   3  -3  -2 2321.17  562.24
   3   3  -2 2323.37  560.84
  -3  -3   2 2358.36  560.94
   3   3   2 2368.16  560.84
   3  -3   2 2156.18  561.64
  -3   3   2 2430.56  562.54
  -4  -2  -2  247.08   70.69
   2  -4  -2  412.06   82.09
   4   2  -2  311.67   72.39
  -2   4  -2  169.68   68.69
  -2   4   2  444.56   84.59
   4   2   2  255.77   70.29
  -4  -2   2  249.48   70.79
   2  -4   2  428.66   88.79
   0  -4  -2  466.15   95.79
   0   4  -2  258.47   80.79
   4   0  -2  360.26   84.09
  -4   0   2  307.37   83.69
   4   0   2  265.87   81.19
   0   4   2  402.06   85.79
   0  -4   2  316.27   84.19
   2   4  -2  253.07   65.19
  -2  -4   2  297.77   67.39
   2   4   2  232.48   64.19
   4  -2   2  310.17   68.09
  -4   2   2  153.68   62.29
   2   4   2  249.58   63.69
   4   4  -2    3.40   10.20
   4  -4  -2   -2.30   14.70
  -4   4  -2   26.10   15.20
   4  -4   2   -2.00   12.20
  -4  -4   2   -4.70   10.50
  -4   4   2   -1.40   11.90
   4   4   2    3.10   11.60
   4   4   2    2.50   12.10
  -5  -3  -2   97.29   28.30
  -3   5  -2   92.49   33.50
   3  -5  -2  119.79   35.30
   5   3  -2   75.59   27.90
   5   3   2   70.59   26.50
  -3   5   2  138.59   42.90
   3  -5   2   63.39   29.70
  -5  -3   2  103.59   30.40
   1  -5  -2  226.28   49.20
  -5  -1  -2  207.28   45.70
  -1   5  -2  251.37   57.39
   5   1  -2  187.98   43.60
   5   1   2  128.49   43.30
   1  -5   2  114.59   41.80
  -1   5   2  118.39   44.70
  -5  -1   2  111.69   41.50
   1   5  -2  104.39   37.50
  -1  -5  -2  147.69   39.30
  -5   1   2   98.99   35.50
  -1  -5   2  139.29   40.60
   1   5   2  134.19   39.50
   5  -1   2  143.09   37.10
  -5   3  -2    8.00   12.60
   5  -3  -2   59.69   22.70
   3   5  -2   66.89   22.20
  -5   3   2   35.40   17.20
   3   5   2   90.79   23.10
   5  -3   2   97.49   29.00
   3   5   2   49.50   17.00
  -3  -5   2   75.79   21.40
   5  -5  -2  923.41  226.68
   5   5  -2  961.60  224.08
  -5   5  -2  987.60  226.78
   5   5   2  897.81  223.98
  -5  -5   2  919.41  224.08
   5   5   2  880.91  223.58
   5  -5   2  893.11  226.28
  -5   5   2  863.31  226.58
   4  -6  -2   79.19   30.50
  -6  -4  -2  104.09   27.50
   6   4  -2   86.09   27.90
  -4   6  -2   89.39   30.40
  -6  -4   2   62.19   25.70
   4  -6   2   50.69   28.80
  -4   6   2  173.68   45.20
  -2   6  -2  154.08   43.80
   6   2  -2   91.99   29.70
   2  -6  -2   43.40   28.70
  -6  -2  -2   82.49   28.60
  -2   6   2   83.09   31.80
  -6  -2   2  118.49   31.40
   2  -6   2  214.58   49.90
   6   2   2   90.49   28.30
  -6   0  -2   93.39   27.60
   0   6  -2   82.19   30.30
   0  -6  -2   64.49   28.50
   0  -6   2   55.49   26.40
   0   6   2  126.19   33.10
  -6   0   2   67.99   26.70
  -6   0   2   87.79   27.70
   6   0   2   92.39   28.20
  -2  -6  -2   68.79   30.40
   2   6  -2   83.49   27.20
   6  -2  -2   93.59   29.00
   2   6   2   81.99   30.20
  -2  -6   2   74.49   30.10
   6  -2   2   60.89   25.30
   6  -4  -2   84.59   31.40
  -6   4  -2   85.49   29.90
   4   6  -2   91.99   29.00
   4   6   2   88.49   30.30
  -6   4   2  113.09   35.30
  -4  -6   2   63.39   27.80
   6  -4   2   74.99   31.20
   6  -6  -2   11.10   15.20
  -6   6  -2    9.90   15.50
   6   6  -2    4.80   10.80
  -6   6   2   -8.10   11.50
  -6  -6   2    9.30   10.00
   6   6   2   -6.50    7.70
   6  -6   2   -7.10   11.10
   6   6   2   -0.80   10.80
   5  -7  -2  229.88   74.29
   7   5  -2  238.08   70.59
  -5   7  -2  235.38   72.59
   7   5   2  270.67   71.19
   7   5   2  296.27   71.59
  -5   7   2  581.04  107.89
   5  -7   2  538.45  108.29
  -7  -5   2  262.37   70.49
   3  -7  -2   33.10   21.30
   7   3  -2   14.30   15.50
  -7  -3  -2   38.00   15.30
  -3   7  -2   69.39   26.90
   7   3   2   25.70   14.60
  -3   7   2   27.80   20.00
  -7  -3   2   33.50   16.00
   3  -7   2   33.30   19.10
  -1   7  -2 1929.01  465.15
   1  -7  -2 1902.81  465.15
  -7  -1  -2 1835.42  461.95
   1  -7   2 1956.10  465.35
   7   1   2 1911.41  462.05
  -7  -1   2 1966.00  462.45
   1   7  -2 1876.51  459.55
  -1  -7  -2 1913.51  459.95
  -7   1  -2 1855.51  457.55
   7  -1   2 1846.92  458.05
  -7   1   2 1870.71  458.55
  -7   1   2 1788.82  457.45
   1   7   2 2057.89  460.55
  -1  -7   2 2014.40  460.05
   3   7  -2   17.00   16.90
   7  -3  -2   44.70   21.00
  -3  -7  -2   49.99   22.10
  -3  -7   2   44.30   21.30
   7  -3   2   53.99   21.70
  -7   5  -2  252.57   80.79
   5   7  -2  335.97   82.29
  -5  -7  -2  314.97   81.79
   7  -5  -2  440.56   92.09
  -5  -7   2  317.17   83.89
   5   7   2  289.77   81.89
  -7   5   2  271.37   83.19
   7  -7  -2    0.20   28.50
   7   7  -2   22.50   13.50
   7   7   2   19.70   14.00
   7  -7   2   13.40   11.60
   7   7   2   11.70   12.30
  -7   7   2   39.10   38.50
  -6   8  -2   70.69   25.50
   6  -8  -2   14.70   21.80
   8   6  -2   34.00   18.10
  -6   8   2   25.90   22.00
   8   6   2   60.59   19.70
   6  -8   2   53.39   21.20
   8   6   2   66.79   19.50
   8   4  -2  119.99   34.80
  -4   8  -2  103.79   39.80
  -8  -4  -2  129.49   35.70
   4  -8  -2   74.99   36.10
  -8  -4   2  114.49   35.10
  -4   8   2  167.88   48.90
   4  -8   2  141.89   63.49
   8   4   2  129.69   35.40
   8   2  -2  264.07   76.29
   2  -8  -2  316.87   88.29
  -8  -2  -2  313.57   77.69
  -2   8  -2  214.38   79.69
   8   2   2  304.57   76.59
  -2   8   2  340.67   85.79
  -8  -2   2  319.47   77.69
   2  -8   2  338.17   88.49
   0   8  -2   24.60   14.70
  -8   0  -2   13.50   12.10
   0  -8  -2    4.00   14.50
   0   8   2   13.10   17.50
   8   0   2   39.70   15.90
  -8   0   2   31.40   13.30
  -8   0   2   -8.50   10.70
   0  -8   2   26.00   19.10
  -2  -8  -2  386.06   84.79
  -8   2  -2  277.67   78.09
   2   8  -2  274.77   78.29
   8  -2  -2  282.87   77.29
   8  -2   2  272.17   76.39
   2   8   2  294.27   79.39
  -2  -8   2  315.17   79.69
  -8   2   2  233.88   75.49
   8  -4  -2  127.29   38.20
   4   8  -2  109.69   34.50
  -4  -8  -2  116.49   35.70
   4   8   2  131.09   40.90
   8  -4   2   73.39   30.60
  -4  -8   2  126.49   35.20
  -8   6  -2   94.79   30.80
   6   8  -2   49.70   20.90
  -6  -8  -2   44.80   22.30
   8  -6  -2   40.50   23.50
   6   8   2   52.39   21.20
   8  -6   2   38.00   22.20
  -8   6   2   66.09   28.40
  -6  -8   2   14.00   17.60
   8  -8  -2   -9.90    9.70
   8   8  -2    5.40   10.50
  -8   8  -2   -8.80   12.30
   8   8   2  -10.30    7.80
  -8   8   2   -2.90   14.10
  -8  -8   2   -6.00   10.40
   8   8   2    7.60   11.40
   8  -8   2    0.40    9.60
  -7   9  -2   43.30   25.50
   9   7  -2   65.99   24.90
   7  -9  -2   77.69   31.00
  -7   9   2  184.38   48.60
   7  -9   2  128.19   45.40
  -9  -7   2   63.79   25.20
   9   7   2  113.99   27.70
   9   7   2   63.59   25.60
  -5   9  -2  884.71  185.18
   9   5  -2  753.02  170.98
   5  -9  -2  718.33  180.98
  -9  -5   2  720.63  170.88
   9   5   2  624.04  170.08
  -5   9   2 1100.29  201.28
   5  -9   2  535.95  175.98
   9   5   2  667.13  170.28
  -9  -3  -2  409.26  107.99
  -3   9  -2  460.75  117.39
   3  -9  -2  327.27  112.99
   9   3  -2  434.96  106.19
  -3   9   2  907.51  152.98
  -9  -3   2  445.46  108.69
   3  -9   2  392.36  114.59
   9   3   2  420.06  105.99
  -1   9  -2 1946.21  466.55
  -9  -1  -2 1930.91  462.55
   1  -9   2 2077.29  467.15
  -9  -1   2 1923.11  462.75
  -9  -1   2 1753.02  462.55
   9   1   2 1933.81  462.55
   1   9  -2 1717.73  458.75
  -1  -9  -2 1697.83  458.45
  -9   1  -2 1929.81  456.65
   1   9   2 2014.00  460.05
  -9   1   2 1925.61  457.55
  -1  -9   2 1841.82  459.35
   9  -1   2 2060.39  457.75
  -9   3  -2  422.46  104.29
  -3  -9  -2  494.55  104.49
   9  -3  -2  392.06  101.69
   3   9  -2  332.47   99.49
  -9   3   2  319.97   99.09
   3   9   2  295.77   98.49
  -3  -9   2  539.25  109.79
   9  -3   2  487.65  105.39
   9  -5  -2  750.82  172.98
   5   9  -2  722.93  171.38
  -5  -9  -2  718.83  171.68
  -5  -9   2  586.84  173.28
   5   9   2  708.33  176.18
   9  -5   2  602.94  174.68
   7   9  -2   63.59   27.70
   9  -7  -2  117.09   38.40
  -9   7  -2   84.69   31.10
  -7  -9  -2   98.89   30.20
   7   9   2   67.39   26.90
  -9   7   2  103.59   36.50
   9  -7   2   51.59   26.50
  -7  -9   2   90.59   29.00
   9   9  -2   33.90   15.20
   9  -9  -2   21.90   17.10
  -9   9  -2   11.90   18.40
   9  -9   2   23.30   17.90
  -9   9   2   41.10   27.80
  -9  -9   2   21.40   14.70
   9   9   2   35.50   15.80
   9   9   2   32.50   15.30
   8 -10  -2  -13.10    9.90
  -8  10  -2   14.00   20.70
  10   8  -2   -2.50    9.30
 -10  -8   2   -1.50    8.30
   8 -10   2   18.80   17.60
  -8  10   2   26.80   43.60
  10   8   2    7.40    9.90
  10   8   2   -4.50    7.50
  10   6  -2   10.20   11.30
  -6  10  -2   12.70   16.30
   6 -10  -2    6.00   14.20
  10   6   2    7.70   11.30
  10   6   2   -3.90    8.00
 -10  -6   2    4.60    9.90
  -6  10   2   15.10   26.70
   6 -10   2   22.80   19.70
 -10  -4  -2  131.09   29.00
  10   4  -2   92.39   25.60
  -4  10  -2   41.70   25.10
   4 -10  -2   68.79   36.80
  -4  10   2  177.68   48.40
 -10  -4   2   81.09   24.80
   4 -10   2   81.89   31.40
  10   4   2   48.20   22.60
  -2  10  -2  252.87   91.49
 -10  -2  -2  351.26   89.59
   2 -10  -2  386.16   97.39
  10   2   2  369.26   89.99
  -2  10   2  317.27   95.69
 -10  -2   2  403.56   91.89
 -10  -2   2  348.37   89.69
   2 -10   2  343.57   96.59
   0 -10  -2  400.46   86.99
   0  10  -2  223.28   77.19
 -10   0  -2  295.97   75.39
  10   0   2  323.97   76.59
   0  10   2  242.28   78.09
 -10   0   2  258.77   75.29
   0 -10   2  286.27   79.59
 -10   0   2  258.87   75.99
   2  10  -2  306.87  101.99
  -2 -10  -2  463.85  108.99
 -10   2  -2  364.16  102.19
  10  -2  -2  379.16  103.39
 -10   2   2  445.46  107.09
  10  -2   2  326.97  102.09
   2  10   2  538.35  114.49
  -2 -10   2  552.64  112.59
  -4 -10  -2   66.49   29.20
 -10   4  -2   74.29   27.00
   4  10  -2  159.18   38.50
  10  -4  -2   83.59   30.90
 -10   4   2   99.79   30.20
   4  10   2   27.20   24.00
  -4 -10   2   69.89   29.10
  10  -4   2   85.29   30.70
  10  -6  -2   -0.30   12.10
   6  10  -2   18.90   14.60
  -6 -10  -2   33.00   16.50
 -10   6   2    0.20    4.90
  -6 -10   2    9.50   13.80
  10  -6   2   15.10   18.20
   6  10   2   11.90   12.40
 -10   8  -2   15.40   17.10
  -8 -10  -2    8.40   13.70
   8  10  -2   -4.30   10.10
  10  -8  -2   -7.00   13.00
  -8 -10   2    0.40   10.10
 -10   8   2   -7.60   10.10
  10  -8   2    5.40   19.10
   8  10   2    3.30   10.50
  10 -10  -2   13.70   15.70
 -10  10  -2   -9.50    9.80
  10  10  -2    3.90    9.20
  10 -10   2    0.40   16.50
 -10  10   2   -2.10   14.80
 -10 -10   2   -0.90    8.10
  10  10   2   -0.70    7.60
  10  10   2    3.80   10.70
  -9  11  -2   42.90   22.90
  11   9  -2    4.90   10.90
   9 -11  -2   22.30   15.60
  11   9   2   29.90   13.50
  -9  11   2   14.50   17.60
  11   9   2   25.80   12.70
 -11  -9   2   30.10   14.50
   9 -11   2    0.30   10.00
  11   7  -2  437.26  112.99
  -7  11  -2  344.97  117.19
   7 -11  -2  366.66  121.09
   7 -11   2  687.53  146.99
  11   7   2  435.76  112.59
  11   7   2  533.55  113.49
 -11  -7   2  471.05  113.39
  -7  11   2  498.65  132.59
  11   5  -2  658.03  177.98
  -5  11  -2 1229.28  218.68
   5 -11  -2  999.70  204.18
  -5  11   2  605.34  187.08
   5 -11   2 1037.00  201.38
 -11  -5   2  683.53  178.08
  11   5   2  756.12  178.18
 -11  -3  -2  861.01  231.18
   3 -11  -2  884.61  236.48
  -3  11  -2 1024.30  237.98
  -3  11   2 1476.05  250.67
   3 -11   2  894.81  243.78
  11   3   2  909.71  231.08
 -11  -3   2  928.11  231.68
 -11  -3   2 1020.90  231.88
   1 -11  -2 1380.46  353.16
  -1  11  -2 1448.46  353.66
 -11  -1  -2 1327.57  348.57
  11   1   2 1517.25  349.37
 -11  -1   2 1494.65  349.67
   1 -11   2 1861.41  360.66
 -11  -1   2 1424.66  349.37
  -1  11   2 1244.78  353.66
  11  -1  -2 1474.85  348.67
  -1 -11  -2 1428.26  351.96
 -11   1  -2 1358.96  347.77
   1  11  -2 1395.26  351.36
 -11   1   2 1472.95  348.87
  -1 -11   2 1506.45  352.16
  11  -1   2 1433.96  348.37
   1  11   2 1387.96  352.06
   3  11  -2  988.80  246.58
 -11   3  -2 1005.30  244.78
  11  -3  -2 1078.09  245.58
  -3 -11  -2  983.80  246.08
  -3 -11   2 1101.69  247.28
   3  11   2 1058.89  247.18
 -11   3   2  859.11  244.28
  11  -3   2  929.11  244.48
   5  11  -2  792.02  202.68
 -11   5  -2  797.42  202.98
  -5 -11  -2  757.92  202.28
  11  -5  -2  691.93  204.18
  11  -5   2  856.61  203.88
 -11   5   2 1061.59  221.18
  -5 -11   2  813.92  202.68
   5  11   2  907.51  203.68
  11  -7  -2  468.95  132.89
  -7 -11  -2  629.54  137.09
   7  11  -2  420.16  131.29
  11  -7   2  518.95  138.49
  -7 -11   2  563.84  136.69
   7  11   2  565.84  137.29
 -11   9  -2   28.30   18.00
  11  -9  -2    9.80   16.00
   9  11  -2   51.39   18.60
  -9 -11  -2   31.50   17.20
 -11   9   2   43.90   21.50
  -9 -11   2   49.30   19.60
   9  11   2   27.30   15.00
  11  -9   2    3.30   11.00
  11  11  -2   19.20   12.00
 -11  11  -2   42.20   23.20
  11 -11  -2   45.20   23.70
 -11  11   2   65.19   30.90
  11  11   2   27.40   14.10
  11 -11   2   -6.20    8.50
 -11 -11   2    4.30   10.70
  11  11   2   20.30   12.80
  10 -12  -2   16.30   19.20
  12  10  -2   16.50   14.30
 -10  12  -2   63.69   30.30
  12  10   2   44.00   16.10
  10 -12   2   33.90   28.50
  12  10   2   39.80   15.90
 -10  12   2   39.20   21.60
 -12 -10   2   24.20   14.80
  12   8  -2   -1.00    9.10
  -8  12  -2   47.10   24.70
   8 -12  -2   -3.40   10.30
  -8  12   2    8.60   16.50
  12   8   2    9.80   10.20
   8 -12   2    2.00   13.60
  12   8   2   -5.50    6.10
 -12  -8   2    1.90   10.20
  12   6  -2   -5.60    6.70
  -6  12  -2    4.40   12.40
   6 -12  -2  -18.10   14.50
 -12  -6   2  -13.20    7.50
  12   6   2    6.70    9.10
   6 -12   2   -5.20   12.60
  12   6   2   -9.90    6.60
  -6  12   2   50.59   33.40
  -4  12  -2  132.59   47.60
 -12  -4  -2  130.89   37.40
   4 -12  -2   84.19   46.60
  -4  12   2  163.18   58.99
 -12  -4   2  118.99   37.20
  12   4   2  142.39   37.60
 -12  -4   2  184.78   40.40
   4 -12   2   83.39   42.20
 -12  -2  -2  211.98   47.90
  -2  12  -2  204.18   56.69
   2 -12  -2  126.59   52.29
   2 -12   2  169.08   56.59
 -12  -2   2  166.28   47.10
  12   2   2  199.48   47.90
  -2  12   2  103.99   48.30
 -12  -2   2  153.78   46.60
 -12   0  -2  149.79   51.49
   0  12  -2  214.78   64.89
 -12   0   2  165.68   51.49
 -12   0   2  195.28   53.79
  12   0   2  308.77   57.79
   0  12   2  157.98   52.49
   2  12  -2  185.58   55.79
  -2 -12  -2  202.78   54.39
  12  -2  -2  168.08   48.80
 -12   2  -2  125.89   46.00
 -12   2   2  263.07   56.39
  -2 -12   2  200.98   56.79
   2  12   2   92.09   46.80
  12  -2   2  173.08   49.70
  12  -4  -2  151.98   47.30
   4  12  -2  181.28   52.09
 -12   4  -2  153.18   44.90
  -4 -12  -2  122.29   45.60
 -12   4   2  133.09   47.00
  -4 -12   2  106.09   44.10
  12  -4   2  132.69   43.20
   4  12   2  211.18   53.89
  -6 -12  -2   19.70   15.30
  12  -6  -2   -0.50   12.90
   6  12  -2    6.10   11.90
  12  -6   2   10.20   16.90
   6  12   2   -8.40    8.40
  -6 -12   2   -3.70    9.70
   8  12  -2    1.10   10.70
  12  -8  -2  -14.20    8.90
  -8 -12  -2   14.00   15.90
 -12   8  -2    8.90   10.00
  -8 -12   2    5.00   12.90
 -12   8   2    2.00    7.50
   8  12   2    8.40   12.60
  12  -8   2  -14.60    8.90
 -12  10  -2   55.59   28.80
  12 -10  -2   56.69   27.20
 -10 -12  -2   29.70   19.10
  10  12  -2   35.10   18.10
  10  12   2   22.20   17.30
 -12  10   2   30.80   25.10
  12 -10   2   50.09   24.00
 -10 -12   2   77.79   24.50
  12  12  -2    3.90   10.10
 -12  12  -2   24.90   20.30
  12 -12  -2  -16.60    6.30
  12  12   2   -2.80    8.30
  12  12   2   19.90   12.30
 -12 -12   2   10.80   10.80
  12 -12   2    4.60   11.50
 -12  12   2   -8.70   14.80
 -11  13  -2   -0.20   10.70
  11 -13  -2   11.60   15.90
  13  11  -2    5.40    9.40
  13  11   2   -5.90    8.10
 -11  13   2    3.60   13.30
  13  11   2   -6.80    7.10
 -13 -11   2   17.30   10.20
  11 -13   2    1.00   15.30
   9 -13  -2   21.20   23.70
  -9  13  -2   23.90   25.10
  13   9  -2   48.30   20.10
  -9  13   2   52.99   27.10
   9 -13   2   68.59   30.90
 -13  -9   2   68.39   21.40
  13   9   2   87.99   22.20
  13   7  -2  469.95  112.49
  -7  13  -2  485.85  129.39
  -7  13   2  558.34  133.89
  13   7   2  429.36  111.89
  13   7   2  377.96  111.69
   7 -13   2  780.02  149.49
 -13  -7   2  510.15  113.09
  -5  13  -2  396.26  107.29
   5 -13  -2  608.54  119.69
 -13  -5   2  382.86   95.79
  -5  13   2  443.76  112.19
 -13  -5   2  394.96   94.49
  13   5   2  373.26   93.69
   5 -13   2  225.08   99.89
  -3  13  -2 1198.18  206.18
 -13  -3  -2  566.24  157.08
 -13  -3   2  636.04  157.78
  -3  13   2  824.62  179.08
   3 -13   2  640.64  172.28
  13   3   2  665.13  157.38
 -13  -3   2  617.24  157.58
 -13  -1  -2  787.52  199.18
  -1  13  -2  637.54  204.98
   1 -13  -2 1147.59  226.58
  13   1   2  830.82  199.38
 -13  -1   2  800.92  199.58
  -1  13   2 1176.88  225.88
 -13  -1   2  794.92  199.58
 -13   1  -2  809.92  185.08
  13  -1  -2  764.92  185.28
  -1 -13  -2  598.84  189.88
   1  13  -2  646.34  188.78
  13  -1   2  742.23  184.78
 -13   1   2  818.42  185.38
   1  13   2  732.43  194.88
  -1 -13   2  770.22  196.48
  -3 -13  -2  577.44  159.78
  13  -3  -2  528.95  155.28
   3  13  -2  787.42  165.78
 -13   3  -2  725.93  159.98
  13  -3   2  529.35  154.28
  -3 -13   2  804.72  167.78
   3  13   2  448.56  154.68
 -13   3   2  774.52  162.68
  13  -5  -2  420.06  117.89
 -13   5  -2  438.96  120.49
  -5 -13  -2  327.47  115.39
   5  13  -2  402.96  120.79
  -5 -13   2  603.84  127.59
   5  13   2  628.44  129.69
  13  -5   2  498.45  123.59
 -13   5   2  447.06  121.69
  -7 -13  -2  396.16  107.99
   7  13  -2  402.26  112.19
  13  -7  -2  535.55  116.49
   7  13   2  519.35  124.89
  -7 -13   2  413.56  110.39
  13  -7   2  279.17  108.69
 -13   9  -2   94.39   35.60
   9  13  -2  130.09   34.20
  13  -9  -2   30.40   26.40
  -9 -13  -2   92.79   30.40
   9  13   2   70.59   28.30
  13  -9   2   71.99   33.00
  -9 -13   2   77.99   31.80
 -13   9   2   93.79   34.40
  13 -11  -2  -13.10    9.20
  11  13  -2  -10.20    6.40
 -11 -13  -2    0.50   10.60
 -13  11   2   21.00   22.90
  13 -11   2   -1.20   11.60
 -11 -13   2   -7.80    9.30
  11  13   2  -11.60    9.00
  13 -13  -2   13.10   20.30
  13  13  -2   17.20   14.40
 -13  13  -2   -3.40   13.10
  13 -13   2   36.70   27.10
  13  13   2   28.70   16.10
  13  13   2   17.90   11.80
 -13 -13   2   30.30   16.10
 -13  13   2   18.60   18.20
  12 -14  -2   15.00   15.10
  14  12  -2   -1.80    9.20
 -12  14  -2   14.30   19.50
  12 -14   2   11.20   16.40
 -12  14   2   32.40   37.90
  14  12   2   -4.00    7.90
 -14 -12   2   -4.00    9.50
  14  12   2   17.60   12.00
 -10  14  -2   16.70   15.50
  14  10  -2    1.80    9.20
  10 -14  -2   -5.00   11.30
  14  10   2   19.00   10.10
  14  10   2   -4.40    9.10
 -14 -10   2    0.30    8.40
 -10  14   2   -2.00   17.10
  10 -14   2   18.90   15.10
   8 -14  -2   20.50   19.30
  -8  14  -2   93.59   43.70
  14   8  -2   37.00   14.00
  -8  14   2    2.90   25.00
  14   8   2   33.20   13.80
 -14  -8   2   26.20   13.70
   8 -14   2   75.29   34.90
  -6  14  -2    7.70   13.40
   6 -14  -2   35.10   24.60
   6 -14   2   10.40   14.40
  14   6   2   12.90    9.20
 -14  -6   2   14.90    9.20
 -14  -6   2    1.10    8.80
  14   6   2    0.90    7.00
  -6  14   2   -4.50   16.30
  -4  14  -2  -10.70   10.40
 -14  -4  -2   36.70   14.20
   4 -14  -2   13.00   17.30
 -14  -4   2   17.50   11.10
   4 -14   2   47.60   29.90
 -14  -4   2   15.80   11.50
  14   4   2   24.40   11.40
  -4  14   2   15.80   20.80
 -14  -2  -2   -4.40    7.50
  -2  14  -2    3.60   14.40
   2 -14  -2   47.30   44.40
  14   2   2    1.60    7.80
  -2  14   2   31.10   26.90
 -14  -2   2   27.40   13.20
   2 -14   2    6.10   15.00
 -14  -2   2    1.10    9.50
   0  14  -2  138.29   39.40
   0 -14  -2   57.19   28.50
 -14   0  -2   92.29   27.60
 -14   0   2  130.69   30.30
   0  14   2   39.10   26.30
 -14   0   2   51.99   24.50
   0 -14   2   34.20   36.70
  14   0   2   74.89   27.60
  14  -2  -2   14.50   14.80
   2  14  -2   -7.00   13.80
 -14   2  -2   40.50   17.60
  -2 -14  -2   -5.30   11.10
  14  -2   2    7.50   12.90
   2  14   2  -13.10   13.60
 -14   2   2   11.50   13.60
  -2 -14   2  -13.40   10.70
  14  -4  -2    9.20   15.00
  -4 -14  -2    5.00   14.70
 -14   4  -2   12.40   14.40
   4  14  -2   -9.70    9.90
 -14   4   2   -9.50   10.00
  -4 -14   2   14.60   21.90
  14  -4   2   36.50   17.50
   4  14   2   30.30   18.20
  14  -6  -2   12.30   14.60
   6  14  -2   32.70   21.30
  -6 -14  -2   10.50   16.80
 -14   6  -2  -12.40    8.70
 -14   6   2   10.40   15.50
   6  14   2   36.10   25.70
  14  -6   2   17.10   14.80
  -6 -14   2   -1.50   14.00
  14  -8  -2   18.30   18.10
  -8 -14  -2   60.19   22.00
   8  14  -2   75.49   28.40
   8  14   2   25.30   21.70
  14  -8   2   39.40   18.60
  -8 -14   2    4.40   15.40
  10  14  -2   -7.20    8.40
 -10 -14  -2    5.90   11.30
 -14  10  -2    1.40   11.20
  14 -10  -2  -19.30    9.10
 -10 -14   2    8.50   11.60
  10  14   2   -3.60    8.70
  14 -10   2  -16.80   10.40
 -14  10   2    3.30   17.40
  14 -12  -2   12.00   16.50
  12  14  -2   18.20   13.40
 -14  12  -2   -6.80   12.20
 -12 -14   2   15.10   13.90
  14 -12   2   16.00   14.10
  12  14   2   -4.40    8.60
 -14  12   2   -4.70   12.80
  14 -14  -2  -10.80   11.20
  14  14  -2   -2.30    9.20
 -14  14  -2   29.30   24.40
 -14  14   2   10.30   23.60
  14  14   2   11.70   13.50
 -14 -14   2   -0.10    9.30
  14 -14   2   21.50   18.70
  14  14   2   13.00   11.60
 -13  15  -2   33.20   31.00
  15  13  -2   92.29   27.10
  13 -15  -2   91.99   33.20
  13 -15   2   69.29   35.10
  15  13   2   92.29   27.40
 -13  15   2  107.99   48.60
 -15 -13   2   68.99   26.50
  15  13   2   72.89   25.30
  15  11  -2  139.59   37.30
 -11  15  -2  125.39   52.29
  11 -15  -2  184.48   57.79
  15  11   2  135.29   36.40
 -15 -11   2  111.79   37.10
  15  11   2  150.58   37.20
  11 -15   2   67.69   46.00
 -11  15   2   92.79   44.40
   9 -15  -2  271.67   89.29
  15   9  -2  325.17   79.79
  -9  15  -2  576.44  134.49
 -15  -9   2  309.57   79.49
  15   9   2  288.77   77.19
   9 -15   2  240.18   90.59
  15   9   2  336.77   77.59
   7 -15  -2  998.40  221.38
  -7  15  -2 1555.44  255.77
  15   7   2  759.12  188.18
 -15  -7   2  762.72  188.78
   7 -15   2  775.72  209.58
  15   7   2  739.73  189.68
 -15  -7   2  779.32  188.98
  -5  15  -2  394.26  111.59
  -5  15   2  364.06  114.29
  15   5   2  390.96   96.49
 -15  -5   2  391.96   98.89
 -15  -3  -2   44.10   17.70
  -3  15  -2   52.39   25.80
   3 -15  -2   33.90   22.10
  15   3   2   69.69   19.40
 -15  -3   2   52.09   18.10
   3 -15   2    4.90   15.80
 -15  -3   2   54.79   19.30
  -3  15   2   15.60   20.40
 -15  -1  -2   -5.40    8.70
  -1  15  -2   24.20   20.10
   1 -15  -2  -10.70    9.00
  15   1   2    6.00    8.20
 -15  -1   2   -5.10    8.70
  -1  15   2   -2.40   18.40
 -15  -1   2  -13.90    7.50
   1 -15   2  -15.40    7.40
  -1 -15  -2    8.90   18.40
  15  -1  -2    7.40   13.10
 -15   1  -2   -7.90   11.30
   1  15  -2   -1.60   12.50
  15  -1   2    2.00   11.80
   1  15   2   20.50   18.80
 -15   1   2   19.60   13.60
  -1 -15   2    2.10   13.70
  -3 -15  -2   35.10   21.20
 -15   3  -2   74.29   24.90
  15  -3  -2   23.20   16.00
   3  15  -2    4.20   14.40
   3  15   2   14.30   17.80
  15  -3   2   12.40   16.40
 -15   3   2   31.60   17.90
  -3 -15   2   14.10   14.30
  -5 -15  -2  403.06  104.29
  15  -5  -2  338.17   99.59
   5  15  -2  311.07   98.49
 -15   5  -2  280.57   99.29
  -5 -15   2  550.54  114.09
   5  15   2  461.95  110.59
 -15   5   2  348.77  100.09
  15  -5   2  428.06  105.59
  -7 -15  -2  526.55  159.58
  15  -7  -2  731.53  168.38
   7  15  -2  650.43  161.78
 -15   7  -2  564.74  160.28
  -7 -15   2  644.34  163.68
 -15   7   2  897.41  172.38
   7  15   2  631.74  162.78
  15  -7   2  528.45  161.38
  15  -9  -2  338.07   92.59
  -9 -15  -2  302.47   82.79
   9  15  -2  332.87   84.19
  -9 -15   2  248.88   81.29
  15  -9   2  375.06   96.39
   9  15   2  250.57   82.89
 -15  11  -2  146.39   48.10
  11  15  -2  174.88   42.00
 -11 -15  -2  103.99   35.10
  15 -11  -2  105.79   42.80
  15 -11   2   84.39   42.20
 -15  11   2  141.19   50.19
 -11 -15   2   76.19   33.20
  11  15   2   58.59   31.50
  15 -13  -2  128.49   48.80
 -15  13  -2   58.79   33.30
  13  15  -2   86.69   32.30
  15 -13   2  101.79   45.50
 -13 -15   2  102.49   33.70
 -15  13   2  175.38   58.29
  13  15   2   90.99   32.30
 -15  15  -2  196.58   60.59
  15 -15  -2   56.59   32.90
  15  15  -2  102.69   35.10
  15  15   2  172.08   39.60
  15 -15   2   48.40   39.70
 -15 -15   2  105.09   35.70
 -15  15   2  186.08   64.49
  15  15   2  174.98   39.80
  14 -16  -2  -26.30   16.10
  16  14  -2   -3.60   10.50
 -14  16  -2   -1.70   15.50
  16  14   2    0.20   10.30
  16  14   2   26.00   12.40
 -16 -14   2   11.90   12.70
 -14  16   2   13.80   22.20
  14 -16   2    1.80   15.90
 -12  16  -2   85.09   34.80
  16  12  -2   31.60   14.00
  12 -16  -2    7.00   14.20
  16  12   2   17.70   11.60
  12 -16   2   28.70   33.60
 -12  16   2   51.79   30.50
 -16 -12   2   36.20   15.30
  16  12   2   27.00   13.10
  10 -16  -2    9.80   17.50
 -10  16  -2   14.00   15.70
  16  10  -2    7.00    8.50
  16  10   2   17.50    8.30
 -16 -10   2   12.40    9.00
 -10  16   2   -6.50   11.00
  16  10   2   21.40    8.30
   8 -16  -2   -7.80   11.40
  -8  16  -2   17.60   22.90
  16   8   2    8.60    6.00
   8 -16   2   -0.70    9.70
 -16  -8   2   -2.60    5.60
 -16  -8   2    5.50    7.90
  16   8   2    4.20    5.80
  -8  16   2  -16.90   13.50
  -6  16  -2   17.70   17.80
   6 -16  -2   59.99   30.60
  16   6   2   40.90   13.10
  -6  16   2    0.70   13.60
   6 -16   2   22.80   26.30
 -16  -6   2   35.50   14.60
 -16  -6   2   41.50   13.70
  16   6   2   39.50   12.50
   4 -16  -2   -7.70   29.60
  -4  16  -2    0.80   10.80
 -16  -4  -2    6.70    9.10
  -4  16   2    2.60   12.00
   4 -16   2   45.60   24.60
  16   4   2    0.20    6.40
 -16  -4   2   12.80   10.00
 -16  -4   2   24.40   12.00
 -16  -2  -2   32.10   13.80
  -2  16  -2    1.70   14.80
   2 -16  -2   34.20   24.80
  16   2   2   24.10   12.40
 -16  -2   2    3.60   10.20
   2 -16   2   17.90   24.60
 -16  -2   2   25.90   14.80
  -2  16   2   42.40   27.10
   0 -16  -2    5.50    9.50
 -16   0  -2   14.10   12.90
   0  16  -2    2.30   18.10
 -16   0   2   -9.30    8.60
   0  16   2   18.80   12.50
 -16   0   2    7.10   12.10
   0 -16   2   -8.60   10.80
  16   0   2   14.60   12.00
   2  16  -2   27.20   22.20
  16  -2  -2   43.90   19.20
 -16   2  -2   20.20   16.30
  -2 -16  -2   99.29   34.70
  16  -2   2   10.20   13.00
 -16   2   2   42.70   18.90
   2  16   2   26.70   20.00
  -2 -16   2   17.20   16.00
  16  -4  -2  -10.00    9.70
   4  16  -2    4.30   14.50
 -16   4  -2   16.50   14.90
  -4 -16  -2    7.70   15.00
 -16   4   2   32.30   17.30
  -4 -16   2    9.50   16.90
  16  -4   2   17.20   14.90
   4  16   2   16.70   14.70
   6  16  -2   13.20   14.50
 -16   6  -2   23.60   18.20
  -6 -16  -2   27.70   18.70
  16  -6  -2   46.10   27.90
 -16   6   2   83.19   29.50
  16  -6   2    0.60   11.70
   6  16   2  -10.70    8.50
  -6 -16   2   17.80   21.00
  16  -8  -2    0.20   15.90
  -8 -16  -2   -4.10   12.90
 -16   8  -2    2.60   11.90
   8  16  -2   -2.20   10.90
  -8 -16   2    2.90   12.40
   8  16   2   -7.00    8.30
  16  -8   2    4.80   13.20
 -16   8   2   -4.90   12.50
  10  16  -2    6.00   14.00
 -10 -16  -2   22.50   18.10
  16 -10  -2   -0.30   18.80
 -10 -16   2   14.60   14.70
  16 -10   2   28.20   24.10
  10  16   2   27.50   17.50
 -16  12  -2  -14.30    9.90
 -12 -16  -2   42.00   18.50
  12  16  -2   -7.90    7.20
  16 -12  -2   15.70   18.30
  16 -12   2    6.40   18.00
 -16  12   2    6.10   13.10
  12  16   2   -3.50   10.20
 -12 -16   2   37.30   18.60
  16 -14  -2   -1.40   13.80
  14  16  -2   20.80   14.90
 -16  14  -2   29.40   23.20
  16 -14   2   70.99   35.70
 -14 -16   2    5.30   13.00
  14  16   2    5.80    9.80
 -16  14   2  -14.60   11.70
  16  16  -2   -5.20    9.50
 -16  16  -2   -6.80   15.60
  16 -16  -2  -11.20   15.90
  16 -16   2  -19.50   12.10
  16  16   2   -7.50   11.10
  16  16   2   11.20   11.50
 -16 -16   2    4.70   12.20
 -16  16   2   -9.90   17.20
  17  15  -2   67.49   27.90
  15 -17  -2  111.99   41.00
 -15  17  -2   52.79   37.60
 -15  17   2  128.09   64.99
 -17 -15   2  113.59   30.50
  15 -17   2   43.20   30.40
  17  15   2   87.69   27.50
  17  15   2  134.79   31.90
 -13  17  -2   35.30   30.70
  13 -17  -2   52.39   36.20
  17  13  -2  105.69   27.10
  17  13   2   63.39   23.70
 -13  17   2   89.29   35.70
  17  13   2   89.59   24.90
 -17 -13   2  121.49   28.60
  13 -17   2   77.69   43.90
  11 -17  -2  382.66  108.89
 -11  17  -2   79.59   46.20
  17  11   2  158.68   40.40
 -11  17   2   93.39   46.60
  17  11   2  179.88   40.70
 -17 -11   2  182.38   42.30
  -9  17  -2  369.66  109.59
 -17  -9   2  329.17   81.39
  -9  17   2  319.77  102.79
 -17  -9   2  330.47   81.39
   7 -17  -2  290.47  114.69
  -7  17  -2  756.72  150.78
 -17  -7   2  463.45  108.39
   7 -17   2  641.84  142.59
  -7  17   2  375.16  120.79
 -17  -7   2  451.25  108.39
   5 -17  -2  292.57   79.89
  -5  17  -2  194.98   66.69
 -17  -5   2  244.28   57.99
  17   5   2  280.07   56.19
 -17  -5   2  164.58   56.39
   5 -17   2  113.09   63.49
  -5  17   2  581.44  146.89
  -3  17  -2   53.59   36.00
 -17  -3  -2   48.30   16.90
   3 -17  -2   -6.00   15.80
 -17  -3   2   14.50   12.10
   3 -17   2   29.00   32.00
 -17  -3   2   28.30   13.60
  -3  17   2   75.39   35.70
  17   3   2   46.90   15.10
   1 -17  -2   -2.70   11.90
 -17  -1  -2    1.10    9.40
  -1  17  -2   22.70   21.00
   1 -17   2  -15.20   11.60
  -1  17   2   -1.20   12.80
 -17  -1   2   -1.00    9.30
 -17  -1   2    3.00   10.80
  17   1   2    8.30   11.30
 -17   1  -2   -0.60    9.90
   1  17  -2  -13.70   13.80
  -1 -17  -2   12.40   13.50
  -1 -17   2   -1.60   16.60
 -17   1   2    5.80   11.50
  17  -1   2   12.00   12.70
   1  17   2   27.70   23.60
  17  -3  -2   -6.50   12.20
  -3 -17  -2   35.90   22.00
   3  17  -2  -12.90   13.60
 -17   3  -2   56.99   21.30
   3  17   2   42.60   24.70
  -3 -17   2    8.40   13.20
  17  -3   2    3.80   14.90
 -17   3   2   33.30   20.30
 -17   5  -2  196.88   56.59
  17  -5  -2  211.78   58.49
   5  17  -2  198.28   60.99
  -5 -17  -2  139.29   56.49
 -17   5   2  261.57   65.69
  -5 -17   2  126.29   53.29
  17  -5   2  265.97   65.29
   5  17   2  166.68   58.79
 -17   7  -2  677.53  133.89
   7  17  -2  446.86  122.99
  -7 -17  -2  501.65  126.99
   7  17   2  512.25  127.59
  -7 -17   2  341.67  120.09
  17  -7   2  306.27  124.69
 -17   7   2  656.13  137.59
 -17   9  -2  276.47   77.29
   9  17  -2  256.37   76.69
  17  -9  -2  303.97   81.49
  -9 -17  -2  347.97   80.59
  -9 -17   2  247.88   75.09
   9  17   2  231.68   73.99
 -17   9   2  251.77   78.59
  17  -9   2  207.28   73.19
  17 -11  -2   79.39   39.70
  11  17  -2  131.39   41.40
 -11 -17  -2  140.39   42.00
  17 -11   2  196.08   55.29
 -11 -17   2   95.29   37.80
  11  17   2   93.89   37.70
  17 -13  -2   65.09   33.30
 -13 -17  -2  110.59   34.60
  13  17  -2   70.69   31.70
 -17  13  -2  103.59   42.50
  13  17   2   85.69   32.30
 -17  13   2   68.09   38.60
 -13 -17   2   96.19   34.20
  17 -13   2   79.49   44.40
 -17  15  -2  100.29   43.60
  17 -15  -2  122.59   46.20
  15  17  -2   47.80   26.30
  17 -15   2   38.80   36.00
  15  17   2  122.59   33.20
 -15 -17   2  106.89   32.80
  15  17   2   90.29   30.10
 -17  15   2   46.20   36.80
  17 -17  -2  101.29   48.50
 -17  17  -2   89.99   39.20
  17  17  -2   64.29   23.70
 -17  17   2    3.20   24.20
 -17 -17   2   36.60   21.10
  17 -17   2   50.09   33.40
  17  17   2   57.79   20.80
  17  17   2   41.40   19.80
  18  16  -2   -3.30    9.00
  16 -18  -2    5.80   15.90
 -16  18  -2   -0.70   19.90
  16 -18   2    4.50   22.50
 -16  18   2   -7.60   15.00
  18  16   2   -2.20    7.20
 -18 -16   2  -13.40   17.00
  18  16   2    2.30    8.90
  18  14  -2   -0.50    9.20
 -14  18  -2  -10.80   16.00
  14 -18  -2   97.79   64.89
  18  14   2    2.70    8.20
 -18 -14   2    3.80    8.30
 -14  18   2    0.30   24.90
  14 -18   2    4.40   15.60
  18  14   2   17.30    8.50
  12 -18  -2   -3.40   20.50
 -12  18  -2   64.69   39.60
 -18 -12   2   -6.30    4.90
  12 -18   2   -1.30   20.10
 -12  18   2    7.30   24.50
  10 -18  -2  -13.50   18.40
 -10  18  -2   64.49   32.90
 -10  18   2   -5.00    9.90
  10 -18   2   33.90   29.50
   8 -18  -2   -2.70   11.70
  -8  18  -2   13.70   27.80
  -8  18   2    1.10   21.40
   8 -18   2   -0.10   13.30
  -6  18  -2    3.40   18.50
   6 -18  -2  -25.50   37.20
  -6  18   2   -4.50   16.40
 -18  -6   2    0.80    6.60
 -18  -6   2  -11.20    5.80
 -18  -4  -2  -11.90    6.70
   4 -18  -2   17.50   19.20
  -4  18  -2   -1.00   17.50
 -18  -4   2   24.40   10.50
   4 -18   2    9.20   17.90
 -18  -4   2   -0.70    8.20
  18   4   2    7.70    8.00
  -4  18   2    7.70   21.30
   2 -18  -2    7.00   12.60
 -18  -2  -2    6.30   12.00
  -2  18  -2   35.80   26.10
 -18  -2   2   13.70   12.60
  18   2   2   45.90   16.50
   2 -18   2   16.90   12.50
  -2  18   2   67.39   33.40
 -18  -2   2   24.50   14.20
 -18   0  -2   34.50   17.50
   0  18  -2   13.30   18.70
   0 -18  -2   39.80   23.50
 -18   0   2   25.10   16.70
  18   0   2    3.80   11.50
   0  18   2    2.10   13.30
   0 -18   2   63.49   30.50
 -18   0   2   35.10   16.80
  -2 -18  -2   16.40   19.30
   2  18  -2   -8.20   14.50
 -18   2  -2   15.80   14.50
  18  -2  -2   38.90   18.80
  18  -2   2   10.90   15.20
 -18   2   2   18.80   16.20
   2  18   2   70.29   33.50
  -2 -18   2   27.50   23.70
 -18   4  -2    4.90   12.90
  18  -4  -2   -0.10   13.10
  -4 -18  -2   -7.20   11.80
   4  18  -2    1.60   14.50
 -18   4   2   -5.20   11.60
  18  -4   2   10.10   14.40
   4  18   2   -9.50   12.30
  -4 -18   2   -4.60   11.10
 -18   6  -2   30.20   19.30
   6  18  -2  -12.10   11.80
  18  -6  -2  -14.70   10.00
  -6 -18  -2    6.80   14.60
   6  18   2    7.40   14.20
 -18   6   2   13.20   19.20
  -6 -18   2   -6.20   14.40
  18  -6   2  -10.00    8.30
 -18   8  -2    5.20   16.60
  -8 -18  -2   11.00   15.70
  18  -8  -2   -6.30   12.20
   8  18  -2  -11.10   10.50
   8  18   2    0.60    9.40
  -8 -18   2   -1.90   10.40
 -18   8   2   16.00   17.00
  10  18  -2   33.80   20.70
  18 -10  -2   42.50   24.80
 -10 -18  -2  -23.10    9.90
 -18  10  -2   -9.80   13.90
  10  18   2    3.00   12.00
  18 -10   2   -3.80   16.70
 -10 -18   2   12.30   15.90
 -18  10   2   -5.90   12.10
  18 -12  -2   25.80   18.70
  12  18  -2    2.10   12.30
 -18  12  -2   -0.60    8.50
 -12 -18  -2   34.20   19.60
  12  18   2   24.20   17.80
  18 -12   2   17.10   25.50
 -18  12   2   -1.40    8.40
 -12 -18   2   -7.80   11.40
 -18  14  -2   25.90   23.30
 -14 -18  -2   19.70   19.20
  18 -14  -2   62.69   37.10
  14  18  -2  -12.40   10.00
  14  18   2   12.10   15.70
 -18  14   2   36.10   33.30
  18 -14   2   -0.70   22.60
 -14 -18   2    8.70   26.20
 -18  16  -2   15.60   23.50
  18 -16  -2  -17.90   12.70
  16  18  -2   10.00   13.80
 -16 -18   2  -18.20   11.60
 -18  16   2  -19.20   17.20
  16  18   2    2.20   11.70
  18 -16   2   -6.70   20.70
  16  18   2  -13.50    8.80
 -18  18  -2  -19.60   14.20
  18 -18  -2  -14.70   14.30
 -18 -18   2   -4.50    9.00
  18  18   2   23.90   14.00
 -18  18   2  -16.90   14.50
  18 -18   2   32.90   37.30
  18  18   2   -0.60   11.20
  19  17   2   41.30   17.30
  19  15  -2   30.70   14.10
 -15  19  -2   46.20   31.70
  15 -19  -2   20.90   22.60
 -15  19   2   22.00   31.30
  19  15   2   43.90   12.60
  15 -19   2  112.79   51.69
  19  15   2   34.50   12.00
 -19 -15   2   27.50   13.50
 -13  19  -2   57.29   36.40
  13 -19  -2  194.48   62.79
  13 -19   2   60.59   45.30
 -13  19   2   91.29   48.70
 -11  19  -2   76.39   44.70
  11 -19  -2  146.59   79.19
  11 -19   2  119.89   56.59
 -11  19   2  192.18   75.69
   9 -19  -2  131.39   47.50
  -9  19  -2  131.39   49.70
   9 -19   2  148.89   52.99
  -9  19   2   22.50   30.30
   7 -19  -2  259.07   89.49
  -7  19  -2  177.38   57.19
   7 -19   2   33.40   38.80
  -7  19   2  137.99   53.89
   5 -19  -2   48.90   36.30
  -5  19  -2   77.29   39.20
  19   5   2   90.99   27.00
   5 -19   2  106.49   43.80
 -19  -5   2  108.39   28.00
  -5  19   2  132.49   50.39
 -19  -5   2  102.89   27.40
 -19  -3  -2  107.99   34.60
   3 -19  -2  106.39   47.40
   3 -19   2  160.28   62.19
 -19  -3   2  108.99   34.60
 -19  -3   2  127.39   35.60
  19   3   2  115.29   34.10
  -3  19   2  116.39   58.39
 -19  -1  -2   63.79   24.00
   1 -19  -2   53.49   24.90
  -1  19  -2  136.79   49.40
 -19  -1   2   62.99   24.60
  -1  19   2   55.49   33.80
  19   1   2   56.09   23.20
 -19  -1   2   79.39   27.00
   1 -19   2  119.09   46.10
   1  19  -2   61.89   34.10
  -1 -19  -2   75.79   41.90
 -19   1  -2   52.19   28.20
   1  19   2   89.19   43.50
  19  -1   2  141.89   37.10
  -1 -19   2   96.69   46.20
 -19   1   2  130.79   35.30
   3  19  -2   98.59   36.60
  -3 -19  -2   62.49   32.60
  19  -3  -2  119.09   35.40
 -19   3  -2   94.39   34.60
   3  19   2  106.49   41.20
 -19   3   2   45.10   28.40
  19  -3   2   85.69   32.60
  -3 -19   2  103.19   34.60
  19  -5  -2  101.59   40.90
 -19   5  -2  154.98   46.50
  -5 -19  -2   70.99   42.90
   5  19  -2  213.48   55.79
  -5 -19   2   59.09   38.90
 -19   5   2  211.78   53.59
  19  -5   2  136.49   46.70
   5  19   2  138.29   43.30
  -7 -19  -2  132.69   47.70
  19  -7  -2  115.89   47.00
 -19   7  -2  105.69   45.50
   7  19  -2  184.38   51.79
  -7 -19   2  143.19   51.59
 -19   7   2  153.58   48.10
   7  19   2  168.68   53.99
  19  -7   2   97.49   46.10
   9  19  -2  143.29   46.00
 -19   9  -2   66.29   35.60
  19  -9  -2  148.59   46.20
  -9 -19  -2   38.20   35.40
   9  19   2  131.99   44.40
  19  -9   2  180.68   53.59
 -19   9   2  162.58   49.99
  -9 -19   2   88.79   39.80
 -19  11  -2   76.19   34.40
 -11 -19  -2   85.09   32.50
  11  19  -2   79.59   33.80
  19 -11  -2   85.09   35.40
  11  19   2  126.39   36.30
 -11 -19   2   42.10   25.50
  19 -11   2   26.20   27.10
 -13 -19  -2   28.20   20.40
 -19  13  -2    5.20   11.80
  13  19  -2   79.49   26.80
  19 -13  -2   14.80   20.40
  19 -13   2   41.10   29.10
 -19  13   2   35.30   26.90
 -13 -19   2   53.19   24.80
  13  19   2   81.89   27.40
 -19  15  -2    4.80   33.60
  19 -15  -2   61.99   28.10
  15  19  -2   19.80   16.60
  15  19   2   26.70   18.10
 -19  15   2  -10.20   36.70
 -15 -19   2   26.30   20.20
  19 -15   2   48.10   36.10
 -14  20  -2    1.40   17.10
  14 -20  -2   19.60   20.10
  14 -20   2  -17.70   22.60
 -14  20   2    2.70   26.10
 -12  20  -2   -9.10   17.70
  12 -20  -2    0.90   23.40
 -12  20   2   33.40   73.09
  12 -20   2   -3.50   18.10
  10 -20  -2   -2.30   16.40
 -10  20  -2   -1.50   15.50
  10 -20   2  -15.60   14.60
 -10  20   2  -10.30   20.80
   8 -20  -2   -7.90   17.90
  -8  20  -2   10.00   17.20
   8 -20   2   -9.60    9.70
  -8  20   2   -9.30   17.60
   6 -20  -2   12.90   22.40
  -6  20  -2  -13.00    9.70
   6 -20   2   -6.50   17.30
  -6  20   2   26.20   19.30
 -20  -4  -2    1.10    7.70
   4 -20  -2   -2.70   11.70
  -4  20  -2   -9.10   43.30
  -4  20   2  -11.00    8.50
   4 -20   2   -9.90   12.10
 -20  -4   2    6.00    9.40
 -20  -4   2   12.40    8.10
  20   4   2   -2.70    8.30
 -20  -2  -2   15.80   12.10
  -2  20  -2  -21.70   13.30
   2 -20  -2  -13.30   11.70
 -20  -2   2    3.30   10.40
  -2  20   2  -17.90   11.70
  20   2   2    6.30    9.80
   2 -20   2   -8.20   10.10
 -20  -2   2    4.50   10.00
   0  20  -2   18.20   23.60
   0 -20  -2   17.50   17.70
 -20   0  -2   -8.20    9.70
 -20   0   2   23.70   15.20
   0 -20   2   -5.20   17.60
 -20   0   2   21.80   14.30
   0  20   2    3.70   18.70
  20   0   2    6.60   11.20
 -20   2  -2   23.90   17.60
  20  -2  -2   -7.70   11.90
  -2 -20  -2   16.10   16.90
   2  20  -2   11.10   16.30
   2  20   2   13.00   14.20
 -20   2   2    3.40   14.10
  -2 -20   2   -4.00   13.60
  20  -2   2   -5.30    8.70
   4  20  -2  -12.60    8.80
 -20   4  -2   -8.90   10.30
  20  -4  -2   -4.10   11.70
  -4 -20  -2   27.30   20.90
  20  -4   2  -11.50   10.60
   4  20   2  -10.10   10.10
  -4 -20   2    8.40   21.40
 -20   4   2   10.30   16.50
  -6 -20  -2   11.70   19.80
 -20   6  -2   -5.60   13.90
  20  -6  -2   -1.50   16.10
   6  20  -2   -9.00    9.80
 -20   6   2   -8.90   10.00
  20  -6   2   -0.30   16.30
   6  20   2    3.10   15.60
  -6 -20   2   23.20   26.20
  20  -8  -2   12.50   16.10
  -8 -20  -2   -1.90   11.70
 -20   8  -2   -9.60   12.90
   8  20  -2    5.80   15.20
 -20   8   2    2.70   16.20
  20  -8   2   11.40   13.90
   8  20   2   -6.80   11.50
  -8 -20   2  -12.60   12.40
 -10 -20  -2  -11.00   12.90
  10  20  -2   10.60   16.20
 -20  10  -2   52.09   29.90
  20 -10  -2   16.20   17.10
 -20  10   2   -8.60   13.30
  10  20   2   -5.10    9.40
 -10 -20   2  -17.10    9.70
  20 -10   2    3.90   18.50
  20 -12  -2   10.80   18.50
  12  20  -2   -2.20   14.50
 -12 -20  -2   18.60   18.10
  12  20   2   33.70   20.60
 -12 -20   2   -6.70   18.20
  20 -12   2   23.50   29.50
  14  20  -2   -7.40   12.00
 -20  14  -2   -2.10   11.30
  20 -14  -2  -20.90   16.70
 -14 -20  -2   16.70   15.10
 -20  14   2  -12.30   13.20
 -14 -20   2    5.20   16.20
  20 -14   2   10.20   23.00
  14  20   2   -7.90   12.90
  13 -21  -2   -6.00   25.80
 -13  21  -2   48.70   34.20
 -13  21   2   13.00   30.10
  13 -21   2  -17.10   19.90
  11 -21  -2    7.90   28.00
 -11  21  -2   18.50   26.40
  11 -21   2  -11.10   18.10
 -11  21   2   -9.10   15.10
  -9  21  -2   55.39   36.70
   9 -21  -2    8.90   22.50
  -9  21   2   46.30   30.90
   9 -21   2  232.78   69.09
   7 -21  -2   89.19   42.70
   7 -21   2   -9.40   25.00
  -7  21   2    8.70   30.60
   5 -21  -2   92.69   47.20
  -5  21  -2  118.19   51.79
  -5  21   2   96.09   46.40
   5 -21   2  100.99   46.80
 -21  -5   2  179.28   37.60
  -3  21  -2  338.87  101.49
   3 -21  -2   69.59   42.30
 -21  -3  -2  156.28   38.10
  -3  21   2  118.19   54.09
 -21  -3   2  115.59   36.90
 -21  -3   2  156.18   38.20
   3 -21   2   95.89   41.90
   1 -21  -2   59.29   34.80
  -1  21  -2    5.50   20.20
 -21  -1  -2   56.49   19.40
   1 -21   2   -5.00   21.10
  -1  21   2   30.40   20.40
  21   1   2   27.60   15.50
 -21  -1   2   69.79   21.80
 -21  -1   2   24.40   17.40
  -1 -21  -2   40.40   28.20
   1  21  -2   49.10   32.60
 -21   1  -2   53.29   20.90
  -1 -21   2   72.79   38.30
 -21   1   2   31.20   19.50
   1  21   2   82.99   39.20
 -21   1   2   18.80   16.90
  21  -1   2   22.50   17.40
  21  -3  -2  193.38   48.70
 -21   3  -2  212.78   50.59
  -3 -21  -2   77.39   42.80
   3  21  -2  167.48   54.79
  21  -3   2   72.89   40.00
  -3 -21   2   78.39   46.30
   3  21   2  206.28   63.89
 -21   3   2  292.97   57.29
  21  -5  -2  180.38   58.49
   5  21  -2  147.69   59.49
  -5 -21  -2  155.38   58.39
 -21   5  -2  252.87   62.59
 -21   5   2  165.28   56.39
  -5 -21   2  140.39   59.79
  21  -5   2  209.88   60.29
   5  21   2  177.18   63.29
   7  21  -2  125.69   49.60
  -7 -21  -2  129.89   47.40
 -21   7  -2  141.69   48.60
  21  -7  -2  182.48   52.49
 -21   7   2  119.99   46.40
   7  21   2  104.59   45.00
  -7 -21   2  120.69   45.40
  21  -7   2  107.99   46.60
  21  -9  -2   60.69   32.90
 -21   9  -2   54.59   32.70
   9  21  -2  117.29   43.40
 -21   9   2   68.79   38.30
   9  21   2   71.19   31.40
  21  -9   2   51.29   34.30
  11  21  -2   20.10   19.90
 -11 -21  -2   16.00   17.30
  21 -11  -2    1.80   18.80
 -21  11  -2   -5.70   15.90
 -21  11   2    1.30   19.30
  11  21   2    4.40   14.60
 -11 -21   2   59.69   28.10
  21 -11   2   53.79   31.10
  13  21  -2   -3.60   15.30
  21 -13  -2   -5.80   17.00
 -13 -21  -2   32.90   21.60
 -13 -21   2   -1.10   13.40
  21 -13   2   -9.20   17.00
  13  21   2  -10.60   10.90
 -12  22  -2    9.90   28.40
  12 -22  -2  -20.10   16.50
 -12  22   2   10.30   20.50
  12 -22   2   -6.20   17.80
 -10  22  -2    6.10   18.80
  10 -22  -2   -6.90   23.60
 -10  22   2   36.70   35.50
  10 -22   2   29.00   32.50
  -8  22  -2   -0.90   22.40
   8 -22  -2   -4.40    9.90
   8 -22   2  -11.10   16.60
  -8  22   2  -18.30   20.20
   6 -22  -2   22.10   18.00
  -6  22  -2  -34.30   41.60
  -6  22   2   -6.90   13.30
   6 -22   2   13.00   21.70
  -4  22  -2    7.10   21.60
   4 -22  -2   -8.70   14.20
  -4  22   2   22.70   29.10
 -22  -4   2    2.90    7.50
 -22  -4   2   28.00   10.00
   4 -22   2   34.50   21.70
  22   4   2    4.60    5.40
  -2  22  -2   40.70   27.60
   2 -22  -2   10.70   15.20
 -22  -2  -2   14.80   12.90
  -2  22   2   -5.20   16.40
   2 -22   2   15.10   25.20
 -22  -2   2   -7.20   10.40
 -22  -2   2  -12.90    9.60
   0  22  -2   10.50   23.90
   0 -22  -2   24.40   21.00
 -22   0  -2   30.40   16.50
 -22   0   2    4.20   14.50
 -22   0   2   -1.80   10.80
  22   0   2    0.10   12.20
   0 -22   2   27.50   28.80
   0  22   2    2.50   15.30
 -22   2  -2   -1.90    9.90
  -2 -22  -2   30.30   28.20
   2  22  -2   50.39   28.50
  22  -2   2    0.60   12.40
  -2 -22   2   -5.60   14.30
   2  22   2   -6.20   12.20
 -22   2   2  -11.30    9.70
  22  -4  -2  -18.10   10.90
 -22   4  -2    8.40   17.10
   4  22  -2    9.80   16.40
  -4 -22  -2   -7.80   13.60
 -22   4   2   13.10   17.50
   4  22   2   -9.10   17.60
  22  -4   2    2.20   13.10
  -4 -22   2   12.30   17.50
  22  -6  -2  -12.70   12.80
 -22   6  -2    5.80   15.50
   6  22  -2   47.20   28.60
  -6 -22  -2    2.00   17.90
  22  -6   2   15.60   20.80
  -6 -22   2  -12.40   12.90
   6  22   2   -8.10   10.80
 -22   6   2  -13.00   13.90
   8  22  -2   10.00   23.40
  22  -8  -2   -3.40   16.10
  -8 -22  -2   31.30   20.90
 -22   8  -2   58.29   32.00
 -22   8   2   38.60   24.90
  -8 -22   2  -11.20   14.80
  22  -8   2    0.80   14.30
   8  22   2  -14.10   10.50
  22 -10  -2  -11.90   12.30
 -22  10  -2   60.89   30.40
 -10 -22  -2   -6.20   15.90
  10  22  -2   -9.90   15.40
 -22  10   2   -0.30   19.00
  10  22   2   -5.10   16.00
  22 -10   2   -3.50   13.50
 -10 -22   2    0.20   21.20
  22 -12  -2    3.40   21.20
 -22  12  -2    6.70   22.40
 -12 -22  -2   22.80   21.60
  12  22  -2   24.80   21.40
  22 -12   2   14.00   26.10
 -12 -22   2   -5.00   14.00
 -22  12   2   17.70   29.50
  12  22   2   -5.40   13.20
   9 -23  -2   36.30   30.10
  -9  23  -2   46.10   34.80
  -9  23   2  -10.20   26.20
   9 -23   2   64.39   37.50
  -7  23  -2    8.50   23.20
   7 -23  -2   45.30   41.10
  -7  23   2   51.49   27.10
   7 -23   2   84.39   44.20
   5 -23  -2   31.50   23.10
  -5  23  -2    6.80   20.70
   5 -23   2    8.90   19.70
  -5  23   2   31.70   27.80
  -3  23  -2  174.48   80.19
   3 -23  -2   -1.00   24.50
 -23  -3  -2  114.79   26.00
 -23  -3   2   68.59   24.10
  -3  23   2  149.19   62.59
 -23  -3   2  109.39   26.70
   3 -23   2  195.48   61.99
  23   3   2   83.89   23.30
  -1  23  -2  115.49   46.70
   1 -23  -2  136.39   46.20
 -23  -1  -2   38.70   21.90
 -23  -1   2   92.09   27.10
 -23  -1   2   63.69   25.70
   1 -23   2   27.90   24.20
  -1  23   2  136.59   53.59
   1  23  -2   51.09   33.10
  -1 -23  -2   73.19   42.50
 -23   1  -2   75.89   28.10
   1  23   2  102.49   43.60
 -23   1   2   96.39   32.20
  -1 -23   2  144.19   52.69
  23  -1   2   60.79   28.20
  23  -3  -2   83.79   35.50
  -3 -23  -2   74.29   43.00
 -23   3  -2   95.79   37.30
   3  23  -2   82.79   41.80
  23  -3   2   89.89   36.90
 -23   3   2  159.18   42.60
  -3 -23   2   92.29   41.80
   3  23   2  124.09   51.99
 -23   5  -2   36.70   23.40
   5  23  -2    8.90   19.40
  23  -5  -2   13.80   19.70
  23  -5   2    6.40   15.00
 -23   5   2   -4.50   13.60
   5  23   2   26.90   24.00
  -7 -23  -2   35.40   23.20
   7  23  -2    7.00   19.60
  23  -7  -2   16.60   20.80
 -23   7  -2   12.00   20.00
 -23   7   2   58.79   32.60
   7  23   2   60.19   28.60
  23  -7   2    1.00   16.50
  -7 -23   2   -5.10   14.60
   9  23  -2   52.99   49.10
  -9 -23  -2   54.29   31.40
  23  -9  -2   47.20   28.00
 -23   9  -2   89.59   35.70
 -23   9   2   18.60   24.40
  23  -9   2   37.60   26.80
   9  23   2   71.19   46.80
  -9 -23   2   58.79   34.90
   8 -24  -2    8.40   24.50
  -8  24  -2   -7.20   14.30
  -8  24   2   46.70   77.89
   8 -24   2  -14.50   16.30
  -6  24  -2  -11.20   16.30
   6 -24  -2    9.40   23.40
  -6  24   2  -21.80   12.10
   6 -24   2   47.90   32.40
  -4  24  -2    2.30   17.90
   4 -24  -2   15.40   21.40
   4 -24   2  -37.60   16.20
  -4  24   2   16.40   21.70
  -2  24  -2   -5.40   21.20
 -24  -2  -2   43.80   15.80
   2 -24  -2   -6.40   13.90
  -2  24   2   23.20   24.00
 -24  -2   2   27.90   14.40
   2 -24   2   81.09   46.60
  24   2   2   14.90   11.10
 -24   0  -2   63.89   22.60
   0  24  -2   22.60   24.70
   0 -24  -2   36.10   26.30
   0  24   2  -17.70   18.50
   0 -24   2   46.40   35.00
 -24   0   2   58.19   22.30
  24   0   2   54.79   26.40
 -24   0   2   15.80   17.30
 -24   2  -2  -17.90   11.90
   2  24  -2   -9.70   14.50
  -2 -24  -2   31.10   27.40
 -24   2   2   11.40   15.60
  -2 -24   2   53.39   35.00
  24  -2   2   41.70   20.00
   2  24   2   50.19   36.10
 -24   2   2   46.90   20.00
  24  -4  -2   24.30   19.80
 -24   4  -2    3.80   16.10
  -4 -24  -2    9.00   21.80
   4  24  -2   35.30   28.80
  -4 -24   2   26.40   30.00
  24  -4   2    6.60   13.60
   4  24   2   20.40   19.60
 -24   4   2  -23.20   11.90
  -6 -24  -2   17.40   24.10
 -24   6  -2    7.60   19.70
   6  24  -2   -2.50   13.70
  24  -6  -2   28.20   20.00
 -24   6   2    5.20   19.10
  -6 -24   2   36.30   32.10
  24  -6   2   24.20   20.90
   6  24   2    6.60   20.80
  24  -8  -2   -6.90   13.40
  -8 -24  -2   -2.90   16.50
 -24   8  -2  -18.50   12.60
   8  24  -2   16.90   25.60
 -24   8   2   22.20   25.70
  24  -8   2  -20.10   12.70
  -8 -24   2   -2.80   16.90
   8  24   2    9.60   22.40
  -3  25  -2   -1.00   20.70
   3 -25  -2   36.80   26.00
  25   3   2   33.50   11.60
  -3  25   2   46.60   40.00
   3 -25   2   18.60   31.70
 -25  -3   2   19.60   17.70
 -25  -3   2   49.00   14.90
  -1  25  -2   19.10   21.50
 -25  -1  -2   23.20   15.40
   1 -25  -2   38.30   34.50
   1 -25   2   39.00   36.00
 -25  -1   2   26.30   17.00
  25   1   2   12.40   13.50
 -25  -1   2   19.80   15.00
  -1  25   2   30.80   28.80
   1  25  -2   -4.60   20.60
  -1 -25  -2  -15.90   28.90
 -25   1  -2   33.10   18.80
 -25   1   2   39.30   19.50
 -25   1   2    2.70   14.30
   1  25   2  -15.70   20.80
  25  -1   2   13.80   16.00
  -3 -25  -2   51.39   32.00
 -25   3  -2   32.00   21.90
   3  25  -2   36.60   28.30
  25  -3   2   12.70   17.90
  -3 -25   2   43.60   37.80
   3  25   2    9.80   21.40
 -25   3   2   75.49   28.80
  -1   0  -3   -9.70   11.10
   1   0  -3   53.79   29.80
   0   1  -3    3.20   17.70
   0  -1  -3    0.30   12.40
  -1   0   3    7.20   15.20
   1   0   3  -15.80   15.50
   0  -1   3  -12.00   16.80
   0   1   3  -14.80   27.20
  -2  -1  -3   47.50   18.40
   1  -2  -3  110.79   39.80
   2   1  -3   47.90   25.80
  -1   2  -3    9.80   17.00
  -2  -1   3   20.80   16.80
  -1   2   3   28.30   16.70
   2   1   3   16.30   14.60
   1  -2   3   10.10   20.80
  -1  -2  -3   -0.10   14.30
   2  -1  -3   72.09   28.10
  -2   1  -3   19.70   17.20
   1   2  -3   38.40   18.50
   2  -1   3   21.70   16.30
  -2   1   3   53.39   18.60
   1   2   3    4.70   18.00
  -1  -2   3   11.30   14.40
  -3  -2  -3  336.37   81.19
  -2   3  -3  298.87   80.69
   3   2  -3  272.37   76.49
  -2   3   3  323.47   81.59
   3   2   3  378.06   83.39
  -2   3   3  230.88   74.59
   2  -3   3  253.97   75.29
  -3  -2   3  311.07   77.39
  -3   0  -3   33.10   15.70
   0   3  -3  -10.60   16.30
   0  -3  -3   62.79   32.80
   3   0  -3    7.00   14.90
   0  -3   3   21.00   16.20
   3   0   3   10.30   13.90
   0   3   3   14.80   14.00
  -3   0   3   15.20   16.40
   2   3  -3  235.78   75.39
  -3   2  -3  634.64  110.79
  -2  -3  -3  221.98   74.59
   3  -2  -3  251.87   74.79
   2   3   3  290.07   76.69
  -2  -3   3  283.77   76.79
  -3   2   3  335.97   78.39
   3  -2   3  323.57   78.29
   4   3  -3   44.50   18.50
  -3   4  -3    1.80   32.80
  -3   4   3   43.50   22.90
   4   3   3   32.10   21.40
   3  -4   3   72.19   29.10
  -4  -3   3   29.20   17.60
  -3   4   3  109.69   40.20
   4   1  -3   30.70   19.20
  -1   4  -3   71.39   25.00
  -4  -1   3   40.40   20.90
  -1   4   3   89.69   35.30
   4   1   3   45.70   20.60
   1  -4   3   33.90   20.10
  -1   4   3   18.40   19.40
   4  -1  -3  122.09   34.60
  -4   1  -3   70.19   26.70
   1   4  -3   53.59   25.00
  -1  -4   3   64.09   27.10
   1   4   3   23.70   21.20
  -4   1   3   98.89   32.90
   4  -1   3   39.90   23.50
   1   4   3   70.09   24.60
   3   4  -3   22.80   18.60
  -4   3  -3   60.99   22.20
   3   4   3   32.00   19.20
   4  -3   3   42.30   22.30
  -4   3   3   31.50   18.30
  -3  -4   3   49.60   23.20
  -4   5  -3  179.08   59.79
   4  -5  -3  186.08   61.69
   5   4  -3  210.28   59.19
  -5  -4  -3  193.68   61.49
  -4   5   3  274.47   69.59
   5   4   3  268.27   63.39
  -5  -4   3  248.48   63.49
   4  -5   3  186.58   61.09
  -2   5  -3  328.87   90.99
   5   2  -3  387.66   91.09
  -2   5   3  316.27   90.39
   5   2   3  357.26   88.29
  -5  -2   3  297.87   88.09
   2  -5   3  330.07   91.79
   0   5  -3   -6.50   11.40
   5   0  -3   13.80   14.10
   0   5   3  -13.90   15.70
   0   5   3   -1.00   13.90
   0  -5   3   -3.60   11.30
  -5   0   3  -18.80    7.90
   5   0   3   19.80   13.70
  -5   2  -3  382.46   90.29
   2   5  -3  260.47   85.29
   2   5   3  221.68   82.79
  -5   2   3  409.06   91.89
  -5   2   3  341.57   86.69
   5  -2   3  278.67   85.69
   2   5   3  479.05   92.09
  -2  -5   3  440.66   92.69
   4   5  -3  249.78   68.99
  -5   4  -3  237.08   71.69
   4   5   3  265.77   70.29
   5  -4   3  247.48   68.99
   4   5   3  259.97   68.89
  -4  -5   3  214.08   66.89
   5  -6  -3 1681.13  272.67
  -5   6  -3 1103.49  260.27
   6   5  -3 1033.40  257.07
  -6  -5  -3  966.50  256.17
   6   5   3  947.21  256.47
   5  -6   3  980.80  259.57
  -5   6   3 1134.49  261.87
  -6  -5   3 1019.90  257.07
  -3   6  -3  870.51  242.38
  -6  -3  -3  894.41  235.58
   6   3  -3 1103.29  236.88
   3  -6  -3 1017.80  239.58
  -3   6   3  996.40  239.48
  -6  -3   3 1027.60  236.68
   3  -6   3  874.21  238.08
   6   3   3  892.11  235.38
  -1   6  -3  160.88   44.80
   1  -6  -3   79.39   33.10
   6   1  -3  102.19   32.50
   6   1   3   76.89   32.80
   1  -6   3   77.49   28.80
  -6  -1   3   59.79   27.70
  -1   6   3  107.29   34.70
   1   6  -3   67.29   25.40
   6  -1   3  171.88   38.80
   1   6   3    6.50   20.70
  -1  -6   3  117.29   31.10
  -6   1   3   61.69   24.80
   1   6   3   96.59   27.30
   3   6  -3  859.11  214.18
  -6   3  -3  804.42  213.58
  -6   3   3  810.22  214.68
  -6   3   3  834.92  213.78
   3   6   3  991.80  214.58
  -3  -6   3  793.92  213.98
   6  -3   3  955.70  215.28
   3   6   3  886.31  214.68
   6  -5  -3  969.00  245.58
  -6   5  -3  958.90  255.07
   5   6  -3  953.10  242.98
  -5  -6   3 1019.80  243.58
   6  -5   3 1057.29  245.98
  -6   5   3  893.21  251.57
   5   6   3 1001.90  243.58
   5   6   3  998.60  243.18
   7   6  -3  267.87   68.09
  -6   7  -3  184.88   63.19
   6  -7  -3  412.06   89.29
   6  -7   3  279.27   72.09
  -7  -6   3  193.18   64.29
  -6   7   3  249.48   73.69
   7   6   3  217.98   64.69
  -4   7  -3   91.79   33.80
   4  -7  -3  166.08   48.50
   7   4  -3  118.99   35.30
  -7  -4  -3   59.69   30.70
   7   4   3   96.29   32.80
  -4   7   3   94.99   35.20
   4  -7   3  139.39   43.50
  -7  -4   3   72.79   30.70
   7   2  -3    6.70   15.00
   2  -7  -3   66.59   34.60
  -2   7  -3   32.20   18.80
  -7  -2  -3   38.10   16.80
  -7  -2   3   25.50   18.50
   7   2   3   38.10   16.90
  -2   7   3    7.60   18.10
   2  -7   3   25.00   24.90
   0   7  -3  -27.80   24.10
  -7   0  -3   -4.00   13.80
   0  -7  -3   19.30   18.80
   0  -7   3  -18.50    9.00
   0   7   3  -11.00   12.60
  -7   0   3   11.50   13.70
   7   0   3   19.60   14.30
   2   7  -3    6.00   14.60
  -7   2   3   20.80   15.00
  -2  -7   3    7.00   12.10
   7  -2   3    3.70   11.10
   2   7   3   46.20   21.90
   4   7  -3   96.19   30.20
  -7   4  -3   77.79   29.10
   7  -4  -3   30.40   27.90
   4   7   3  136.09   37.00
  -4  -7   3  138.99   39.30
   7  -4   3   88.69   31.90
  -7   4   3  112.29   38.40
   4   7   3   72.59   32.00
   6   7  -3  203.58   64.39
   7  -6  -3  205.58   67.29
  -7   6   3  294.07   76.89
   7  -6   3  581.54  107.49
   6   7   3  192.08   64.79
  -6  -7   3  224.08   65.89
   6   7   3  276.87   67.89
   7  -8  -3  372.26   81.59
   8   7  -3  219.68   69.59
  -7   8  -3  236.78   72.59
  -8  -7   3  218.98   70.69
   7  -8   3  289.77   79.49
   8   7   3  227.98   70.69
   8   7   3  340.97   74.29
  -7   8   3  297.47   77.69
   8   5  -3  340.27   89.09
   5  -8  -3  550.34  112.59
  -8  -5  -3  331.07   87.89
  -5   8  -3  294.17   90.39
   8   5   3  388.16   88.69
  -8  -5   3  249.48   86.19
   5  -8   3  343.57   95.09
  -8  -3  -3  220.38   61.99
   8   3  -3  177.18   60.89
   3  -8  -3  192.88   64.99
  -3   8  -3  196.88   64.19
  -8  -3   3  252.57   64.39
  -3   8   3  258.27   65.99
   3  -8   3  255.07   75.09
  -1   8  -3   12.10   16.90
   8   1  -3   27.90   18.30
   1  -8  -3    2.70   16.20
  -8  -1  -3   -4.10   10.40
   8   1   3    5.30   12.30
   1  -8   3   76.99   33.10
  -8  -1   3   23.10   15.10
  -1   8   3   37.90   23.30
  -1  -8  -3   16.10   19.60
   1   8  -3   38.80   22.10
  -8   1  -3   19.90   16.50
   8  -1   3   23.60   15.40
  -8   1   3   -4.50   11.90
  -1  -8   3    0.80   13.30
   1   8   3    5.90   17.90
   3   8  -3  188.78   51.59
  -3  -8  -3  184.18   47.80
   8  -3   3  224.98   53.79
   3   8   3  231.08   51.69
  -3  -8   3  135.09   48.00
  -8   3   3   95.39   40.00
  -8   5  -3  241.28   78.09
   8  -5  -3  343.77   86.09
   5   8  -3  364.06   84.69
   8  -5   3  478.75   92.99
   5   8   3  306.77   83.29
  -5  -8   3  216.18   77.49
  -8   5   3  268.47   80.79
   5   8   3  327.27   79.99
  -8   7  -3  251.77   81.59
   8  -7  -3  242.78   72.79
   7   8  -3  196.58   65.99
   7   8   3  287.87   71.29
  -7  -8   3  236.98   70.49
  -8   7   3  306.67   79.69
   7   8   3  359.06   78.59
   8  -7   3  181.58   68.59
   8  -9  -3  -15.40   14.50
  -8   9  -3   42.10   24.90
   9   8  -3    7.50   12.10
   9   8   3   30.90   16.30
   9   8   3    0.90   11.10
  -9  -8   3    0.20   12.50
   8  -9   3   -7.70    9.80
  -8   9   3  -25.20   13.50
   6  -9  -3   -4.40   14.90
  -6   9  -3   28.90   19.80
   9   6  -3   11.10   13.80
  -6   9   3   -8.80    9.90
   9   6   3   -3.90    9.90
   6  -9   3  -10.30   10.70
  -9  -6   3    4.60   13.20
   9   6   3   14.80   12.90
  -4   9  -3   44.40   27.20
   4  -9  -3   38.50   26.30
  -9  -4  -3   95.39   27.60
   9   4  -3   66.79   25.40
   4  -9   3  215.68   67.69
  -4   9   3  174.58   56.29
   9   4   3   62.59   26.00
  -9  -4   3   38.70   24.10
  -9  -2  -3   26.30   15.40
   9   2  -3   27.20   16.20
   2  -9  -3   32.40   22.10
  -2   9  -3   57.29   29.40
  -2   9   3    6.00   21.10
   9   2   3   14.90   13.20
   2  -9   3  -13.40   14.10
  -9  -2   3   24.50   17.60
   0  -9  -3    2.30   16.40
  -9   0  -3    5.50   13.60
   0   9  -3   -2.90   13.00
  -9   0   3   15.30   15.90
   0   9   3    7.20   33.50
  -9   0   3  -16.60    9.70
   9   0   3   -1.20   11.60
   0  -9   3  -10.50   12.20
  -9   2  -3   27.50   16.80
  -2  -9  -3    3.80   17.00
   2   9  -3   30.40   21.80
  -2  -9   3   26.20   20.40
   2   9   3   29.30   21.50
  -9   2   3    9.90   14.00
  -9   2   3   59.49   27.70
   9  -2   3    8.50   14.40
  -4  -9  -3   68.39   27.70
   4   9  -3   51.29   24.90
   9  -4  -3   70.99   29.30
   4   9   3   82.49   31.40
   9  -4   3   41.50   25.90
  -4  -9   3   48.90   27.10
   6   9  -3  -15.10    9.20
  -9   6  -3  -11.20   10.00
   9  -6  -3   -3.40   13.60
   9  -6   3    7.40   17.20
   6   9   3    3.60   12.90
  -9   6   3   -6.70   12.20
   6   9   3   -2.90   11.70
  -6  -9   3    6.60   16.30
   8   9  -3   -4.00    9.80
  -9   8  -3   17.70   19.10
   9  -8  -3   10.20   16.70
   9  -8   3    1.10    9.90
   8   9   3   18.00   14.50
   8   9   3    1.80   11.70
  -8  -9   3    7.80   15.80
  -9   8   3   13.30   19.70
  -9  10  -3    7.60   17.60
  10   9  -3    1.30    9.50
   9 -10  -3  -10.40   14.30
 -10  -9   3   17.40   15.00
  -9  10   3  -10.90   11.50
   9 -10   3    1.00   13.30
  10   9   3   -7.90    9.50
  10   9   3   17.30   14.90
  -7  10  -3   28.00   21.50
   7 -10  -3   34.00   26.60
  10   7  -3   58.99   24.00
   7 -10   3  145.39   45.50
  10   7   3   43.10   22.70
 -10  -7   3   56.59   23.90
  10   7   3   64.69   22.90
  -7  10   3   91.29   37.20
  -5  10  -3   39.10   16.40
   5 -10  -3   16.00   18.90
 -10  -5  -3   -8.80   10.30
  10   5  -3   18.50   14.70
  -5  10   3   29.20   24.40
   5 -10   3   55.39   27.80
  10   5   3   17.70   14.10
 -10  -5   3   25.90   15.50
   3 -10  -3   37.00   29.80
  10   3  -3   -3.10    9.90
 -10  -3  -3    3.00   12.30
  -3  10  -3   16.30   17.60
  -3  10   3  -20.50   10.50
   3 -10   3    5.00   20.70
  10   3   3   45.50   16.40
 -10  -3   3   11.00   11.70
 -10  -1  -3   -2.50   11.30
  -1  10  -3   33.80   21.50
   1 -10  -3   12.80   19.60
  10   1   3   -1.80   11.40
 -10  -1   3    2.50   10.90
  -1  10   3    5.60   13.40
 -10  -1   3    4.00   11.80
   1 -10   3    2.60    9.50
  -1 -10  -3  -11.40   12.80
 -10   1  -3    3.00   11.60
   1  10  -3    4.00   17.20
 -10   1   3  -16.60   11.30
  -1 -10   3   -8.50    9.00
  10  -1   3    2.30   11.40
   1  10   3   24.30   21.30
 -10   1   3    6.20   12.50
 -10   3  -3   -6.70   10.20
  -3 -10  -3    7.20   15.30
   3  10  -3    0.50   11.30
  10  -3   3    0.60    9.90
 -10   3   3   17.90   31.10
  -3 -10   3    7.50   16.90
   3  10   3   38.00   22.60
   5  10  -3    0.40   13.80
  -5 -10  -3   11.80   15.30
  10  -5  -3   -3.10   12.60
 -10   5   3    0.20    4.30
   5  10   3  -18.80   10.10
  10  -5   3   22.40   13.90
  -5 -10   3   15.10   13.90
 -10   7  -3   45.70   27.40
  10  -7  -3   70.89   29.70
   7  10  -3   51.59   24.20
  10  -7   3   61.49   28.30
  -7 -10   3  104.59   29.20
   7  10   3   58.09   23.90
 -10   7   3   60.59   24.50
   7  10   3   39.90   24.60
 -10   9  -3    0.40   15.40
   9  10  -3    3.30   12.10
  10  -9  -3  -12.80   15.90
   9  10   3   -9.40    9.50
 -10   9   3   23.40   24.50
  10  -9   3    9.30   11.80
   9  10   3   12.80   12.50
  -9 -10   3   16.50   13.50
 -10  11  -3   -9.90   10.50
  11  10  -3   34.80   16.30
  10 -11  -3  -16.80   10.40
  11  10   3   32.40   17.50
  10 -11   3   10.30   12.30
 -11 -10   3   28.10   15.20
  11  10   3   25.10   15.90
 -10  11   3   56.29   32.50
  -8  11  -3    0.80   16.10
   8 -11  -3    6.70   28.50
  11   8  -3    6.20   11.10
 -11  -8   3   -4.50   10.10
  11   8   3   -6.70    8.60
  -8  11   3  -18.30   11.00
  11   8   3   17.80   13.70
   8 -11   3   -8.80   12.40
   6 -11  -3   33.40   24.90
  11   6  -3   61.59   22.80
  -6  11  -3   73.79   48.70
  11   6   3   21.20   17.40
 -11  -6   3   54.09   22.00
   6 -11   3   56.99   28.70
  -6  11   3   75.59   31.60
   4 -11  -3   40.80   27.40
 -11  -4  -3   87.99   27.40
  11   4  -3   47.40   22.30
  -4  11  -3   39.60   29.30
  11   4   3   57.59   24.10
   4 -11   3   52.59   30.50
  -4  11   3   69.29   27.70
 -11  -4   3   85.09   26.10
   2 -11  -3  151.18   47.10
 -11  -2  -3   95.79   40.80
  -2  11  -3  101.99   41.60
   2 -11   3   71.09   39.30
 -11  -2   3  158.98   42.60
 -11  -2   3  180.48   44.30
  -2  11   3  163.38   49.99
  11   2   3  246.48   47.80
   0  11  -3   -0.90   15.70
 -11   0  -3   -1.40   12.50
   0  11   3    1.90   13.70
 -11   0   3   59.69   22.30
   0 -11   3   49.10   40.80
  11   0   3   -1.20   12.90
 -11   0   3   -2.40   10.60
  -2 -11  -3  239.78   58.09
 -11   2  -3  219.38   55.59
   2  11  -3  124.79   49.99
 -11   2   3  144.79   48.90
   2  11   3  138.89   52.69
  -2 -11   3  140.89   52.59
  11  -2   3  164.38   49.90
 -11   2   3  155.08   49.10
 -11   4  -3   18.30   20.70
   4  11  -3  122.29   36.20
  11  -4  -3   94.19   32.40
  -4 -11  -3   94.19   33.20
   4  11   3   89.19   34.50
  -4 -11   3   62.59   25.50
  11  -4   3  102.39   29.40
  11  -6  -3   38.90   20.90
  -6 -11  -3   26.70   18.70
   6  11  -3   26.60   19.20
  11  -6   3   40.10   20.00
  -6 -11   3   74.29   25.70
   6  11   3   34.10   18.60
 -11   6   3   -1.40    5.70
   8  11  -3   26.10   15.60
 -11   8  -3  -11.30    8.80
  11  -8  -3   37.10   23.50
  11  -8   3    0.90   10.30
   8  11   3  -12.90    7.90
  -8 -11   3   35.60   20.30
   8  11   3   -8.50    9.20
 -11   8   3   16.10   17.60
 -11  10  -3    1.90   18.90
  10  11  -3   13.80   14.20
  11 -10  -3    8.60   18.00
 -11  10   3   15.10   23.20
 -10 -11   3   13.90   12.90
  10  11   3   -2.60   12.10
  11 -10   3    4.80   12.00
  10  11   3   14.30   13.50
 -11  12  -3   81.59   53.49
  12  11  -3    7.30   13.40
  11 -12  -3   -1.10   14.20
  12  11   3   20.30   16.00
 -12 -11   3   19.50   14.30
  11 -12   3   26.70   19.80
  12  11   3   20.80   14.90
 -11  12   3   -5.80   17.80
  -9  12  -3  107.39   44.40
  12   9  -3  144.09   43.60
   9 -12  -3  160.38   50.39
  12   9   3  188.58   46.80
   9 -12   3  138.79   50.59
  12   9   3  203.08   46.80
 -12  -9   3  128.09   43.90
  -9  12   3   99.09   45.90
  -7  12  -3   83.89   39.40
   7 -12  -3  187.38   51.59
  -7  12   3  142.29   52.39
  12   7   3  141.69   40.20
   7 -12   3  115.09   50.69
 -12  -7   3   89.89   35.80
  12   7   3   97.99   34.20
   5 -12  -3   66.59   27.20
  12   5  -3   51.59   19.50
  -5  12  -3   25.70   25.20
 -12  -5  -3   58.29   20.60
  12   5   3   34.20   16.60
  -5  12   3    6.10   18.40
   5 -12   3   30.20   25.10
 -12  -5   3   29.70   19.10
  -3  12  -3    3.70   15.00
 -12  -3  -3   44.40   16.90
   3 -12  -3   -5.40   16.20
 -12  -3   3   23.70   14.70
  -3  12   3   35.10   25.00
   3 -12   3   -1.30   15.40
  12   3   3    0.20   10.40
 -12  -3   3   21.50   16.70
   1 -12  -3   14.50   18.40
 -12  -1  -3   -5.10   10.00
  -1  12  -3    3.40   12.00
   1 -12   3   -6.60    7.60
  12   1   3   19.30   13.10
  -1  12   3    4.20   15.10
 -12  -1   3   18.70   14.70
 -12  -1   3    1.50   13.80
   1  12  -3   28.90   16.70
  -1 -12  -3   63.69   29.30
 -12   1  -3   28.30   16.10
  -1 -12   3   12.50   12.50
 -12   1   3   -5.60   10.50
 -12   1   3   26.30   16.70
  12  -1   3   -6.30   10.60
   1  12   3    1.30   16.70
  12  -3  -3   13.30   15.40
  -3 -12  -3  -16.90   10.90
   3  12  -3   -1.50   14.00
 -12   3  -3    0.20   11.20
   3  12   3  -12.00    8.10
  12  -3   3    6.40   13.40
  -3 -12   3    6.50   13.50
 -12   3   3   -1.50   15.40
  12  -5  -3   14.90   18.00
   5  12  -3   31.60   20.50
 -12   5  -3   12.70   17.30
  -5 -12  -3   88.39   29.70
  -5 -12   3    7.90   14.50
   5  12   3   19.90   17.80
  12  -5   3   31.80   20.50
  12  -7  -3  177.58   50.09
  -7 -12  -3   85.99   41.80
   7  12  -3  102.09   52.19
  -7 -12   3  185.78   50.99
  12  -7   3  142.69   51.19
  12  -9  -3  108.09   47.10
   9  12  -3  145.19   46.00
 -12   9  -3  177.08   56.79
 -12   9   3  333.07   72.99
   9  12   3   82.89   42.60
   9  12   3  173.58   47.70
  -9 -12   3  134.29   45.20
  12  -9   3  239.28   63.29
 -12  11  -3   43.50   23.60
  12 -11  -3   10.30   17.00
  11  12  -3   -7.10   10.80
  11  12   3    8.60   11.40
  11  12   3   -8.20    9.10
  12 -11   3  -20.20   13.30
 -12  11   3    0.50   17.30
 -11 -12   3    0.60   12.00
 -12  13  -3   -8.10   21.10
  13  12  -3    2.20   11.90
  12 -13  -3  -12.70   13.20
  13  12   3    5.90   10.30
  13  12   3   -7.20    7.50
 -13 -12   3    7.00   12.40
 -12  13   3   -3.70   15.70
  12 -13   3   11.00   18.00
  10 -13  -3   12.20   16.80
  13  10  -3    3.10    9.10
 -10  13  -3  -18.20   10.80
  13  10   3    1.00    7.90
  10 -13   3   18.40   16.40
 -13 -10   3   40.20   19.00
 -10  13   3    9.40   16.40
  13  10   3   47.80   15.80
   8 -13  -3   28.80   25.50
  -8  13  -3    2.70   20.50
  13   8  -3   60.19   22.40
  13   8   3   56.69   20.50
  13   8   3   50.29   20.70
 -13  -8   3   59.69   21.90
   8 -13   3   68.29   34.10
  -8  13   3   25.40   23.30
  13   6  -3   41.50   18.80
   6 -13  -3   32.80   23.20
  -6  13  -3   26.80   25.50
  13   6   3   44.80   19.90
 -13  -6   3   38.60   19.30
  -6  13   3   55.99   25.60
   6 -13   3   58.69   33.60
 -13  -4  -3   16.90   14.20
  -4  13  -3   21.50   21.40
   4 -13  -3   15.00   18.30
 -13  -4   3   15.30   13.00
 -13  -4   3   10.20   12.50
  13   4   3   -2.50    7.30
  -4  13   3   35.30   25.20
   4 -13   3  -13.80    7.60
  -2  13  -3   21.20   25.30
   2 -13  -3   18.40   25.50
 -13  -2  -3   13.10   12.80
 -13  -2   3   -8.00   10.00
 -13  -2   3    0.10   11.30
   2 -13   3  -10.60   11.60
  13   2   3   -9.30    8.60
  -2  13   3  -15.50   12.40
 -13   0  -3   14.50   13.80
   0  13  -3  -18.30   13.30
   0 -13  -3   27.80   22.00
   0  13   3   33.90   26.90
 -13   0   3   15.80   15.90
 -13   0   3    2.20   12.30
  13   0   3   11.80   13.20
   0 -13   3  -39.70   36.40
  -2 -13  -3    5.20   16.10
 -13   2  -3    0.00   10.80
   2  13  -3   13.00   16.30
  13  -2   3   11.70   15.00
   2  13   3   25.30   17.90
 -13   2   3   -4.70    8.30
 -13   2   3    2.20   11.90
  -2 -13   3   12.30   15.10
  -4 -13  -3   17.80   17.60
   4  13  -3   16.20   20.20
  13  -4  -3    9.40   14.70
 -13   4  -3   37.80   21.80
  -4 -13   3    9.10   14.80
   4  13   3    4.80   13.60
  13  -4   3   30.10   20.00
 -13   4   3    5.20   15.30
  -6 -13  -3   46.70   26.70
  13  -6  -3  113.09   32.70
   6  13  -3   41.60   29.10
   6  13   3  107.49   39.40
  13  -6   3   61.29   29.50
  -6 -13   3   20.30   20.80
  -8 -13  -3   47.70   21.20
  13  -8  -3   16.80   19.20
   8  13  -3   42.50   20.70
 -13   8  -3   -0.70    6.20
  13  -8   3   52.99   24.90
  -8 -13   3   27.60   16.80
 -13   8   3   14.80   14.10
   8  13   3   49.70   21.40
  13 -10  -3   10.40   18.70
  10  13  -3   25.80   16.00
 -13  10  -3   -6.30   10.60
 -13  10   3  -11.80   12.30
 -10 -13   3   19.90   17.30
  10  13   3   22.00   15.90
  13 -10   3   -8.00   11.10
  10  13   3   19.00   15.50
  13 -12  -3   -2.90   14.70
 -13  12  -3  -11.70   13.50
  12  13  -3    7.00   11.40
 -13  12   3   46.90   30.80
  12  13   3  -12.00    8.10
 -12 -13   3   -0.60    7.90
  12  13   3    3.00   10.70
  13 -12   3   -8.20   12.60
 -13  14  -3   17.50   25.70
  13 -14  -3   12.10   22.60
  14  13  -3   -1.70   11.30
  14  13   3   -1.10   10.70
  13 -14   3  -31.90   43.50
 -13  14   3  -14.20   22.20
  14  13   3    0.60    9.20
 -14 -13   3   -0.80   10.60
  11 -14  -3   -8.20   13.70
 -11  14  -3    3.30   17.40
  14  11  -3    1.60   10.70
 -11  14   3  -20.60   14.70
  14  11   3   -5.90    9.50
  11 -14   3  -16.00   15.00
  14  11   3   -6.30    9.60
 -14 -11   3    2.90    9.60
  14   9  -3    5.20   10.60
  -9  14  -3  -16.60    9.20
   9 -14  -3   13.00   16.40
  14   9   3   -3.20   10.80
  -9  14   3   20.10   26.30
  14   9   3   25.60   14.30
 -14  -9   3    1.40    9.60
   9 -14   3   17.80   23.20
   7 -14  -3  150.98   64.99
  14   7  -3  127.49   37.20
  -7  14  -3  229.78   70.09
 -14  -7   3  108.89   36.20
   7 -14   3  216.38   62.29
  14   7   3   81.89   33.50
  -7  14   3   96.59   46.10
  14   7   3  119.69   36.50
  -5  14  -3  136.79   58.69
 -14  -5  -3  246.38   56.49
   5 -14  -3  224.68   72.89
  14   5   3  195.98   54.59
  -5  14   3  191.38   69.59
 -14  -5   3  164.18   53.89
 -14  -5   3  203.88   55.19
 -14  -3  -3  168.98   46.70
  -3  14  -3  107.39   44.80
   3 -14  -3  206.08   56.99
  14   3   3  222.98   49.90
 -14  -3   3   94.49   43.20
  -3  14   3  152.18   54.39
   3 -14   3  160.48   53.39
 -14  -3   3  195.38   47.90
   1 -14  -3    9.70   13.70
  -1  14  -3   -5.40   11.60
 -14  -1  -3   15.70   13.50
   1 -14   3   -2.50   13.00
  -1  14   3  -16.80   15.30
 -14  -1   3   16.00   15.00
 -14  -1   3   -6.40   12.40
  14   1   3   13.50   12.20
 -14   1  -3   -8.90   10.70
   1  14  -3   15.80   22.00
  -1 -14  -3    1.50   14.70
  14  -1   3   -1.30   11.30
 -14   1   3   31.50   19.20
   1  14   3   -4.20   14.00
  -1 -14   3    0.20   13.60
 -14   1   3   14.00   16.20
  -3 -14  -3  141.09   57.49
   3  14  -3  151.08   54.49
  14  -3  -3  212.28   58.19
 -14   3  -3  196.38   58.59
 -14   3   3  212.88   60.89
   3  14   3  183.28   57.49
  14  -3   3  155.28   54.39
  -3 -14   3  254.97   66.99
 -14   5  -3  244.18   63.79
  14  -5  -3  169.28   58.79
  -5 -14  -3  212.98   61.49
   5  14  -3  180.38   57.09
  14  -5   3  164.68   58.09
  -5 -14   3  133.69   53.89
 -14   5   3  286.17   65.59
   5  14   3  254.17   68.09
  14  -7  -3   84.29   39.20
  -7 -14  -3  217.98   50.69
   7  14  -3  151.48   47.10
  14  -7   3   80.89   41.60
   7  14   3  111.89   43.10
  -7 -14   3   73.29   35.20
  14  -9  -3   -1.40   13.90
 -14   9  -3   -5.90    7.20
  -9 -14  -3  -11.60    9.00
   9  14  -3    1.40   10.70
 -14   9   3    4.20   11.80
   9  14   3    9.80   13.40
  14  -9   3   33.90   20.70
  -9 -14   3   -4.50   11.10
  14 -11  -3   -8.50   13.20
  11  14  -3   15.90   14.10
 -14  11  -3    1.20   17.90
 -14  11   3    6.30   20.20
 -11 -14   3    1.90   10.70
  11  14   3   11.00   15.30
  11  14   3   -7.10    9.70
  14 -11   3   -1.70   12.30
  13  14  -3   13.30   13.50
 -14  13  -3   23.20   21.80
  14 -13  -3   -6.60   18.70
 -14  13   3  -11.80   14.90
 -13 -14   3    7.60   11.80
  14 -13   3   18.00   20.20
  13  14   3   -2.70    9.90
  13  14   3    4.50   13.00
  15  14  -3   -6.60   10.30
 -14  15  -3    2.00   14.00
  14 -15  -3   18.20   22.70
 -14  15   3    1.60   23.70
  14 -15   3   -4.60   15.20
  15  14   3   -1.60   10.20
  15  14   3    1.80   11.40
 -15 -14   3   -6.50    9.40
 -12  15  -3   25.40   20.50
  12 -15  -3   21.60   37.80
  15  12  -3    4.20   11.40
  15  12   3   43.70   16.50
 -15 -12   3    8.80   12.10
 -12  15   3    4.10   23.60
  12 -15   3    5.20   24.30
  15  12   3   -1.80    8.20
 -10  15  -3   43.10   32.80
  15  10  -3    7.40   11.60
  10 -15  -3    0.30   17.20
  15  10   3   15.90   12.00
 -10  15   3  -16.80   14.90
  15  10   3   37.70   15.80
 -15 -10   3   21.40   13.20
  10 -15   3  -21.10   17.80
  -8  15  -3    6.20   19.10
  15   8  -3   38.00   14.40
   8 -15  -3   27.30   26.80
  15   8   3    2.40   11.70
 -15  -8   3    6.90   10.00
  -8  15   3   -0.80   18.20
  15   8   3    1.80   10.80
   8 -15   3   -0.20   12.30
  -6  15  -3    8.90   18.60
   6 -15  -3   24.90   18.70
  -6  15   3   -7.20   51.69
 -15  -6   3    4.60    8.70
  15   6   3    1.60    7.70
 -15  -6   3   17.90   12.70
  -4  15  -3   -0.10   15.10
   4 -15  -3   69.39   41.20
 -15  -4  -3    1.10   10.10
  15   4   3   29.10   15.10
  -4  15   3   46.60   32.00
 -15  -4   3   -8.20    9.20
 -15  -4   3   44.30   16.00
   4 -15   3   35.20   28.50
 -15  -2  -3   59.29   21.60
  -2  15  -3   40.80   22.80
   2 -15  -3   51.39   27.20
  15   2   3   17.80   16.10
 -15  -2   3   52.49   22.40
   2 -15   3   18.70   17.90
 -15  -2   3   46.80   19.30
  -2  15   3   20.80   20.90
 -15   0  -3  -12.00    9.50
   0 -15  -3    2.30   15.90
   0  15  -3    0.10   16.40
   0  15   3   -7.80   16.60
   0 -15   3   -2.50   12.60
  15   0   3  -15.50    7.30
 -15   0   3    3.00   12.00
 -15   0   3  -13.50    7.70
   2  15  -3   22.50   21.00
 -15   2  -3   39.60   19.50
  -2 -15  -3   80.19   32.20
  15  -2   3   30.20   18.80
 -15   2   3   38.60   22.50
   2  15   3   57.39   32.30
 -15   2   3   45.20   22.50
  -2 -15   3   83.99   34.80
   4  15  -3  -14.70    9.90
  15  -4  -3   49.20   19.80
 -15   4  -3   48.70   21.40
  -4 -15  -3    8.10   16.50
  -4 -15   3   78.69   31.20
   4  15   3    2.50   11.50
  15  -4   3   32.80   20.00
 -15   4   3   -5.80   12.10
   6  15  -3    1.50   13.00
  -6 -15  -3   17.10   15.40
  15  -6  -3   25.40   19.50
 -15   6  -3   26.20   22.00
  -6 -15   3   15.60   16.00
  15  -6   3   -5.20    8.50
 -15   6   3   12.00   15.40
   6  15   3   17.20   16.50
  -8 -15  -3  -13.80   12.10
   8  15  -3  -10.60    8.50
  15  -8  -3    1.70   13.40
   8  15   3   -7.10   11.20
  15  -8   3   11.80   17.60
  -8 -15   3   -9.80   12.70
 -15  10  -3   10.20   13.80
 -10 -15  -3   -8.20   11.50
  15 -10  -3  -22.40   11.80
  10  15  -3   20.90   17.60
 -10 -15   3   17.50   16.50
 -15  10   3    9.40   19.40
  15 -10   3   23.50   23.60
  10  15   3    5.70   12.30
  12  15  -3    0.50   12.60
 -15  12  -3    4.70   15.90
  15 -12  -3    1.60   12.60
 -12 -15   3   -2.90   15.20
 -15  12   3    0.50   16.40
  12  15   3   15.00   14.30
  12  15   3   -3.20   11.30
  15 -12   3   -2.40   14.20
  14  15  -3   12.60   13.00
 -15  14  -3    7.60   21.10
  15 -14  -3   -0.60   16.40
 -15  14   3   -0.40   14.20
  15 -14   3  -12.30   14.00
 -14 -15   3   -4.20   10.80
  14  15   3   21.00   16.20
  14  15   3   -3.80   11.40
  15 -16  -3    4.70   20.40
  16  15  -3   -0.40   13.50
 -15  16  -3   37.90   32.60
  16  15   3    5.20   11.90
  16  15   3   -7.10   10.00
 -16 -15   3   -9.40   11.60
  15 -16   3  -17.90   17.30
 -15  16   3    5.00   66.19
  16  13  -3   -9.00    9.50
 -13  16  -3   39.50   29.10
  13 -16  -3   23.30   30.00
 -13  16   3    9.50   62.89
  16  13   3   26.80   14.70
  13 -16   3   15.00   24.60
 -16 -13   3   44.10   19.20
  16  13   3   21.80   13.90
  11 -16  -3   28.30   25.50
  16  11  -3    4.10   10.50
 -11  16  -3  -22.90   11.90
  16  11   3   10.90   10.70
 -16 -11   3   15.50   12.40
  11 -16   3   22.70   27.00
  16  11   3   10.80   12.20
 -11  16   3   22.50   22.80
   9 -16  -3  -11.40   15.00
  -9  16  -3   -3.30   16.60
  16   9  -3    8.20   10.00
  16   9   3   -6.90    8.30
 -16  -9   3    1.00   11.20
  -9  16   3   -8.70   12.10
   9 -16   3   -9.10   13.10
  16   9   3    2.10    8.90
  -7  16  -3   34.30   21.40
   7 -16  -3   28.10   26.10
  16   7   3   28.50   14.70
  16   7   3   17.40   13.70
 -16  -7   3   46.80   17.10
 -16  -7   3   28.30   16.10
  -7  16   3   15.30   19.50
   7 -16   3   22.60   29.80
  -5  16  -3   23.40   23.30
   5 -16  -3   16.80   22.30
  -5  16   3   20.00   22.80
 -16  -5   3   -6.60   10.80
  16   5   3    4.70   10.30
 -16  -5   3    0.30   11.30
   5 -16   3   30.40   28.60
 -16  -3  -3    4.10   13.30
  -3  16  -3  -14.90   11.00
   3 -16  -3  -10.70   11.70
  16   3   3    9.30   10.90
 -16  -3   3   14.00   14.50
   3 -16   3   12.30   16.90
  -3  16   3   -4.10   17.00
 -16  -3   3   -6.90    9.50
   1 -16  -3    5.50   17.40
  -1  16  -3    5.10   13.90
 -16  -1  -3  -10.20    8.90
 -16  -1   3    1.10   10.70
   1 -16   3    5.30   16.60
  -1  16   3   44.50   33.00
  16   1   3    5.20   10.00
 -16  -1   3    7.80   11.90
  -1 -16  -3   64.29   28.10
   1  16  -3    9.50   18.90
 -16   1  -3  -15.10    8.20
  -1 -16   3  -22.10   11.20
  16  -1   3    0.60    9.80
 -16   1   3    8.40   14.00
 -16   1   3   -3.90   14.20
   3  16  -3   13.10   19.60
  -3 -16  -3   13.00   17.50
 -16   3  -3   21.20   18.30
   3  16   3  -16.70    8.20
 -16   3   3  -21.80    9.70
  16  -3   3    5.60   13.40
  -3 -16   3   26.10   18.40
  16  -5  -3   -6.30   13.60
   5  16  -3   26.10   20.30
 -16   5  -3    4.50   14.30
  -5 -16  -3    0.90   15.30
 -16   5   3   -3.70   11.40
  16  -5   3  -10.20    6.80
   5  16   3   15.90   20.30
  -5 -16   3    0.60   15.70
   7  16  -3   66.59   27.60
  -7 -16  -3    1.10   15.90
  16  -7  -3  -15.40   12.10
 -16   7  -3   22.20   18.50
  16  -7   3   53.29   26.70
   7  16   3   76.69   29.70
  -7 -16   3   39.20   27.80
 -16   7   3   30.10   25.70
  16  -9  -3    2.80   14.50
  -9 -16  -3  -16.80   10.60
   9  16  -3   -8.80   10.20
  -9 -16   3   27.90   19.10
   9  16   3   -8.10   10.50
  16  -9   3   -8.40    8.90
  11  16  -3    8.00   13.40
  16 -11  -3   -1.80   13.80
 -16  11  -3    2.90   18.60
 -11 -16   3    4.70   11.60
  16 -11   3  -13.70   10.20
  11  16   3   16.00   15.40
 -16  11   3  -17.80   11.50
  13  16  -3    5.40   15.00
 -16  13  -3   45.60   27.10
  16 -13  -3   27.70   29.10
 -16  13   3   -0.50   13.80
  16 -13   3   -0.60   15.90
 -13 -16   3    4.60   11.90
  13  16   3   31.30   19.00
  13  16   3   14.20   14.30
  15  16  -3   -3.10   11.50
  16 -15  -3   57.79   32.60
 -16  15  -3    2.90   17.00
  16 -15   3   -9.70   19.80
  15  16   3    9.90   15.40
 -15 -16   3    0.30   12.50
 -16  15   3   -5.40   16.10
  15  16   3   -4.00   10.80
  17  16  -3    5.70   13.30
 -16  17  -3  -12.40   14.60
  16 -17  -3   -6.10   14.80
  17  16   3   -6.60    9.40
 -17 -16   3    9.00   14.70
 -16  17   3  -14.60   16.50
  16 -17   3  -15.60   11.00
  14 -17  -3   -6.10   14.60
 -14  17  -3  -14.20   12.50
  17  14  -3   -7.80   10.50
 -14  17   3   -8.20   22.10
 -17 -14   3    2.70   11.40
  17  14   3   -7.00    9.80
  17  14   3    0.30   10.50
  14 -17   3   -6.90   13.20
  17  12  -3    2.50   10.70
  12 -17  -3  -13.40   18.50
 -12  17  -3   10.80   17.40
  12 -17   3   -8.00    8.50
 -12  17   3   -1.60   20.30
 -17 -12   3   10.10   11.70
  17  12   3    0.30    9.60
  17  12   3    7.60   10.40
 -10  17  -3  -22.90   11.60
  17  10  -3   -1.40    8.60
  17  10   3   13.00   12.00
  10 -17   3  -11.00   18.30
  17  10   3   22.30   12.20
 -17 -10   3   17.70   12.40
 -10  17   3   13.90   28.40
  -8  17  -3   -0.90   13.70
   8 -17  -3    5.10   19.10
   8 -17   3    2.50   16.70
  17   8   3   23.60   12.90
 -17  -8   3    8.10   12.10
  17   8   3    5.40   10.40
 -17  -8   3   11.80   11.30
  -8  17   3    1.70   24.60
  -6  17  -3  -13.70   10.60
   6 -17  -3   -0.40   17.30
   6 -17   3   -6.20   16.70
  -6  17   3   62.19   29.40
  17   6   3   11.60   10.50
 -17  -6   3    3.40   10.10
 -17  -6   3   -5.60    8.50
  -4  17  -3  -14.20   11.80
   4 -17  -3  -18.80   11.80
 -17  -4  -3   -4.20    9.90
  17   4   3   -5.90    7.20
   4 -17   3   26.00   66.19
  -4  17   3   -0.50   18.30
 -17  -4   3    3.90   11.70
 -17  -4   3    4.30   19.60
  -2  17  -3    7.00   23.10
   2 -17  -3   -5.60   13.50
 -17  -2  -3    8.80   12.90
  -2  17   3  -18.70   13.40
 -17  -2   3    3.90   13.30
   2 -17   3   -8.80   39.40
 -17  -2   3   19.60   15.80
  17   2   3    2.90   10.40
 -17   0  -3    2.70   10.80
   0 -17  -3   16.20   20.70
   0  17  -3    1.90   16.60
 -17   0   3    6.90   14.50
  17   0   3   21.70   12.70
   0 -17   3  -17.80   14.50
 -17   0   3   14.80   16.20
   0  17   3  -20.60   13.00
 -17   2  -3   36.00   17.40
   2  17  -3   -6.30   14.10
  -2 -17  -3   22.50   19.60
  -2 -17   3   25.80   22.80
 -17   2   3   11.60   13.40
  17  -2   3   -3.80    9.50
   2  17   3   13.40   21.30
 -17   2   3   -7.80   11.40
 -17   4  -3   36.00   18.90
  -4 -17  -3   36.40   21.50
   4  17  -3  -14.40    9.80
  17  -4  -3   -4.80   15.00
   4  17   3   15.20   19.40
  17  -4   3   20.10   18.20
 -17   4   3   17.10   16.70
  -4 -17   3   24.00   26.10
   6  17  -3   -6.70    9.20
  -6 -17  -3    8.30   16.60
 -17   6  -3    3.80   14.90
  17  -6  -3  -13.90   10.10
   6  17   3   -1.60   13.40
  -6 -17   3    7.70   14.50
  17  -6   3   -2.90   11.40
 -17   6   3   33.90   23.40
  -8 -17  -3    5.40   19.30
   8  17  -3    3.10   13.20
 -17   8  -3  -10.30   10.20
  17  -8  -3    8.70   15.90
  -8 -17   3   32.10   21.40
  17  -8   3   10.10   14.80
   8  17   3   20.30   18.20
 -17   8   3   35.20   23.40
 -10 -17  -3   30.40   18.20
  17 -10  -3   -0.50   18.60
  10  17  -3    5.90   16.70
 -10 -17   3   18.10   18.50
  17 -10   3    6.50   15.90
  10  17   3    5.30   14.50
  17 -12  -3    5.40   15.70
 -17  12  -3   27.50   24.20
  12  17  -3   -1.40   12.10
 -17  12   3    6.30   18.20
 -12 -17   3    1.00   13.00
  12  17   3   19.20   16.40
  17 -12   3   21.90   24.30
  14  17  -3   -0.10   12.20
  17 -14  -3    8.00   21.10
 -17  14  -3    0.60   18.40
  14  17   3    1.70   12.10
  17 -14   3  -11.60   11.80
 -14 -17   3  -20.10   10.50
  14  17   3   -1.10   10.30
 -17  14   3   41.10   30.90
  17 -16  -3  -13.90   19.60
 -17  16  -3   -3.30   14.40
  16  17  -3    1.60   14.00
  17 -16   3   -2.00   13.50
  16  17   3   -1.30   11.30
 -16 -17   3  -12.00   11.50
  16  17   3   18.80   15.50
 -17  16   3    8.60   26.80
  18  17  -3   -6.70   16.40
 -17  18  -3    6.60   23.40
  17 -18  -3   44.00   30.20
  17 -18   3  -13.90   13.80
  18  17   3    3.30   14.80
 -17  18   3  -18.70   21.20
 -18 -17   3   -3.00   12.40
  15 -18  -3   17.00   28.90
  18  15  -3   21.30   16.90
 -15  18  -3   41.50   30.10
  18  15   3    8.10   13.70
 -18 -15   3   -0.30   11.20
 -15  18   3  -17.10   17.60
  15 -18   3  -12.90   10.70
  18  15   3   -0.50   10.10
  18  13  -3  -10.40    9.40
 -13  18  -3    8.70   18.80
  13 -18  -3   32.40   21.50
  18  13   3   -0.10   10.30
 -13  18   3  -11.90   13.70
  13 -18   3   26.60   26.60
  18  13   3    8.50   11.50
 -18 -13   3    0.70   10.50
  11 -18  -3    6.70   18.20
 -11  18  -3   17.90   34.70
 -18 -11   3  -11.70    7.90
  18  11   3    0.40    8.20
  18  11   3   12.00    9.50
  11 -18   3    4.90   15.80
 -11  18   3    9.00   16.20
   9 -18  -3  -16.10   14.20
  -9  18  -3   30.10   28.70
 -18  -9   3    9.10    9.70
   9 -18   3    0.60   20.00
  18   9   3   -0.80    7.30
 -18  -9   3   -3.10    8.80
  18   9   3   11.60   10.10
  -9  18   3   13.40   14.90
  -7  18  -3   -9.30   16.90
   7 -18  -3    1.30   17.30
  -7  18   3    7.10   29.60
  18   7   3    2.70    9.50
  18   7   3    2.50    8.10
 -18  -7   3   -6.20    9.60
 -18  -7   3    0.60    8.70
   7 -18   3   -3.20   11.80
  -5  18  -3   17.30   20.10
 -18  -5  -3   -7.50    9.70
   5 -18  -3    7.10   45.90
 -18  -5   3    2.50   11.90
  -5  18   3   22.60   26.90
  18   5   3   12.80   12.10
 -18  -5   3   19.60   14.00
   5 -18   3   11.10   28.20
   3 -18  -3   52.79   38.40
 -18  -3  -3   35.70   19.40
  -3  18  -3   25.80   27.90
 -18  -3   3   51.09   24.90
   3 -18   3   77.69   46.50
 -18  -3   3   21.90   16.20
  -3  18   3   88.29   43.60
  18   3   3   35.30   17.20
  -1  18  -3    7.80   14.50
 -18  -1  -3   15.80   13.40
   1 -18  -3  -10.70   15.30
  -1  18   3   63.59   40.50
 -18  -1   3   35.70   19.60
   1 -18   3   -7.10   10.70
  18   1   3   20.00   14.40
 -18  -1   3  -20.00    8.60
 -18   1  -3   37.10   20.00
  -1 -18  -3   10.60   17.70
   1  18  -3   -5.50   14.00
 -18   1   3   64.39   26.80
   1  18   3   15.70   19.30
  -1 -18   3   15.70   19.10
 -18   1   3   21.20   16.70
  18  -1   3   36.10   18.80
  -3 -18  -3   -7.50   13.90
 -18   3  -3   35.40   18.60
   3  18  -3   16.20   18.70
  -3 -18   3   28.30   26.20
   3  18   3   73.29   27.20
  18  -3   3   58.39   26.30
 -18   3   3   10.20   16.00
   5  18  -3    5.80   16.90
 -18   5  -3   19.20   20.00
  -5 -18  -3   18.90   17.90
  18  -5  -3    3.30   13.70
 -18   5   3   11.80   16.20
  -5 -18   3   23.60   18.80
   5  18   3   61.19   30.00
  18  -5   3   -1.10   12.10
 -18   7  -3   21.40   17.90
  -7 -18  -3   -9.10   12.60
   7  18  -3   26.30   21.10
 -18   7   3   -5.50   13.50
  18  -7   3   -0.10   17.80
   7  18   3  -10.50   11.80
  -7 -18   3  -10.30   10.30
   9  18  -3   22.80   21.00
 -18   9  -3    4.60   13.60
  18  -9  -3   41.80   25.50
  -9 -18  -3   -5.40   12.40
  -9 -18   3    4.50   16.20
  18  -9   3  -15.20    9.60
   9  18   3    4.00   16.30
 -18   9   3   -4.00   15.00
 -11 -18  -3  -11.90   11.00
  18 -11  -3   15.40   24.50
  11  18  -3    4.60   12.80
  11  18   3    5.40   13.50
 -11 -18   3   -4.90   11.90
  18 -11   3  -12.40   13.30
  13  18  -3    5.20   14.30
  18 -13  -3  -10.20   17.50
 -18  13  -3   -5.50   14.70
  13  18   3    2.50   10.90
  18 -13   3   -2.10   21.10
 -13 -18   3   35.10   25.70
 -18  13   3   27.60   30.90
  13  18   3   19.80   17.70
  15  18  -3   -6.20   11.90
  18 -15  -3   12.50   20.30
 -18  15  -3   -2.80   15.70
  18 -15   3  -16.40   15.40
  15  18   3    8.70   15.30
 -15 -18   3    4.20   14.00
  15  18   3    0.00   12.30
 -18  15   3   -0.20   22.10
  18 -17  -3   15.70   23.40
  17  18  -3   16.40   15.10
 -18  17  -3   -3.90   18.10
  18 -17   3  -12.80   17.00
 -18  17   3   -8.50   23.80
 -17 -18   3    7.40   16.70
  17  18   3    3.00   12.40
  17  18   3   21.60   18.70
 -16  19  -3  -13.20   19.80
  16 -19  -3   31.70   27.20
  19  16  -3    7.90   14.90
  16 -19   3  -23.50   13.40
  19  16   3   -0.70   11.60
  19  16   3   14.60   12.50
 -19 -16   3    4.00   12.80
 -16  19   3    6.10   25.20
  19  14  -3   10.90   11.90
  14 -19  -3   -4.20   20.30
 -14  19  -3   10.40   25.90
 -14  19   3   25.30   32.90
  19  14   3    7.20   10.50
 -19 -14   3    0.40   20.80
  14 -19   3   13.10   28.80
  19  14   3    9.70    9.90
 -12  19  -3   38.70   30.90
  12 -19  -3   -1.70   21.50
  19  12   3   -2.90    8.40
  12 -19   3    1.00   11.90
 -19 -12   3    8.00   11.20
 -12  19   3    6.80   16.70
  19  12   3    9.60    9.30
 -10  19  -3   26.10   46.90
  10 -19  -3   44.50   35.80
 -19 -10   3    9.10   10.00
  19  10   3   21.60   10.20
 -10  19   3   -6.90   19.10
 -19 -10   3    8.90    9.70
  19  10   3   21.70   10.30
  10 -19   3    7.10   15.20
  -8  19  -3  -12.10   13.50
   8 -19  -3  -10.60   27.30
  -8  19   3  -10.80   21.30
   8 -19   3  -12.80   10.90
  19   8   3   -0.80    9.00
 -19  -8   3   16.40   10.60
 -19  -8   3  -13.70    8.00
  19   8   3   10.30    8.20
  -6  19  -3  -14.30   11.30
   6 -19  -3   22.10   20.90
  19   6   3    2.00    7.80
 -19  -6   3    3.30   10.60
  -6  19   3    1.00   29.80
 -19  -6   3   11.40   11.30
  19   6   3    0.70    9.20
   6 -19   3  -17.40   10.70
   4 -19  -3    0.90   22.50
 -19  -4  -3   56.69   21.00
  -4  19   3   53.29   33.00
  19   4   3   25.30   15.10
 -19  -4   3   54.99   19.50
   4 -19   3   52.89   29.80
 -19  -4   3   30.70   17.80
 -19  -2  -3   32.40   15.60
   2 -19  -3    4.90   14.60
  -2  19  -3   -1.70   13.60
  19   2   3   17.20   12.80
  -2  19   3   -4.00   24.70
   2 -19   3  -11.70   13.10
 -19  -2   3   42.00   18.70
 -19  -2   3    7.10   14.10
   0  19  -3   -1.30   14.10
 -19   0  -3   11.10   13.70
   0 -19  -3   14.00   18.90
 -19   0   3   -7.30   12.40
   0 -19   3   -9.30   11.00
 -19   0   3   -5.10   11.20
   0  19   3    1.20   19.70
  19   0   3  -11.00    9.50
 -19   2  -3   -8.90    9.10
  -2 -19  -3   -5.30   13.30
   2  19  -3   16.30   20.40
  19  -2   3   19.40   15.90
   2  19   3    3.90   20.40
  -2 -19   3   18.80   21.00
 -19   2   3   19.50   18.20
 -19   2   3   14.50   17.00
  -4 -19  -3   22.80   23.90
   4  19  -3    0.90   14.70
  19  -4  -3   26.10   19.80
 -19   4  -3   35.90   24.30
  -4 -19   3   29.10   18.10
 -19   4   3    4.60   17.30
   4  19   3    8.40   21.30
  19  -4   3   61.69   24.40
  -6 -19  -3    6.60   19.90
 -19   6  -3   47.30   26.60
   6  19  -3   22.90   21.20
  19  -6  -3   22.20   20.50
   6  19   3   19.90   23.50
  19  -6   3   12.60   18.90
  -6 -19   3   17.70   19.20
 -19   6   3  -14.30   11.60
 -19   8  -3  -12.40   14.60
   8  19  -3   28.20   21.50
  -8 -19  -3  -12.50   12.50
   8  19   3  -11.60    9.20
 -19   8   3   15.50   26.00
  19  -8   3  -15.90   11.40
  -8 -19   3  -15.70   10.70
  10  19  -3   47.60   22.30
 -19  10  -3   -2.60   19.80
 -10 -19  -3   23.50   18.50
  19 -10  -3   21.30   21.70
  19 -10   3   -9.00   14.50
 -19  10   3   -9.30   12.50
  10  19   3   10.00   16.30
 -10 -19   3   11.70   21.10
  12  19  -3   19.40   19.60
 -12 -19  -3    5.70   12.80
  19 -12  -3  -15.80   12.20
  19 -12   3   32.60   31.60
 -12 -19   3   -6.80   12.60
  12  19   3   21.80   20.20
 -19  12   3    0.30   10.20
  14  19  -3   15.00   17.20
  19 -14  -3   15.80   20.70
 -19  14  -3   -1.80   20.20
 -19  14   3   24.80   24.10
  14  19   3   -1.20   11.30
  14  19   3  -12.10    9.90
 -14 -19   3    7.20   17.20
  19 -14   3  -13.30   12.20
 -19  16  -3    8.90   18.90
  16  19  -3    9.30   14.70
  19 -16  -3  -25.40   15.60
  16  19   3   20.20   17.30
  16  19   3    0.50   12.80
 -19  16   3   16.50   26.20
  19 -16   3  -19.50   13.60
 -16 -19   3   -5.40   12.30
 -13  20  -3  -11.00   17.30
  13 -20  -3   -1.10   20.60
  20  13   3    3.90    7.50
  20  13   3   25.90    9.00
  13 -20   3    7.00   15.70
 -20 -13   3   -1.10    8.20
 -20 -13   3    1.60   11.70
 -13  20   3   51.39   26.10
 -11  20  -3   -8.50   15.70
  11 -20  -3   -9.20   18.20
 -11  20   3  -12.10   16.50
  20  11   3   -1.90    5.30
 -20 -11   3    3.50    8.80
 -20 -11   3    7.20    9.60
  20  11   3   -1.30    5.20
  -9  20  -3   -5.60   18.40
   9 -20  -3   17.40   22.00
  -9  20   3   -8.70   21.10
 -20  -9   3    3.40    8.60
  20   9   3    5.10    6.00
   9 -20   3   19.70   25.70
  20   9   3    3.60    6.50
 -20  -9   3    5.10    9.30
  -7  20  -3   -6.70   16.50
   7 -20  -3    6.90   27.70
 -20  -7   3   -1.20    8.30
  20   7   3    3.30    9.10
  20   7   3    4.40    6.40
  -7  20   3   24.40   34.00
 -20  -7   3    3.90    9.50
   7 -20   3   -2.40   13.30
   5 -20  -3    4.70   21.80
 -20  -5  -3  -12.50   11.10
  -5  20  -3   -4.60   12.70
   5 -20   3    5.20   18.90
 -20  -5   3    6.30   10.60
  -5  20   3   -0.90   15.50
 -20  -5   3   19.70   12.30
  20   5   3   17.70   10.90
  -3  20  -3    7.80   18.20
 -20  -3  -3   45.70   18.10
   3 -20  -3   13.00   23.90
 -20  -3   3    3.80   11.60
  20   3   3   -0.10    9.80
   3 -20   3   18.00   29.00
 -20  -3   3   19.50   15.70
  -3  20   3  -20.60   20.60
  -1  20  -3    6.00   16.60
 -20  -1  -3   13.90   13.70
   1 -20  -3  -23.70   12.90
  -1  20   3   -4.70   15.40
  20   1   3  -18.60    8.80
 -20  -1   3   -0.80   11.20
   1 -20   3   -4.70   17.10
 -20  -1   3   -1.00   11.50
  -1 -20  -3   -5.20   16.30
 -20   1  -3    3.30   12.80
   1  20  -3   -9.20   12.90
   1  20   3   46.10   34.10
  20  -1   3    4.20   11.40
 -20   1   3    3.20   12.30
 -20   1   3   22.40   18.90
  -1 -20   3   28.60   28.10
  -3 -20  -3   -1.60   13.20
   3  20  -3   28.80   19.70
 -20   3  -3   14.70   16.80
  -3 -20   3   11.20   21.20
   3  20   3   -6.60   13.00
 -20   3   3   10.00   14.50
 -20   3   3   14.20   15.40
  20  -3   3   -7.00    9.90
   5  20  -3    1.40   15.10
  -5 -20  -3   39.10   22.30
 -20   5  -3   -9.80   11.10
  20  -5  -3   26.50   23.60
 -20   5   3    5.90   18.30
  -5 -20   3   16.60   20.10
  20  -5   3   15.90   17.00
   5  20   3    8.70   14.50
 -20   7  -3   -9.80   14.30
  20  -7  -3    5.40   18.40
   7  20  -3    2.80   18.70
  -7 -20  -3   18.40   20.60
 -20   7   3   42.10   26.80
  -7 -20   3   27.30   25.30
  20  -7   3   -2.40   12.50
   7  20   3    1.80   15.00
 -20   9  -3    1.10   18.60
  20  -9  -3   -8.80   12.30
  -9 -20  -3  -16.50   14.00
   9  20  -3    3.80   16.50
  20  -9   3   -5.30   14.40
 -20   9   3   71.69   33.10
   9  20   3  -14.00   11.20
  -9 -20   3   24.60   20.00
 -11 -20  -3   30.20   22.90
 -20  11  -3   -9.10   12.90
  11  20  -3   -6.90   10.80
  20 -11  -3   11.60   21.50
 -11 -20   3  -13.30   11.70
  20 -11   3   -7.50   12.70
  11  20   3  -11.90   11.80
 -20  11   3   25.80   24.00
 -20  13  -3    1.90   18.40
  20 -13  -3   14.80   24.00
 -13 -20   3    4.10   15.10
  20 -13   3   16.00   18.70
 -20  13   3   -2.80   11.90
 -12  21  -3   -6.50   16.30
  12 -21  -3    2.80   26.50
 -12  21   3   38.60   24.60
 -21 -12   3    4.90    6.70
  12 -21   3    3.50   19.70
  10 -21  -3   -9.50   17.30
 -10  21  -3    7.10   26.10
  10 -21   3  -11.30   12.90
 -21 -10   3   -1.60    5.90
 -21 -10   3    7.80    7.00
 -10  21   3   37.60   41.00
   8 -21  -3   54.69   30.80
   8 -21   3   -1.50   20.50
 -21  -8   3    2.80    7.60
  -8  21   3  -17.40   19.30
 -21  -8   3    8.30    9.20
  -6  21  -3   15.50   23.90
   6 -21  -3   14.30   27.70
  -6  21   3    7.60   30.00
 -21  -6   3    2.20    9.40
   6 -21   3  -22.10   14.20
  21   6   3    1.00    8.90
  21   6   3   -9.20    5.50
 -21  -6   3   -8.30    8.10
  -4  21  -3   29.70   22.40
   4 -21  -3   39.10   33.40
 -21  -4  -3   14.90   14.90
   4 -21   3    0.40   17.00
 -21  -4   3   18.00   14.50
  -4  21   3    8.30   27.20
 -21  -4   3   13.50   14.70
  -2  21  -3  -16.80   15.70
 -21  -2  -3   -5.60   11.80
   2 -21  -3   -2.40   18.30
  21   2   3   -1.00    9.10
 -21  -2   3   17.90   15.40
  -2  21   3  -16.50   15.90
 -21  -2   3    4.60   14.90
   2 -21   3    9.60   15.30
   0 -21  -3  -12.00   14.80
 -21   0  -3   22.60   17.30
   0  21  -3   12.60   19.00
   0  21   3  -11.30   12.70
 -21   0   3    1.50   13.80
 -21   0   3  -11.00   10.70
  21   0   3  -10.10    8.60
   0 -21   3  -10.80   12.70
 -21   2  -3   -2.30   12.50
  -2 -21  -3    6.90   18.50
   2  21  -3   31.90   29.10
  21  -2   3    5.00   14.70
 -21   2   3   12.80   18.30
  -2 -21   3    4.90   14.40
   2  21   3  -10.90   11.40
 -21   2   3   -1.20   14.60
   4  21  -3   18.40   26.40
 -21   4  -3   16.90   18.50
  -4 -21  -3    6.80   20.30
  -4 -21   3   34.90   32.80
  21  -4   3   -3.50   13.50
   4  21   3   -5.00   11.00
 -21   4   3    4.70   12.40
  21  -6  -3    7.80   13.70
 -21   6  -3   -4.80   14.10
  -6 -21  -3   36.50   28.00
   6  21  -3   -0.70   12.90
  -6 -21   3   -6.20   13.80
   6  21   3    4.80   19.20
  21  -6   3    2.20   17.00
 -21   6   3  -12.20   16.60
   8  21  -3    0.80   18.70
  -8 -21  -3    0.00   17.80
  21  -8  -3   39.10   26.10
 -21   8  -3   13.50   19.20
 -21   8   3   -3.10   15.40
  -8 -21   3   60.69   49.20
  21  -8   3   21.50   24.90
   8  21   3   -8.20   12.60
  10  21  -3   33.80   23.80
 -10 -21  -3    9.70   17.40
 -21  10  -3    9.40   19.20
  21 -10  -3   30.60   23.50
 -21  10   3  -11.20   17.80
  10  21   3   50.69   27.20
 -10 -21   3   -5.80   14.50
 -21  12  -3   15.10   29.60
  12  21  -3  -10.00   13.60
 -12 -21  -3  -11.70   13.30
  21 -12  -3   -0.20   17.70
 -21  12   3    1.40   25.30
  12  21   3   15.00   17.70
 -12 -21   3   -0.30   18.30
  21 -12   3    2.00   21.60
 -11  22  -3   -1.90   21.80
  11 -22  -3  -17.50   20.70
  11 -22   3   -7.40   14.20
 -11  22   3   41.50   42.30
   9 -22  -3   21.70   32.30
  -9  22  -3    0.80   24.10
   9 -22   3  -10.80   28.50
  -9  22   3   25.00   23.60
   7 -22  -3  -13.80   16.30
  -7  22  -3   -5.90   15.90
  -7  22   3  -19.00   16.60
 -22  -7   3    5.60    8.80
 -22  -7   3   13.60    9.70
   7 -22   3   -6.50   23.00
   5 -22  -3   45.00   23.40
  -5  22  -3   74.79   33.30
  22   5   3   37.50   13.70
 -22  -5   3   11.70   12.40
 -22  -5   3   16.20   12.60
   5 -22   3   31.80   30.40
  -5  22   3   -7.20   17.20
 -22  -3  -3   45.90   20.80
  -3  22  -3    8.40   23.60
   3 -22  -3   31.60   28.50
 -22  -3   3   43.50   20.80
   3 -22   3  -16.80   17.50
 -22  -3   3   13.60   17.00
  -3  22   3   38.30   29.30
  -1  22  -3   -3.70   19.00
   1 -22  -3   -9.10   13.70
 -22  -1  -3   -3.30   11.00
 -22  -1   3   -2.30   14.30
   1 -22   3   42.10   33.20
 -22  -1   3   -3.00   14.70
  22   1   3    9.90   13.40
  -1  22   3   -5.50   18.40
   1  22  -3    8.30   21.50
  -1 -22  -3   20.70   23.90
 -22   1  -3   28.10   18.60
 -22   1   3   20.10   19.20
  -1 -22   3   -6.80   16.30
   1  22   3    2.70   25.50
 -22   1   3    1.80   18.40
  22  -1   3   -1.20   14.40
   3  22  -3   18.60   18.50
 -22   3  -3   56.29   23.50
  -3 -22  -3   21.10   20.20
 -22   3   3   61.79   28.80
   3  22   3    5.60   14.90
 -22   3   3   19.50   20.00
  22  -3   3   41.40   22.20
  -3 -22   3    1.60   16.70
   5  22  -3   81.89   36.80
  22  -5  -3   44.70   25.40
  -5 -22  -3   59.19   33.90
 -22   5  -3   13.40   18.10
 -22   5   3   24.60   25.80
  -5 -22   3   -6.40   20.00
   5  22   3   12.70   21.70
  22  -5   3   30.90   19.30
  22  -7  -3    8.20   17.20
  -7 -22  -3  -12.30   15.50
 -22   7  -3  -16.60   12.60
   7  22  -3   25.20   21.20
  -7 -22   3  -10.00   15.50
   7  22   3   18.20   21.10
 -22   7   3   -6.10   14.30
  22  -7   3   15.50   17.20
  22  -9  -3    3.40   16.00
 -22   9  -3  -13.30   13.70
   9  22  -3  -10.10   13.80
  -9 -22  -3   -7.70   12.80
  -9 -22   3   22.40   23.30
 -22   9   3   23.00   24.90
   9  22   3   19.20   22.20
  22  -9   3   10.90   21.70
  11  22  -3   87.79   33.90
  22 -11  -3   25.60   21.80
 -22  11  -3    8.30   19.20
 -11 -22  -3   -6.70   12.50
  11  22   3  -12.10   15.60
 -11 -22   3   -9.60   12.70
  22 -11   3   18.20   43.50
 -22  11   3   33.40   30.00
  -8  23  -3  -45.00   35.60
   8 -23  -3   -9.20   17.60
   8 -23   3   -0.50   18.20
  -8  23   3   38.20   33.20
   6 -23  -3   59.09   36.70
  -6  23  -3   32.90   35.40
 -23  -6   3    3.90    9.30
  -6  23   3   20.90   31.70
  23   6   3   13.10    6.20
   6 -23   3   -9.60   17.80
 -23  -4  -3   28.60   15.80
   4 -23  -3   46.90   38.80
  -4  23  -3   -0.60   21.70
 -23  -4   3   50.79   32.50
 -23  -4   3   26.20   15.60
  -4  23   3   39.30   31.40
  23   4   3   26.00   13.40
   4 -23   3   -6.00   10.30
 -23  -2  -3   45.50   19.80
   2 -23  -3   62.49   35.40
  -2  23  -3   30.70   32.40
  -2  23   3  -10.90   19.10
 -23  -2   3   43.20   20.10
 -23  -2   3   -8.10   11.30
  23   2   3   -4.00   10.90
   2 -23   3    5.20   20.20
   0  23  -3   10.30   17.70
 -23   0  -3    3.50   15.00
   0 -23  -3    9.30   21.80
   0 -23   3   11.80   25.30
 -23   0   3  -19.10   11.90
   0  23   3   -4.50   23.00
  23   0   3   -7.30    9.30
 -23   0   3   14.00   15.70
 -23   2  -3   48.20   24.00
  -2 -23  -3   18.50   25.60
   2  23  -3   14.60   21.30
  -2 -23   3   13.30   25.40
  23  -2   3   12.90   16.30
   2  23   3   -3.90   16.80
 -23   2   3   28.20   24.10
 -23   2   3   10.30   17.40
   4  23  -3   21.40   26.10
 -23   4  -3   46.20   25.70
  23  -4   3   10.70   17.10
 -23   4   3   65.29   27.80
   4  23   3   20.00   20.80
 -23   6  -3   43.50   25.40
  23  -6  -3   29.10   24.50
   6  23  -3   -6.30   18.10
  -6 -23  -3    9.70   23.00
  23  -6   3   11.10   19.90
  -6 -23   3   16.10   19.10
 -23   6   3   74.09   33.70
   6  23   3   17.40   25.80
  23  -8  -3   -1.80   16.10
   8  23  -3   -2.80   17.70
  -8 -23  -3   18.60   19.90
 -23   8  -3   -3.60   16.70
 -23   8   3   -7.10   18.20
   8  23   3   55.49   32.70
  23  -8   3   -2.80   16.40
  -8 -23   3    2.00   18.90
   5 -24  -3    0.90   28.50
  -5  24  -3   35.30   36.20
  24   5   3   -1.70    8.20
   5 -24   3  -10.90   18.50
 -24  -5   3   -2.50    8.90
 -24  -5   3   -7.40    8.80
  -5  24   3   12.00   31.10
  24   5   3    7.30    7.00
   3 -24  -3   79.89   46.40
  -3  24  -3    4.80   18.60
 -24  -3  -3    1.50   12.60
 -24  -3   3   -4.10   10.50
   3 -24   3  -18.70   19.10
  -3  24   3   22.50   31.60
 -24  -3   3  -16.70   11.50
  24   3   3   -1.90    8.70
   1 -24  -3   20.30   26.20
  -1  24  -3   -2.60   17.20
 -24  -1  -3    4.70   14.00
  24   1   3  -10.60    9.00
 -24  -1   3    6.10   13.50
   1 -24   3    7.60   17.90
 -24  -1   3  -14.40   11.30
  -1  24   3  -14.50   21.10
  -1 -24  -3   -8.60   16.20
   1  24  -3  -13.00   17.70
 -24   1  -3    8.00   16.00
 -24   1   3   -5.90   13.90
   1  24   3    8.10   23.00
  24  -1   3   26.30   17.40
 -24   1   3    4.10   19.10
  -1 -24   3   -7.30   13.20
 -24   3  -3   -3.70   12.40
  -3 -24  -3    9.70   21.20
   3  24  -3   -9.80   14.70
 -24   3   3   -3.20   15.10
  24  -3   3    6.00   13.20
  -3 -24   3  -13.00   15.90
 -24   3   3   20.70   17.80
   3  24   3  -11.30   18.60
 -24   5  -3    6.60   19.80
  -5 -24  -3  -22.90   14.00
   5  24  -3    4.60   18.90
   5  24   3   -6.40   14.10
  24  -5   3  -11.80   14.30
  -5 -24   3   84.79   44.10
 -24   5   3  -16.60   14.50
   0   0  -4 2986.80  737.63
   0   0   4 3110.69  737.73
   1  -1  -4    3.60   14.10
   1   1  -4   16.90   18.30
  -1  -1  -4    1.40   15.30
  -1   1  -4  -11.60    9.70
   1   1   4  -14.70   11.70
  -1   1   4   -4.80   14.70
   1  -1   4  -10.00   11.60
  -1  -1   4   17.70   16.30
   2   0  -4 1136.29  256.07
   0  -2  -4  939.11  254.97
  -2   0  -4  960.40  254.77
   0   2  -4 1031.30  255.17
  -2   0   4  905.61  254.47
   0   2   4  975.20  254.97
   2   0   4 1447.06  263.27
   0  -2   4 1074.49  255.87
  -2   2  -4  443.76  149.79
   2  -2  -4  483.35  150.48
   2   2  -4  910.01  174.68
  -2  -2  -4  543.15  153.48
   2  -2   4 1059.09  176.48
   2   2   4  981.40  172.38
  -2   2   4  444.16  152.38
  -2  -2   4 1019.90  177.08
   1  -3  -4   69.39   32.00
  -1   3  -4   95.99   33.00
   3   1  -4  119.89   34.80
  -3  -1   4   55.19   27.30
   3   1   4  100.29   32.20
   1  -3   4   64.89   29.10
  -1   3   4   82.89   32.10
   1   3  -4   51.49   25.80
  -1  -3  -4   91.19   34.60
  -3   1  -4   60.99   28.00
   3  -1  -4   93.39   39.20
   1   3   4  156.58   45.10
  -3   1   4   64.49   30.40
   3  -1   4   72.89   29.00
  -1  -3   4   56.99   27.30
  -3   3  -4  -19.00    8.90
  -3  -3  -4  -10.40   11.90
   3   3  -4   -5.10   13.90
   3   3   4   17.20   15.80
   3  -3   4   -1.20   14.00
  -3  -3   4  -17.40    9.90
  -3   3   4   14.90   17.90
   4   2  -4  210.28   81.39
  -2   4  -4  399.76   97.39
  -4  -2  -4  486.05   93.19
   4   2   4  365.46   91.39
  -4  -2   4  351.76   89.29
   2  -4   4  271.17   85.49
  -2   4   4  288.07   84.79
  -2   4   4  355.76   89.29
   0   4  -4  287.17   64.79
   0  -4  -4  150.58   52.89
  -4   0  -4  152.88   53.39
   4   0  -4  224.48   60.59
  -4   0   4  208.18   59.49
   0  -4   4  129.99   53.29
   4   0   4  229.88   59.89
   0   4   4  254.57   62.49
   2   4  -4  509.15  108.69
   4  -2  -4  513.15  113.99
  -4   2  -4  303.67  100.99
  -4   2   4  403.16  105.99
  -2  -4   4  335.67  102.69
   4  -2   4  406.46  103.89
   2   4   4  315.17   99.89
  -4  -4  -4  234.28   68.09
  -4   4  -4  182.68   66.49
   4   4  -4  253.17   69.99
   4   4   4  308.17   74.79
  -4   4   4  268.97   70.19
   4  -4   4  196.88   67.99
  -4  -4   4  219.48   67.49
  -4   4   4  405.06   92.29
   5   3  -4   13.70   17.50
  -3   5  -4   77.99   35.00
  -3   5   4   44.70   22.20
   5   3   4   -3.60   15.60
  -3   5   4   40.20   34.90
  -5  -3   4    5.60   15.80
   3  -5   4   48.40   23.10
  -1   5  -4    4.40   15.90
  -5  -1  -4   31.30   17.50
   5   1  -4   49.50   21.80
  -1   5   4    7.50   15.60
  -5  -1   4   77.49   27.10
  -1   5   4   48.00   31.20
   5   1   4   31.60   18.70
   1  -5   4   81.49   33.90
  -5   1  -4   70.99   27.50
   1   5  -4   14.80   18.00
   5  -1  -4   32.30   18.90
  -1  -5   4   36.60   23.20
   1   5   4   27.20   18.60
   1   5   4   69.69   35.00
  -5   1   4   39.20   20.30
   5  -1   4   19.30   15.50
  -3  -5  -4   37.00   17.40
  -5   3  -4   73.59   28.40
   3   5  -4   20.40   19.90
  -5   3   4   69.09   27.40
   5  -3   4   33.60   23.20
  -3  -5   4   48.00   21.90
   3   5   4   29.30   19.90
  -5   3   4   30.50   28.10
   5   5  -4  -24.10    8.70
  -5   5  -4   -0.90   13.00
   5  -5   4  -19.10   11.70
  -5  -5   4   -6.60   11.80
  -5   5   4   16.40   25.80
  -5   5   4   12.00   13.50
   5   5   4  -11.90   10.90
   6   4  -4  221.58   79.39
  -4   6  -4  294.57   82.19
   4  -6   4  245.48   82.49
   6   4   4  286.27   81.39
  -4   6   4  594.64  114.09
  -6  -4   4  302.87   84.69
  -4   6   4  430.66  100.29
   6   2  -4   39.00   27.80
  -2   6  -4  103.79   37.40
  -6  -2   4  191.38   50.69
  -2   6   4   85.99   31.50
   2  -6   4  335.77   77.49
   6   2   4  113.39   34.90
  -2   6   4   78.39   34.20
   6   0  -4   -7.90   13.20
   0   6  -4   10.70   16.10
  -6   0  -4   -2.40    8.40
   0  -6   4   14.00   15.70
  -6   0   4   27.80   21.50
   6   0   4   12.30   12.50
   0   6   4   23.50   23.10
   0   6   4  -10.70   15.30
   2   6  -4  106.29   37.10
  -6   2  -4   43.30   27.80
  -6   2   4  105.09   36.00
   6  -2   4  130.69   39.10
  -2  -6   4   54.89   27.90
  -6   2   4  117.99   35.00
   2   6   4  137.09   38.20
   2   6   4  114.09   35.60
   4   6  -4  399.76   86.29
  -6   4  -4  237.78   76.59
  -6   4   4  279.17   80.69
  -6   4   4  209.68   73.49
   4   6   4  327.27   79.79
   6  -4   4  210.48   75.59
   4   6   4  430.36   85.69
  -6   6  -4  879.41  244.58
   6   6  -4 1056.29  239.18
   6   6   4  957.30  238.28
  -6   6   4 1160.28  243.58
  -6  -6   4  891.81  237.98
   6  -6   4  877.81  243.48
  -6   6   4  888.91  245.08
   5  -7  -4   96.99   38.90
   7   5  -4   15.30   21.50
  -5   7  -4   44.30   25.80
  -7  -5  -4   53.69   24.90
   7   5   4   74.39   27.50
   5  -7   4   56.29   24.10
  -7  -5   4   26.30   21.70
  -5   7   4   95.59   34.90
  -3   7  -4   21.10   18.70
   7   3  -4   11.30   17.50
  -7  -3  -4   28.90   23.40
   3  -7   4  -15.00   12.50
  -3   7   4   -2.80   19.10
   7   3   4   -2.30   11.00
  -7  -3   4   30.10   19.20
  -3   7   4   46.40   22.00
   7   1  -4   10.10   14.00
  -1   7  -4   31.80   33.60
   1  -7   4    6.30   14.30
  -1   7   4   11.30   15.40
  -1   7   4   22.40   20.50
  -7  -1   4  -23.10    8.00
   7   1   4   24.20   17.50
   1   7  -4   48.20   20.80
   1   7   4   25.30   17.30
  -1  -7   4   82.69   44.90
   7  -1   4    0.50   12.30
   1   7   4   -6.10   15.00
   3   7  -4    3.30   15.40
  -7   3  -4   37.80   19.40
  -7   3   4   25.90   18.60
  -7   3   4   36.60   19.90
   3   7   4   22.00   16.80
   3   7   4  -16.00   14.20
   7  -3   4   58.69   27.50
   5   7  -4   54.59   20.50
  -7   5  -4   36.10   20.90
  -5  -7   4   44.30   19.20
  -7   5   4   73.29   31.70
   5   7   4   11.80   17.80
   7  -5   4   19.20   19.50
  -7   5   4   13.70   19.60
   5   7   4   37.80   20.40
  -7   7  -4    6.50   14.00
   7  -7  -4   -3.20   15.80
   7   7  -4  -12.80   10.10
   7  -7   4    2.20   13.60
   7   7   4   10.50   14.40
   7   7   4    5.10   13.20
  -7   7   4   11.20   17.10
  -7  -7   4    0.00   12.90
   8   6  -4 1138.59  276.37
   6  -8  -4 1207.38  281.17
  -6   8  -4 1170.18  279.77
  -8  -6  -4 1020.70  275.17
  -8  -6   4  997.90  275.57
   8   6   4 1152.28  276.07
   6  -8   4 1270.77  281.57
   4  -8  -4  835.22  189.78
  -4   8  -4  804.02  186.38
  -8  -4  -4  466.45  164.08
   8   4  -4  526.15  165.18
   8   4   4  667.03  168.48
  -8  -4   4  763.22  172.28
   4  -8   4  757.52  180.48
  -4   8   4 1195.18  206.88
   2  -8  -4  327.47   85.69
   8   2  -4  269.07   68.59
  -8  -2  -4  196.38   62.39
  -2   8  -4  193.88   65.49
   8   2   4  145.79   60.39
   2  -8   4  308.87   77.49
  -2   8   4  245.48   71.59
  -8  -2   4  272.37   68.29
   0   8  -4   10.60   17.00
   8   0  -4   62.19   22.40
  -8   0   4   30.20   20.90
   8   0   4   65.59   23.20
   0  -8   4    4.70   13.80
   0   8   4   27.90   24.20
   0   8   4   18.50   20.10
   2   8  -4  329.37   84.39
  -8   2   4  203.28   78.39
   2   8   4  319.27   83.59
   8  -2   4  254.27   79.09
   2   8   4  290.97   82.39
   4   8  -4  752.02  175.98
  -8   4  -4  567.64  171.38
   4   8   4  541.85  169.18
   4   8   4  697.83  173.98
  -4  -8   4  836.02  178.58
   8  -4   4  572.64  169.28
  -8   4   4  794.92  177.88
  -8   4   4  682.33  175.68
   6   8  -4 1218.78  293.07
   8  -6  -4 1505.45  303.27
  -8   6  -4 1169.08  294.07
   8  -6   4 1091.69  294.47
   6   8   4 1115.79  292.47
   6   8   4 1158.08  292.17
  -8   6   4 1139.49  295.37
  -6  -8   4 1233.08  293.57
   8  -8  -4  918.71  249.08
   8   8  -4  889.01  238.08
  -8   8  -4  978.40  249.68
  -8  -8   4  898.31  238.68
   8   8   4  889.61  238.18
   8  -8   4 1490.05  265.17
   8   8   4  987.10  247.78
  -8   8   4 1165.78  255.87
   9   7  -4  182.88   49.99
  -7   9  -4  178.68   56.89
   7  -9  -4  180.08   55.99
   9   7   4  201.78   54.89
   9   7   4  176.08   50.69
   7  -9   4  190.88   59.19
  -7   9   4   79.49   47.40
  -9  -7   4  164.08   49.99
   9   5  -4   -0.60   14.90
  -5   9  -4    1.80   37.70
  -9  -5  -4   15.50   14.00
   5  -9  -4    5.90   17.40
   9   5   4   -2.90   14.00
  -5   9   4   59.49   29.10
   5  -9   4    3.60   16.00
  -9  -5   4  -22.00    8.50
   3  -9  -4  191.78   63.19
  -3   9  -4  158.68   58.49
  -9  -3  -4  251.07   61.79
   9   3  -4  173.08   57.09
  -3   9   4  339.07   95.09
   3  -9   4  149.29   61.39
   9   3   4  195.48   60.09
  -9  -3   4  223.98   60.99
   9   1  -4  706.03  148.59
  -9  -1  -4  699.03  150.08
   1  -9  -4  891.81  170.78
  -1   9  -4  475.05  145.49
  -9  -1   4  584.64  145.09
  -1   9   4  461.65  144.79
   9   1   4  611.94  145.29
   1  -9   4  379.56  140.59
   1   9  -4  487.35  121.79
   9  -1   4  612.94  121.89
   1   9   4  296.77  113.59
   1   9   4  560.34  128.59
  -9   1   4  559.04  121.99
   3   9  -4  248.48   68.39
   9  -3   4  172.78   62.39
  -9   3   4  234.08   66.89
   3   9   4  157.18   62.59
   3   9   4  259.47   67.49
  -3  -9   4  209.98   65.59
  -9   5  -4   -9.50   12.60
   5   9  -4   12.70   16.80
   9  -5   4  -15.80   10.50
   5   9   4  -14.00   13.90
  -9   5   4  -12.00   13.80
   5   9   4   -1.80   16.20
  -5  -9   4  -10.20   12.40
  -9   5   4  -20.10    9.30
   7   9  -4  217.58   61.59
  -9   7  -4  132.09   54.29
   9  -7  -4  193.18   62.59
  -7  -9   4  222.28   61.29
   7   9   4  184.68   57.59
   9  -7   4  369.56   77.59
   7   9   4  159.38   56.79
  -9   7   4  168.98   59.09
   9  -9  -4   18.90   19.50
   9   9  -4  -16.50    7.60
  -9   9  -4   10.30   18.90
   9   9   4  -22.40    8.00
  -9  -9   4    0.40   13.90
   9   9   4   -9.10   13.60
  -9   9   4   -5.10   13.20
   9  -9   4   -0.20   10.70
   8 -10  -4 1268.87  247.68
  10   8  -4  878.91  218.98
  -8  10  -4 1139.59  237.58
  10   8   4  904.91  218.88
  10   8   4  851.11  218.98
 -10  -8   4  876.41  219.48
  -8  10   4  629.94  223.48
   6 -10  -4 1392.36  309.97
  -6  10  -4 1240.68  308.37
  10   6  -4 1269.97  303.97
 -10  -6  -4 1192.48  302.97
  10   6   4 1261.97  303.47
   6 -10   4 1266.27  308.97
 -10  -6   4 1067.49  302.77
  -6  10   4 1316.77  310.57
  -4  10  -4  789.82  171.98
 -10  -4  -4  652.53  160.08
  10   4  -4  518.05  157.68
   4 -10  -4  668.83  166.08
  10   4   4  688.13  161.38
   4 -10   4  501.45  157.28
 -10  -4   4  546.55  159.48
  -4  10   4  875.91  177.48
   2 -10  -4  353.46   91.59
 -10  -2  -4  198.38   59.49
  -2  10  -4  210.48   66.09
  10   2  -4  143.89   57.69
  -2  10   4  241.18   67.79
  10   2   4  266.27   63.39
 -10  -2   4  201.68   62.39
   2 -10   4  168.08   61.89
   0  10  -4  133.79   40.30
   0 -10  -4  186.58   61.29
 -10   0  -4   66.19   30.90
   0 -10   4   86.49   42.70
   0  10   4  213.18   74.69
 -10   0   4   58.59   30.20
 -10   0   4  122.09   34.70
  10   0   4   75.29   30.00
   2  10  -4  185.88   65.69
  10  -2   4  229.78   66.29
  -2 -10   4  174.68   64.49
 -10   2   4  212.88   69.19
   2  10   4  342.57   77.99
   4  10  -4  631.34  164.38
 -10   4   4  553.44  159.98
   4  10   4  507.65  158.08
   4  10   4  714.43  168.38
  10  -4   4  663.83  167.08
  -4 -10   4  959.30  177.88
   6  10  -4 1090.89  288.77
 -10   6  -4 1281.87  291.27
  10  -6  -4 1051.49  290.07
 -10   6   4 1351.36  293.97
  10  -6   4 1136.19  290.87
  -6 -10   4 1354.56  291.57
   6  10   4  986.20  287.37
   6  10   4 1231.68  290.57
 -10   8  -4 1011.60  240.38
  10  -8  -4  926.21  237.48
   8  10  -4  877.31  229.28
   8  10   4  936.81  240.38
  -8 -10   4  955.10  230.28
 -10   8   4  728.23  231.38
   8  10   4  968.00  230.48
  10  -8   4 1103.59  246.18
  10  10  -4  867.41  212.98
 -10  10  -4  915.31  227.78
  10 -10  -4  957.70  232.38
  10  10   4  799.12  212.08
 -10 -10   4  829.12  217.28
  10 -10   4  842.72  225.18
  10  10   4  827.12  216.28
 -10  10   4  916.01  232.78
  -9  11  -4  220.98   51.59
   9 -11  -4   87.79   39.20
  11   9  -4  117.49   37.80
   9 -11   4  183.38   53.39
  11   9   4  108.59   35.80
 -11  -9   4  143.19   40.90
  11   9   4   98.99   34.00
  -9  11   4   17.30   30.80
  -7  11  -4   38.80   24.40
   7 -11  -4   56.49   41.50
  11   7  -4   40.90   19.20
  11   7   4   30.30   16.10
   7 -11   4    1.30   10.90
  11   7   4   18.70   15.30
  -7  11   4   -3.00   16.20
 -11  -7   4   -5.00   12.00
   5 -11  -4  126.79   45.90
 -11  -5  -4   87.49   37.90
  11   5  -4  111.39   43.70
  -5  11  -4  129.49   53.49
   5 -11   4   95.89   38.30
  -5  11   4  237.58   70.89
 -11  -5   4  106.09   39.40
  11   5   4  153.38   41.10
  -3  11  -4   -1.10   15.70
  11   3  -4   -8.00   10.20
 -11  -3  -4  -18.10    9.00
   3 -11  -4    8.80   19.40
  -3  11   4   16.50   21.20
 -11  -3   4    7.40   16.40
  11   3   4   -6.00   11.10
   3 -11   4   -4.40   19.00
   1 -11  -4   68.19   30.30
 -11  -1  -4   47.30   25.50
  -1  11  -4   25.70   21.80
 -11  -1   4   57.79   25.30
   1 -11   4   74.79   33.40
 -11  -1   4   71.29   24.60
  -1  11   4   77.69   38.60
 -11   1  -4   60.89   24.90
  -1 -11  -4   56.39   31.70
   1  11  -4   99.39   37.90
   1  11   4   41.30   24.20
  -1 -11   4  110.79   39.00
 -11   1   4   37.70   24.00
  11  -1   4   59.99   25.30
 -11   1   4   38.60   23.10
   3  11  -4   -7.60   12.20
  11  -3   4   12.00   15.10
  -3 -11   4  -15.60    9.50
 -11   3   4   13.20   15.20
   3  11   4    4.10   15.40
   5  11  -4  144.19   39.50
  11  -5   4  110.29   39.10
 -11   5   4   31.80   22.30
   5  11   4   71.29   29.00
  -5 -11   4  105.09   32.60
   5  11   4   95.19   29.70
 -11   5   4   22.90   23.30
  11  -7  -4   50.19   24.10
 -11   7  -4  -14.90   13.50
   7  11  -4   14.00   15.10
 -11   7   4  -14.20   12.70
   7  11   4   28.00   19.20
  -7 -11   4   22.00   16.00
   7  11   4   36.70   22.20
  11  -7   4   23.90   18.60
 -11   9  -4  168.58   52.69
   9  11  -4  135.39   40.30
  11  -9  -4   28.50   31.70
  -9 -11   4   99.89   36.20
 -11   9   4  131.99   39.60
   9  11   4   88.49   34.60
   9  11   4  102.49   38.00
  11  -9   4  131.39   52.09
  11 -11  -4  -12.40   12.00
 -11  11  -4   10.90   17.70
  11  11  -4   -0.90   12.80
  11  11   4   23.70   17.60
  11 -11   4   -2.90   12.40
 -11  11   4   34.40   35.00
 -11 -11   4   -9.00   10.90
  11  11   4   -1.70   13.60
  10 -12  -4  344.47   89.19
  12  10  -4  261.47   76.99
 -10  12  -4  285.87   85.99
  12  10   4  303.37   80.49
  10 -12   4  209.98   77.09
  12  10   4  286.47   79.29
 -12 -10   4  343.37   82.79
 -10  12   4  223.48   79.29
  12   8  -4  396.96  105.89
  -8  12  -4  472.85  117.79
   8 -12  -4  723.03  142.39
  -8  12   4  393.86  114.09
 -12  -8   4  455.25  107.69
  12   8   4  558.04  109.49
  12   8   4  344.87  102.29
   8 -12   4  212.08   99.99
 -12  -6  -4  589.04  157.48
  -6  12  -4  554.84  166.28
  12   6  -4  567.24  157.48
   6 -12  -4 1085.19  195.68
  12   6   4  646.24  158.58
 -12  -6   4  605.54  158.48
  -6  12   4  445.46  161.08
   6 -12   4  885.81  181.58
 -12  -4  -4  538.05  107.89
   4 -12  -4  322.17  105.79
  -4  12  -4  338.47  101.89
  12   4  -4  318.87   97.89
  12   4   4  371.06  100.89
  -4  12   4  408.16  110.79
 -12  -4   4  364.76   99.69
 -12  -2  -4  263.07   67.69
  -2  12  -4  367.36   90.39
   2 -12  -4  170.68   66.89
 -12  -2   4  261.67   66.49
   2 -12   4  194.98   63.89
  -2  12   4  168.08   64.19
  12   2   4  201.68   62.29
 -12  -2   4  238.28   66.39
   0 -12  -4  344.17  104.19
   0  12  -4  954.80  153.78
 -12   0  -4  404.16  101.79
 -12   0   4  342.27  100.29
 -12   0   4  402.26  102.79
   0 -12   4  378.16  107.19
   0  12   4  287.87   97.49
  12   0   4  312.47   96.99
  -2 -12  -4  306.67   81.69
   2  12  -4  301.67   80.29
 -12   2  -4  184.98   68.09
  12  -2   4  257.37   73.39
 -12   2   4  192.58   70.39
  -2 -12   4  329.97   83.99
 -12   2   4  286.87   78.09
   2  12   4  239.38   76.49
   4  12  -4  462.75  117.69
  -4 -12  -4  427.26  116.09
   4  12   4  401.06  115.29
  12  -4   4  460.25  119.39
 -12   4   4  406.16  113.09
  -4 -12   4  351.46  111.89
   6  12  -4  512.55  134.89
  12  -6  -4  372.46  134.69
  -6 -12   4  727.53  148.09
   6  12   4  635.44  142.39
   6  12   4  550.34  139.19
  12  -6   4  440.26  135.59
 -12   8  -4  324.27  100.99
   8  12  -4  292.07  100.29
  12  -8  -4  425.96  110.79
   8  12   4  336.37  103.49
 -12   8   4  397.86  111.79
  -8 -12   4  444.16  109.89
  12  -8   4  469.55  116.99
   8  12   4  444.36  107.09
 -12  10  -4  191.08   73.89
  10  12  -4  339.57   81.29
  12 -10  -4  321.87   84.19
  12 -10   4  182.68   73.49
 -10 -12   4  313.47   79.19
  10  12   4  301.87   78.39
 -12  10   4  366.06   91.99
  10  12   4  242.58   74.39
  12 -12  -4  499.85  101.49
 -12  12  -4  438.66  107.89
  12  12  -4  177.28   71.89
 -12  12   4  215.58   76.79
  12 -12   4  357.86   95.79
  12  12   4  250.57   74.99
  12  12   4  319.37   79.59
 -12 -12   4  260.77   76.29
  13  11  -4   25.40   16.50
  11 -13  -4   63.49   31.00
 -11  13  -4   -4.90   17.50
  13  11   4   42.10   23.40
  11 -13   4  141.79   50.59
 -13 -11   4   31.40   19.20
  13  11   4   53.99   21.50
 -11  13   4   37.10   33.30
  -9  13  -4   22.10   22.30
  13   9  -4   13.70   16.00
   9 -13  -4   -8.20   16.00
 -13  -9   4    2.60   13.70
   9 -13   4   29.80   28.90
  -9  13   4   -7.50   16.00
  13   9   4   18.90   14.80
  13   9   4   -3.10   13.60
   7 -13  -4   61.39   36.10
  -7  13  -4  239.38   79.69
  13   7  -4   60.69   25.90
  13   7   4   72.99   26.10
  -7  13   4  143.19   58.99
   7 -13   4   36.90   24.80
 -13  -7   4   40.50   22.90
  13   7   4   40.80   22.00
   5 -13  -4   20.50   31.40
 -13  -5  -4   48.50   21.40
  13   5  -4    4.00   11.80
  -5  13  -4   40.20   42.20
 -13  -5   4   -3.80   11.60
   5 -13   4   16.00   47.90
  -5  13   4  -19.80   12.40
  13   5   4  -10.40    7.80
   3 -13  -4   11.30   30.50
  -3  13  -4   27.50   20.90
 -13  -3  -4   23.10   16.40
 -13  -3   4   27.90   16.30
 -13  -3   4  -21.20    8.10
  13   3   4   14.60   14.60
  -3  13   4   19.00   21.30
   3 -13   4    7.80   16.90
  -1  13  -4    2.50   23.20
 -13  -1  -4   30.00   17.70
   1 -13  -4   -6.90   24.40
   1 -13   4   36.80   20.80
 -13  -1   4   43.60   20.70
  13   1   4   29.40   16.80
 -13  -1   4   19.50   16.10
  -1  13   4  -22.20   10.10
 -13   1  -4   15.10   17.00
   1  13  -4   26.70   23.80
  -1 -13  -4   19.60   24.00
 -13   1   4   12.40   19.00
  -1 -13   4  105.39   58.59
   1  13   4   -2.50   20.90
  13  -1   4   60.29   26.00
 -13   1   4   15.80   16.90
  -3 -13  -4    1.40   15.10
 -13   3  -4   -2.10   12.10
   3  13  -4   -2.00   15.30
  13  -3   4    4.10   12.80
   3  13   4    5.60   19.30
 -13   3   4    2.30   14.00
  -3 -13   4    4.80   14.90
 -13   3   4  -12.60   12.90
   5  13  -4   -4.70   12.90
  -5 -13  -4   15.30   18.00
   5  13   4   38.50   24.70
  -5 -13   4  -14.70    7.80
  13  -5   4   22.20   21.30
  13  -7  -4   40.20   31.40
   7  13  -4  113.39   35.80
  13  -7   4   69.09   32.70
   7  13   4  120.59   41.30
  -7 -13   4  123.09   37.80
   7  13   4   79.99   34.30
  13  -9  -4   11.70   17.60
 -13   9  -4   19.30   20.40
   9  13  -4    1.90   13.20
 -13   9   4   35.00   33.20
   9  13   4    1.30   14.60
   9  13   4   -0.50   15.90
  -9 -13   4   -4.00   13.00
  13  -9   4   -4.30   10.90
 -13  11  -4   32.90   25.90
  13 -11  -4   53.29   27.50
  11  13  -4   99.69   31.40
 -11 -13   4   61.29   29.00
  13 -11   4    9.80   23.60
  11  13   4   62.09   28.30
  11  13   4   96.89   34.50
 -13  11   4   43.70   25.80
  13 -13  -4   -8.10   15.00
  13  13  -4   11.00   15.00
 -13  13  -4   -0.90   18.60
  13  13   4    9.20   15.70
  13 -13   4    3.70   24.60
 -13  13   4   -4.50   16.10
  13  13   4   52.69   22.20
 -13 -13   4    6.40   15.30
  12 -14  -4  122.09   64.39
  14  12  -4  181.48   53.49
 -12  14  -4  117.19   55.89
  14  12   4  183.68   52.49
 -14 -12   4  138.69   49.20
 -12  14   4  613.84  144.99
  12 -14   4  124.49   59.59
  14  12   4  193.88   53.29
  10 -14  -4  133.59   51.59
 -10  14  -4  194.48   62.09
  14  10  -4   50.29   29.80
 -10  14   4   67.29   47.40
  14  10   4  120.49   37.10
 -14 -10   4   73.39   31.10
  10 -14   4  115.79   49.20
  14  10   4   89.19   32.10
  -8  14  -4  130.19   62.69
  14   8  -4  197.68   58.89
   8 -14  -4  340.77   91.49
  14   8   4  278.77   63.19
  -8  14   4  245.58   80.79
   8 -14   4  259.37   77.59
 -14  -8   4  191.28   58.29
  14   8   4  137.79   54.69
   6 -14  -4  317.47   94.09
  14   6  -4  220.18   69.39
 -14  -6  -4  252.07   71.29
  -6  14  -4  286.77   83.69
 -14  -6   4  312.47   75.19
  -6  14   4  170.68   73.09
  14   6   4  264.07   71.99
 -14  -4  -4  247.78   69.49
   4 -14  -4  384.46   87.79
  -4  14  -4  180.08   69.99
  -4  14   4  395.86   96.19
  14   4   4  281.67   70.79
 -14  -4   4  222.38   69.69
 -14  -4   4  299.07   72.59
   4 -14   4  137.59   70.19
 -14  -2  -4  247.58   71.09
   2 -14  -4  165.18   70.09
  -2  14  -4  468.95  111.09
 -14  -2   4  223.38   68.79
  14   2   4  201.08   67.39
 -14  -2   4  278.97   71.79
   2 -14   4  497.45  106.39
  -2  14   4  247.88   81.99
 -14   0  -4  213.68   81.19
   0  14  -4  341.97   87.29
   0 -14  -4  377.56   93.39
 -14   0   4  304.77   86.39
  14   0   4  358.46   89.79
   0  14   4  409.86   98.99
   0 -14   4  250.77   87.09
 -14   0   4  294.97   87.59
 -14   2  -4  259.47   77.39
  -2 -14  -4  272.07   81.89
   2  14  -4  223.68   74.89
  -2 -14   4  424.36   96.39
  14  -2   4  300.17   79.99
 -14   2   4  274.77   79.19
   2  14   4  341.07   92.19
 -14   2   4  215.58   75.89
  -4 -14  -4  306.87   78.79
 -14   4  -4  315.87   77.59
   4  14  -4  285.37   75.09
 -14   4   4  197.08   69.69
  14  -4   4  312.47   79.29
   4  14   4  137.09   64.99
  -4 -14   4  248.68   72.49
 -14   4   4  295.97   78.69
  -6 -14  -4  108.49   49.50
  14  -6  -4  178.88   55.29
   6  14  -4  136.09   53.39
   6  14   4  284.57   70.89
  14  -6   4  236.98   62.69
  -6 -14   4  152.38   50.39
  14  -8  -4  170.28   63.09
   8  14  -4  216.18   67.29
   8  14   4  255.67   70.09
   8  14   4  227.68   62.89
 -14   8   4  248.98   70.39
  -8 -14   4  219.08   66.29
  14  -8   4  123.59   57.69
  14 -10  -4   41.70   28.20
  10  14  -4   83.39   31.00
 -14  10  -4   62.89   32.30
 -10 -14   4   55.19   28.60
  14 -10   4   72.59   34.00
  10  14   4   41.80   26.10
  10  14   4  102.09   33.10
  12  14  -4  241.28   52.39
  14 -12  -4  110.29   49.30
 -14  12  -4  136.09   50.29
 -14  12   4  152.68   57.29
 -12 -14   4   89.49   40.50
  12  14   4  172.28   48.80
  14 -12   4   71.79   39.80
  12  14   4  166.68   48.50
  14 -14  -4  117.29   45.40
  14  14  -4  112.09   38.80
 -14  14  -4  124.29   45.30
  14  14   4   97.09   38.40
  14 -14   4  102.49   44.70
  14  14   4  118.59   38.10
 -14 -14   4   71.59   34.70
 -14  14   4  219.68   70.99
  15  13  -4    4.00   13.60
  13 -15  -4    0.70   17.40
 -13  15  -4   32.70   21.10
  15  13   4   -6.40    9.30
 -15 -13   4    8.30   14.90
 -13  15   4   48.40   32.70
  15  13   4    6.60   11.90
  13 -15   4   29.80   28.00
  11 -15  -4   17.40   24.20
 -11  15  -4   -7.40   12.80
  15  11  -4    9.30   12.50
 -15 -11   4    9.90   15.90
 -11  15   4  -18.80   16.90
  15  11   4   53.29   19.00
  15  11   4   -0.50   11.00
  11 -15   4    1.60   20.90
   9 -15  -4    1.80   19.60
  15   9  -4   -5.30    9.40
  -9  15  -4   17.40   20.20
 -15  -9   4    1.40   10.90
  -9  15   4   -3.10   23.60
  15   9   4   33.80   17.10
   9 -15   4    9.50   16.40
  15   9   4   -5.10   13.70
   7 -15  -4  -17.40   13.80
  -7  15  -4    6.00   18.30
  15   7  -4   50.09   19.70
  15   7   4    4.70   12.70
  15   7   4   12.10   14.20
 -15  -7   4    3.70   12.70
   7 -15   4  -13.00   12.90
  -7  15   4   13.70   23.30
   5 -15  -4  -16.10   14.30
 -15  -5  -4    3.10   14.10
  -5  15  -4  -12.30   12.20
   5 -15   4    1.00   14.10
  -5  15   4   14.10   29.40
  15   5   4   -9.80    9.60
 -15  -5   4   -2.00   13.30
 -15  -5   4    3.20   11.70
  -3  15  -4   19.20   21.00
   3 -15  -4   -3.20   16.40
 -15  -3  -4  -10.50   10.00
 -15  -3   4    2.10   12.50
   3 -15   4    7.70   19.20
  -3  15   4   -0.80   14.20
  15   3   4    1.00   10.70
 -15  -3   4  -11.00   10.30
  -1  15  -4   26.70   22.40
   1 -15  -4  -22.30   14.30
 -15  -1  -4    4.50   11.50
 -15  -1   4    8.70   14.30
  -1  15   4    7.10   19.40
  15   1   4   31.80   17.40
 -15  -1   4   23.50   19.40
   1 -15   4   -9.00    7.70
  -1 -15  -4   46.70   26.00
   1  15  -4   -2.60   20.30
 -15   1  -4   -4.50   13.70
 -15   1   4   22.80   18.00
 -15   1   4   17.90   17.60
  -1 -15   4   -1.20   10.90
  15  -1   4    5.20   13.30
  -3 -15  -4  -22.30    9.60
 -15   3  -4  -10.00    9.10
   3  15  -4    4.50   14.90
 -15   3   4  -16.00    9.90
  15  -3   4   -5.30   11.90
   3  15   4   22.00   20.90
  -3 -15   4    6.10   14.90
 -15   3   4    9.60   13.90
  -5 -15  -4   27.70   20.30
   5  15  -4   16.60   17.90
 -15   5  -4   -9.60   11.20
 -15   5   4    0.30   12.10
  15  -5   4  -10.80    8.80
   5  15   4    5.50   15.90
 -15   5   4   25.10   18.80
  -5 -15   4  -13.00    8.70
  15  -7  -4   11.80   17.50
   7  15  -4  -13.00    9.30
   7  15   4   37.60   23.10
  15  -7   4   18.80   18.20
  -7 -15   4    6.10   13.10
  15  -9  -4   19.50   20.80
 -15   9  -4   -5.30    8.70
   9  15  -4   -7.20   13.40
  15  -9   4   38.10   22.50
   9  15   4    8.90   14.10
 -15   9   4    1.80   15.10
   9  15   4   -7.30   13.20
  -9 -15   4  -12.90   11.00
  15 -11  -4   10.70   22.90
  11  15  -4   -2.40   11.80
 -15  11   4   21.30   21.90
  15 -11   4   30.20   25.90
 -11 -15   4   18.30   18.60
  11  15   4   -8.70   11.40
  11  15   4   -5.30    9.40
  13  15  -4   25.30   17.30
  15 -13  -4   27.40   25.20
 -15  13  -4   20.10   21.70
  15 -13   4  -11.60   13.80
  13  15   4   27.70   18.40
 -15  13   4   38.30   24.50
 -13 -15   4   11.50   17.60
  13  15   4   34.10   18.30
  15 -15  -4  -20.20   15.40
 -15  15  -4  -11.30   14.20
  15  15  -4  -10.00   11.70
  15  15   4   -0.80   14.10
  15  15   4   -1.20   11.00
  15 -15   4  -11.80   17.90
 -15  15   4   -9.90   16.30
  16  14  -4   94.49   34.70
 -14  16  -4  106.29   42.70
  14 -16  -4  202.38   57.09
 -14  16   4  112.19   58.19
  16  14   4   90.29   33.80
  14 -16   4   54.19   36.00
  16  14   4   83.39   34.40
  12 -16  -4  167.88   57.09
 -12  16  -4  129.69   57.19
  16  12  -4  132.29   42.30
  12 -16   4   68.49   49.00
  16  12   4  131.29   39.90
  16  12   4  101.39   38.00
 -12  16   4   68.39   60.89
 -16 -12   4  107.69   38.30
  16  10  -4   13.50   15.90
 -10  16  -4  -15.80   20.60
  10 -16  -4  -21.50   15.10
 -10  16   4  -11.90   19.40
  16  10   4   22.60   15.40
  16  10   4   -5.10   11.30
  10 -16   4   31.40   28.40
 -16 -10   4   39.40   21.90
  16   8  -4   82.69   26.40
   8 -16  -4   92.19   39.50
  -8  16  -4   51.69   29.70
  16   8   4   54.59   23.50
   8 -16   4   17.00   25.60
  16   8   4   43.80   21.20
 -16  -8   4   38.40   22.10
  -8  16   4   37.80   29.40
 -16  -6  -4   37.00   22.90
  -6  16  -4  140.19   45.00
   6 -16  -4   75.39   36.00
   6 -16   4   51.89   41.60
 -16  -6   4   83.19   27.10
  16   6   4   50.19   21.10
 -16  -6   4   15.50   18.80
  -6  16   4   24.40   23.20
   4 -16  -4  128.59   49.99
  -4  16  -4   31.20   34.80
 -16  -4  -4  157.88   41.80
   4 -16   4  213.68   66.59
  -4  16   4   84.29   50.09
 -16  -4   4  130.69   38.90
  16   4   4  122.99   36.70
 -16  -4   4   75.89   35.00
   2 -16  -4  663.73  122.89
 -16  -2  -4  217.88   66.09
  -2  16  -4  367.96  106.09
 -16  -2   4  216.88   67.19
   2 -16   4  210.48   72.19
 -16  -2   4  236.98   67.09
  16   2   4  183.88   64.59
  -2  16   4  210.08   71.49
   0  16  -4  213.88   79.99
   0 -16  -4  280.87   75.59
 -16   0  -4  176.48   61.59
 -16   0   4  286.17   70.59
  16   0   4  195.98   62.29
 -16   0   4  144.69   59.99
   0  16   4  270.17   75.69
   0 -16   4  259.57   75.09
   2  16  -4  205.88   54.79
  -2 -16  -4  209.28   60.89
 -16   2  -4  146.19   48.80
  16  -2   4  193.08   53.99
 -16   2   4  206.88   54.39
   2  16   4   92.19   47.00
 -16   2   4  151.08   51.29
  -2 -16   4  109.09   46.40
 -16   4  -4   78.39   32.00
  -4 -16  -4  153.38   44.10
   4  16  -4  128.39   44.60
 -16   4   4   51.89   29.70
  -4 -16   4   53.99   27.40
 -16   4   4   91.29   38.70
  16  -4   4  113.89   41.30
   4  16   4   61.19   32.30
  -6 -16  -4  104.49   38.70
  16  -6  -4   53.59   29.40
   6  16  -4   57.49   29.90
   6  16   4   80.09   37.10
 -16   6   4  135.89   43.40
  -6 -16   4   19.80   26.70
  16  -6   4   96.09   36.90
  16  -8  -4   47.60   27.80
   8  16  -4   60.59   28.90
  -8 -16   4   53.29   26.70
  16  -8   4   47.60   31.90
   8  16   4   68.49   30.10
  10  16  -4   58.99   26.00
 -16  10  -4   10.60   16.10
  16 -10  -4   34.00   25.60
 -16  10   4    1.60   19.00
 -10 -16   4   -5.70   10.60
  10  16   4   20.00   18.70
  16 -10   4    7.50   19.80
  10  16   4   57.59   26.50
  16 -12  -4   73.39   41.60
 -16  12  -4  131.39   54.39
  12  16  -4   69.49   34.00
 -12 -16   4  191.98   52.29
  12  16   4  113.49   41.10
  12  16   4  115.19   38.70
  16 -12   4   84.19   44.10
 -16  12   4  103.29   50.39
 -16  14  -4  135.59   46.20
  14  16  -4   81.09   33.00
  16 -14  -4   93.39   43.00
  14  16   4   75.09   32.30
 -16  14   4  146.99   59.99
  16 -14   4   81.09   44.70
 -14 -16   4  100.29   40.70
  14  16   4   49.70   29.00
  16  16  -4   92.19   38.40
  16 -16  -4   91.19   47.30
 -16  16  -4   88.99   42.10
  16  16   4  159.98   43.20
  16 -16   4  202.68   72.49
 -16 -16   4   61.19   35.50
  16  16   4  138.89   41.40
 -16  16   4  104.79   51.79
  15 -17  -4    7.10   24.50
 -15  17  -4    3.00   21.10
  17  15  -4   -1.30   13.80
  15 -17   4  -12.90   12.80
  17  15   4   11.90   14.70
  17  15   4   -8.90   11.00
 -15  17   4    9.60   30.00
 -17 -15   4  -16.70   10.20
  17  13  -4   15.40   17.50
 -13  17  -4  -15.40   18.60
  13 -17  -4    8.50   25.90
  17  13   4   11.90   13.80
 -13  17   4  -22.70   18.80
  13 -17   4    4.40   27.20
  17  13   4  -15.50   12.20
 -17 -13   4    4.70   20.60
  17  11  -4   -4.70   12.70
 -11  17  -4  -12.20   15.90
  11 -17  -4  -20.20   14.60
 -11  17   4   57.99   35.00
  17  11   4    3.40   12.10
 -17 -11   4   -8.60    9.90
  17  11   4   15.30   13.80
   9 -17  -4    7.80   19.70
  17   9  -4   -9.00   11.50
  -9  17  -4   21.90   30.90
  17   9   4   13.70   11.40
   9 -17   4  -15.50   10.40
  -9  17   4  -19.30   16.60
 -17  -9   4   -3.60    9.90
  17   9   4    3.50   14.00
  -7  17  -4   24.20   25.70
   7 -17  -4   15.30   21.40
 -17  -7   4   28.60   19.10
  17   7   4   36.90   20.10
  -7  17   4   50.29   38.40
   7 -17   4   40.90   31.70
 -17  -7   4   21.90   30.90
  17   7   4   31.20   17.40
 -17  -5  -4   -7.90   11.20
  -5  17  -4   -1.80   15.50
   5 -17  -4  -23.20   12.70
  17   5   4   15.60   13.90
 -17  -5   4   10.30   13.50
  -5  17   4    1.20   20.70
 -17  -5   4   18.00   15.30
   5 -17   4   22.00   21.50
   3 -17  -4    4.60   17.60
 -17  -3  -4    0.60   13.00
  -3  17  -4   37.10   23.10
  -3  17   4   11.70   27.30
  17   3   4   -3.80   12.20
   3 -17   4  -10.50   13.90
 -17  -3   4   -1.20   14.20
 -17  -3   4    9.20   17.40
   1 -17  -4   76.99   38.30
  -1  17  -4  325.17   93.89
 -17  -1  -4   77.49   33.70
   1 -17   4  124.39   41.50
  -1  17   4   18.70   33.70
 -17  -1   4  112.79   38.40
 -17  -1   4  107.89   34.60
  17   1   4   70.59   33.50
 -17   1  -4  140.49   40.20
  -1 -17  -4  119.29   47.00
   1  17  -4   76.29   38.60
 -17   1   4   64.59   32.40
 -17   1   4   86.89   37.60
  -1 -17   4  151.68   53.29
  17  -1   4   80.59   35.60
   1  17   4  142.39   52.39
  -3 -17  -4   -6.60   12.60
   3  17  -4   23.30   21.30
 -17   3  -4   -6.90   11.70
 -17   3   4  -12.40    9.70
 -17   3   4   -6.00   11.00
   3  17   4  -11.60   17.00
  -3 -17   4   -2.50   15.40
  17  -3   4    4.90   12.20
 -17   5  -4   10.50   17.40
  -5 -17  -4   -4.60   11.90
   5  17  -4    5.10   15.80
 -17   5   4   -2.70   14.20
  -5 -17   4    9.50   15.70
   5  17   4  -21.50   11.80
  17  -5   4    5.60   10.50
 -17   5   4   26.00   22.10
  -7 -17  -4   43.30   27.30
 -17   7  -4   12.40   22.60
  17  -7  -4   46.80   28.60
   7  17  -4   51.79   27.40
  -7 -17   4   33.50   24.50
 -17   7   4   27.00   23.50
  17  -7   4   49.70   23.20
   7  17   4   30.30   24.00
  17  -9  -4    6.00   17.10
   9  17  -4   -1.50   16.30
  17  -9   4   54.59   29.00
  -9 -17   4   -8.80   13.70
   9  17   4  -10.60   12.30
  17 -11  -4   18.00   20.90
  11  17  -4   -5.00   14.10
 -17  11  -4   -9.70    9.70
  11  17   4   -3.40   14.50
  11  17   4   -5.00   11.60
 -11 -17   4   -7.20   12.80
  17 -11   4    5.80   14.90
 -17  11   4   -6.60   13.50
  17 -13  -4    0.70   18.70
 -17  13  -4   -3.00   19.60
  13  17  -4    6.20   16.00
 -17  13   4   -0.90   23.60
 -13 -17   4    8.20   17.00
  17 -13   4   -5.70   18.30
  13  17   4    8.60   16.00
  13  17   4  -14.20    9.40
  15  17  -4   44.80   22.70
 -17  15  -4    2.20   19.30
  17 -15  -4   16.90   25.00
  15  17   4   -2.80   13.60
  17 -15   4  -20.40   17.10
  15  17   4    6.50   16.10
 -17  15   4  -17.30   20.20
 -15 -17   4   30.90   24.40
  17  17  -4    8.10   18.00
  14 -18  -4  110.79   42.50
 -14  18  -4   41.50   32.50
  18  14  -4   56.69   25.90
  18  14   4   41.70   21.40
  14 -18   4   45.80   37.40
 -14  18   4  114.19   43.50
 -18 -14   4   28.00   20.20
  18  12  -4   40.10   20.70
  12 -18  -4   48.20   35.10
 -12  18  -4   17.70   29.80
  18  12   4   52.29   22.00
 -12  18   4   72.79   49.20
  12 -18   4   23.70   37.50
  18  12   4   23.00   18.70
  10 -18  -4   46.80   29.70
 -10  18  -4   36.50   29.00
  18  10  -4   17.80   15.20
 -10  18   4  -18.50   20.00
  18  10   4   20.20   13.80
 -18 -10   4   40.60   18.70
  18  10   4   15.30   15.70
  10 -18   4   19.70   19.80
   8 -18  -4   10.00   30.60
  -8  18  -4   52.19   31.60
 -18  -8   4   86.59   25.10
  -8  18   4  -10.80   20.30
 -18  -8   4   41.40   21.50
  18   8   4   60.19   23.70
  18   8   4   82.79   24.30
   8 -18   4   44.80   31.90
  -6  18  -4   60.69   30.40
   6 -18  -4   80.19   40.00
 -18  -6  -4   80.99   26.70
  18   6   4   59.99   23.90
  -6  18   4  170.88   65.19
 -18  -6   4   52.69   25.50
 -18  -6   4   19.00   21.80
   6 -18   4   88.39   35.80
  -4  18  -4  137.49   62.39
   4 -18  -4  125.29   45.70
   4 -18   4   59.69   42.20
 -18  -4   4   95.19   37.30
  -4  18   4   37.40   65.59
 -18  -4   4  110.19   37.80
  18   4   4  140.09   40.60
 -18  -2  -4   77.79   34.10
   2 -18  -4  104.49   42.30
  -2  18  -4  110.89   42.70
 -18  -2   4   49.00   30.70
   2 -18   4  125.69   49.80
 -18  -2   4   79.59   35.70
  -2  18   4  138.19   60.49
  18   2   4  141.09   37.90
 -18   0  -4   84.59   29.80
   0 -18  -4   96.99   35.90
   0  18  -4   -0.80   19.50
   0  18   4   31.80   27.60
  18   0   4  102.09   31.70
   0 -18   4  111.79   45.60
 -18   0   4  198.18   44.90
 -18   0   4   49.60   25.60
  -2 -18  -4  146.09   44.30
 -18   2  -4   50.99   29.80
   2  18  -4  136.39   48.80
  18  -2   4   50.59   30.10
   2  18   4  107.59   52.29
 -18   2   4  133.29   41.90
  -2 -18   4  112.59   46.00
 -18   2   4   94.19   37.10
   4  18  -4   87.09   40.20
 -18   4  -4  102.79   36.90
  -4 -18  -4  103.79   39.30
  -4 -18   4   89.89   35.20
  18  -4   4   82.29   38.10
 -18   4   4   43.20   27.50
   4  18   4   55.89   30.90
 -18   4   4   98.99   33.60
 -18   6  -4   42.20   25.40
   6  18  -4   51.19   29.90
  -6 -18  -4   74.89   29.70
  18  -6   4   59.29   27.40
  -6 -18   4   36.20   23.70
   6  18   4   34.20   28.10
 -18   6   4   50.29   25.30
   8  18  -4   18.00   17.10
 -18   8  -4   -5.20   14.90
  -8 -18  -4    5.30   17.00
  18  -8  -4   10.70   18.50
  -8 -18   4   17.30   20.20
   8  18   4  -10.80   13.00
  18  -8   4   25.00   19.70
 -18   8   4   87.59   39.60
  18 -10  -4   14.70   22.50
  10  18  -4   -1.00   15.50
  10  18   4   59.79   25.30
  10  18   4    4.10   13.90
  18 -10   4   -8.00   17.60
 -10 -18   4  -19.20   11.30
  12  18  -4   10.80   20.20
 -18  12  -4   10.60   22.50
  18 -12  -4    9.60   19.70
  18 -12   4   28.50   29.10
 -12 -18   4   46.30   24.60
  12  18   4   34.50   22.00
 -18  12   4   -9.30   18.90
  12  18   4   -9.10   13.10
  18 -14  -4   64.39   35.00
 -18  14  -4   66.39   36.20
  14  18  -4   74.99   36.00
 -18  14   4   16.30   29.90
 -14 -18   4   37.90   29.30
  14  18   4   70.69   29.80
  14  18   4   51.69   31.40
  18 -14   4   64.99   40.90
  13 -19  -4   -4.40   21.00
 -13  19  -4   -9.10   18.70
  19  13  -4   29.10   16.00
  19  13   4   11.20   12.90
  19  13   4    6.70   13.40
 -13  19   4   20.90   23.40
  13 -19   4   11.90   19.30
 -19 -13   4   11.90   14.80
  11 -19  -4    0.80   19.70
 -11  19  -4  -19.00   19.20
 -19 -11   4   28.50   29.80
  19  11   4    8.30   11.80
  11 -19   4   -7.10   21.20
 -11  19   4  -12.30   26.30
  19  11   4   -9.90   11.10
  -9  19  -4  -25.10   15.10
   9 -19  -4  -11.80   14.70
 -19  -9   4   -7.50   11.80
  -9  19   4    2.70   19.20
  19   9   4    8.50   13.60
  19   9   4  -11.50    9.50
   9 -19   4   70.59   47.50
 -19  -9   4    9.30   12.40
   7 -19  -4  -18.30   11.80
  -7  19  -4  -34.90   20.60
  19   7   4    7.10   11.70
  -7  19   4   -9.10   19.30
 -19  -7   4   17.90   14.80
   7 -19   4  -19.30   14.40
 -19  -7   4    8.90   14.30
  19   7   4   -0.80   10.90
  -5  19  -4   19.80   25.50
   5 -19  -4   37.00   27.90
 -19  -5  -4   29.20   19.20
 -19  -5   4   31.60   19.00
  19   5   4   10.50   12.50
  -5  19   4   14.20   64.89
 -19  -5   4   50.79   22.30
   5 -19   4    1.60   19.70
 -19  -3  -4   15.60   15.40
  -3  19  -4  -11.10   12.30
   3 -19  -4   12.80   23.10
 -19  -3   4    9.90   17.80
  -3  19   4   18.60   25.80
 -19  -3   4   -2.50   14.80
  19   3   4   -9.20   11.50
   3 -19   4   16.50   18.80
  -1  19  -4  -21.10   21.40
   1 -19  -4    8.40   21.20
 -19  -1  -4    7.30   14.60
   1 -19   4    5.60   23.20
 -19  -1   4   -3.30   14.50
  -1  19   4  -10.10   14.40
  19   1   4   20.60   18.30
 -19  -1   4   15.40   14.90
 -19   1  -4   -8.00   12.50
   1  19  -4    1.20   15.20
  -1 -19  -4  -22.20   11.50
  19  -1   4   50.59   25.30
 -19   1   4   -7.10   15.20
 -19   1   4   18.10   17.50
  -1 -19   4  -11.10   13.90
   1  19   4   -4.40   14.10
 -19   3  -4   -9.30   11.60
  -3 -19  -4   -6.50   17.30
   3  19  -4    4.70   17.10
   3  19   4  -20.60   13.30
  19  -3   4   -9.30   10.30
 -19   3   4  -16.70   11.90
  -3 -19   4   -8.00   16.30
 -19   3   4    3.20   14.70
 -19   5  -4   -8.10   11.60
  -5 -19  -4    3.80   17.40
   5  19  -4   -4.20   17.40
   5  19   4   -6.00   12.80
  19  -5   4   76.59   33.50
 -19   5   4   28.90   22.20
 -19   5   4   13.10   16.00
  -5 -19   4   24.60   26.10
 -19   7  -4   14.40   18.30
   7  19  -4  -16.30    9.70
  -7 -19  -4   -3.50   13.50
   7  19   4   -9.90   13.40
  19  -7   4   31.50   22.10
  -7 -19   4   -3.90   13.30
 -19   7   4  -11.40   11.10
   9  19  -4  -10.90   11.60
 -19   9  -4    4.70   19.50
  -9 -19  -4  -12.90   11.80
  19  -9  -4   -4.60   13.50
  -9 -19   4   -3.70   16.00
  19  -9   4    1.70   24.20
 -19   9   4  -12.20   14.20
   9  19   4    1.50   14.30
  19 -11  -4   -4.90   16.40
  11  19  -4   -2.60   16.70
  11  19   4    5.10   14.90
 -11 -19   4   -5.90   13.30
  11  19   4   -5.90   13.60
  19 -11   4  -25.70   14.50
  13  19  -4   46.80   39.10
 -19  13  -4    4.80   16.40
  19 -13  -4    8.40   19.60
  19 -13   4    3.90   19.70
  13  19   4   32.20   41.60
 -19  13   4    6.40   22.90
 -13 -19   4   -8.60   18.70
  13  19   4    1.60   15.60
 -12  20  -4   14.70   19.10
  12 -20  -4    4.20   24.70
  20  12   4   10.30   11.70
  20  12   4   13.10   12.90
  12 -20   4  -28.60   13.50
 -12  20   4   -3.60   20.60
 -20 -12   4   29.00   16.50
 -10  20  -4    0.50   20.20
  10 -20  -4   -7.50   16.30
 -20 -10   4    5.10   13.90
  20  10   4    6.30   11.40
 -10  20   4    3.90   31.10
  20  10   4    8.40   11.30
  10 -20   4    2.50   16.20
 -20 -10   4    3.20   11.00
   8 -20  -4    1.80   21.00
  -8  20  -4   11.40   25.40
  20   8   4   23.60   14.40
 -20  -8   4    5.90   13.40
   8 -20   4    7.40   18.60
 -20  -8   4   -2.10   11.40
   6 -20  -4  -17.10   15.90
  -6  20  -4    3.60   20.50
  -6  20   4  -16.10   26.10
   6 -20   4   21.20   25.80
 -20  -6   4   -6.20   15.10
  20   6   4    6.90   12.50
 -20  -6   4    7.00   13.40
   4 -20  -4  161.68   48.40
  -4  20  -4    3.50   49.10
 -20  -4  -4   63.79   30.30
 -20  -4   4  104.99   34.90
  20   4   4   80.59   30.80
   4 -20   4   58.19   46.40
  -4  20   4  194.28   70.79
 -20  -4   4  112.19   35.60
   2 -20  -4  232.18   73.29
  -2  20  -4  252.27   75.69
 -20  -2  -4  234.88   62.59
  -2  20   4  196.68   76.19
   2 -20   4  130.39   63.99
  20   2   4  190.08   61.09
 -20  -2   4  285.77   77.59
 -20  -2   4  208.68   62.89
   0  20  -4  217.98   79.09
   0 -20  -4  195.48   79.69
 -20   0  -4  294.27   78.19
 -20   0   4  342.67   82.89
   0 -20   4  265.67   90.39
   0  20   4  281.57   93.69
 -20   0   4  255.37   77.49
  20   0   4  273.87   78.69
   2  20  -4  241.68   67.89
  -2 -20  -4  175.38   67.79
 -20   2  -4  177.28   57.99
  20  -2   4  178.98   58.59
 -20   2   4  184.68   59.09
 -20   2   4  168.78   59.99
  -2 -20   4  218.08   64.49
   2  20   4  140.79   61.19
  -4 -20  -4   98.79   38.40
   4  20  -4   69.19   38.60
 -20   4  -4   77.89   32.30
 -20   4   4  175.48   41.00
  -4 -20   4   23.90   27.40
   4  20   4   61.89   31.90
  20  -4   4   69.09   32.20
 -20   4   4   26.10   27.00
   6  20  -4  -15.60   11.50
 -20   6  -4   -9.70   14.30
  -6 -20  -4   12.00   23.40
   6  20   4   -8.90   14.20
  20  -6   4   -4.30   14.70
 -20   6   4   12.10   23.80
  -6 -20   4    4.70   18.00
  -8 -20  -4   -0.60   26.50
 -20   8  -4    0.50   19.50
   8  20  -4   20.30   24.90
 -20   8   4   40.60   30.80
  20  -8   4    5.70   16.30
   8  20   4    6.30   21.00
 -10 -20  -4   15.60   21.50
 -20  10  -4    0.60   16.80
  20 -10  -4    8.20   17.50
  10  20  -4   22.80   20.80
  10  20   4   10.80   16.40
 -10 -20   4  -10.40   13.90
  20 -10   4    9.30   23.90
 -20  10   4   -0.60   19.40
  12  20  -4   11.90   19.10
  20 -12  -4   29.90   22.00
 -12 -20   4   27.20   23.50
  12  20   4   30.20   27.60
 -20  12   4   -0.80   18.80
  20 -12   4   -1.80   14.10
  12  20   4   -4.10   13.60
 -11  21  -4   -6.90   17.80
  11 -21  -4  -11.30   17.90
 -21 -11   4   24.90   15.80
 -21 -11   4   22.70   14.80
  21  11   4   -5.40    8.70
  21  11   4    1.60    9.10
  11 -21   4    2.30   20.30
 -11  21   4   54.29   48.40
  -9  21  -4   17.20   26.70
   9 -21  -4   54.59   34.70
 -21  -9   4   30.20   17.30
 -21  -9   4   22.90   15.80
  21   9   4   21.50   13.80
  21   9   4   13.00   13.90
  -9  21   4    4.90   19.70
   9 -21   4  -26.30   21.60
   7 -21  -4    8.50   21.40
  -7  21  -4  -14.10   19.60
 -21  -7   4   15.60   13.20
  21   7   4  -13.90    8.80
  21   7   4  -17.40    8.70
 -21  -7   4    7.70   12.60
   7 -21   4    0.20   67.59
  -7  21   4   -8.20   24.10
 -21  -5  -4    4.80   14.90
  -5  21  -4   67.89   40.30
   5 -21  -4   41.60   30.00
  21   5   4    2.70   10.90
   5 -21   4   -6.80   13.30
  -5  21   4   -0.50   18.10
 -21  -5   4    1.80   13.20
   3 -21  -4  -18.70   15.60
  -3  21  -4  -21.20   14.30
 -21  -3  -4   -5.80   11.50
 -21  -3   4    0.70   13.60
 -21  -3   4   -7.20   15.40
   3 -21   4   24.00   23.50
  -3  21   4   17.00   32.50
  21   3   4   17.10   13.00
   1 -21  -4  -12.10   14.30
  -1  21  -4    4.80   22.00
 -21  -1  -4    4.80   14.50
  -1  21   4   -1.30   21.20
   1 -21   4    4.00   18.90
  21   1   4   10.60   16.30
 -21  -1   4  -10.20   16.20
 -21  -1   4    4.80   13.70
   1  21  -4    6.80   17.50
 -21   1  -4   14.00   16.70
  -1 -21  -4    7.30   20.20
 -21   1   4   -6.70   12.30
   1  21   4  -18.00   15.80
  21  -1   4   -2.10   12.00
  -1 -21   4   -9.20   14.50
 -21   3  -4   16.90   19.10
  -3 -21  -4   -5.80   15.60
   3  21  -4   -6.00   15.30
 -21   3   4   46.10   24.40
 -21   3   4   43.90   28.70
   3  21   4   12.50   18.30
  21  -3   4   17.80   16.90
  -3 -21   4  -17.30   13.30
   5  21  -4   40.10   27.90
  -5 -21  -4   -4.60   19.20
 -21   5  -4   14.70   18.10
  21  -5   4    0.70   15.20
 -21   5   4  -12.20   15.80
  -5 -21   4  -17.30   13.00
   5  21   4   -0.60   22.10
 -21   5   4    4.40   18.00
  21  -7  -4   60.49   27.80
   7  21  -4   -0.80   18.10
  -7 -21  -4   -4.50   19.00
 -21   7  -4   -9.30   14.10
  -7 -21   4   -9.90   13.50
  21  -7   4    5.20   18.30
 -21   7   4   42.20   27.40
   7  21   4   -2.80   18.60
   9  21  -4    8.80   21.10
  21  -9  -4  -17.60   21.40
 -21   9  -4   19.70   20.00
  -9 -21  -4  -26.40   12.60
  21  -9   4   -8.50   13.30
   9  21   4   20.30   24.60
 -21   9   4   34.60   26.40
  -9 -21   4   25.60   25.90
 -21  11  -4   13.10   20.10
  21 -11  -4   23.60   23.40
  11  21  -4   50.79   30.50
 -11 -21   4   26.50   26.10
  11  21   4   -5.60   12.50
  21 -11   4   -6.60   16.00
 -21  11   4   16.20   33.10
   8 -22  -4  155.58   80.99
  -8  22  -4   43.10   36.70
 -22  -8   4   43.40   19.80
   8 -22   4   34.50   32.60
  22   8   4   49.10   17.30
  -8  22   4   52.19   38.20
  22   8   4    1.90   14.20
 -22  -8   4   50.59   21.80
   6 -22  -4   57.39   38.10
  -6  22  -4  108.99   55.99
  22   6   4   62.19   21.20
 -22  -6   4   22.80   19.40
   6 -22   4   38.90   23.20
 -22  -6   4   42.60   21.20
  -6  22   4   20.70   28.60
 -22  -4  -4   59.19   24.40
   4 -22  -4   36.80   29.20
  -4  22  -4   29.40   24.60
   4 -22   4   37.20   34.40
  22   4   4    8.10   18.50
  -4  22   4   64.49   43.80
 -22  -4   4   46.60   19.50
 -22  -4   4   38.50   23.30
   2 -22  -4   50.09   31.00
  -2  22  -4   12.80   21.00
 -22  -2  -4   61.69   24.70
  22   2   4   11.80   16.00
 -22  -2   4   64.79   25.00
  -2  22   4  125.79   59.79
   2 -22   4   17.10   21.70
 -22  -2   4   36.30   21.80
 -22   0  -4   44.30   21.30
   0  22  -4   92.69   43.10
   0 -22  -4   -6.50   14.10
   0 -22   4   22.50   20.10
 -22   0   4   51.59   24.10
  22   0   4    2.60   16.00
   0  22   4    9.10   25.90
 -22   0   4   43.10   24.40
 -22   2  -4   91.29   32.00
  -2 -22  -4   46.80   32.90
   2  22  -4   53.79   32.40
  -2 -22   4   25.70   32.40
 -22   2   4   58.99   30.50
   2  22   4   23.90   36.30
 -22   2   4   58.59   29.10
  22  -2   4   72.39   33.60
   4  22  -4   58.79   34.60
  -4 -22  -4   31.60   33.50
 -22   4  -4   59.29   26.90
 -22   4   4   21.70   23.20
  22  -4   4   33.50   25.30
 -22   4   4   29.90   26.60
   4  22   4   37.50   28.80
  -4 -22   4   45.30   35.30
 -22   6  -4   60.69   28.90
  -6 -22  -4   87.89   39.30
   6  22  -4   32.50   33.80
   6  22   4   48.70   31.20
 -22   6   4   30.10   24.00
  22  -6   4   56.19   28.70
 -22   6   4   64.89   34.40
  -6 -22   4   36.70   33.60
  -8 -22  -4    8.00   21.50
 -22   8  -4   28.20   26.40
  22  -8  -4   47.80   28.50
  22  -8   4   62.09   29.70
  -8 -22   4   17.90   23.70
 -22   8   4   48.20   35.00
 -23  -5  -4    4.10   11.80
  -5  23  -4    3.50   20.90
   5 -23  -4   27.30   30.50
 -23  -5   4    7.00   14.10
 -23  -5   4    5.70   14.60
   5 -23   4    9.70   30.40
  -5  23   4   -0.70   26.00
  23   5   4   -3.50    9.70
   3 -23  -4   10.70   29.40
  -3  23  -4   10.00   25.70
 -23  -3  -4   26.90   20.30
 -23  -3   4   24.40   20.30
   3 -23   4   25.30   29.20
  -3  23   4    0.40   17.40
  23   3   4   13.20   24.00
 -23  -3   4    9.50   17.90
 -23  -1  -4   47.00   24.20
  -1  23  -4   12.30   19.90
   1 -23  -4   -2.40   26.80
 -23  -1   4   15.40   18.00
  23   1   4   -9.10   11.40
  -1  23   4   -6.60   24.10
   1 -23   4   27.60   23.40
 -23  -1   4   15.10   17.50
  -1 -23  -4   49.50   37.90
 -23   1  -4   33.20   22.60
   1  23  -4   44.20   30.40
 -23   1   4   32.30   24.60
  23  -1   4   40.80   23.40
  -1 -23   4   17.30   32.50
 -23   1   4   -5.10   14.50
   1  23   4   51.49   32.10
   3  23  -4  -11.80   15.90
  -3 -23  -4    9.20   23.30
 -23   3  -4   51.79   25.80
  -3 -23   4    2.80   23.30
 -23   3   4    2.80   18.10
   3  23   4   67.69   40.50
  23  -3   4  -12.90   11.50
 -23   3   4   26.20   24.60
   5  23  -4  -20.20   14.10
  -5 -23  -4   -7.60   15.10
 -23   5  -4   13.20   20.90
  23  -5   4    1.90   18.10
   5  23   4  -23.70   15.90
 -23   5   4  -13.50   14.20
 -23   5   4   19.60   21.50
  -5 -23   4    4.10   17.10
   0  24  -4   32.40   25.40
 -24   0  -4   12.00   18.10
   0 -24  -4   80.99   51.49
 -24   0   4   55.49   28.10
  24   0   4   62.99   27.10
 -24   0   4   89.99   34.50
   0 -24   4   13.50   24.80
   0  24   4   26.30   34.80
   0  -1  -5    7.20   20.80
   1   0  -5   -7.40   16.00
   0   1  -5   -6.80   12.00
  -1   0  -5   16.00   18.10
  -1   0   5  -14.20   11.20
   0  -1   5    8.20   13.50
   0   1   5   -5.30   14.70
   1   0   5  -39.70   24.10
   1  -2  -5  110.09   37.40
  -2  -1  -5   70.89   34.20
   2   1  -5   24.80   25.90
  -1   2  -5   88.99   35.30
   2   1   5  133.89   41.00
  -1   2   5   45.30   26.20
  -2  -1   5   80.49   28.40
   1  -2   5   65.09   30.20
  -2   1  -5   74.79   36.20
  -1  -2  -5   77.39   34.70
   2  -1  -5  155.38   57.49
   1   2  -5  172.18   46.10
  -2   1   5   74.49   33.70
   1   2   5   72.79   35.10
   2  -1   5   67.99   38.20
  -1  -2   5   64.99   31.60
  -3  -2  -5  -15.30   11.00
   3   2  -5   34.90   37.40
   2  -3  -5    2.20   15.80
  -2   3  -5   21.80   19.10
   3   2   5   -4.20   15.50
  -2   3   5   17.90   18.70
  -3  -2   5   -0.40   13.90
   2  -3   5   -4.10   15.00
  -3   0  -5   -4.80   12.50
   0   3  -5  -12.40   11.10
   3   0  -5   23.00   20.40
   0  -3  -5   21.20   15.30
   0  -3   5  -19.30   11.40
   0   3   5    7.00   23.50
  -3   0   5  -12.30   11.40
   3   0   5    6.60   17.10
   2   3  -5   27.90   20.80
   3  -2  -5   16.00   20.50
  -3   2  -5   43.30   35.60
  -2  -3  -5   33.50   27.00
   3  -2   5    5.50   36.20
  -3   2   5  -14.50   17.80
  -2  -3   5   10.40   16.70
   2   3   5  -14.70    8.80
  -3   4  -5  127.49   58.79
   4   3  -5  327.37   77.29
   4   3   5  424.66   88.39
  -3   4   5  283.97   77.79
   3  -4   5  192.98   61.49
  -3   4   5  364.06   86.89
  -4  -3   5  160.08   61.89
  -1   4  -5  149.09   51.89
   1  -4  -5  183.68   58.49
   4   1  -5  175.98   55.89
  -4  -1  -5  166.18   56.69
  -1   4   5  298.27   74.19
   1  -4   5  223.78   72.29
  -4  -1   5  120.19   49.70
   4   1   5  195.18   58.89
  -4   1  -5  179.78   70.69
   1   4  -5  401.86   93.69
   4  -1  -5  260.67   74.29
  -1  -4  -5  251.07   74.79
  -4   1   5  163.78   65.59
   1   4   5  367.06   91.29
   4  -1   5  534.55  110.69
  -1  -4   5  242.58   79.59
   4  -3  -5  208.98   68.29
  -3  -4  -5  283.27   72.09
  -4   3  -5  718.03  107.19
   3   4  -5  181.98   63.79
   4  -3   5  130.89   60.89
  -4   3   5  187.88   64.29
  -3  -4   5  246.68   78.49
   3   4   5  295.97   74.39
  -5  -4  -5 1116.39  257.77
  -4   5  -5 1049.89  248.88
   5   4  -5  980.90  247.48
  -5  -4   5 1045.00  248.58
   5   4   5  830.72  247.38
  -4   5   5  799.82  251.67
   4  -5   5 1156.78  260.47
  -4   5   5 1088.39  256.07
  -5  -2  -5  396.26  142.19
  -2   5  -5  472.55  143.89
   5   2  -5  504.25  145.19
   2  -5   5  840.32  161.38
  -5  -2   5  791.82  156.48
   5   2   5  488.65  143.19
  -2   5   5  599.94  152.98
  -2   5   5  854.41  167.38
   0   5  -5    1.60   13.40
   5   0  -5   33.70   30.20
  -5   0  -5    9.30   15.50
   5   0   5  -11.80   14.10
   0   5   5  -14.20   11.80
   0  -5   5  -46.40   24.50
  -5   2  -5  692.73  153.18
   5  -2  -5  654.83  153.98
   2   5  -5  574.34  150.38
  -5   2   5  490.35  147.59
   5  -2   5  647.24  153.28
   2   5   5 1035.60  182.78
  -2  -5   5  353.66  141.79
   4   5  -5  865.91  236.78
  -5   4  -5 1032.50  236.38
  -4  -5  -5 1075.59  235.78
   4   5   5  991.70  235.28
  -5   4   5 1170.88  248.28
   5  -4   5  883.21  240.48
  -5   4   5  786.82  237.18
  -4  -5   5  794.62  233.58
  -6  -5  -5    2.10    5.30
  -5   6  -5   -5.80   14.20
   6   5  -5   42.50   21.70
  -5   6   5  -21.80   11.80
  -6  -5   5   -9.00   10.50
  -5   6   5   16.60   36.30
   5  -6   5   -1.20   14.50
   6   5   5   44.80   21.70
   6   3  -5  153.68   55.09
  -3   6  -5  173.68   57.39
  -6  -3  -5  200.18   56.29
   3  -6   5  253.67   61.89
  -3   6   5  140.69   56.69
   6   3   5  109.19   51.49
  -6  -3   5  219.58   59.19
  -3   6   5  256.57   67.29
  -6  -1  -5   60.19   26.60
   6   1  -5    2.80   19.00
  -1   6  -5   60.89   29.70
   1  -6   5   74.59   26.50
  -1   6   5   37.30   24.30
  -6  -1   5   67.89   28.10
   6   1   5   50.59   23.50
  -1   6   5   60.09   28.20
   1   6  -5  123.99   51.69
   6  -1  -5   35.80   21.30
   1   6   5   99.19   31.00
   6  -1   5   83.79   28.10
  -6   1   5   38.50   21.50
  -1  -6   5   27.80   24.30
   1   6   5   14.20   20.50
   3   6  -5  205.68   55.29
  -6   3  -5  180.88   52.49
  -6   3   5  207.88   62.99
   3   6   5  164.88   50.09
  -3  -6   5  104.29   44.30
   6  -3   5  205.68   60.19
   3   6   5   75.39   42.90
  -6   3   5  322.77   74.99
  -6   5  -5   66.79   30.00
  -5  -6  -5   13.40   14.20
   5   6  -5   27.60   22.50
  -5  -6   5  -10.70   11.70
   5   6   5   27.90   16.00
  -6   5   5    2.70   17.10
   6  -5   5   23.00   21.20
  -6   5   5   -8.80   13.90
   7   6  -5   20.30   20.30
  -6   7  -5   46.80   22.50
  -6   7   5    8.40   16.80
  -7  -6   5   -3.90   15.40
   7   6   5   -3.90   11.50
  -6   7   5    5.60   19.40
   6  -7   5   -2.50   15.20
   7   4  -5  139.79   58.89
  -4   7  -5  166.08   58.79
  -7  -4   5  170.98   60.69
  -4   7   5  183.28   62.79
  -4   7   5  219.38   65.99
   7   4   5  193.88   58.59
   4  -7   5  228.88   67.89
  -2   7  -5  331.27   84.19
   7   2  -5  213.18   66.89
  -7  -2   5  207.48   65.29
   7   2   5  162.48   63.69
  -2   7   5  233.88   70.19
   2  -7   5  214.58   71.09
  -2   7   5  513.25  108.39
  -7   0  -5   -5.70   12.70
   0   7  -5   -9.30   12.90
   7   0  -5   16.00   14.40
   0  -7   5   -0.90   15.60
   7   0   5   -6.20   10.10
  -7   0   5    1.80   16.80
   0   7   5   -2.90   15.00
   0   7   5   -1.90   16.00
  -7   2  -5  197.58   64.19
   2   7  -5  123.19   58.89
  -7   2   5  179.88   60.09
  -2  -7   5  308.07   74.59
   2   7   5  265.07   71.09
  -7   2   5  241.08   66.19
   7  -2   5  200.18   66.49
   2   7   5  218.78   65.49
   4   7  -5   87.19   38.40
  -7   4  -5   65.59   36.00
   4   7   5   98.69   41.10
   4   7   5  146.09   44.70
  -7   4   5  159.48   46.10
  -7   4   5  150.48   46.40
  -4  -7   5  101.19   42.00
   7  -4   5  122.69   44.90
   6   7  -5   41.10   23.40
  -7   6  -5   -9.50   13.00
   6   7   5   -5.10    8.60
  -6  -7   5   -3.90   14.40
  -7   6   5   50.99   27.00
   7  -6   5   -1.40   12.90
  -7   6   5   14.30   18.70
   6   7   5   -8.40   12.90
  -7   8  -5   -6.10   11.60
   7  -8   5   20.00   19.00
  -8  -7   5    5.40   14.90
   8   7   5   11.30   16.10
  -7   8   5  -12.10   12.30
  -7   8   5  -35.90   27.80
  -5   8  -5  273.97   74.89
  -8  -5  -5  238.28   72.09
   8   5  -5  184.48   69.89
  -8  -5   5  208.48   67.99
  -5   8   5  467.45  102.29
  -5   8   5  239.68   73.19
   5  -8   5  275.77   78.69
   8   5   5  207.88   67.89
  -3   8  -5   64.39   35.30
   8   3  -5  115.89   38.90
   8   3   5  118.69   40.90
  -3   8   5  159.58   58.59
  -3   8   5  150.88   45.30
  -8  -3   5   69.79   34.70
   3  -8   5   71.49   33.50
  -1   8  -5  -15.00    9.50
   8   1  -5   11.30   17.60
  -1   8   5   -0.60   13.40
   8   1   5  -22.60   10.70
  -1   8   5    3.60   21.80
   1  -8   5   -1.50   19.60
  -8  -1   5   -1.40   15.30
   1   8  -5   13.10   17.00
  -8   1  -5    6.80   13.20
   1   8   5   14.30   17.30
   8  -1   5   -7.30   12.70
   1   8   5   -8.00   13.60
  -8   1   5   -7.40   11.00
  -1  -8   5  -24.10   14.20
   3   8  -5   72.29   36.50
  -8   3  -5  132.29   42.00
   3   8   5  171.78   48.10
   3   8   5  120.29   44.20
  -3  -8   5  140.99   48.50
   8  -3   5  141.29   44.60
  -8   3   5   80.79   36.60
   5   8  -5  217.28   74.39
  -8   5  -5  228.38   70.09
  -5  -8   5  339.97   84.39
   8  -5   5  242.38   79.19
   5   8   5  187.08   69.29
  -8   5   5  253.37   77.39
  -8   5   5  514.75  114.89
   5   8   5  216.08   73.49
  -8   7  -5   18.60   20.30
   7   8  -5   16.20   19.30
  -7  -8   5   23.60   20.00
  -8   7   5   25.30   20.80
   8  -7   5    5.30   20.80
  -8   7   5   45.70   26.10
   7   8   5   28.90   20.50
  -8   9  -5   93.79   37.10
   9   8  -5    2.40   14.60
   9   8   5   14.70   15.80
  -8   9   5    9.50   25.60
  -9  -8   5   19.00   18.80
   9   8   5   34.60   19.60
   8  -9   5   53.69   32.20
   9   6  -5   27.20   20.80
  -6   9  -5  -22.80   12.60
  -9  -6  -5   91.79   32.00
   9   6   5    5.30   16.80
  -6   9   5   13.20   17.30
  -6   9   5  -15.50   11.50
   6  -9   5    3.30   23.50
  -9  -6   5    8.00   16.60
  -4   9  -5  156.08   54.59
  -9  -4  -5  161.08   54.49
   9   4  -5  127.99   54.59
  -9  -4   5  125.99   51.49
   4  -9   5  495.05  115.99
   9   4   5  222.08   58.59
  -4   9   5  394.46   95.29
  -4   9   5  207.98   64.29
   9   2  -5   -2.00   13.00
  -2   9  -5    5.10   16.40
   2  -9   5  -16.60    9.60
  -9  -2   5    2.00   16.20
  -2   9   5   10.70   16.80
  -2   9   5   10.80   19.30
   9   2   5    3.60   15.90
   9   0  -5   18.00   11.70
   0   9  -5  -14.20   12.50
   0   9   5   -4.90   12.00
  -9   0   5  -10.70   10.60
   0   9   5   -2.60   16.60
   9   0   5  -13.80    9.40
   0  -9   5   -1.20   12.90
  -9   2  -5    4.00   12.90
   2   9  -5   -8.70   10.80
   9  -2   5   47.20   20.00
  -9   2   5   19.80   19.50
   2   9   5   23.10   16.70
  -2  -9   5   47.20   23.50
  -9   2   5   35.00   21.70
   2   9   5    4.30   15.90
   4   9  -5  155.48   57.99
  -9   4  -5  181.38   55.79
   4   9   5  260.47   66.99
   9  -4   5  209.18   61.29
   4   9   5  148.49   56.69
  -4  -9   5  220.48   60.59
  -9   4   5  127.59   52.69
   6   9  -5   22.80   18.50
  -9   6  -5   55.19   26.20
   6   9   5   41.60   28.20
  -9   6   5   11.20   17.40
   9  -6   5   -8.60   12.80
  -9   6   5    6.50   16.30
  -6  -9   5   23.50   19.60
   6   9   5   21.10   18.60
   8   9  -5   11.70   17.30
  -9   8  -5   66.49   31.70
  -8  -9   5   35.50   22.90
  -9   8   5   16.10   25.20
   8   9   5   37.30   20.80
   8   9   5   29.50   19.20
   9  -8   5   52.89   32.20
  -9   8   5   50.19   28.60
   9 -10  -5    9.40   17.50
  -9  10  -5   47.70   30.30
  10   9  -5    4.80   12.80
   9 -10   5    3.50   20.80
 -10  -9   5   30.30   18.20
  -9  10   5  -18.40   12.70
  10   9   5   14.30   17.40
  10   9   5   26.70   20.00
  10   7  -5   77.39   39.30
  -7  10  -5  155.08   52.19
   7 -10  -5  183.18   55.79
 -10  -7   5  131.39   42.80
  -7  10   5  111.19   45.60
   7 -10   5  121.89   48.90
  10   7   5   93.59   38.80
  10   5  -5   70.09   27.70
  -5  10  -5   48.40   28.70
   5 -10  -5   85.59   33.40
 -10  -5  -5  101.09   39.10
 -10  -5   5   30.20   23.00
   5 -10   5   49.50   32.20
  -5  10   5   49.10   30.60
  10   5   5   77.19   28.90
 -10  -3  -5   10.90   17.10
  -3  10  -5    2.40   16.50
 -10  -3   5    8.50   15.30
  -3  10   5   66.59   28.60
  -3  10   5   25.20   21.60
   3 -10   5   38.50   36.30
  10   3   5    8.80   17.20
 -10  -1  -5  125.59   38.50
  10   1  -5   29.00   21.80
  -1  10  -5   42.70   28.60
  -1  10   5   43.80   29.30
  10   1   5   70.19   30.10
  -1  10   5   63.39   30.30
   1 -10   5   92.89   33.80
 -10  -1   5   13.20   21.30
   1  10  -5   55.49   27.70
   1  10   5  128.09   38.00
   1  10   5   19.90   20.30
 -10   1   5   50.79   25.50
  -1 -10   5   37.50   25.90
  10  -1   5   66.59   23.80
   3  10  -5   -3.50   13.10
 -10   3  -5    7.00   13.80
 -10   3   5    6.90   16.60
   3  10   5   -0.20   15.90
   3  10   5  -11.70   13.00
  10  -3   5   10.30   16.40
 -10   3   5   -0.60   12.90
  -3 -10   5  -14.20   11.30
   5  10  -5   61.29   25.90
 -10   5  -5    7.70   18.90
 -10   5   5   43.60   25.80
   5  10   5  147.09   42.30
  -5 -10   5   47.60   27.80
   5  10   5   25.40   21.90
  10  -5   5   53.69   31.60
   7  10  -5   99.39   38.40
 -10   7  -5   59.89   36.60
   7  10   5  128.39   41.30
 -10   7   5  123.39   45.90
  10  -7   5  156.78   53.59
 -10   7   5  156.58   49.00
   7  10   5  107.19   41.30
  -7 -10   5   92.19   42.20
   9  10  -5   19.80   18.90
  10  -9  -5   27.10   23.40
 -10   9  -5   46.70   29.20
   9  10   5   33.40   29.70
  -9 -10   5   14.70   17.00
  10  -9   5    4.20   19.00
 -10   9   5   43.30   29.70
   9  10   5   27.30   23.40
  11  10  -5   -3.50   10.40
  10 -11  -5    8.80   19.00
 -10  11  -5   -9.30    9.40
  10 -11   5   17.30   23.00
 -11 -10   5   -4.60   13.90
  11  10   5    9.30   15.10
  11  10   5   10.10   15.70
 -10  11   5   10.30   30.20
  11   8  -5    7.50   13.90
  -8  11  -5    3.70   18.10
   8 -11  -5  -24.10   26.10
  11   8   5  -10.90   10.50
   8 -11   5   35.60   26.20
  11   8   5  -15.70   11.00
 -11  -8   5   24.70   20.00
  -8  11   5    9.20   24.20
  11   6  -5  234.18   53.29
   6 -11  -5   84.79   48.60
 -11  -6  -5  150.88   50.69
  -6  11  -5  119.09   52.09
 -11  -6   5  135.59   51.99
  11   6   5  173.18   49.60
   6 -11   5   94.29   48.30
  -6  11   5  221.48   72.09
  11   4  -5   20.90   17.20
 -11  -4  -5    9.80   17.60
  -4  11  -5   43.50   24.80
  -4  11   5   35.60   25.40
 -11  -4   5   40.00   24.40
   4 -11   5  133.79   53.69
  11   4   5   27.40   20.90
  11   2  -5   75.39   34.50
 -11  -2  -5  113.69   39.20
  -2  11  -5  139.89   60.29
   2 -11   5  115.99   39.30
  -2  11   5  269.07   84.29
  11   2   5   65.29   34.50
 -11  -2   5  117.29   41.00
   0  11  -5    8.60   14.40
 -11   0  -5   -2.90   14.90
  11   0   5   22.90   19.00
 -11   0   5  -12.90    7.70
   0 -11   5  -16.40   14.00
   0  11   5   -3.60   18.00
 -11   0   5  -16.00   15.10
   0  11   5   10.60   16.40
   2  11  -5  232.48   62.79
  -2 -11   5  148.39   56.39
   2  11   5  194.48   57.79
  11  -2   5   93.29   45.90
 -11   2   5  152.28   51.89
   2  11   5   92.89   47.20
   4  11  -5   17.20   17.20
 -11   4  -5   -9.50    6.90
  -4 -11   5   57.89   28.90
 -11   4   5   65.69   30.10
 -11   4   5   40.40   21.10
   4  11   5   25.30   36.20
  11  -4   5  -20.50   10.40
   4  11   5   -4.00   12.80
 -11   6  -5  132.79   51.89
   6  11  -5  139.39   50.49
  11  -6   5  125.49   47.60
  -6 -11   5  184.88   59.49
 -11   6   5  144.29   51.69
   6  11   5  111.19   48.10
   6  11   5  212.18   58.59
 -11   8  -5   -7.90   11.80
   8  11  -5  -10.80   12.50
 -11   8   5   16.80   19.20
 -11   8   5   17.90   23.70
   8  11   5   -5.50   14.00
  11  -8   5   10.30   15.90
  -8 -11   5   12.40   18.20
   8  11   5   15.00   14.40
 -11  10  -5  -14.40   11.80
  10  11  -5   19.30   17.40
  11 -10  -5  -21.50   12.10
  10  11   5   13.50   20.00
 -10 -11   5  -11.50   11.80
  11 -10   5  -13.90   12.10
  10  11   5    3.30   13.00
 -11  10   5   -5.50   12.60
  11 -12  -5   48.40   30.00
  12  11  -5   16.40   15.80
 -11  12  -5   51.39   31.50
  11 -12   5   66.79   38.00
 -12 -11   5   -5.00   15.70
  12  11   5    3.60   11.00
  12  11   5  -16.00   11.10
 -11  12   5   32.30   32.00
  -9  12  -5   54.29   42.80
   9 -12  -5   30.10   25.70
  12   9  -5   91.99   37.60
   9 -12   5   25.60   29.20
  -9  12   5  119.59   45.10
  12   9   5   61.49   26.90
  12   9   5   61.79   28.00
 -12  -9   5   29.70   24.60
   7 -12  -5   -6.40   16.90
  12   7  -5   -2.70   11.80
  -7  12  -5  -11.30   10.10
 -12  -7  -5   26.80   17.30
  12   7   5    1.80   15.10
   7 -12   5   32.20   35.50
  -7  12   5    3.00   19.20
 -12  -7   5   40.00   24.40
   5 -12  -5  335.07   96.59
  -5  12  -5  561.84  121.89
 -12  -5  -5  322.27   86.29
  12   5  -5  214.78   80.99
  -5  12   5  517.95  120.69
   5 -12   5  211.78   87.09
  12   5   5  239.48   79.59
 -12  -5   5  294.87   82.69
   3 -12  -5  190.08   59.19
  12   3  -5  156.78   51.99
 -12  -3  -5  160.08   52.89
  -3  12  -5  186.88   66.89
 -12  -3   5  209.08   57.39
  -3  12   5  345.67   91.19
   3 -12   5   76.79   52.99
  12   3   5  173.68   52.69
  -1  12  -5   99.79   39.10
   1 -12  -5   50.09   30.60
 -12  -1  -5   46.40   25.10
  -1  12   5  151.28   64.39
   1 -12   5   44.40   29.00
  12   1   5   83.39   32.20
 -12  -1   5   71.79   30.10
 -12  -1   5   77.79   29.40
   1  12  -5   63.79   35.40
 -12   1  -5  106.39   37.60
 -12   1   5   77.99   34.60
   1  12   5   81.89   37.90
 -12   1   5   55.19   30.90
  12  -1   5  137.49   42.80
  -1 -12   5   74.29   37.90
   1  12   5   50.39   31.90
   3  12  -5  295.97   85.69
  12  -3   5  185.88   63.69
  -3 -12   5  225.08   71.79
   3  12   5  261.77   74.09
 -12   3   5  149.99   63.69
 -12   5  -5   63.39   53.59
   5  12  -5  251.27   70.79
   5  12   5  343.17   78.59
 -12   5   5  242.48   65.99
   5  12   5  376.66   79.29
  -5 -12   5  492.25   91.29
 -12   5   5  424.86   84.79
  12  -5   5  186.18   60.89
 -12   7  -5   10.20   13.50
   7  12  -5   -1.20   15.40
 -12   7   5   14.30   19.20
  -7 -12   5    2.10   15.90
   7  12   5   -3.80   16.50
   7  12   5    0.80   12.50
  12  -7   5   -5.80   11.90
 -12   9  -5  110.29   38.90
   9  12  -5   34.80   27.20
  12  -9  -5   20.30   25.60
   9  12   5   58.29   31.50
  -9 -12   5   91.29   39.50
  12  -9   5  112.09   33.40
 -12   9   5  136.89   53.89
   9  12   5   64.79   31.70
 -12  11  -5    2.90   13.90
  11  12  -5   34.10   22.00
  12 -11  -5    1.00   16.10
  12 -11   5   21.60   22.70
 -12  11   5   11.90   19.10
  11  12   5   23.10   21.20
  11  12   5   -7.70    9.60
 -11 -12   5   17.00   21.10
 -12  13  -5   12.60   19.20
  12 -13  -5    7.40   19.90
  13  12  -5   23.10   19.00
  13  12   5    8.00   14.50
  12 -13   5  -11.10    9.10
  13  12   5  -12.70   11.00
 -12  13   5   84.59   40.10
 -13 -12   5   14.90   18.10
 -10  13  -5   62.99   32.70
  10 -13  -5   28.40   21.40
  13  10  -5   69.19   27.10
  13  10   5   15.70   19.10
  10 -13   5    4.70   11.10
  13  10   5    8.90   15.70
 -13 -10   5    7.40   14.50
 -10  13   5   40.80   26.00
   8 -13  -5    4.30   17.20
  -8  13  -5   46.40   36.70
  13   8  -5    4.50   12.00
   8 -13   5  -14.80   15.30
  -8  13   5   96.69   51.19
 -13  -8   5    5.30   15.30
  13   8   5   26.30   17.30
  13   8   5   28.30   19.40
  13   6  -5   -8.00   10.00
  -6  13  -5   -3.30   15.10
 -13  -6  -5   -6.50   13.00
   6 -13  -5  -19.40   15.80
 -13  -6   5   -9.00   12.00
  -6  13   5   22.30   28.30
   6 -13   5  -14.50    9.80
  13   6   5    0.90   13.70
  13   4  -5  -17.50    8.80
  -4  13  -5   37.70   19.40
   4 -13  -5   84.79   34.20
 -13  -4  -5   -7.80   10.50
  13   4   5   15.70   13.90
   4 -13   5    1.70   16.20
 -13  -4   5   38.30   21.20
  -4  13   5   11.50   27.90
  -2  13  -5  -11.00   13.60
 -13  -2  -5   -2.60   15.20
   2 -13  -5   90.09   46.60
  13   2   5    3.00   15.00
   2 -13   5   -1.80   14.40
  -2  13   5    8.60   17.10
 -13  -2   5   -7.30   12.50
 -13  -2   5    0.20   15.60
   0 -13  -5   -3.20   19.40
 -13   0  -5   -5.20   11.20
   0  13  -5   -5.30   12.20
  13   0   5  -16.20   12.50
   0  13   5    2.90   17.60
 -13   0   5  -15.60   11.20
 -13   0   5   -1.60   15.70
   0 -13   5  -18.30    9.50
 -13   2  -5   -1.60   13.10
   2  13   5    2.90   16.10
 -13   2   5   25.90   20.30
   2  13   5   -9.00   11.40
 -13   2   5   -2.70   14.10
  13  -2   5    6.50   13.60
  -2 -13   5    1.00   15.80
   4  13  -5   20.80   17.20
   4  13   5  -11.20   13.90
   4  13   5   47.80   23.80
  -4 -13   5   11.30   21.30
 -13   4   5    3.10   15.50
  13  -4   5    2.10   12.90
   6  13  -5   -2.10   13.20
 -13   6  -5   -2.80    9.00
 -13   6   5   -4.70   13.10
   6  13   5   -1.50   18.40
  -6 -13   5    1.30   18.10
   6  13   5   10.40   15.40
 -13   6   5    0.30   14.10
  13  -6   5   14.70   18.00
 -13   8  -5  -15.50   11.80
   8  13  -5   48.50   22.20
 -13   8   5   73.09   47.80
  -8 -13   5   23.70   20.10
  13  -8   5    2.50   14.80
   8  13   5   25.60   23.60
   8  13   5   26.90   25.40
 -13  10  -5   23.20   20.50
  13 -10  -5   43.80   27.60
  10  13  -5    7.80   18.80
 -10 -13   5   25.50   18.80
  10  13   5   48.00   23.60
  10  13   5   30.10   21.10
 -13  10   5   10.40   25.00
  13 -10   5    0.10   18.50
 -13  12  -5   -2.10   17.70
  13 -12  -5   13.40   23.30
  12  13  -5   31.70   19.40
  12  13   5   -1.00   15.00
  12  13   5   -6.70   13.80
  13 -12   5    5.00   10.80
 -13  12   5   89.59   48.90
 -12 -13   5   19.00   21.40
  14  13  -5  -10.00   11.00
  13 -14  -5   10.20   21.90
 -13  14  -5   20.70   20.70
  14  13   5    2.90   13.70
  13 -14   5   32.20   62.49
 -13  14   5   26.50   36.20
 -14 -13   5   -3.40   13.70
  14  13   5   -2.30   12.80
  11 -14  -5   11.80   22.20
  14  11  -5   19.80   18.90
 -11  14  -5    6.50   24.10
 -11  14   5   -7.10   18.20
 -14 -11   5   27.90   22.80
  11 -14   5   16.90   19.30
  14  11   5   35.60   21.40
  14  11   5   15.30   17.20
   9 -14  -5   37.30   28.20
  14   9  -5   60.09   25.40
  -9  14  -5   73.59   39.10
 -14  -9   5   25.30   19.50
  14   9   5   12.20   17.30
  14   9   5   -0.90   16.10
   9 -14   5   51.89   32.00
  -9  14   5   24.90   27.20
  -7  14  -5  -25.80   35.40
 -14  -7  -5   -4.20   12.50
   7 -14  -5   -3.50   12.20
  14   7  -5    2.70   13.70
  14   7   5   11.50   15.00
  -7  14   5  -11.00   14.90
   7 -14   5    0.40   19.70
 -14  -7   5  -11.10    8.30
  14   5  -5   57.49   23.70
  -5  14  -5   34.20   20.10
 -14  -5  -5   16.90   18.30
   5 -14  -5    9.20   28.50
   5 -14   5   11.70   28.30
  14   5   5   33.60   21.30
  -5  14   5    7.30   17.00
 -14  -5   5   21.40   19.80
 -14  -3  -5   15.40   19.60
  -3  14  -5    1.00   16.70
   3 -14  -5   16.30   19.10
   3 -14   5    7.90   13.50
  14   3   5   40.20   21.80
 -14  -3   5   -1.80   13.20
  -3  14   5   -4.80   16.50
 -14  -3   5  -17.60    8.50
 -14  -1  -5   -8.70    9.70
  -1  14  -5  -14.60   10.60
   1 -14  -5   -3.80   15.30
 -14  -1   5    4.00   17.80
 -14  -1   5   -6.20   13.70
   1 -14   5    1.20   14.60
  -1  14   5   -8.80   13.00
  14   1   5   29.20   18.30
   1  14  -5   -4.10   15.40
  -1 -14  -5  -10.80   12.70
 -14   1  -5   25.90   20.00
   1  14   5   48.40   34.80
  -1 -14   5   23.40   18.40
 -14   1   5   12.70   19.40
 -14   1   5   19.80   18.50
 -14   3  -5   -7.40   12.30
   3  14  -5   -0.50   12.30
  14  -3   5   -8.90   14.80
 -14   3   5   13.60   17.50
 -14   3   5   -4.40   13.10
  -3 -14   5   15.60   18.30
   3  14   5   38.70   30.00
   3  14   5   16.30   15.90
   5  14  -5   22.90   21.90
   5  14   5  -13.70   11.60
  14  -5   5   22.20   25.10
  -5 -14   5   32.30   23.80
 -14   5   5    0.30   13.30
   5  14   5   19.90   20.50
   7  14  -5    5.50   17.00
 -14   7  -5   -6.50    7.90
  14  -7   5  -13.20   13.90
   7  14   5   54.99   32.30
  -7 -14   5   27.20   20.50
   7  14   5    7.20   16.30
 -14   7   5   54.69   23.20
 -14   7   5   15.50   21.30
   9  14  -5   34.10   24.00
  14  -9  -5    0.00   17.20
 -14   9  -5    7.10   16.50
   9  14   5   49.30   23.70
 -14   9   5   29.20   24.40
  14  -9   5   47.10   29.50
   9  14   5    1.50   15.80
  -9 -14   5   22.90   20.30
  11  14  -5   63.49   29.10
 -14  11  -5    7.40   16.20
  14 -11  -5    4.50   16.40
  14 -11   5   -1.40   15.90
 -11 -14   5   -9.90   10.80
  11  14   5   19.70   17.70
  11  14   5   40.90   26.90
 -14  11   5   83.19   38.00
 -14  13  -5   -9.20   13.50
  14 -13  -5    6.00   21.50
  13  14  -5   15.90   16.20
  13  14   5   21.40   18.40
 -13 -14   5    3.00   17.80
 -14  13   5   17.00   26.00
  13  14   5   17.00   19.50
  14 -13   5  -14.60   14.10
  15  14  -5   -6.30   11.80
  14 -15  -5   16.90   25.00
 -14  15  -5  -12.80   13.50
  15  14   5   -9.80   10.50
  14 -15   5   19.10   29.10
 -15 -14   5   -6.90   11.90
 -14  15   5   -2.60   22.00
  15  14   5  -11.60   10.80
  15  12  -5   16.70   18.90
  12 -15  -5   19.80   25.50
 -12  15  -5  -10.10   19.10
  15  12   5   -2.00   13.40
 -15 -12   5   20.90   21.50
  15  12   5    2.70   16.20
  12 -15   5  -24.60   46.60
 -12  15   5  -17.20   17.30
  15  10  -5  106.59   38.70
 -10  15  -5   94.49   46.00
  10 -15  -5   86.89   63.69
  15  10   5  109.09   40.90
  15  10   5  179.58   47.20
  10 -15   5   77.59   50.09
 -15 -10   5   96.29   37.90
 -10  15   5   60.69   45.50
  15   8  -5    7.70   12.90
   8 -15  -5   61.19   30.70
  -8  15  -5  -12.70   15.20
  -8  15   5  -12.50   12.40
  15   8   5   -1.50   15.00
 -15  -8   5    6.60   17.00
  15   8   5   16.20   15.60
   8 -15   5  -16.40   16.70
  -6  15  -5   -4.40   15.20
   6 -15  -5   22.00   24.80
  15   6  -5   -9.00   11.30
 -15  -6  -5   -2.10   13.50
  -6  15   5  -17.60   14.60
   6 -15   5   -1.60   17.70
 -15  -6   5   -8.10   13.20
  15   6   5   19.00   17.70
   4 -15  -5   -6.60   16.10
 -15  -4  -5   20.00   17.30
  -4  15  -5    2.50   16.20
  -4  15   5   10.20   18.70
   4 -15   5   15.20   21.80
 -15  -4   5   32.70   18.40
  15   4   5   17.60   19.60
 -15  -4   5   17.10   17.60
   2 -15  -5   68.99   33.60
 -15  -2  -5   39.50   25.90
  -2  15  -5   30.30   20.50
  15   2   5   52.19   27.40
  -2  15   5   44.60   31.40
 -15  -2   5   42.00   22.60
   2 -15   5   50.19   29.50
 -15  -2   5   25.20   21.20
   0 -15  -5   -1.30   17.10
   0  15  -5    0.70   14.30
 -15   0  -5   -4.40   13.10
   0  15   5   -2.90   16.00
  15   0   5  -20.30    9.70
 -15   0   5   10.70   16.70
 -15   0   5  -10.90   11.80
   0 -15   5  -17.20   13.30
 -15   2  -5   33.00   25.50
   2  15  -5    2.80   19.10
  -2 -15  -5   63.19   34.90
 -15   2   5   75.99   30.90
 -15   2   5   61.69   31.50
  -2 -15   5  104.59   41.20
   2  15   5   47.90   25.60
  15  -2   5   61.59   35.80
 -15   4  -5   25.10   22.80
   4  15  -5   17.00   21.40
  -4 -15   5    3.20   15.90
   4  15   5   20.00   13.00
  15  -4   5   11.00   16.30
 -15   4   5    6.70   16.00
   4  15   5   -4.50   18.60
 -15   4   5   20.90   17.00
   6  15  -5    7.60   17.70
 -15   6   5   10.90   16.60
   6  15   5   16.00   16.50
  15  -6   5   40.00   23.70
  -6 -15   5   -4.70   14.20
   6  15   5   -8.00   11.50
   8  15  -5  -17.50   11.30
 -15   8  -5   18.50   21.80
 -15   8   5  -12.10   12.80
  -8 -15   5    3.40   15.20
   8  15   5  -11.60   12.50
   8  15   5   12.10   18.90
  15  -8   5   12.20   24.80
  10  15  -5   64.29   27.40
  15 -10  -5   75.39   36.70
  10  15   5   57.49   30.30
  10  15   5   77.39   34.30
  15 -10   5    6.40   17.60
 -15  10   5   69.79   31.20
 -10 -15   5  157.18   44.50
  12  15  -5   -9.20   13.70
  15 -12  -5   -3.90   15.00
 -15  12  -5  -10.20   14.50
  12  15   5   16.60   17.00
  12  15   5  -15.50   10.90
  15 -12   5  -12.10   13.80
 -12 -15   5   59.29   31.70
 -15  12   5    4.80   19.30
 -15  14  -5    5.10   16.20
  14  15  -5   -2.10   14.60
  15 -14  -5   -5.00   15.20
 -14 -15   5   22.00   17.40
  15 -14   5   12.60   21.10
 -15  14   5   64.99   49.00
  14  15   5    5.10   14.90
  14  15   5  -16.60   11.30
  15 -16  -5   -4.90   17.10
 -15  16  -5   37.30   32.50
  16  15  -5    7.60   28.70
  16  15   5   12.10   16.80
 -15  16   5  -10.30   20.50
 -16 -15   5   -2.20   15.10
  15 -16   5   30.40   28.30
  16  15   5  -19.10   22.60
 -13  16  -5    0.50   17.70
  13 -16  -5    3.60   22.30
  16  13  -5    6.50   16.80
  16  13   5   17.90   18.50
  16  13   5   25.30   17.20
  13 -16   5   38.20   36.50
 -16 -13   5    9.00   19.50
 -13  16   5  -28.70   20.00
 -11  16  -5   -8.30   17.20
  16  11  -5   -0.70   11.70
  11 -16  -5   -9.90   20.60
  16  11   5  -11.50   13.60
  11 -16   5    1.30   24.90
  16  11   5    9.80   17.50
 -16 -11   5    0.30   14.20
 -11  16   5  -23.00   17.30
  -9  16  -5   16.20   24.60
   9 -16  -5   85.99   49.10
  16   9  -5   43.90   22.90
   9 -16   5  -17.40   12.60
  16   9   5   37.10   22.10
 -16  -9   5    9.60   15.80
  -9  16   5   -4.00   34.20
  16   9   5   50.49   23.80
   7 -16  -5  124.79   56.99
  16   7  -5   39.40   20.80
  -7  16  -5    2.60   20.40
  -7  16   5   41.70   26.80
  16   7   5   27.80   20.30
   7 -16   5    3.70   26.80
 -16  -7   5   34.50   21.80
 -16  -5  -5   88.59   38.10
   5 -16  -5  113.99   46.40
  -5  16  -5  116.09   45.20
 -16  -5   5  141.99   42.00
  16   5   5   87.49   34.60
 -16  -5   5  142.19   41.80
   5 -16   5   54.99   35.20
  -5  16   5  102.69   42.20
 -16  -3  -5   68.99   29.80
   3 -16  -5   87.39   36.20
  -3  16  -5   61.29   36.30
 -16  -3   5   74.59   30.60
   3 -16   5   45.30   28.00
  -3  16   5   42.90   33.30
 -16  -3   5   27.70   22.40
  16   3   5   25.90   22.60
  -1  16  -5   27.60   26.10
   1 -16  -5   33.20   22.80
 -16  -1  -5    2.50   15.00
  -1  16   5   -1.50   16.60
   1 -16   5   -1.70   18.70
 -16  -1   5   27.90   19.40
  16   1   5   35.90   21.20
 -16  -1   5   10.70   17.40
  -1 -16  -5  -12.40   13.20
 -16   1  -5   17.00   17.10
   1  16  -5   -3.10   15.30
   1  16   5   29.10   18.90
  16  -1   5    2.20   15.10
 -16   1   5  -14.50    8.90
  -1 -16   5    3.10   18.90
 -16   1   5   21.00   17.10
 -16   3  -5   60.89   31.80
  -3 -16  -5   38.60   25.20
   3  16  -5   73.39   35.10
   3  16   5   90.39   40.70
 -16   3   5   12.60   21.40
 -16   3   5   96.39   32.60
  16  -3   5   78.19   33.50
  -3 -16   5    1.30   16.10
   5  16  -5   82.99   40.20
 -16   5  -5  106.19   42.90
  -5 -16   5  100.69   45.20
 -16   5   5  116.09   42.70
   5  16   5  117.99   43.70
  16  -5   5  116.09   45.90
 -16   5   5  177.58   50.19
   5  16   5   55.99   34.60
   7  16  -5   57.09   33.00
   7  16   5  -23.30    9.70
  16  -7   5   16.40   19.80
 -16   7   5    0.10   18.80
  -7 -16   5   15.30   20.20
   7  16   5   15.90   23.80
   9  16  -5   28.20   24.70
  16  -9  -5   18.00   23.00
 -16   9  -5   23.20   19.60
   9  16   5   29.70   24.00
  16  -9   5   20.20   24.10
  -9 -16   5    3.30   19.40
   9  16   5   46.30   24.90
 -16   9   5   20.00   26.10
  11  16  -5   -3.80   17.40
  16 -11  -5  -16.50   12.30
  11  16   5    4.80   15.40
  11  16   5   24.40   20.80
 -16  11   5    8.40   31.20
 -11 -16   5   -1.60   15.60
  16 -11   5   25.50   27.10
 -16  13  -5  -11.10   16.70
  16 -13  -5    9.10   22.40
  13  16  -5   34.00   22.50
  16 -13   5   12.00   25.40
 -13 -16   5   23.60   23.00
  13  16   5   -4.40   15.80
  13  16   5   14.40   17.80
 -16  13   5   -8.10   15.10
 -16  15  -5  -24.70   15.50
  15  16  -5   -1.50   18.40
  16 -15  -5   43.00   29.80
 -15 -16   5   24.20   20.60
 -16  15   5   -7.10   20.70
  16 -15   5  -14.40   18.80
  15  16   5   26.00   24.80
  15  16   5   -3.60   16.60
 -14  17  -5   -2.60   17.70
  14 -17  -5   -3.60   22.20
  17  14  -5   18.80   19.00
 -17 -14   5   19.60   19.20
  14 -17   5  -23.10   15.30
  17  14   5   15.80   17.10
 -14  17   5  -24.60   21.80
 -12  17  -5   42.80   31.10
  12 -17  -5   21.40   26.30
  17  12  -5   36.70   21.00
  17  12   5   33.30   21.80
  17  12   5    3.70   14.30
 -12  17   5   39.80   42.30
 -17 -12   5   30.50   21.40
  12 -17   5   63.59   44.20
  10 -17  -5    3.10   19.80
  17  10  -5   -4.70   11.20
 -10  17  -5   42.20   26.70
 -10  17   5  -12.70   13.00
  17  10   5   -6.50   12.60
  17  10   5   11.80   19.00
  10 -17   5  -10.70   15.80
 -17 -10   5   -5.30   19.70
  -8  17  -5   31.20   25.90
  17   8  -5   12.50   14.80
   8 -17  -5   -7.20   18.70
  -8  17   5  -28.10   23.30
  17   8   5    9.70   15.20
  17   8   5   -8.90   14.50
   8 -17   5    4.20   15.00
 -17  -8   5    4.20   16.70
  -6  17  -5   -6.00   15.20
 -17  -6  -5    6.90   14.60
   6 -17  -5    1.60   19.00
 -17  -6   5   -9.10   14.40
   6 -17   5  -18.00   12.10
  -6  17   5   68.19   48.70
 -17  -6   5   53.29   24.50
  17   6   5   -4.80   12.10
  -4  17  -5  140.89   58.39
   4 -17  -5  239.18   74.39
 -17  -4  -5   83.39   32.90
  -4  17   5   31.20   38.80
  17   4   5   86.79   32.50
 -17  -4   5   36.00   27.70
 -17  -4   5   63.69   29.30
   4 -17   5   48.20   29.40
  -2  17  -5    0.20   16.10
 -17  -2  -5    8.00   16.00
   2 -17  -5    7.90   23.40
 -17  -2   5   19.00   20.60
  17   2   5    7.60   15.40
   2 -17   5    2.90   17.90
  -2  17   5   24.60   32.60
 -17  -2   5   26.50   19.70
   0 -17  -5   -2.10   14.30
 -17   0  -5    1.60   15.10
   0  17  -5   33.40   29.30
   0 -17   5   -8.50    9.40
 -17   0   5   -5.00   14.00
  17   0   5    0.00   13.80
   0  17   5  -13.70   17.60
 -17   0   5   -6.90   17.90
   2  17  -5  -13.50   13.70
  -2 -17  -5    9.60   21.90
 -17   2  -5   11.70   14.70
  -2 -17   5  -29.30   14.10
 -17   2   5    7.00   17.20
   2  17   5    6.60   20.60
 -17   2   5   27.20   23.20
  17  -2   5    6.50   16.10
  -4 -17  -5  111.79   38.90
   4  17  -5   54.69   30.50
 -17   4  -5   66.89   33.80
  17  -4   5   49.40   28.50
 -17   4   5   22.30   27.40
   4  17   5   92.49   42.20
  -4 -17   5  101.79   44.20
 -17   4   5   83.89   34.00
 -17   6  -5   12.10   17.00
   6  17  -5    2.70   17.10
   6  17   5  -10.20   12.70
 -17   6   5   -5.90   14.70
   6  17   5   -9.50   10.30
  17  -6   5   14.70   20.00
 -17   6   5    2.10   15.40
  -6 -17   5   -9.90   11.70
   8  17  -5   -2.30   15.90
 -17   8   5   30.90   20.60
  -8 -17   5  -17.30   10.30
   8  17   5    1.20   19.20
  17  -8   5    6.80   13.70
   8  17   5   11.80   16.70
 -17  10  -5    2.50   14.20
  10  17  -5   -8.70   11.50
  17 -10  -5  -10.60   13.70
  10  17   5   -2.00   12.50
  17 -10   5  -11.40   20.10
 -10 -17   5   -7.40   11.70
  10  17   5   16.60   19.20
 -17  10   5  -17.40   16.80
  17 -12  -5    4.80   20.70
 -17  12  -5   64.19   38.70
  12  17  -5    7.30   21.80
 -12 -17   5   -7.80   11.00
 -17  12   5   28.10   33.20
  17 -12   5  -13.00   14.10
  12  17   5    1.40   13.30
  12  17   5   33.40   22.80
  17 -14  -5   28.00   27.00
  14  17  -5    1.60   18.00
 -17  14  -5    3.10   18.00
  14  17   5  -15.80   11.30
  14  17   5   -1.80   13.60
 -17  14   5  -20.10   22.70
 -14 -17   5  -15.50   11.80
  17 -14   5   62.79   40.50
  18  13  -5    6.80   21.30
  13 -18  -5   18.80   28.70
 -13  18  -5  -18.70   21.90
 -13  18   5   -7.70   26.50
  18  13   5    8.20   17.00
  18  13   5   -7.10   12.10
 -18 -13   5  -19.00   12.50
  13 -18   5    0.70   29.40
 -11  18  -5   16.50   29.60
  18  11  -5   11.90   15.80
  11 -18  -5    0.60   20.10
  18  11   5   -6.20   10.30
  18  11   5  -11.90   12.40
 -11  18   5    7.30   67.69
  11 -18   5   -9.00   16.90
 -18 -11   5    6.30   17.20
  18   9  -5   -4.00   12.00
   9 -18  -5  -24.30   14.00
  -9  18  -5  -24.90   41.50
   9 -18   5  -22.00   17.00
  -9  18   5  -21.40   18.20
  18   9   5   -8.70   13.90
 -18  -9   5   -9.80   15.10
  18   9   5   14.30   15.70
  -7  18  -5    6.30   19.50
   7 -18  -5    9.80   27.70
 -18  -7   5   -2.80   15.00
   7 -18   5   -4.80   16.40
  18   7   5   16.30   15.80
 -18  -7   5   -9.00   17.70
  -7  18   5  -22.00   16.70
  -5  18  -5   14.80   26.10
 -18  -5  -5   75.79   29.70
   5 -18  -5   84.69   39.10
 -18  -5   5   30.90   22.30
   5 -18   5   32.10   27.70
 -18  -5   5   10.90   18.30
  -5  18   5   10.50   22.20
  18   5   5   66.39   25.50
 -18  -3  -5   45.80   25.50
   3 -18  -5   28.80   26.10
  -3  18  -5   83.99   59.59
 -18  -3   5   51.29   26.00
 -18  -3   5   44.60   24.90
  18   3   5   35.60   22.40
   3 -18   5   12.50   25.70
  -3  18   5   65.09   41.00
   1 -18  -5    6.10   21.20
 -18  -1  -5    5.00   15.20
  -1  18  -5   -6.80   14.70
  -1  18   5    7.30   20.90
 -18  -1   5  -22.00   10.90
 -18  -1   5   -6.50   11.80
  18   1   5    6.30   15.10
   1 -18   5   41.20   34.40
  -1 -18  -5   -0.20   19.40
   1  18  -5   -9.10   12.50
 -18   1  -5  -14.90   13.40
   1  18   5   -9.60   19.90
 -18   1   5   29.20   26.60
  18  -1   5  -15.00   10.40
  -1 -18   5   -9.20   12.70
 -18   1   5   -0.60   16.10
  -3 -18  -5   58.69   29.70
   3  18  -5   18.50   21.50
 -18   3  -5   48.80   27.40
 -18   3   5    4.60   18.20
  -3 -18   5   14.70   24.90
  18  -3   5   55.99   28.00
 -18   3   5   22.20   20.80
   3  18   5    0.70   20.50
 -18   5  -5   98.69   41.80
  -5 -18  -5   95.69   36.40
   5  18  -5   80.19   36.00
  18  -5   5   27.80   23.90
   5  18   5   43.40   30.20
  -5 -18   5    0.40   14.90
 -18   5   5   14.70   21.50
 -18   5   5   16.30   24.00
 -18   7  -5   17.30   19.50
   7  18  -5   27.70   22.50
   7  18   5    5.30   21.90
 -18   7   5   -5.40   14.90
  -7 -18   5  -14.40    8.70
  18  -7   5   43.00   28.30
 -18   7   5   40.80   25.70
   7  18   5   -8.50   14.40
   9  18  -5   22.10   21.80
  18  -9  -5   17.80   19.70
   9  18   5    4.80   19.10
   9  18   5   -1.70   17.10
  18  -9   5   14.50   18.50
  11  18  -5    2.30   16.60
 -18  11  -5   -1.40   13.50
  18 -11  -5    4.50   19.00
  11  18   5   -0.70   15.90
 -11 -18   5   -5.00   16.40
 -18  11   5   11.30   24.00
  18 -11   5   -7.50   16.10
  11  18   5   29.70   28.40
  13  18  -5    7.40   20.80
  18 -13  -5    9.80   22.10
 -18  13  -5  -12.20   13.80
  13  18   5    0.30   11.60
 -13 -18   5    1.10   16.10
 -18  13   5  -31.80   19.20
  13  18   5   12.00   17.40
  18 -13   5   28.20   32.20
 -12  19  -5    8.70   27.30
  12 -19  -5   -6.70   24.60
  19  12  -5   23.40   17.40
 -19 -12   5    8.10   16.40
  19  12   5   -9.00   12.80
  12 -19   5   23.90   32.60
  19  12   5   13.60   18.50
 -12  19   5   21.60   31.90
 -10  19  -5   27.70   29.00
  10 -19  -5  -15.50   15.70
 -19 -10   5  -13.00   10.60
 -10  19   5    7.40   28.10
  10 -19   5   18.70   30.20
  19  10   5   -4.00   13.70
  19  10   5   46.50   21.20
   8 -19  -5  -19.10   15.10
  -8  19  -5  -11.60   16.20
 -19  -8   5   30.60   19.50
 -19  -8   5   18.80   18.00
  19   8   5   25.70   18.20
  19   8   5    3.40   14.60
   8 -19   5  -22.20   15.20
  -8  19   5    0.80   31.00
  -6  19  -5   26.20   27.60
 -19  -6  -5    0.80   13.70
   6 -19  -5  -19.10   37.00
 -19  -6   5   -4.00   14.10
  -6  19   5    2.20   15.70
   6 -19   5   10.80   23.60
  19   6   5   -9.60   12.30
   4 -19  -5  -14.20   17.30
 -19  -4  -5  -21.80   17.70
  -4  19  -5   -7.10   24.70
   4 -19   5   37.70   32.80
 -19  -4   5   13.90   15.70
  19   4   5   -5.90   11.70
  -4  19   5    0.60   16.10
 -19  -4   5    5.50   19.00
 -19  -2  -5   62.09   23.70
  -2  19  -5   26.50   52.09
   2 -19  -5   -8.60   17.80
 -19  -2   5   -3.10   15.90
 -19  -2   5  -12.90   11.60
   2 -19   5   45.90   33.40
  -2  19   5   11.20   21.00
  19   2   5    9.70   16.00
 -19   0  -5   -8.60   13.20
   0  19  -5   -1.00   16.50
   0 -19  -5   14.50   21.00
  19   0   5   -7.30   13.10
 -19   0   5    9.70   16.50
   0 -19   5   -1.90   11.10
 -19   0   5   22.90   19.50
   0  19   5  -17.60   26.30
   2  19  -5   22.50   20.00
  -2 -19  -5   35.60   30.40
 -19   2  -5  -15.40   11.60
  -2 -19   5    9.10   22.00
   2  19   5  -17.80   16.90
 -19   2   5   29.20   22.70
 -19   2   5    5.80   16.40
  19  -2   5  -10.60    9.30
  -4 -19  -5   -9.30   14.30
 -19   4  -5   -8.40   13.10
   4  19  -5   -4.60   16.40
  -4 -19   5  -13.70   10.70
 -19   4   5  -11.70   13.90
   4  19   5  -19.80   12.90
 -19   4   5   20.70   23.50
  19  -4   5    6.00   16.20
   6  19  -5   17.80   23.20
 -19   6  -5  -13.20   12.80
  -6 -19  -5   39.40   24.50
 -19   6   5    2.60   15.90
 -19   6   5    0.60   17.30
  -6 -19   5   10.80   17.80
  19  -6   5    0.10   16.40
   6  19   5   22.10   27.70
 -19   8  -5   12.00   21.10
   8  19  -5   -2.40   18.20
   8  19   5   32.70   22.10
  -8 -19   5   53.59   32.50
  19  -8   5   -7.90   15.80
   8  19   5   -9.60   15.00
 -19   8   5    6.90   29.50
 -19   8   5   -9.70   12.70
  10  19  -5   -3.90   14.10
  19 -10  -5  -20.30   13.20
  19 -10   5   -0.80   16.20
  10  19   5    5.30   18.40
  10  19   5   -6.30   14.70
 -10 -19   5   -9.00   15.70
  12  19  -5   -1.70   15.40
 -19  12  -5    0.70   18.40
  19 -12  -5   -3.10   14.30
  12  19   5   -3.40   14.60
  12  19   5  -10.80   12.50
  19 -12   5   -8.70   17.10
 -19  12   5   36.00   34.60
 -12 -19   5    6.00   22.60
 -11  20  -5   34.30   40.40
  11 -20  -5  -16.70   15.80
  20  11   5    9.00   14.40
  20  11   5   -2.30   14.60
 -20 -11   5    1.80   14.90
 -11  20   5  -14.30   22.70
  11 -20   5    7.20   23.30
   9 -20  -5   -0.40   29.30
 -20  -9   5   -5.20   13.30
   9 -20   5   -5.50   15.80
 -20  -9   5   12.10   16.40
  20   9   5    8.80   18.70
  20   9   5   -7.60   11.30
  -9  20   5   -1.00   29.70
   7 -20  -5   13.30   23.40
  -7  20  -5   12.50   22.00
 -20  -7   5    9.90   14.60
  -7  20   5    2.90   29.00
   7 -20   5   14.00   26.30
 -20  -7   5    7.10   17.00
  20   7   5   -1.60   13.20
 -20  -5  -5   20.70   21.30
   5 -20  -5   61.79   33.30
  -5  20  -5   25.70   26.60
  20   5   5   45.50   25.10
 -20  -5   5   28.30   21.50
 -20  -5   5    3.60   18.80
  -5  20   5  -17.20   22.20
   5 -20   5   57.79   41.10
   3 -20  -5   -1.60   24.10
  -3  20  -5    0.00   40.00
 -20  -3  -5   38.40   25.00
   3 -20   5    4.90   31.70
 -20  -3   5   60.39   27.40
  -3  20   5  112.79   57.29
 -20  -3   5   46.70   27.10
  20   3   5   80.79   29.60
 -20  -1  -5    3.20   17.00
   1 -20  -5   21.30   22.50
  -1  20  -5    8.70   20.60
 -20  -1   5   16.50   18.10
   1 -20   5  -15.60   13.40
  20   1   5    3.30   13.60
 -20  -1   5   14.70   17.60
  -1  20   5   29.20   29.70
 -20   1  -5   13.10   18.70
   1  20  -5    7.90   24.50
  -1 -20  -5   46.20   28.40
  -1 -20   5  -14.60   18.20
  20  -1   5    1.10   15.50
 -20   1   5   12.20   17.00
 -20   1   5  -10.30   12.20
   1  20   5  -10.10   15.20
   3  20  -5   10.50   19.30
  -3 -20  -5   83.29   37.60
 -20   3  -5   24.00   24.20
 -20   3   5   25.40   27.30
 -20   3   5   43.00   25.80
   3  20   5   16.00   25.30
  20  -3   5   -0.70   13.70
  -3 -20   5    8.10   20.80
  -5 -20  -5   -5.00   17.90
   5  20  -5   34.70   25.70
 -20   5  -5   -5.80   14.80
 -20   5   5    3.70   17.00
  -5 -20   5   36.20   34.20
 -20   5   5   25.30   22.30
   5  20   5    8.20   19.10
  20  -5   5   -8.80   15.10
 -20   7  -5  -12.10   15.90
   7  20  -5    7.60   20.80
  20  -7   5   14.60   20.60
 -20   7   5    5.00   19.30
   7  20   5  -13.40   14.10
  -7 -20   5    2.70   18.40
 -20   7   5   -6.00   14.40
 -20   9  -5   15.00   19.20
   9  20  -5   -0.50   17.90
 -20   9   5  -21.80   19.00
  -9 -20   5   -3.50   15.00
  20  -9   5   -8.70   12.30
   9  20   5   -3.10   14.40
   9  20   5    0.20   22.00
  11  20  -5   -7.50   13.90
  20 -11  -5    7.10   21.20
  11  20   5    0.90   14.80
  11  20   5  -13.90   13.20
  20 -11   5   -5.20   19.60
 -11 -20   5   12.10   24.30
  -8  21  -5  -11.80   18.10
   8 -21  -5   -7.30   19.10
  21   8   5    5.00   25.20
   8 -21   5   15.00   29.50
 -21  -8   5   -2.80   13.20
  -8  21   5  128.89   60.59
 -21  -8   5   15.00   15.80
   6 -21  -5   16.80   26.00
  -6  21  -5   41.30   33.90
 -21  -6  -5   38.60   23.30
   6 -21   5   67.79   41.50
 -21  -6   5   13.20   19.10
  21   6   5    9.40   18.00
  -6  21   5   34.40   29.80
 -21  -6   5   14.20   18.70
 -21  -4  -5   24.60   20.60
   4 -21  -5   31.80   31.60
  -4  21  -5   64.89   47.00
   4 -21   5   -5.60   15.40
 -21  -4   5  -14.80   11.20
  -4  21   5   47.40   37.70
 -21  -4   5   40.40   22.40
  21   4   5   13.50   16.80
   2 -21  -5  -24.60   15.50
  -2  21  -5   20.80   28.50
 -21  -2  -5    7.90   18.80
 -21  -2   5    8.00   14.90
   2 -21   5   13.10   26.30
  21   2   5    0.10   13.50
  -2  21   5   31.80   34.80
 -21   0  -5   -6.00   14.50
   0 -21  -5    5.20   22.90
   0  21  -5   -8.90   16.60
   0  21   5   17.50   31.50
 -21   0   5    4.60   15.30
 -21   0   5  -12.80   12.10
  21   0   5  -11.90   11.80
   0 -21   5  -20.50   10.90
   2  21  -5   11.50   25.10
 -21   2  -5    1.70   15.30
  -2 -21  -5  -19.20   13.30
 -21   2   5  -22.30   12.90
  21  -2   5   -2.80   11.60
  -2 -21   5  -13.40   14.20
 -21   2   5   19.20   22.20
   2  21   5  -15.80   13.00
  -4 -21  -5   46.80   40.20
   4  21  -5   -3.00   14.80
 -21   4  -5    2.20   18.80
 -21   4   5  -14.10   15.00
  21  -4   5   14.90   21.30
   4  21   5   10.20   17.80
  -4 -21   5   52.99   32.50
 -21   4   5   38.20   24.90
  -6 -21  -5    6.00   19.20
   6  21  -5   46.20   27.90
 -21   6  -5   -0.40   13.90
  -6 -21   5  -13.30   12.20
 -21   6   5   33.40   22.00
   6  21   5   69.19   42.50
 -21   6   5   24.30   21.20
  21  -6   5   14.20   20.50
 -21   8  -5    5.60   20.60
  21  -8   5   45.00   31.20
   8  21   5   -2.30   21.30
 -21   8   5   -3.90   20.10
 -21   8   5   22.00   18.60
  -8 -21   5    7.50   24.70
 -22  -5  -5    0.30   17.80
   5 -22  -5  -17.40   16.60
  -5  22  -5   49.20   32.60
  -5  22   5   -8.40   30.00
 -22  -5   5    9.50   16.40
 -22  -5   5    6.10   17.50
   5 -22   5   21.20   34.20
  22   5   5    2.40   14.80
   3 -22  -5   21.20   29.10
  -3  22  -5   -1.00   21.90
 -22  -3  -5   -6.20   14.10
 -22  -3   5   -2.10   13.90
  22   3   5   -2.40   11.50
 -22  -3   5    6.70   18.60
  -3  22   5   -3.20   19.10
   3 -22   5    2.70   21.70
   1 -22  -5  -14.40   18.10
 -22  -1  -5   -4.20   12.50
  -1  22  -5  -20.80   16.60
 -22  -1   5    8.20   18.20
  -1  22   5   -0.60   16.50
  22   1   5  -12.80   10.40
   1 -22   5   -5.90   19.20
 -22  -1   5   -3.90   17.60
 -22   1  -5   -8.00   15.50
  -1 -22  -5   19.50   26.70
   1  22  -5  -23.20   16.90
 -22   1   5   35.70   23.50
   1  22   5   27.30   32.30
  22  -1   5   11.70   18.20
  -1 -22   5   27.20   37.70
 -22   1   5   12.30   17.10
   3  22  -5   18.10   25.80
  -3 -22  -5   -8.70   16.00
 -22   3  -5   -0.70   19.20
 -22   3   5  -14.20   14.10
 -22   3   5    4.70   21.60
  22  -3   5   20.00   22.70
  -3 -22   5   -0.60   17.90
   3  22   5    9.60   20.20
 -22   5  -5    8.90   23.10
   5  22  -5   34.30   29.30
  -5 -22  -5    4.40   19.00
 -22   5   5   18.90   24.40
   5  22   5    3.80   29.70
  22  -5   5    5.00   19.60
  -5 -22   5    1.90   16.60
 -22   5   5   60.99   36.30
   0   0  -6  -10.30   12.50
   0   0   6   14.40   21.00
   1  -1  -6  354.56   84.79
   1   1  -6  193.88   68.89
  -1  -1  -6  274.97   75.89
  -1   1  -6  206.58   67.89
   1  -1   6  171.68   64.79
  -1   1   6  215.98   72.89
   1   1   6  212.98   69.19
  -1  -1   6  325.97   95.39
   0  -2  -6  342.37  106.29
   2   0  -6  358.16  109.09
   0   2  -6  308.37  106.59
  -2   0  -6  393.86  112.09
  -2   0   6  549.15  133.59
   0   2   6  416.56  111.69
   2   0   6  420.36  111.99
   0  -2   6  371.96  109.69
   2  -2  -6   14.50   39.80
  -2  -2  -6   11.60   17.80
  -2   2  -6   24.40   27.10
   2   2  -6   -0.60   14.60
   2   2   6   10.60   18.30
  -2  -2   6  -18.00   11.90
  -2   2   6   23.50   39.20
   2  -2   6   20.50   23.10
   3   1  -6    8.90   17.40
   1  -3  -6  -20.20    8.90
  -1   3  -6   36.20   28.20
  -3  -1  -6   37.50   23.70
   3   1   6   15.50   17.30
  -3  -1   6   60.79   30.00
  -1   3   6   17.00   16.30
   1  -3   6  -13.00   17.20
  -1  -3  -6   30.00   25.20
   1   3  -6   -8.60   14.40
   3  -1  -6   33.90   22.30
  -3   1  -6   20.30   17.60
  -3   1   6   39.90   26.50
   3  -1   6   -0.20   15.10
   1   3   6   31.40   19.90
  -1  -3   6    3.20   16.20
  -3  -3  -6  532.25  112.59
  -3   3  -6  423.56  104.59
   3  -3  -6  297.47   99.59
   3   3  -6  333.17  105.19
  -3   3   6  296.27  100.39
  -3  -3   6  581.34  116.29
   3  -3   6  325.37   98.49
   3   3   6  261.77   94.99
  -2   4  -6  725.73  131.29
   4   2  -6  255.97   90.39
  -4  -2  -6  526.95  119.29
   2  -4  -6  279.87   88.59
   2  -4   6  400.56  101.69
  -4  -2   6  364.96   98.09
   4   2   6  350.66   96.79
  -2   4   6  240.68   87.29
   4   0  -6  583.54  171.98
  -4   0  -6  892.91  186.18
   0  -4  -6  775.62  189.78
   0   4  -6  364.86  165.18
   0  -4   6  679.53  176.68
   4   0   6  818.22  187.68
   0   4   6 1140.39  202.28
  -4   0   6 1220.98  212.68
  -2  -4  -6  303.57  130.59
   4  -2  -6  478.55  136.59
  -4   2  -6  605.84  150.08
   2   4  -6  655.53  150.98
  -2  -4   6  461.35  141.19
   4  -2   6  462.95  138.09
  -4   2   6  739.33  167.08
   2   4   6  786.82  166.78
  -4   4  -6   19.60   21.70
  -4  -4  -6   10.20   16.30
   4   4  -6  -12.00    9.90
  -4   4   6   41.30   24.60
   4  -4   6  -25.70   30.30
   4   4   6  -12.90    9.50
  -4  -4   6    0.80   13.50
  -5  -3  -6  512.85  137.49
  -3   5  -6  987.60  176.88
   5   3  -6  557.84  142.09
   3  -5   6  569.34  157.28
  -5  -3   6  401.76  136.79
  -3   5   6 1161.78  183.78
  -3   5   6  418.46  136.29
   5   3   6  456.95  135.39
  -5  -1  -6  373.66  112.39
   5   1  -6  266.07  107.09
  -1   5  -6  732.73  145.19
  -1   5   6  454.75  126.89
  -5  -1   6  351.96  108.59
   1  -5   6  396.06  116.99
   5   1   6  761.32  135.79
   1   5  -6  681.83  138.89
  -1  -5  -6  238.68   92.99
  -5   1  -6  325.87   99.89
   5  -1  -6  423.26  115.99
  -5   1   6  341.97  100.89
  -1  -5   6  395.86  105.89
   1   5   6  435.66  108.99
   5  -1   6  316.67   99.39
  -5   3  -6  729.33  172.68
   3   5  -6  472.05  164.28
  -3  -5  -6  878.41  188.68
   5  -3  -6 1230.08  217.48
  -3  -5   6  817.92  179.98
  -5   3   6  476.55  168.28
   5  -3   6  619.64  169.08
   3   5   6  563.94  168.58
  -5  -5  -6  763.62  160.68
  -5   5  -6  514.65  135.39
   5   5  -6  519.75  139.19
  -5   5   6  422.26  129.69
   5  -5   6  367.26  130.89
  -5  -5   6  818.52  153.18
   5   5   6  426.36  127.59
  -5   5   6  431.36  134.39
  -6  -4  -6    2.00   15.60
  -4   6  -6   28.00   21.20
   6   4  -6    7.00   14.70
  -4   6   6    8.50   19.50
  -6  -4   6   14.80   17.80
   6   4   6   18.80   18.10
  -4   6   6   50.29   27.20
   4  -6   6    5.00   15.90
   6   2  -6   -7.00   15.00
  -2   6  -6  -14.80   11.40
  -6  -2  -6   -1.00   12.40
  -2   6   6   -2.90   15.50
   2  -6   6  -19.30   11.00
   6   2   6   -8.90   11.40
  -6  -2   6  -11.90   11.70
  -2   6   6  -11.20   10.20
  -6   0  -6   78.79   36.10
   0   6  -6   49.70   27.50
   6   0  -6  138.29   47.40
  -6   0   6   76.59   34.60
   6   0   6  126.09   43.10
   0   6   6  132.39   49.90
   0  -6   6   25.70   26.40
   0   6   6   47.70   33.00
   2   6  -6  -18.10   10.30
   6  -2  -6   28.60   17.50
  -6   2  -6  -13.10   14.60
   6  -2   6  -20.40   13.00
   2   6   6   28.80   21.70
  -6   2   6   47.80   23.30
  -2  -6   6   39.10   23.20
   4   6  -6   10.20   17.60
  -4  -6  -6   22.70   17.00
  -6   4  -6   26.40   23.90
  -6   4   6  -16.60   11.70
   4   6   6   -1.10   13.90
  -6   4   6   12.60   36.70
  -4  -6   6    4.30   18.30
   6  -4   6   -2.00   10.80
  -6  -6  -6   -1.90   15.30
   6   6  -6  -16.60   10.80
  -6   6  -6   -2.70   21.30
  -6   6   6   18.20   21.90
  -6  -6   6   10.70   16.20
   6   6   6   21.00   16.20
   6  -6   6   -6.60   15.50
  -6   6   6   -0.90   14.40
  -7  -5  -6  319.87   89.89
  -5   7  -6  328.17   91.59
  -5   7   6  272.87   92.29
   7   5   6  400.36   96.69
  -5   7   6  213.48   85.89
   5  -7   6  736.93  146.49
  -7  -5   6  264.97   84.49
   7   3  -6  501.95  169.28
  -3   7  -6  472.15  166.88
  -7  -3  -6  823.92  180.48
   7   3   6  821.72  179.18
   3  -7   6  613.94  177.18
  -3   7   6  580.24  171.08
  -3   7   6  804.42  183.48
  -7  -3   6  976.90  187.08
  -7  -1  -6 1382.96  292.47
  -1   7  -6  876.71  289.27
   7   1  -6 1187.68  289.87
   7   1   6 1272.57  290.87
  -1   7   6 1335.87  302.77
  -7  -1   6 1239.48  290.37
   1  -7   6  846.62  293.67
  -1   7   6 1212.88  298.77
   1   7  -6 1531.45  303.57
  -7   1  -6 1299.67  278.87
   7  -1  -6 1090.29  283.17
  -1  -7   6 1223.78  291.47
  -7   1   6  839.92  274.37
   1   7   6 1040.50  280.47
   1   7   6 1084.19  282.77
   7  -1   6 1146.69  277.57
  -7   3  -6  545.45  150.68
   3   7  -6  460.45  147.89
   7  -3   6  711.83  158.68
   3   7   6  542.35  152.08
  -3  -7   6  449.26  148.79
  -7   3   6  710.53  157.48
   3   7   6  905.81  171.48
  -7   3   6  538.95  153.18
   5   7  -6  311.67   89.69
  -7   5  -6  397.86   95.69
  -7   5   6  238.48   86.49
   5   7   6  235.88   81.09
  -5  -7   6  491.55  103.39
  -7   5   6  258.87   83.09
   5   7   6  216.48   83.89
   7  -5   6  595.94  120.29
   7   7  -6   47.40   26.10
  -7   7  -6   24.10   22.90
  -7  -7   6   30.80   27.70
  -7   7   6   30.90   25.70
  -7   7   6   39.00   26.80
   7   7   6  116.99   41.20
   7  -7   6   42.00   24.70
   8   6  -6  160.38   51.59
  -6   8  -6   98.89   44.60
  -6   8   6  114.39   46.60
   6  -8   6  142.29   54.29
  -8  -6   6  221.98   63.99
  -6   8   6  308.27   71.89
   8   6   6   78.79   40.10
   8   4  -6   54.69   27.60
  -4   8  -6   71.59   34.90
  -4   8   6   26.10   26.30
  -8  -4   6   37.80   28.50
   8   4   6   45.40   27.30
  -4   8   6   53.29   27.80
   4  -8   6   64.29   29.70
  -8  -2  -6  127.99   43.80
  -2   8  -6  175.98   65.09
   8   2  -6  117.19   42.70
   8   2   6  122.89   40.70
  -2   8   6   43.80   34.40
  -2   8   6  111.49   43.60
  -8  -2   6  104.89   41.50
   0   8  -6   91.19   40.90
   8   0  -6   41.00   22.20
  -8   0  -6   13.10   15.60
  -8   0   6   13.50   18.50
   8   0   6   31.20   21.20
   0   8   6   -1.80   15.70
   0  -8   6    0.00   17.00
   0   8   6   38.10   21.10
   2   8  -6  129.69   43.90
  -8   2  -6   32.30   25.40
  -8   2   6   22.40   26.30
   8  -2   6   93.39   35.70
   2   8   6   88.69   38.60
   2   8   6  122.99   40.40
  -8   2   6   63.89   30.50
  -2  -8   6   85.29   33.60
   4   8  -6   58.99   29.30
  -8   4  -6   63.29   32.40
  -8   4   6   38.90   25.20
   8  -4   6   17.80   23.30
   4   8   6   43.10   31.00
  -4  -8   6   51.19   33.20
  -8   4   6   53.79   31.00
   4   8   6   36.50   26.70
   6   8  -6  145.09   54.29
  -8   6  -6  142.89   58.69
  -8   6   6  243.18   68.09
  -8   6   6  232.98   72.89
  -6  -8   6  121.19   55.59
   8  -6   6  190.68   63.09
   6   8   6  192.58   60.79
   6   8   6  177.58   60.99
   8   8  -6   -2.20   11.90
  -8   8  -6   33.60   29.20
   8  -8   6    0.80   16.90
  -8  -8   6   -6.80   14.20
  -8   8   6   12.80   17.20
   8   8   6    6.30   18.00
  -8   8   6   35.90   29.40
   8   8   6   -7.50   10.00
   9   7  -6  155.48   45.90
  -7   9  -6  213.18   62.09
  -9  -7  -6  107.69   45.60
  -9  -7   6  116.79   44.20
   9   7   6  120.79   46.00
   7  -9   6  162.08   54.89
  -7   9   6   95.79   43.40
  -7   9   6   89.29   46.50
  -5   9  -6  384.76  110.19
   9   5  -6  376.46  105.79
  -5   9   6  318.37  105.29
   9   5   6  363.76  103.39
   5  -9   6  741.83  149.39
  -9  -5   6  530.05  115.09
  -5   9   6  242.88  100.99
  -3   9  -6  409.46  119.79
   9   3  -6  469.85  118.69
   9   3   6  297.47  110.49
  -3   9   6  461.95  120.39
  -9  -3   6  494.55  126.19
  -3   9   6  486.45  125.89
   3  -9   6  541.35  152.88
   9   1  -6  770.62  231.68
  -1   9  -6  991.20  238.38
  -1   9   6 1032.70  243.68
   1  -9   6  773.62  233.68
  -1   9   6 1098.29  242.88
  -9  -1   6  864.01  234.08
   9   1   6  922.91  230.98
   1   9  -6 1367.56  252.07
  -9   1  -6  829.62  230.18
   1   9   6  795.62  229.38
   1   9   6  805.42  228.68
  -9   1   6  697.03  221.98
   9  -1   6  945.51  231.98
  -9   1   6  964.70  234.88
  -1  -9   6 1292.17  248.38
   3   9  -6  402.66  115.19
  -9   3  -6  416.76  114.69
  -3  -9   6  308.57  105.99
  -9   3   6  375.96  108.99
  -9   3   6  471.05  116.79
   9  -3   6  387.76  111.79
   3   9   6  396.66  110.19
   3   9   6  507.95  118.39
  -9   5  -6  512.85  119.79
   5   9  -6  426.46  111.79
  -9   5   6  287.57  109.99
   5   9   6  489.35  114.59
  -5  -9   6  276.97  106.19
   9  -5   6  476.95  119.69
  -9   5   6  444.56  121.39
   5   9   6  335.27  107.09
  -9   7  -6  139.89   56.49
   7   9  -6  223.58   60.19
  -9   7   6  117.49   54.39
   7   9   6  184.78   56.39
   9  -7   6  209.78   72.89
  -7  -9   6  142.39   57.09
   7   9   6   96.29   47.80
  -9   7   6  295.07   76.59
  -9   9  -6   84.19   49.30
   9   9  -6  130.39   48.70
   9  -9   6  188.28   66.39
  -9   9   6  111.09   50.19
   9   9   6  148.29   52.29
  -9   9   6  232.98   81.39
   9   9   6  153.38   51.39
  -9  -9   6  224.18   64.49
  -8  10  -6  -26.60   15.70
  10   8  -6  -18.40    9.90
  -8  10   6   76.19   35.30
   8 -10   6   21.20   28.20
  10   8   6   20.80   17.40
 -10  -8   6   17.50   16.10
  10   8   6   -5.40   13.90
  -8  10   6    1.80   16.80
  10   6  -6   13.00   19.20
 -10  -6  -6    8.70   21.30
  -6  10  -6    8.10   18.90
   6 -10   6   -8.40   17.50
  10   6   6   14.90   17.30
  -6  10   6   54.99   30.00
  -6  10   6   -5.30   18.40
 -10  -6   6   24.30   22.80
 -10  -4  -6  359.76   90.99
  -4  10  -6  249.88   78.89
  10   4  -6  212.38   78.99
  10   4   6  227.78   79.59
 -10  -4   6  227.18   78.59
  -4  10   6  290.07   90.19
   4 -10   6  492.75  122.09
  -4  10   6  264.07   81.79
  -2  10  -6    8.70   19.90
  10   2  -6  -11.50   10.90
 -10  -2   6   30.90   23.60
  -2  10   6  -18.80   13.20
   2 -10   6   30.70   19.70
  -2  10   6   35.70   22.30
  10   2   6   14.40   21.30
   0  10  -6   -3.30   18.00
 -10   0  -6    0.70    6.40
  10   0   6   47.50   23.60
   0 -10   6   21.30   23.60
 -10   0   6   30.00   21.20
   0  10   6  -12.60   15.80
   0  10   6   94.79   36.00
   2  10  -6   12.10   18.60
 -10   2  -6  -12.40   11.90
   2  10   6   43.70   23.80
  10  -2   6   18.00   20.10
   2  10   6   18.40   23.80
  -2 -10   6  -15.60   13.70
 -10   2   6   54.59   26.90
 -10   2   6   52.99   27.40
 -10   4  -6  216.78   77.59
   4  10  -6  195.48   70.09
  10  -4   6  154.98   65.19
   4  10   6  197.38   72.29
   4  10   6  252.97   74.89
 -10   4   6  273.47   78.19
  -4 -10   6  239.88   70.09
 -10   4   6  273.97   71.19
   6  10  -6   25.80   21.00
 -10   6  -6   -4.30   16.20
   6  10   6   -8.10   12.30
 -10   6   6   -3.60   16.10
  10  -6   6   -2.20   17.20
 -10   6   6   12.00   22.20
  -6 -10   6    0.50   20.00
   6  10   6    8.30   17.10
 -10   8  -6  -23.00   15.10
   8  10  -6    2.40   16.00
   8  10   6  -13.20   13.30
 -10   8   6   30.80   28.20
  -8 -10   6  -25.90   12.40
   8  10   6   -4.30   16.00
  10  -8   6    9.00   18.40
 -10   8   6   -5.90   15.90
  10  10  -6    7.90   18.20
 -10  10  -6   -3.20   15.40
  10  10   6   -5.90   13.50
 -10 -10   6   25.60   22.70
 -10  10   6    5.00   17.50
  10  10   6    7.90   18.50
  10 -10   6    7.40   20.40
 -10  10   6   13.50   20.00
  11   9  -6   39.20   29.60
  -9  11  -6   95.59   42.60
  -9  11   6   73.59   36.00
 -11  -9   6   92.89   37.10
  11   9   6   93.99   40.40
  11   9   6   78.19   36.40
   9 -11   6  165.58   47.20
  -9  11   6  157.58   47.50
  11   7  -6   78.49   38.20
  -7  11  -6   46.50   33.30
 -11  -7  -6   79.39   37.90
  -7  11   6  117.19   44.00
  -7  11   6   84.19   41.50
 -11  -7   6  150.48   48.50
  11   7   6  109.39   43.30
   7 -11   6   95.99   41.10
  11   5  -6  241.68   69.39
  -5  11  -6  269.77   76.89
 -11  -5  -6  234.58   72.39
  -5  11   6  235.28   71.49
 -11  -5   6  148.89   62.49
  -5  11   6  372.36  100.99
   5 -11   6  114.69   58.09
  11   5   6  269.17   72.19
  -3  11  -6  443.26  120.19
 -11  -3  -6  222.18   87.49
  11   3  -6  336.97   94.39
  11   3   6  226.88   85.09
   3 -11   6  313.87  100.19
 -11  -3   6  407.56   98.79
  -3  11   6  335.77  100.59
  -3  11   6  428.76  107.09
  -1  11  -6 1785.62  290.57
   1 -11   6 1090.89  254.27
  -1  11   6  961.60  247.68
  -1  11   6  886.01  247.48
  11   1   6  841.82  239.58
 -11  -1   6  777.42  235.78
   1  11  -6  597.34  178.58
   1  11   6  761.32  188.88
 -11   1   6  747.53  182.68
  11  -1   6  908.81  188.58
   1  11   6  650.93  180.98
  -1 -11   6  573.54  177.98
   3  11  -6  344.07   93.59
 -11   3  -6  438.56   95.39
 -11   3   6  264.77   84.99
 -11   3   6  263.17   83.19
   3  11   6  251.47   85.19
  -3 -11   6  231.38   80.99
   3  11   6  336.57   94.09
  11  -3   6  283.67   90.29
   5  11  -6  299.97   87.09
 -11   5   6  243.08   82.79
 -11   5   6  239.38   80.79
  -5 -11   6  377.56   97.09
  11  -5   6  216.68   79.99
   5  11   6  429.36   97.49
   5  11   6  204.48   79.99
 -11   7  -6   54.89   36.10
   7  11  -6  127.49   42.30
   7  11   6  113.89   43.80
 -11   7   6  104.49   43.60
 -11   7   6   51.99   36.60
   7  11   6  124.39   43.50
  11  -7   6  121.79   50.69
  -7 -11   6  198.38   57.29
   9  11  -6   75.99   34.40
 -11   9  -6  112.59   40.30
 -11   9   6   56.09   37.50
   9  11   6   67.49   32.90
 -11   9   6   79.89   33.30
  -9 -11   6   41.40   30.10
  11  -9   6  228.18   60.49
   9  11   6   37.30   26.50
  11  11  -6  109.09   38.90
 -11  11  -6   89.39   36.20
 -11  11   6   97.69   34.90
 -11 -11   6   60.09   30.90
  11 -11   6   57.79   35.00
  11  11   6   12.80   18.70
 -11  11   6   86.79   32.20
  11  11   6    5.50   20.20
 -10  12  -6   43.40   32.90
  12  10  -6   42.90   26.00
  12  10   6   20.50   21.10
  12  10   6   46.90   25.00
  10 -12   6   75.89   35.80
 -12 -10   6   48.60   32.50
 -10  12   6    8.90   25.80
  -8  12  -6  -32.70   13.20
  12   8  -6  -10.50   12.00
 -12  -8   6   -5.50   14.60
  -8  12   6    4.20   17.40
   8 -12   6    5.20   19.70
  12   8   6    5.30   16.20
  -8  12   6   -9.50   10.70
  12   8   6   14.60   16.90
  12   6  -6    2.10   14.80
 -12  -6  -6   10.70   18.90
  -6  12  -6   22.40   24.50
 -12  -6   6   47.70   25.30
  -6  12   6    5.20   18.70
  -6  12   6  -15.10   12.00
   6 -12   6   -0.70   18.90
  12   6   6  -12.80   10.70
  -4  12  -6   27.70   26.30
  12   4  -6   72.89   31.90
 -12  -4  -6   58.79   34.00
 -12  -4   6   96.69   42.30
  12   4   6  126.19   39.90
   4 -12   6  222.18   85.79
  -4  12   6   45.60   37.80
 -12  -2  -6    3.20   16.00
  -2  12  -6   -3.10   17.00
  12   2  -6   23.40   17.60
 -12  -2   6   -1.60   17.90
   2 -12   6   -1.80   12.90
  -2  12   6   18.80   22.80
  -2  12   6    6.70   20.10
  12   2   6   -3.40   10.80
   0  12  -6  -19.00   12.50
  12   0   6   24.40   23.50
   0  12   6   30.50   19.80
   0  12   6  -20.60   13.60
   0 -12   6    0.20   24.60
 -12   0   6    9.70   15.50
   2  12  -6   14.00   19.00
   2  12   6   15.20   16.30
   2  12   6  -14.20   14.00
  12  -2   6   -5.50   12.20
  -2 -12   6   62.89   36.10
 -12   2   6    2.50    8.70
 -12   2   6  -22.50   12.60
 -12   4  -6   40.40   29.90
   4  12  -6  113.89   39.80
  -4 -12   6   84.39   34.60
   4  12   6   28.10   26.60
 -12   4   6   46.80   33.40
  12  -4   6   69.79   30.70
   4  12   6  109.29   46.20
 -12   4   6  159.28   47.00
   6  12  -6  -18.30   11.10
   6  12   6   10.40   19.90
 -12   6   6   38.20   28.60
  12  -6   6   -9.00   10.50
  -6 -12   6   -9.00   14.00
 -12   6   6   39.80   25.90
   6  12   6    2.40   15.30
   8  12  -6   -7.00   15.60
 -12   8  -6    7.30   17.80
  12  -8   6   14.20   20.00
   8  12   6    3.20   15.40
  -8 -12   6    9.70   25.70
 -12   8   6  -16.20   15.00
 -12   8   6   31.40   24.80
   8  12   6   -1.50   16.40
 -12  10  -6   26.50   24.30
  10  12  -6   24.10   24.20
  12 -10   6   39.90   23.60
 -10 -12   6  111.49   44.60
 -12  10   6  101.79   43.20
  10  12   6   11.20   23.90
 -12  10   6  119.59   62.59
 -12  12  -6    1.30   18.40
  12  12  -6   14.50   18.60
  12  12   6  -14.10   14.50
 -12  12   6    0.60   23.10
  12 -12   6   -3.60   13.40
  12  12   6   -1.50   10.60
 -12 -12   6   -8.50   14.90
 -11  13  -6   25.90   35.10
  13  11  -6   60.39   30.80
  11 -13  -6   38.30   35.40
  11 -13   6  134.39   56.89
 -11  13   6  126.29   54.39
  13  11   6   56.09   30.00
  13  11   6  141.29   41.30
 -13 -11   6   97.49   36.10
  13   9  -6  103.19   40.50
   9 -13  -6   86.79   49.50
  -9  13  -6  103.19   48.00
  13   9   6   62.69   35.10
 -13  -9   6  130.39   45.80
   9 -13   6  168.38   67.89
  -9  13   6  138.99   53.89
  13   9   6   93.19   38.70
 -13  -7  -6  247.88   68.89
  13   7  -6  199.78   62.69
  -7  13  -6  167.78   64.99
  13   7   6  276.37   68.39
  -7  13   6  220.08   84.29
   7 -13   6  124.19   55.79
 -13  -7   6  192.78   66.19
  13   5  -6  147.29   55.69
  -5  13  -6  423.46  100.69
 -13  -5  -6  255.97   68.79
  13   5   6  112.09   51.49
 -13  -5   6  137.09   53.09
  -5  13   6  364.66  103.79
   5 -13   6  128.39   58.29
  -5  13   6  342.47   96.29
  13   3  -6  221.68   55.79
  -3  13  -6  324.17   90.49
 -13  -3  -6   80.39   47.40
  -3  13   6  195.88   62.19
 -13  -3   6  155.48   51.89
  -3  13   6  155.68   59.09
  13   3   6  211.48   80.99
   3 -13   6  125.99   50.89
  -1  13  -6  340.67  101.19
 -13  -1  -6  376.76  100.39
  -1  13   6  510.75  120.69
  -1  13   6  449.26  115.09
   1 -13   6  409.06  112.49
 -13  -1   6  359.36  104.89
  13   1   6  211.68   90.59
 -13  -1   6  366.86   98.09
 -13   1  -6  273.87   92.99
   1  13  -6  431.36  107.59
  -1 -13   6  602.24  123.19
  13  -1   6  331.37   98.19
   1  13   6  308.47   96.39
 -13   1   6  408.76  106.49
   1  13   6  219.98   93.49
   3  13  -6  152.68   48.10
  13  -3   6  112.19   44.30
 -13   3   6  192.88   55.99
   3  13   6  258.17   67.59
   3  13   6  120.59   44.80
  -3 -13   6   62.09   40.40
   5  13  -6  249.68   71.49
 -13   5  -6  191.78   65.49
 -13   5   6  193.48   68.39
  13  -5   6  167.98   61.19
   5  13   6  237.28   72.79
  -5 -13   6  129.29   57.79
   5  13   6  273.57   72.69
 -13   5   6  188.98   67.99
   7  13  -6  313.47   83.09
 -13   7   6  354.16   84.89
   7  13   6  238.48   76.79
  -7 -13   6  341.27   90.19
 -13   7   6  110.99   67.69
   7  13   6  164.48   71.09
  13  -7   6  277.67   82.99
 -13   9  -6  126.79   53.09
   9  13  -6  170.58   54.79
 -13   9   6   79.99   52.79
  13  -9   6  134.49   51.59
 -13   9   6  167.28   59.39
   9  13   6  152.78   52.79
   9  13   6  188.88   55.89
  -9 -13   6  203.98   67.89
 -13  11  -6   62.49   36.70
  11  13  -6  124.69   37.80
 -11 -13   6   78.29   38.20
  11  13   6  106.99   37.00
 -13  11   6   79.89   37.30
  11  13   6   95.19   36.40
  13 -11   6    0.10   21.60
 -13  11   6   64.49   45.30
  13  13  -6   98.29   39.60
 -13  13  -6   53.99   32.10
  13 -13  -6   31.10   31.10
 -13  13   6  -14.30   19.20
  13  13   6  116.69   36.00
  13 -13   6   66.19   38.70
 -13 -13   6   70.39   35.40
  13  13   6   91.19   33.00
 -12  14  -6   -2.30   14.30
  14  12  -6    3.40   16.90
  12 -14  -6   -1.10   17.00
  14  12   6   -1.60   14.60
  14  12   6  -10.40   10.10
 -12  14   6  -12.60   21.30
  12 -14   6  -19.00   14.80
 -14 -12   6    2.20   18.50
  14  10  -6   10.60   17.60
 -10  14  -6   15.50   28.90
  10 -14  -6  -12.90   20.70
 -10  14   6  -60.59   48.50
 -14 -10   6  -11.20   12.80
  14  10   6  -14.60   12.80
  10 -14   6   -0.60   18.50
  14  10   6   14.70   18.60
  14   8  -6   10.70   20.00
   8 -14  -6   73.89   39.90
  -8  14  -6   75.09   38.40
  -8  14   6   65.19   38.70
 -14  -8   6   75.89   32.10
  14   8   6   25.30   22.40
  14   8   6   90.99   32.70
   8 -14   6   51.09   42.50
  14   6  -6    5.90   16.20
   6 -14  -6   -0.60   17.60
  -6  14  -6   -1.50   16.10
 -14  -6  -6  -12.00   14.00
  -6  14   6   10.40   19.30
  14   6   6    3.70   16.60
 -14  -6   6   13.90   18.30
   6 -14   6    9.80   21.80
 -14  -4  -6    3.00   19.80
  14   4  -6   47.00   24.10
  -4  14  -6   63.89   31.10
  14   4   6    8.80   17.20
  -4  14   6   20.40   31.60
   4 -14   6   21.70   27.60
 -14  -4   6  -10.80   14.70
 -14  -2  -6    5.00   17.40
  -2  14  -6   27.60   19.90
 -14  -2   6    9.10   16.50
  -2  14   6   -7.80   14.30
   2 -14   6   12.40   22.30
 -14  -2   6  -15.70   15.80
  14   2   6    8.60   16.50
   0  14  -6   35.90   28.50
 -14   0  -6   84.99   33.50
   0  14   6    9.10   19.70
   0 -14   6    8.70   23.30
   0  14   6   81.69   42.20
  14   0   6   56.49   30.90
 -14   0   6   31.60   23.10
 -14   0   6   39.10   22.80
   2  14  -6    6.00   16.40
 -14   2  -6   23.60   17.60
 -14   2   6   47.80   30.00
   2  14   6   36.10   25.60
  -2 -14   6   10.40   21.10
  14  -2   6   30.00   24.70
   2  14   6   -5.40   15.40
   4  14  -6   57.69   32.30
  -4 -14   6   34.00   24.90
 -14   4   6   -1.30   10.10
  14  -4   6   78.09   34.40
   4  14   6   23.20   29.50
   4  14   6   34.20   27.10
 -14   4   6   40.80   23.80
 -14   6  -6   -2.00   14.50
   6  14  -6   36.20   22.10
  -6 -14   6  -16.60   14.10
   6  14   6   -1.30   18.50
 -14   6   6   -6.30   16.80
  14  -6   6   -1.60   19.00
 -14   6   6   18.40   18.30
   6  14   6   21.40   18.50
   8  14  -6   71.39   37.70
 -14   8   6   88.89   46.40
  14  -8   6   64.09   35.80
   8  14   6   67.09   37.80
   8  14   6  105.79   46.40
 -14   8   6   84.69   34.00
  -8 -14   6   63.29   38.00
 -14  10  -6   11.70   19.80
  10  14  -6   -9.80   12.90
 -10 -14   6   -1.60   11.90
 -14  10   6  -10.00   12.10
  14 -10   6   16.00   22.90
  10  14   6   -5.20   20.60
  10  14   6   13.20   19.50
 -14  10   6    4.30   25.50
 -14  12  -6  -10.90   16.70
  12  14  -6   -7.70   13.80
  12  14   6   -5.70   16.00
  12  14   6   -4.00   11.20
  14 -12   6   -3.00   19.20
 -14  12   6   -3.90   21.70
 -12 -14   6  -14.40   14.30
  14  14  -6    2.80   16.40
 -14  14  -6    2.10   18.70
  14 -14  -6   23.90   27.70
  14 -14   6   59.29   40.60
 -14  14   6    3.80   27.40
  14  14   6    0.40   19.90
 -14 -14   6    3.70   19.80
  14  14   6   19.80   16.90
 -13  15  -6   34.60   35.20
  13 -15  -6   16.50   24.10
  15  13  -6   36.20   24.60
  15  13   6   87.79   37.00
 -15 -13   6   58.09   30.90
 -13  15   6   62.69   42.10
  13 -15   6   43.10   36.60
  15  13   6    9.40   18.50
  11 -15  -6   91.49   40.30
 -11  15  -6   13.90   23.90
  15  11  -6  115.59   37.30
  15  11   6   80.39   32.90
 -15 -11   6   79.79   35.30
 -11  15   6   91.59   40.80
  15  11   6  100.99   36.70
   9 -15  -6   76.09   42.70
  -9  15  -6   50.69   32.50
  15   9  -6   62.29   32.90
  15   9   6  119.49   39.00
  -9  15   6   23.90   34.00
 -15  -9   6   70.89   34.40
  15   9   6  108.29   40.70
   9 -15   6  100.79   49.99
 -15  -7  -6  108.99   44.80
   7 -15  -6  150.88   52.79
  15   7  -6  153.68   47.10
  -7  15  -6   80.19   46.10
 -15  -7   6   67.49   40.10
  15   7   6   88.09   40.20
  -7  15   6  155.68   48.80
   7 -15   6  223.58   70.49
  15   5  -6   63.89   31.20
  -5  15  -6  174.98   65.69
   5 -15  -6   62.39   36.10
 -15  -5  -6   99.69   34.50
  -5  15   6  155.08   59.39
 -15  -5   6   -7.60   18.30
   5 -15   6  132.79   71.59
  15   5   6  105.39   34.70
  -3  15  -6  106.39   50.29
 -15  -3  -6  181.58   48.10
  -3  15   6   70.69   54.59
 -15  -3   6   44.90   33.00
 -15  -3   6   73.29   37.10
  15   3   6  121.79   43.50
   3 -15   6  183.78   60.79
 -15  -1  -6  139.79   65.19
  -1  15  -6  253.77   75.99
   1 -15   6  283.97   80.39
  15   1   6  235.78   71.29
  -1  15   6  189.18   66.89
 -15  -1   6  339.57   78.49
  -1  15   6  128.99   61.79
 -15  -1   6  212.58   64.39
   1  15  -6  224.38   75.99
 -15   1  -6  236.28   72.89
  -1 -15   6  241.78   80.49
   1  15   6  319.47   82.99
   1  15   6  422.46  102.19
  15  -1   6  199.68   70.89
 -15   1   6  229.68   73.99
 -15   1   6  184.08   71.19
   3  15  -6  109.49   44.60
 -15   3  -6   65.49   38.50
   3  15   6  114.69   46.20
  -3 -15   6   51.39   36.90
   3  15   6  136.29   49.50
  15  -3   6  138.79   44.90
 -15   3   6  115.39   44.00
   5  15  -6   32.30   27.50
   5  15   6  116.19   43.90
   5  15   6   86.59   40.10
  -5 -15   6   35.80   29.50
 -15   5   6    5.10   13.50
  15  -5   6   23.20   24.00
 -15   5   6   55.19   32.60
   7  15  -6   87.79   39.60
 -15   7  -6   88.59   37.40
  15  -7   6   80.79   42.10
 -15   7   6   67.19   40.10
   7  15   6   71.09   37.90
 -15   7   6  100.89   40.60
   7  15   6   53.79   35.60
  -7 -15   6  187.28   56.89
 -15   9  -6   89.09   41.40
   9  15  -6   24.00   26.10
 -15   9   6   58.99   35.30
  15  -9   6  128.29   54.09
 -15   9   6   75.29   36.60
  -9 -15   6   73.09   36.10
   9  15   6   54.59   29.30
   9  15   6   48.50   32.90
  11  15  -6   37.60   31.30
 -15  11  -6   91.89   44.80
 -15  11   6   75.29   44.20
  15 -11   6   83.39   42.00
  11  15   6  185.08   55.39
 -15  11   6   51.99   37.00
  11  15   6  111.39   39.80
 -11 -15   6   71.99   43.50
  15 -13  -6   73.19   42.00
 -15  13  -6   74.29   37.20
  13  15  -6   40.80   27.70
 -15  13   6   18.60   27.60
 -13 -15   6   78.79   38.30
  15 -13   6   79.99   42.80
  13  15   6   28.80   25.80
  13  15   6   56.49   28.70
  15  15  -6   12.30   21.20
 -15  15  -6   97.19   40.40
  15 -15  -6   22.00   28.00
 -15  15   6  103.69   46.40
  15  15   6    9.70   18.10
 -15 -15   6   16.00   24.00
  15 -15   6    3.00   22.50
  15  15   6   68.19   30.00
  14 -16  -6   11.80   22.60
  16  14  -6   16.50   22.30
 -14  16  -6    1.20   18.10
 -16 -14   6  -12.20   15.70
  16  14   6  -10.70   14.40
 -14  16   6   36.10   40.80
  14 -16   6   -8.20   14.20
  16  14   6   -5.50   16.80
  16  12  -6   18.00   30.80
  12 -16  -6    0.10   21.40
 -12  16  -6    1.70   16.20
 -16 -12   6    2.20   17.20
  16  12   6   16.70   29.10
  12 -16   6   10.00   25.70
 -12  16   6   45.00   40.20
  16  12   6   -1.30   15.30
  10 -16  -6    3.40   22.00
 -10  16  -6   -1.90   22.30
  16  10  -6    1.10   14.80
  10 -16   6   53.49   38.10
 -10  16   6   -7.60   19.60
  16  10   6   15.00   20.50
  16  10   6   -2.40   14.90
 -16 -10   6   27.20   25.30
  16   8  -6   -4.80   13.40
   8 -16  -6   -6.80   14.70
  -8  16  -6   16.60   26.80
 -16  -8   6  -10.10   29.80
  -8  16   6  -14.20   15.60
  16   8   6   -7.00   13.20
   8 -16   6   19.70   32.90
  16   8   6   13.50   20.00
  -6  16  -6   14.00   22.10
  16   6  -6   17.60   20.50
   6 -16  -6    3.80   18.50
 -16  -6  -6    9.60   17.70
   6 -16   6    3.60   14.40
  16   6   6  -19.80   12.00
  -6  16   6   -8.20   20.10
 -16  -6   6   16.00   16.80
 -16  -4  -6   -8.40   12.50
   4 -16  -6    1.00   22.40
  -4  16  -6    5.20   34.20
   4 -16   6    5.90   22.30
 -16  -4   6  -20.80   12.80
  16   4   6   -8.60   10.90
 -16  -4   6   11.00   18.60
  -4  16   6  -17.40   21.30
   2 -16  -6  -16.70   13.60
  -2  16  -6  -17.20   17.10
 -16  -2  -6   -2.60   16.30
   2 -16   6  -14.90   15.10
 -16  -2   6  -13.30   11.60
 -16  -2   6   -6.80   16.70
  -2  16   6   15.60   20.90
  16   2   6   13.90   17.00
 -16   0  -6    4.40   14.60
   0  16  -6   21.10   21.40
 -16   0   6   11.00   20.10
 -16   0   6   25.50   21.50
   0 -16   6   81.49   39.80
   0  16   6   -0.70   17.80
  16   0   6   48.20   26.40
   0  16   6  -11.30   12.50
 -16   2  -6   16.40   21.80
   2  16  -6   18.30   26.20
   2  16   6  -17.40   12.20
   2  16   6    4.60   16.70
  16  -2   6    2.30   15.40
 -16   2   6   -9.50   20.20
 -16   2   6   -2.20   17.50
  -2 -16   6   36.50   28.40
 -16   4  -6    6.00   16.30
   4  16  -6   19.20   23.00
  16  -4   6  -18.40   11.00
  -4 -16   6    9.20   24.10
 -16   4   6    4.80   22.40
 -16   4   6   24.40   20.90
   4  16   6   -2.50   13.20
   4  16   6   30.20   31.50
   6  16  -6   33.70   26.30
 -16   6   6   -2.10   17.40
   6  16   6   19.10   21.20
  16  -6   6   29.10   26.90
   6  16   6    5.70   17.40
  -6 -16   6    9.00   21.40
 -16   6   6  -27.00   13.10
   8  16  -6    6.90   17.50
 -16   8  -6    5.70   16.50
 -16   8   6    8.80   22.50
  16  -8   6   16.50   23.80
   8  16   6   -7.50   16.50
 -16   8   6  -10.30   15.80
  -8 -16   6   -7.90   13.60
   8  16   6   39.10   28.40
  10  16  -6   27.40   24.00
 -16  10  -6   20.10   27.00
  10  16   6   -9.70   13.50
  10  16   6   -6.70   12.60
 -10 -16   6   -0.80   17.80
  16 -10   6    5.50   23.20
 -16  10   6   43.30   28.50
 -16  10   6    5.30   26.00
 -16  12  -6   18.00   21.80
  12  16  -6   18.20   22.40
  12  16   6  -14.70   12.90
  16 -12   6    2.00   18.50
 -12 -16   6   43.40   27.30
  12  16   6   -1.70   16.40
 -16  12   6   14.40   25.40
  14  16  -6   12.90   19.20
  16 -14  -6   24.40   27.20
 -16  14  -6   -0.80   17.10
 -14 -16   6  -10.90   15.20
 -16  14   6    2.50   20.50
  16 -14   6   -9.50   20.70
  14  16   6   -8.90   14.60
  14  16   6   15.80   16.60
 -13  17  -6    1.60   19.70
  17  13   6   20.80   20.40
  11 -17  -6   78.39   45.70
 -11  17  -6  149.88   60.99
  11 -17   6   39.60   35.10
 -11  17   6   92.29   47.70
 -17 -11   6  146.99   46.00
  17  11   6  166.18   46.40
   9 -17  -6  175.78   67.09
  -9  17  -6  112.59   57.39
  17   9  -6  239.18   62.39
  17   9   6  274.07   65.49
  17   9   6  182.28   58.49
  -9  17   6  262.67   96.39
   9 -17   6  139.09   58.19
 -17  -9   6  140.09   55.69
 -17  -7  -6  334.37   81.19
   7 -17  -6  446.96  119.69
  -7  17  -6  302.37  100.79
  17   7  -6  202.58   70.29
   7 -17   6  275.77   94.29
  -7  17   6  178.28   78.79
 -17  -7   6  210.08   73.69
  17   7   6  251.17   76.59
  -5  17  -6  168.58   63.19
   5 -17  -6   90.39   48.80
 -17  -5  -6   86.69   42.40
   5 -17   6  206.18   71.09
  -5  17   6   77.99   49.20
 -17  -5   6   99.29   49.00
 -17  -5   6  151.88   48.50
  17   5   6  151.38   49.30
 -17  -3  -6   49.10   30.30
  -3  17  -6   33.60   26.20
   3 -17  -6   29.00   32.40
 -17  -3   6   28.70   27.00
  -3  17   6  135.09   56.19
   3 -17   6   85.59   45.60
  17   3   6   33.50   25.70
 -17  -3   6   79.29   32.60
   1 -17  -6    6.60   20.70
  -1  17  -6   -3.90   22.40
 -17  -1  -6   30.10   23.40
  -1  17   6    6.20   26.20
 -17  -1   6    7.10   20.00
  17   1   6   28.50   23.80
 -17  -1   6   15.70   21.30
   1 -17   6   27.30   23.70
   1  17  -6   11.50   21.40
 -17   1  -6   25.60   22.80
 -17   1   6  -14.70   11.10
  17  -1   6    1.50   17.30
  -1 -17   6    7.60   13.80
   1  17   6   57.09   41.40
   1  17   6   25.50   16.40
 -17   1   6   -0.60   18.60
   3  17  -6   39.20   36.00
 -17   3  -6   91.19   39.30
 -17   3   6   45.00   31.70
   3  17   6  100.09   45.20
   3  17   6   36.70   29.00
 -17   3   6   54.09   31.10
  -3 -17   6   38.20   35.20
 -17   5  -6   83.89   39.90
   5  17  -6  169.38   48.70
   5  17   6   61.09   33.70
  17  -5   6  135.09   50.09
  -5 -17   6  165.18   57.79
   5  17   6  182.08   62.99
 -17   5   6  133.69   47.20
 -17   5   6   29.40   29.60
   7  17  -6  221.78   74.99
  -7 -17   6  254.37   78.09
   7  17   6  278.77   72.39
  17  -7   6  188.18   68.19
   7  17   6  146.99   62.59
 -17   7   6  304.97   83.59
   9  17  -6  172.18   63.59
 -17   9  -6  179.38   62.69
   9  17   6  130.99   61.89
   9  17   6  104.29   53.69
  17  -9   6  119.89   58.39
  -9 -17   6  199.68   64.59
 -17   9   6  271.77   68.29
 -17   9   6  280.87   78.49
 -17  11  -6   38.50   29.70
  11  17  -6   95.79   43.10
 -17  11   6  106.59   50.89
 -11 -17   6  174.08   55.19
  11  17   6   83.99   34.20
 -17  11   6   89.49   39.30
  11  17   6   31.70   33.20
  17 -11   6   32.00   26.40
  13  17  -6   35.10   29.60
 -17  13  -6    8.70   18.70
  18  10  -6    2.50   18.70
 -10  18  -6   28.60   24.70
  10 -18  -6   -2.80   29.60
 -18 -10   6   18.00   21.00
  18  10   6   21.00   22.90
  10 -18   6    3.30   36.70
 -10  18   6   30.30   33.60
  18  10   6   26.10   21.00
  -8  18  -6   17.30   26.60
   8 -18  -6   26.70   30.20
 -18  -8   6   19.90   21.70
   8 -18   6  108.49   77.59
  18   8   6    1.00   18.10
  18   8   6   20.70   19.70
  -6  18  -6  -18.00   14.50
 -18  -6  -6    5.50   17.40
   6 -18  -6   -7.30   18.10
 -18  -6   6   17.70   19.90
   6 -18   6   15.30   21.20
 -18  -6   6  -37.00   13.00
  18   6   6   -2.90   12.80
  -6  18   6   -2.50   24.40
 -18  -4  -6   -6.40   14.40
   4 -18  -6   37.70   29.70
  -4  18  -6   52.09   31.40
  -4  18   6  -75.69   46.80
 -18  -4   6   -5.20   17.00
  18   4   6   28.60   24.60
 -18  -4   6   45.40   26.10
   4 -18   6   22.80   18.00
   2 -18  -6   81.09   37.40
  -2  18  -6   44.50   35.00
 -18  -2  -6    9.20   18.50
 -18  -2   6   15.00   28.80
   2 -18   6   36.10   33.60
  -2  18   6   19.80   24.50
  18   2   6   79.89   32.50
 -18  -2   6   -7.10   14.90
   0  18  -6   62.29   36.90
 -18   0  -6   67.49   37.20
   0 -18  -6  114.69   47.60
 -18   0   6  105.99   42.90
   0  18   6   94.29   43.00
  18   0   6   95.89   41.60
 -18   0   6   99.19   56.09
   0 -18   6  255.37   74.69
 -18   2  -6   19.70   20.50
   2  18  -6   43.30   25.60
  18  -2   6    7.20   22.60
 -18   2   6   22.50   24.40
   2  18   6   29.30   20.60
 -18   2   6   34.40   25.90
  -2 -18   6   25.70   26.70
   2  18   6   44.00   40.20
   4  18  -6   45.80   29.80
 -18   4  -6   -4.20   17.10
   4  18   6   -4.50   24.90
  -4 -18   6   55.39   33.50
 -18   4   6   39.60   27.10
 -18   4   6   -0.40   26.20
   4  18   6   31.20   25.80
  18  -4   6   11.60   34.10
 -18   6  -6   30.10   23.90
   6  18  -6  -13.90   15.10
 -18   6   6    1.40   20.70
  -6 -18   6   -6.40   14.50
  18  -6   6   12.40   24.60
   6  18   6    3.60   22.80
   6  18   6   36.10   24.00
   8  18  -6    0.70   18.90
   8  18   6   -4.80   24.80
   8  18   6   -8.40   13.40
 -18   8   6    7.30   24.20
  -8 -18   6   14.40   18.80
  18  -8   6   -6.00   17.10
 -18  10  -6  -10.60   15.20
  18 -10   6   -3.80   13.50
 -18  10   6   21.20   21.70
 -18  10   6  -11.70   14.90
 -10 -18   6   37.80   27.80
  10  18   6   18.00   21.10
   9 -19  -6  -21.80   20.00
 -19  -9   6   38.30   29.40
  -9  19   6   55.69   46.80
  19   9   6   16.80   17.30
  19   9   6    7.90   17.70
   9 -19   6  100.39   43.60
  -7  19  -6   77.19   49.70
   7 -19  -6   55.99   52.79
 -19  -7   6   30.30   25.10
  -7  19   6   31.70   34.10
   7 -19   6   -5.80   16.10
  19   7   6   45.30   23.40
 -19  -7   6   35.70   26.90
   5 -19  -6   63.29   35.50
 -19  -5  -6   91.29   33.90
  -5  19  -6   13.90   23.60
  -5  19   6   55.39   34.10
 -19  -5   6   51.49   26.60
  19   5   6   -8.50   13.80
 -19  -5   6    2.10   20.50
   5 -19   6   57.29   36.10
 -19  -3  -6   77.99   39.30
   3 -19  -6  274.27   69.09
  -3  19  -6  169.08   59.69
  -3  19   6   47.60   36.80
  19   3   6   75.89   34.70
 -19  -3   6  111.39   42.50
 -19  -3   6  117.09   41.90
   3 -19   6   56.09   38.50
  -1  19  -6  194.18   73.19
   1 -19  -6   94.89   47.40
 -19  -1  -6   79.09   42.60
  -1  19   6   74.69   37.60
 -19  -1   6  160.78   45.50
 -19  -1   6  114.59   41.90
  19   1   6   57.69   32.20
   1 -19   6   58.19   37.80
 -19   1  -6   52.29   31.10
   1  19  -6  121.59   42.60
  -1 -19  -6   56.79   30.50
  19  -1   6   55.19   31.30
 -19   1   6   30.30   29.50
 -19   1   6   22.70   23.90
  -1 -19   6   64.99   33.60
   1  19   6  165.88   56.59
 -19   3  -6   93.39   41.90
   3  19  -6   55.49   35.10
   3  19   6   76.99   43.20
 -19   3   6  135.49   47.90
   3  19   6  102.09   41.00
  -3 -19   6   93.09   38.10
 -19   3   6  131.49   45.30
  19  -3   6   45.50   32.20
   5  19  -6  116.59   44.70
 -19   5  -6   46.20   32.70
 -19   5   6   60.19   38.90
 -19   5   6   12.80   19.70
  19  -5   6  -10.00   13.30
  -5 -19   6   23.70   23.20
   5  19   6   59.89   35.40
   5  19   6   14.80   21.80
   7  19  -6   45.40   32.60
 -19   7  -6   27.70   27.80
 -19   7   6    4.50   29.60
 -19   7   6   55.39   36.00
   7  19   6   -0.70   24.40
   7  19   6   76.09   34.00
  -7 -19   6   63.59   30.60
  19  -7   6   47.40   26.20
   9  19  -6   46.50   36.00
   9  19   6   10.30   26.00
  19  -9   6   87.99   41.00
 -19   9   6    4.30   18.20
   9  19   6   18.20   22.30
  -9 -19   6  -14.80   15.60
   6 -20  -6  131.39   63.29
 -20  -6  -6   30.90   24.20
  -6  20  -6   22.60   23.00
  -6  20   6    2.20   26.50
  20   6   6   20.70   21.80
 -20  -6   6    7.50   20.60
   6 -20   6  -16.40   17.00
 -20  -6   6   43.50   27.90
 -20  -4  -6   -1.30   19.90
  -4  20  -6    9.80   47.00
   4 -20  -6    7.60   24.60
 -20  -4   6    5.60   20.40
 -20  -4   6   24.00   23.70
   4 -20   6   31.00   27.60
  20   4   6   -6.20   18.00
  -4  20   6  -22.80   16.90
   2 -20  -6   28.40   30.10
  -2  20  -6   29.00   31.10
 -20  -2  -6   15.00   20.10
   2 -20   6  -13.30   15.20
  -2  20   6   -1.00   19.60
 -20  -2   6    2.90   17.20
 -20  -2   6   10.10   20.20
  20   2   6   34.60   23.30
 -20   0  -6   43.20   26.50
   0  20  -6   -2.80   21.60
   0 -20  -6   55.09   31.70
 -20   0   6   73.19   31.30
  20   0   6   39.70   27.30
 -20   0   6   59.39   30.90
   0 -20   6    3.40   17.60
   0  20   6    2.60   32.80
   2  20  -6  -16.40   15.30
 -20   2  -6  -13.90   13.00
  -2 -20  -6    1.30   23.70
  -2 -20   6  -10.90   14.50
   2  20   6   25.40   29.80
 -20   2   6   -2.40   16.40
  20  -2   6   43.00   25.50
 -20   2   6   14.20   21.90
   4  20  -6   -9.10   18.10
 -20   4  -6    8.00   22.40
   4  20   6   -2.60   13.20
 -20   4   6    6.20   21.80
 -20   4   6   -9.50   16.10
  20  -4   6   12.40   19.50
   4  20   6  -21.40   13.60
 -20   6  -6    7.30   19.50
   6  20  -6    7.00   19.30
  -6 -20   6    5.70   22.60
 -20   6   6   11.00   20.30
   6  20   6   16.10   18.40
  20  -6   6   18.20   18.90
 -20   6   6    8.20   18.80
   6  20   6  -18.20   15.00
   3 -21  -6   43.90   34.40
 -21  -3  -6   21.20   24.50
  -3  21  -6   37.00   27.20
 -21  -3   6    0.00   19.60
 -21  -3   6   21.90   24.40
   3 -21   6   14.80   28.20
  21   3   6   53.59   27.30
  -3  21   6   21.90   37.10
  -1  21  -6   71.29   41.80
   1 -21  -6   18.90   23.70
 -21  -1  -6   21.80   21.50
  21   1   6   16.30   23.30
 -21  -1   6   13.80   22.00
 -21  -1   6  -13.80   16.90
  -1  21   6   46.30   32.20
   1 -21   6   30.40   24.70
   1  21  -6  -13.30   16.20
 -21   1  -6   -9.60   15.20
  -1 -21  -6   53.49   33.80
 -21   1   6   -5.20   15.70
  21  -1   6   22.00   18.50
 -21   1   6   12.20   24.10
   1  21   6    6.00   25.20
  -1 -21   6   15.50   33.00
 -21   3  -6   -1.10   19.20
   3  21  -6   90.49   41.30
  21  -3   6   20.70   22.90
 -21   3   6   15.40   24.00
 -21   3   6   54.39   30.60
   3  21   6   51.89   39.80
  -3 -21   6   24.20   30.10
   1   0  -7  -19.30   13.30
   0  -1  -7  -12.80   10.60
   0   1  -7  -13.20   13.40
  -1   0  -7  -19.80   12.70
   1   0   7  -18.50   11.20
   0   1   7   22.50   23.20
   0  -1   7   -3.20   18.80
  -2  -1  -7    1.70   19.50
   2   1  -7   19.10   21.70
  -1   2  -7   10.90   22.70
   1  -2  -7   52.89   23.40
   1  -2   7   -7.80   16.80
   2   1   7   25.40   23.20
  -2  -1   7   71.59   36.00
  -1   2   7   -8.70   16.80
  -2   1  -7   37.30   25.70
   1   2  -7   32.40   32.60
  -1  -2  -7   61.59   28.10
   2  -1  -7   34.40   29.30
  -1  -2   7    5.60   23.50
  -2   1   7   21.40   24.30
   1   2   7   26.90   44.90
   2  -1   7   47.40   49.40
   2  -3  -7   -4.90   12.60
   3   2  -7   -9.70   18.60
  -3  -2  -7   10.80   22.60
  -2   3  -7   -3.30   13.10
  -3  -2   7  -24.30   12.30
   2  -3   7   21.50   26.40
   3   2   7   -5.80   13.70
  -3   0  -7   -5.90   12.10
   0  -3  -7    1.50   14.50
   3   0  -7   -0.50   16.40
   0   3  -7  -62.39   26.50
   3   0   7   -6.00   12.20
   0  -3   7  -16.80   10.60
  -3   0   7  -11.40   13.70
   0   3   7   17.50   30.40
   2   3  -7    9.80   18.00
  -3   2  -7   -9.90   14.30
   3  -2  -7  -19.10   10.90
  -2  -3  -7  -15.40   10.60
  -3   2   7    3.50   15.80
  -2  -3   7   -3.50   18.70
   2   3   7    8.80   18.10
   3  -2   7   -2.70   14.80
  -3   4  -7   -4.20   15.80
   4   3  -7   -7.80   17.30
  -4  -3  -7   23.30   23.80
   3  -4  -7   -8.90   13.80
  -4  -3   7    0.20   19.50
   4   3   7   29.20   25.30
  -3   4   7   -0.80   16.40
   3  -4   7  -25.10   12.40
  -1   4  -7   44.90   24.30
   4   1  -7   16.70   23.90
   1  -4  -7  -14.30   12.30
  -4  -1  -7  -13.00   12.30
  -1   4   7   -8.50   14.70
   1  -4   7   -4.50   14.90
  -4  -1   7   -6.70   14.30
   4   1   7   14.60   21.10
   1   4  -7    2.90   15.60
  -1  -4  -7   36.00   27.20
   4  -1  -7   -3.10   19.60
  -4   1  -7   11.60   24.50
   4  -1   7  -21.30   10.50
   1   4   7   48.70   33.50
  -4   1   7   47.50   26.30
  -1  -4   7   -3.00   13.20
  -4   3  -7    4.10   15.80
  -3  -4  -7   48.50   29.70
   4  -3  -7   42.40   31.50
   3   4  -7    3.20   13.60
  -3  -4   7   61.69   35.70
   4  -3   7  -34.20   11.00
   3   4   7   13.50   24.40
  -4   3   7   -3.60   15.90
  -5  -4  -7   60.39   30.20
   5   4  -7   57.99   36.70
  -4   5  -7  116.09   56.69
   4  -5   7   13.00   22.70
  -4   5   7   30.80   26.80
   5   4   7   61.09   33.80
  -5  -4   7   42.10   26.10
  -4   5   7  161.78   55.29
  -2   5  -7   17.60   19.50
   5   2  -7   -5.60   14.50
  -5  -2  -7   -7.90   12.80
  -5  -2   7  -20.10   10.80
   5   2   7  -10.70   11.70
  -2   5   7  -68.89   24.00
  -2   5   7    7.00   20.40
   2  -5   7   52.79   46.60
   0   5  -7   44.90   46.30
   0  -5  -7    8.00   16.40
  -5   0  -7   -1.30   12.80
   5   0  -7   -7.60   15.10
   0   5   7   -9.50   19.80
   0  -5   7   10.40   23.30
  -5   0   7   -0.40   13.70
   5   0   7  -19.30   22.70
   5  -2  -7   12.60   19.30
   2   5  -7  -15.80   18.40
  -2  -5  -7   54.59   48.70
  -5   2  -7   11.20   18.60
   2   5   7    9.30   16.00
   5  -2   7    5.60   20.80
  -2  -5   7   16.40   18.60
  -5   2   7  -11.40   11.30
  -5   4  -7   74.89   43.50
   4   5  -7   75.49   35.50
  -4  -5  -7   50.09   30.00
  -5   4   7   94.59   38.60
  -5   4   7   -6.10   46.50
  -4  -5   7   91.09   40.10
   4   5   7   28.20   26.00
   5  -4   7  112.79   65.19
  -5   6  -7   86.69   43.20
   6   5  -7   89.99   40.60
  -6  -5  -7  104.89   39.20
  -6  -5   7  115.49   39.60
   5  -6   7   67.79   43.50
  -5   6   7   90.69   39.80
  -5   6   7  170.88   52.59
   6   5   7   58.39   36.50
  -6  -3  -7   64.59   35.20
  -3   6  -7   58.79   48.50
   6   3  -7  -17.80   25.70
  -3   6   7   43.90   37.40
  -3   6   7   78.59   46.10
  -6  -3   7   57.69   31.60
   6   3   7   90.59   38.40
   3  -6   7   27.10   20.80
  -1   6  -7    2.90   17.30
   6   1  -7   26.20   25.10
  -6  -1  -7  -12.50   13.70
  -1   6   7   43.00   26.60
  -6  -1   7    7.00   18.80
   6   1   7   -0.80   14.90
   1  -6   7   17.20   45.30
  -1   6   7   -2.90   14.50
   6  -1  -7   62.89   43.80
  -6   1  -7    4.20   15.90
   1   6  -7    6.90   19.00
  -6   1   7   24.00   21.80
  -1  -6   7   28.10   31.60
   6  -1   7   10.80   18.50
   1   6   7  -42.00   31.80
  -3  -6  -7   44.10   32.90
   3   6  -7   64.49   31.70
  -6   3  -7   16.50   20.70
  -3  -6   7   97.49   39.70
   3   6   7   38.70   26.00
  -6   3   7    2.50   20.00
   6  -3   7   39.50   30.50
  -6   5  -7  140.29   53.99
   5   6  -7   98.69   41.80
  -5  -6  -7   90.79   42.70
  -6   5   7  117.69   47.30
  -5  -6   7  105.79   44.40
   5   6   7  154.08   52.29
   6  -5   7  131.99   52.29
  -6   5   7   77.69   42.30
  -7  -6  -7  120.89   46.50
   7   6  -7   55.69   29.10
  -6   7  -7    9.20   26.00
  -6   7   7   92.29   41.30
   7   6   7   37.30   26.90
   6  -7   7  121.69   55.59
  -6   7   7   56.39   34.00
  -7  -6   7  144.79   50.19
   7   4  -7   40.50   25.80
  -7  -4  -7   17.50   22.70
  -4   7  -7  -16.80   13.70
  -7  -4   7    1.20   16.20
   4  -7   7    7.20   20.10
   7   4   7  -10.80   13.70
  -4   7   7   17.20   22.30
  -4   7   7    5.00   19.50
  -7  -2  -7   51.59   36.30
   7   2  -7   44.00   29.50
  -2   7  -7   83.19   38.50
  -7  -2   7  195.08   54.99
  -2   7   7   79.29   36.40
   7   2   7   39.30   26.70
   2  -7   7   26.60   30.70
  -2   7   7   35.50   28.90
  -7   0  -7   -1.50   16.70
   0   7  -7    7.40   39.20
   0   7   7   28.00   26.20
   0  -7   7   -7.80   14.10
   7   0   7  -16.40   11.60
   0   7   7  -10.10   17.60
  -7   0   7   -3.90   15.00
   2   7  -7   28.10   24.80
  -7   2  -7   26.90   28.30
   7  -2  -7   31.70   21.50
   2   7   7   95.99   36.00
  -7   2   7   38.90   22.90
  -2  -7   7   65.89   37.20
   2   7   7    8.40   21.20
   7  -2   7   32.60   25.70
   4   7  -7   -9.40   16.20
  -7   4  -7  -18.10   14.40
   4   7   7    3.40   13.90
  -7   4   7   23.00   23.60
   4   7   7  -15.30    8.80
  -7   4   7   42.20   27.10
  -4  -7   7    2.70   16.30
   7  -4   7  -10.30   13.60
  -7   6  -7   28.20   30.10
  -6  -7  -7  132.99   48.30
   6   7  -7  152.08   52.69
   7  -6   7   73.69   36.10
  -7   6   7   43.60   34.30
  -7   6   7   83.69   35.70
  -6  -7   7   94.59   39.10
   6   7   7   56.89   31.20
   8   7  -7   17.90   17.40
  -7   8  -7    3.30   19.80
  -8  -7  -7    2.70   15.10
  -8  -7   7   25.60   20.60
  -7   8   7  -16.50   12.40
  -7   8   7  -16.70   14.00
   8   7   7    7.10   22.00
   7  -8   7  -12.40   24.80
  -8  -5  -7  243.58   61.89
   8   5  -7  138.49   49.90
  -5   8  -7  169.68   52.49
  -5   8   7   18.30   30.60
  -5   8   7   35.10   30.30
   5  -8   7   98.09   42.20
   8   5   7  183.78   52.79
  -8  -5   7  158.18   52.69
  -3   8  -7  201.28   65.09
   8   3  -7  178.58   64.29
  -8  -3  -7  142.49   59.29
   3  -8   7  237.88   72.09
   8   3   7  235.48   66.29
  -8  -3   7  137.09   55.99
  -3   8   7  135.59   60.09
  -3   8   7  179.88   63.79
   8   1  -7   31.10   26.10
  -8  -1  -7  -18.80   12.50
  -1   8  -7   13.30   34.30
   1  -8   7   12.00   20.70
  -1   8   7    0.10   25.60
  -1   8   7   33.30   33.90
   8   1   7    4.00   16.20
  -8  -1   7   -9.10   12.30
   1   8  -7   74.69   31.00
  -8   1  -7    7.30   13.60
   8  -1  -7    3.50   15.70
  -8   1   7   17.40   22.50
   1   8   7   37.60   26.00
   8  -1   7   15.20   21.30
   1   8   7   18.30   24.20
  -1  -8   7   -9.40   12.80
  -8   3  -7  149.39   51.79
   3   8  -7  158.08   62.99
   3   8   7   77.39   37.90
  -8   3   7  163.48   51.99
  -3  -8   7   90.19   45.70
   3   8   7  168.58   52.59
  -8   3   7  127.09   43.90
   8  -3   7  118.99   48.40
   5   8  -7  138.59   54.49
  -8   5  -7  199.58   61.19
   5   8   7  283.77   76.89
  -8   5   7  256.37   84.39
   8  -5   7  120.69   53.29
  -5  -8   7  176.88   59.29
   5   8   7  139.09   60.09
  -8   5   7  223.98   81.79
  -8   7  -7   -2.70   18.20
   7   8  -7    7.70   18.70
   8  -7   7    0.00   18.80
   7   8   7    5.90   21.40
  -8   7   7   20.60   21.90
  -7  -8   7    6.20   18.60
  -8   7   7   -5.20   15.90
   7   8   7    8.90   20.00
   9   8  -7  -10.80   15.40
  -8   9  -7   47.50   46.40
  -9  -8   7  -12.60   13.80
   9   8   7   23.90   19.80
  -8   9   7    1.40   23.10
  -8   9   7    3.60   20.20
   9   8   7   -5.90   15.70
   8  -9   7  -19.40   12.40
  -6   9  -7    9.90   22.90
  -9  -6  -7   -0.50    9.00
   9   6  -7   28.00   23.70
  -6   9   7   19.90   25.70
   6  -9   7   -2.60   14.80
   9   6   7   10.40   18.60
  -6   9   7   72.19   48.00
  -9  -6   7    9.30   15.90
  -9  -4  -7  101.79   45.90
   9   4  -7   61.79   35.20
  -4   9  -7   47.50   32.10
  -9  -4   7  179.48   55.99
  -4   9   7   84.29   44.50
   9   4   7   84.89   34.30
   4  -9   7   74.09   66.29
  -4   9   7  223.68   74.39
   9   2  -7   -4.60   13.40
  -2   9  -7   60.49   34.40
  -9  -2  -7    1.50   17.10
  -2   9   7   -3.60   15.20
   2  -9   7   51.49   41.60
   9   2   7   24.30   21.60
  -9  -2   7    3.50   17.50
  -2   9   7   31.70   24.70
  -9   0  -7  -17.10   11.20
   9   0  -7  -11.20   14.90
   0   9  -7   -3.30   16.10
   0  -9   7  -11.10   27.10
   0   9   7   -9.80   13.00
   0   9   7   45.90   30.60
  -9   0   7  -12.40   13.90
   9   0   7   -9.50   14.40
  -9   2  -7    9.10   18.40
   9  -2   7   15.70   24.00
   2   9   7   -4.40   18.30
  -9   2   7   -8.50   16.10
  -9   2   7   13.00   19.80
   2   9   7   37.10   39.20
  -2  -9   7    0.60   20.10
   4   9  -7  109.39   38.20
  -9   4  -7  154.98   46.80
  -4  -9   7  112.99   43.00
   4   9   7   55.79   35.40
   9  -4   7   43.30   30.30
  -9   4   7   53.69   38.50
  -9   4   7   44.80   33.10
   4   9   7   82.49   37.10
  -9   6  -7   25.70   45.90
   6   9  -7   18.20   22.20
  -9   6   7   31.00   25.70
   6   9   7    7.70   18.20
  -6  -9   7    2.00   19.50
  -9   6   7   31.00   27.00
   6   9   7   27.20   28.40
   9  -6   7   -1.70   16.10
   8   9  -7   -6.90   15.00
  -9   8  -7   -6.50   15.50
   9  -8   7   53.79   27.50
  -9   8   7   -6.10   17.90
   8   9   7  -18.50    9.20
   8   9   7    3.00   16.80
  -8  -9   7    0.50   16.00
  -9   8   7    4.10   20.90
  10   9  -7   12.20   20.60
  -9  10  -7   41.00   51.19
  -9  10   7   83.39   42.70
   9 -10   7   43.70   31.20
 -10  -9   7   24.20   25.20
  10   9   7    2.20   17.10
  -9  10   7   -8.10   16.50
  10   9   7   14.50   19.90
  10   7  -7    0.90   15.60
  -7  10  -7   13.80   17.40
 -10  -7   7   -6.60   15.50
   7 -10   7    3.20   20.60
  -7  10   7   -9.20   25.10
  -7  10   7  -10.10   16.40
  10   7   7   22.70   22.20
  10   5  -7   69.79   36.90
  -5  10  -7  170.38   65.09
 -10  -5   7   79.09   41.20
  10   5   7   80.79   38.60
  -5  10   7  159.98   73.69
   5 -10   7  238.98   81.69
  -5  10   7   75.89   41.50
  -3  10  -7   34.90   28.40
 -10  -3  -7    2.80    9.80
  10   3  -7  141.19   47.40
  -3  10   7   55.79   31.40
  -3  10   7  209.08   57.99
  10   3   7   60.49   30.90
 -10  -3   7   64.39   32.20
   3 -10   7  -17.40   13.60
  -1  10  -7   -9.90   13.50
 -10  -1  -7    0.60   13.40
  10   1  -7   -3.50   14.40
 -10  -1   7    6.90   16.70
  -1  10   7  -11.90   10.80
  -1  10   7    0.20   19.60
  10   1   7    9.90   16.20
   1 -10   7   22.90   21.50
 -10   1  -7   33.90   28.80
  10  -1   7    1.70   17.90
   1  10   7    4.80   18.50
   1  10   7  -10.40   12.70
 -10   1   7   16.00   23.90
  -1 -10   7   35.60   33.00
 -10   1   7    3.00   15.80
 -10   3  -7   46.10   30.30
   3  10  -7   81.89   37.90
 -10   3   7   83.19   37.20
   3  10   7   55.39   31.50
 -10   3   7   69.69   34.70
  -3 -10   7   86.99   44.10
   3  10   7   55.79   32.90
  10  -3   7   25.60   30.00
 -10   5  -7   60.49   35.30
   5  10  -7   96.29   37.40
 -10   5   7   99.99   49.00
  10  -5   7   56.19   37.00
   5  10   7   64.29   36.50
  -5 -10   7  125.29   51.69
 -10   5   7   93.19   46.20
   5  10   7  158.98   56.99
 -10   7  -7  -16.60   13.80
   7  10  -7  -13.00   13.00
  -7 -10   7   -0.30   17.80
 -10   7   7    1.40   21.60
  10  -7   7   42.90   30.30
   7  10   7  -24.70   12.70
   7  10   7   -2.80   15.90
 -10   7   7   -6.30   14.80
   9  10  -7   -9.10   13.30
 -10   9  -7   10.00   22.80
  -9 -10   7    7.40   16.30
  10  -9   7   -6.60   17.80
 -10   9   7   15.10   24.90
   9  10   7   32.50   27.90
   9  10   7   19.30   20.50
 -10   9   7    1.60   21.00
  11  10  -7  -13.60   14.20
 -10  11  -7    5.10   47.80
 -10  11   7   32.60   30.60
  10 -11   7    6.40   23.00
  11  10   7   14.90   20.00
  11  10   7   -4.50   20.10
 -11 -10   7    8.20   18.60
 -10  11   7    6.60   21.10
  11   8  -7    7.10   20.80
  -8  11  -7    3.90   19.60
  -8  11   7   -2.40   27.90
   8 -11   7    4.70   25.90
  -8  11   7    4.50   24.10
 -11  -8   7  -14.50   12.50
  11   8   7  -12.70   11.30
  11   6  -7   49.70   27.30
 -11  -6  -7    2.70   21.40
  -6  11  -7   76.79   37.70
   6 -11   7   21.70   30.60
  -6  11   7   34.10   31.30
  11   6   7   72.19   29.90
  -6  11   7  109.79   43.10
 -11  -6   7   -8.30   25.10
  11   4  -7   83.29   38.00
  -4  11  -7    9.30   27.10
  -4  11   7  144.99   71.29
  -4  11   7   30.60   26.40
   4 -11   7   47.20   36.10
 -11  -4   7   16.30   21.80
  11   4   7   99.99   38.20
  11   2  -7  123.79   43.90
  -2  11  -7  197.58   76.69
 -11  -2   7   48.60   31.10
  11   2   7   72.49   38.00
   2 -11   7   63.89   42.40
  -2  11   7   90.99   44.50
  -2  11   7   93.09   41.60
 -11   0  -7    1.10   11.40
   0 -11   7  -22.00   13.90
   0  11   7   -8.70   16.10
 -11   0   7  -26.70   14.60
   0  11   7   -9.00   22.60
 -11   0   7   47.50   25.40
  11   0   7    4.40   15.90
 -11   2  -7   69.09   31.30
   2  11  -7  -12.50   13.50
   2  11   7   95.69   41.70
   2  11   7   27.50   28.70
 -11   2   7  100.19   44.30
 -11   2   7   24.20   27.70
  11  -2   7   34.90   19.80
  -2 -11   7  112.19   46.80
 -11   4  -7   60.79   28.90
   4  11  -7  116.19   40.50
   4  11   7   22.00   30.00
   4  11   7   75.89   33.10
  -4 -11   7   91.89   37.70
  11  -4   7    1.10   20.00
 -11   4   7   -4.80   18.80
 -11   4   7   24.70   26.60
   6  11  -7   46.60   27.60
 -11   6  -7    6.80   20.60
   6  11   7   44.20   28.00
   6  11   7   34.00   31.90
  11  -6   7   32.10   26.30
 -11   6   7   71.09   32.50
 -11   6   7   32.10   33.90
  -6 -11   7   19.80   27.00
   8  11  -7    2.90   18.30
 -11   8  -7    5.10   19.70
   8  11   7   25.00   26.30
 -11   8   7    6.80   18.80
  -8 -11   7    6.60   16.50
 -11   8   7  -14.10   15.30
  11  -8   7    1.10   20.10
   8  11   7   -0.30   12.70
 -11  10  -7   18.70   26.10
  10  11  -7   25.10   24.60
 -11  10   7  -13.30   21.10
 -11  10   7   -4.00   21.10
 -10 -11   7  -12.70   14.10
  10  11   7   11.90   22.50
  11 -10   7   -8.20   14.30
  10  11   7   -7.50   12.50
 -11  12  -7   37.50   46.30
  12  11  -7   26.20   27.00
  12  11   7   36.10   24.90
  11 -12   7  182.68   91.09
 -11  12   7  -12.80   20.00
  12  11   7   72.49   32.00
 -11  12   7  -14.70   14.80
  -9  12  -7  -18.60   14.40
  12   9  -7   -8.80   14.70
  12   9   7   -9.40   21.50
  12   9   7   79.19   33.50
  -9  12   7   13.20   25.80
  -9  12   7   10.80   25.60
 -12  -9   7   18.20   22.40
  -7  12  -7   21.80   36.40
 -12  -7  -7    0.10   18.10
  12   7  -7   -6.50   14.30
   7 -12   7    0.00   31.80
  12   7   7  -14.50   14.00
  -7  12   7    9.00   23.90
  -7  12   7   -9.20   15.50
 -12  -7   7  -11.80   16.10
 -12  -5  -7   -1.00   15.70
  12   5  -7   35.90   25.70
  -5  12  -7  -15.20   13.90
  -5  12   7   44.20   32.60
  -5  12   7   76.79   40.80
   5 -12   7   25.00   26.40
 -12  -5   7   25.50   22.70
  12   5   7   52.49   26.50
 -12  -3  -7   38.80   30.00
  12   3  -7   41.50   28.60
  -3  12  -7   30.20   26.50
  12   3   7   27.00   21.60
  -3  12   7   93.99   36.20
   3 -12   7   27.90   27.60
  -3  12   7   51.09   32.80
 -12  -3   7   41.10   28.20
  -1  12  -7  -20.50   15.20
   1 -12   7  -12.70   22.20
 -12  -1   7  -21.10   12.60
  -1  12   7   -4.60   23.30
  -1  12   7  -16.60   12.30
  12   1   7   25.10   22.90
 -12   1  -7   -7.50    8.20
   1  12  -7    5.00   36.20
 -12   1   7   22.50   25.50
  -1 -12   7   15.10   28.20
 -12   1   7   14.40   21.80
   1  12   7   -0.60   18.50
   1  12   7   10.10   20.40
  12  -1   7  -11.30   10.10
 -12   3  -7   42.10   28.70
   3  12  -7   62.49   31.90
  -3 -12   7   44.00   33.40
  12  -3   7   65.49   32.50
   3  12   7   37.00   28.20
   3  12   7   37.00   30.60
 -12   3   7   30.70   30.70
 -12   5  -7   91.69   38.20
   5  12  -7   58.89   28.70
  12  -5   7   20.10   26.10
   5  12   7   53.99   30.40
 -12   5   7   -3.40   22.50
 -12   5   7   -0.10   20.30
  -5 -12   7   58.69   38.30
   5  12   7    4.00   22.80
 -12   7  -7   -2.00   17.30
   7  12  -7    6.60   17.70
   7  12   7   29.90   25.60
  12  -7   7    0.80   16.40
   7  12   7   -6.20   14.00
 -12   7   7  -20.60   13.10
 -12   7   7   14.70   26.00
  -7 -12   7   -5.40   16.20
 -12   9  -7   -3.70   15.80
   9  12  -7    4.90   17.70
 -12   9   7    3.50   22.50
  -9 -12   7   62.29   33.20
   9  12   7    5.60   17.10
 -12   9   7  -15.00   18.90
  12  -9   7   22.40   31.60
   9  12   7  -13.10   15.40
 -12  11  -7   30.80   24.50
  11  12  -7   71.19   35.50
 -11 -12   7   77.09   41.60
 -12  11   7   77.79   45.50
  11  12   7   51.79   43.80
 -12  11   7  -24.40   14.70
  11  12   7   49.60   28.00
  12 -11   7   40.20   33.90
  13  12  -7    9.10   18.50
 -12  13  -7    6.50   29.00
  13  12   7   38.00   28.40
  12 -13   7   94.29   46.80
 -12  13   7   66.99   37.10
 -13 -12   7   58.39   31.40
  13  12   7    4.20   17.90
 -12  13   7   21.90   31.30
  13  10  -7    4.40   19.40
 -10  13  -7   25.10   26.30
 -10  13   7   -6.90   16.10
 -13 -10   7   -1.60   24.10
  10 -13   7  -23.20   26.60
 -10  13   7   33.50   31.40
  13  10   7  -15.90   10.70
  13  10   7  -13.00   16.00
  13   8  -7  -16.80   14.50
  -8  13  -7    2.70   22.10
  13   8   7    3.20   17.10
  -8  13   7    6.10   26.60
  -8  13   7  -15.90   17.70
   8 -13   7   27.60   20.40
 -13  -8   7    7.20   17.50
  13   6  -7   38.60   34.90
  -6  13  -7   88.39   44.90
 -13  -6  -7   64.19   32.80
  -6  13   7   43.20   38.30
  -6  13   7   72.19   37.20
 -13  -6   7   46.60   35.20
   6 -13   7   69.99   40.20
  13   6   7  127.69   59.19
  13   4  -7   62.99   31.30
  -4  13  -7   16.80   23.90
 -13  -4  -7   15.80   24.10
 -13  -4   7   30.10   28.00
   4 -13   7   12.20   20.00
  -4  13   7   40.90   32.60
  13   4   7  103.49   38.10
  -4  13   7   75.39   40.80
  -2  13  -7  103.69   49.10
 -13  -2  -7   36.40   24.70
  -2  13   7   17.20   23.60
  13   2   7    4.00   17.00
  -2  13   7   17.00   24.90
 -13  -2   7   -0.90   20.50
   2 -13   7   97.49   51.29
   0  13  -7    2.90   29.50
   0  13   7  -12.50   13.60
   0 -13   7    9.80   25.40
 -13   0   7    5.20   19.00
   0  13   7   31.90   32.00
  13   0   7   26.20   19.60
   2  13  -7   -7.20   12.20
 -13   2  -7   -1.20    8.70
 -13   2   7   -6.10   16.20
   2  13   7   59.59   31.00
 -13   2   7   -3.90   19.10
  -2 -13   7   58.69   37.80
  13  -2   7   66.39   29.90
   2  13   7   21.10   24.50
   4  13  -7    2.70   21.00
 -13   4  -7   15.90   23.10
   4  13   7   60.79   35.20
   4  13   7   62.49   33.70
 -13   4   7   50.29   31.80
  -4 -13   7   78.59   39.20
  13  -4   7   49.99   29.90
 -13   4   7   50.49   35.70
   6  13  -7   14.90   25.00
 -13   6  -7   45.70   34.90
   6  13   7   36.10   32.90
  13  -6   7   42.90   29.30
  -6 -13   7   24.80   29.50
 -13   6   7   36.90   26.20
 -13   6   7   31.40   25.60
   6  13   7   61.09   34.40
   8  13  -7    2.30   17.60
 -13   8  -7   34.10   23.70
  13  -8   7  -15.60   19.20
   8  13   7   -3.10   15.80
 -13   8   7  -10.40   14.20
  -8 -13   7   47.80   31.40
   8  13   7   15.50   21.80
 -13   8   7   54.69   28.10
  10  13  -7   13.80   24.90
 -13  10  -7   15.70   23.40
 -10 -13   7   10.10   28.00
  13 -10   7  -26.70   16.00
 -13  10   7    0.40   22.20
  10  13   7   -9.20   12.10
  10  13   7   31.50   28.30
 -13  10   7   -7.50   20.00
 -13  12  -7   54.29   31.40
  12  13  -7    1.90   17.10
 -13  12   7  -14.10   13.70
  13 -12   7   49.10   32.90
  12  13   7   15.20   21.40
 -12 -13   7   84.09   42.50
  12  13   7    0.00   20.80
 -13  12   7   27.70   30.40
  14  13  -7    4.90   19.20
 -13  14  -7   39.70   33.50
  14  13   7   50.89   30.30
 -13  14   7   20.50   35.20
  14  13   7  -18.60   14.10
  13 -14   7   12.30   33.80
 -13  14   7    8.60   22.80
 -14 -13   7  -17.10   12.90
  14  11  -7   48.90   28.00
 -11  14  -7   16.60   28.10
 -14 -11   7   46.90   30.10
 -11  14   7   65.09   38.50
  14  11   7    9.50   22.00
 -11  14   7   17.60   31.10
  11 -14   7   25.00   32.40
  14  11   7   25.50   27.50
  -9  14  -7  -12.10   19.80
  14   9  -7   12.30   20.90
 -14  -9   7   20.90   20.60
  -9  14   7   18.60   28.70
  14   9   7   -6.60   13.60
   9 -14   7  -13.50   15.00
  14   9   7  -11.40   10.60
  -9  14   7  -15.90   32.40
  14   7  -7   26.90   25.90
  -7  14  -7   -7.50   17.10
 -14  -7  -7    6.50   17.70
   7 -14   7  -15.40   15.90
 -14  -7   7   -7.60   16.30
  -7  14   7   -8.50   23.10
  14   7   7    4.70   19.70
  -7  14   7    3.90   26.00
 -14  -5  -7   65.99   30.90
  14   5  -7   -2.70   18.90
  -5  14  -7   -9.00   17.40
  14   5   7   48.30   25.50
   5 -14   7  -15.70   20.00
  -5  14   7  142.99   75.39
  -5  14   7  -14.30   13.70
 -14  -5   7   -2.20   21.30
  -3  14  -7   32.20   27.50
 -14  -3  -7   45.70   26.90
   3 -14   7    5.90   26.20
  14   3   7   35.50   31.40
 -14  -3   7   98.69   36.70
  -3  14   7   31.40   30.80
  -3  14   7   24.40   28.70
 -14  -1  -7    5.80   18.20
  -1  14  -7   21.20   37.80
  14   1   7   28.50   23.90
  -1  14   7   -8.80   21.30
   1 -14   7   37.70   29.70
 -14  -1   7   15.40   19.20
 -14  -1   7  -16.90   12.40
  -1  14   7   64.19   35.00
   1  14  -7   13.00   22.30
  14  -1   7   32.50   29.70
   1  14   7   -1.70   18.20
 -14   1   7  -11.90   14.60
  -1 -14   7   23.40   21.80
   1  14   7   16.20   17.80
   3  14  -7   89.49   40.20
 -14   3  -7    0.70    9.30
   3  14   7   43.70   29.40
 -14   3   7   -9.20   11.30
   3  14   7   53.39   37.30
 -14   3   7   80.39   41.40
  -3 -14   7   40.30   35.30
  14  -3   7   59.99   27.70
   5  14  -7   21.80   24.10
 -14   5  -7   39.00   29.40
   5  14   7   10.00   19.10
  14  -5   7    1.20   17.60
   5  14   7    5.90   19.30
  -5 -14   7  -23.20   14.20
 -14   5   7   17.90   29.20
 -14   5   7    4.70   19.60
 -14   7  -7  -12.10   13.50
   7  14  -7    9.20   22.50
 -14   7   7  -27.10   18.80
 -14   7   7   12.10   23.60
   7  14   7   -5.50   16.00
  14  -7   7    3.40   19.90
  -7 -14   7   25.90   29.00
   7  14   7   38.00   32.40
 -14   9  -7   11.50   20.70
   9  14  -7    8.20   19.40
   9  14   7   30.10   27.80
  14  -9   7   73.09   38.00
 -14   9   7   22.00   26.30
  -9 -14   7   59.19   34.30
   9  14   7   -5.00   17.30
 -14   9   7   15.80   25.40
  11  14  -7   34.30   26.20
 -14  11  -7   46.90   38.30
 -14  11   7    5.70   23.80
  14 -11   7   15.20   28.00
 -14  11   7   30.90   33.10
  11  14   7    5.00   19.90
  11  14   7   43.60   29.90
 -11 -14   7   66.29   38.30
  13  14  -7   27.30   25.50
 -14  13  -7   20.10   25.80
  13  14   7   16.30   20.00
 -14  13   7   -3.10   18.70
  13  14   7   26.60   24.30
 -14  13   7    7.00   23.30
 -13 -14   7  -21.00   14.90
  14 -13   7   33.70   36.90
  15  12  -7    1.00   18.80
 -12  15  -7   13.20   24.30
 -12  15   7  -15.60   15.30
 -15 -12   7    9.90   23.40
  15  12   7   -4.40   17.60
  12 -15   7  -20.30   19.90
 -12  15   7   -1.00   25.00
  15  12   7   11.60   22.50
 -10  15  -7    8.00   19.60
  15  10  -7   17.90   21.80
  15  10   7   23.20   23.60
 -10  15   7  -31.00   21.90
  15  10   7   -7.50   20.00
  10 -15   7   -8.80   22.40
 -15 -10   7   18.20   19.40
 -10  15   7  -13.30   18.10
  -8  15  -7   -0.70   20.50
  15   8  -7   10.60   20.20
   8 -15   7   35.50   30.10
  -8  15   7  -23.80   19.20
  15   8   7   40.40   26.10
  -8  15   7  -37.10   19.80
 -15  -8   7   37.60   27.80
 -15  -6  -7   25.00   22.10
  15   6  -7   31.40   27.20
  -6  15  -7   41.80   33.90
  15   6   7   28.40   25.30
   6 -15   7  107.29   61.89
  -6  15   7    3.40   17.30
  -6  15   7    0.60   21.00
 -15  -6   7   37.10   28.30
  -4  15  -7    5.30   19.20
 -15  -4  -7   14.10   17.70
   4 -15   7   16.30   23.20
  15   4   7   21.40   25.30
 -15  -4   7   -9.00   13.00
  -4  15   7   24.80   32.40
  -4  15   7   16.80   24.90
 -15  -2  -7  -15.20   12.90
  -2  15  -7   -2.00   20.70
   2 -15   7    0.30   15.60
 -15  -2   7  -11.60   14.80
  -2  15   7   25.30   28.30
  -2  15   7  -16.40   13.50
 -15  -2   7  -21.90   15.20
 -15   0  -7  -11.80   14.90
   0  15  -7   -5.20   21.40
 -15   0   7   -3.00   16.40
   0  15   7    1.50   16.70
   0  15   7   -2.60   29.30
   0 -15   7  -16.00   16.60
  15   0   7   -9.80   16.40
 -15   0   7  -18.80   14.20
   2  15  -7   -4.30   15.10
   2  15   7  -14.80   17.70
  15  -2   7   47.10   31.90
 -15   2   7  -12.00   12.90
   2  15   7   43.90   29.70
  -2 -15   7  -14.40   14.90
   4  15  -7    3.20   22.20
 -15   4  -7   -1.00   15.90
  -4 -15   7   -9.50   13.30
  15  -4   7   32.60   30.30
 -15   4   7   -4.40   14.00
   4  15   7   -8.40   16.20
 -15   4   7   15.40   21.50
   4  15   7   78.09   39.40
 -15   6  -7   50.89   31.10
   6  15  -7    3.50   19.20
 -15   6   7  -14.60   16.10
  -6 -15   7   46.50   33.60
   6  15   7   38.90   26.10
 -15   6   7   25.10   28.10
   6  15   7   73.89   41.30
  15  -6   7   -1.50   15.50
   8  15  -7   -8.60   15.60
 -15   8  -7   20.00   24.20
 -15   8   7   13.20   23.20
   8  15   7    7.20   20.20
 -15   8   7   41.30   33.50
  15  -8   7   26.30   24.30
  -8 -15   7    2.60   16.90
   8  15   7   27.80   27.30
  10  15  -7   -0.20   20.10
 -15  10  -7  -13.10   16.50
 -10 -15   7   22.90   25.00
 -15  10   7   33.40   25.00
  15 -10   7  -22.00   19.00
  10  15   7   -1.30   21.50
  10  15   7   18.20   22.20
 -15  10   7   -4.30   20.40
  12  15  -7  -12.20   17.50
 -15  12  -7   -6.80   20.40
  15 -12   7  -26.90   16.70
 -12 -15   7   43.70   26.40
 -15  12   7   -6.70   18.70
  12  15   7    5.90   18.90
  12  15   7    2.50   22.20
 -15  12   7  -11.50   20.30
 -11  16  -7  -12.50   17.60
  16  11  -7  -11.50   15.10
 -11  16   7    3.90   17.50
  16  11   7   14.10   20.50
 -16 -11   7   34.90   28.70
  16  11   7   24.30   26.10
  11 -16   7    4.60   17.10
 -11  16   7   12.80   27.10
  -9  16  -7   -7.10   19.80
  -9  16   7   -2.30   18.20
  16   9   7   13.80   21.00
  16   9   7   15.70   26.40
 -16  -9   7  -26.60   13.70
   9 -16   7   -3.00   16.40
  -9  16   7   20.80   40.10
  16   7  -7   -6.10   13.50
  -7  16  -7   18.80   27.70
 -16  -7  -7   28.20   23.00
  -7  16   7   16.60   45.40
  -7  16   7    0.80   16.80
  16   7   7   10.30   18.80
   7 -16   7   29.50   34.40
 -16  -7   7   31.80   22.20
 -16  -5  -7    9.90   22.80
  -5  16  -7   22.00   28.20
  16   5   7   13.40   16.90
   5 -16   7   -8.40   14.50
  -5  16   7    4.70   17.80
 -16  -5   7   13.40   23.20
  -5  16   7   54.59   36.40
  -3  16  -7    2.80   19.00
 -16  -3  -7  -16.60   13.30
  16   3   7   27.60   21.50
  -3  16   7   -7.70   26.60
 -16  -3   7  -12.00   25.80
 -16  -3   7  -13.60   12.80
   3 -16   7  -11.60   17.10
  -3  16   7  -17.20   17.20
 -16  -1  -7   -3.70   18.00
  -1  16  -7  -14.00   16.50
 -16  -1   7   10.10   18.90
 -16  -1   7    3.00   16.00
   1 -16   7   20.10   24.80
  -1  16   7  -26.20   15.70
  16   1   7  -12.70   15.10
  -1  16   7   26.50   32.60
 -16   1  -7   15.00   18.90
   1  16  -7    3.90   23.60
  16  -1   7   -7.70   14.70
   1  16   7    8.70   23.10
 -16   1   7  -19.40   13.50
 -16   1   7  -19.90   16.10
   1  16   7   -1.30   22.30
  -1 -16   7   -7.00   16.50
 -16   3  -7   -1.70   23.60
   3  16  -7  -11.30   15.90
 -16   3   7   -6.30   16.70
  16  -3   7    1.70   16.80
  -3 -16   7   14.10   20.70
   3  16   7   -9.10   22.20
   3  16   7  -11.50   12.20
   5  16  -7   21.80   27.70
   5  16   7  -14.80   14.00
  16  -5   7  -23.50   13.60
   5  16   7   13.60   26.60
 -16   5   7   -2.00   11.80
 -16   5   7  -10.70   13.60
  -5 -16   7   -4.10   19.40
   7  16  -7   -9.00   18.00
 -16   7  -7   32.70   29.20
   7  16   7   38.00   24.80
   7  16   7  -10.90   20.70
 -16   7   7   16.50   25.70
  16  -7   7  -12.20   18.20
 -16   7   7   42.10   30.60
 -16   9  -7  -20.60   13.30
   9  16  -7   10.40   20.30
 -16   9   7   32.00   31.30
  -9 -16   7   23.50   25.30
  16  -9   7   16.40   21.70
   9  16   7   -0.80   17.50
   9  16   7   39.90   30.60
 -16   9   7   17.50   29.80
 -16  11  -7   21.20   29.00
  11  16  -7   -4.20   16.20
 -11 -16   7   30.80   29.50
  11  16   7    3.40   17.30
  16 -11   7  -25.30   14.40
  11  16   7   38.20   27.90
 -16  11   7  -15.40   18.50
 -16  11   7  -13.10   27.00
  17   8  -7   21.90   23.90
 -17  -8   7    7.20   23.50
  -8  17   7    1.20   23.30
  17   8   7   12.50   20.40
  -8  17   7   -7.80   39.40
   8 -17   7  -64.39   59.19
  -6  17  -7   22.10   33.10
 -17  -6  -7   30.90   26.60
  -6  17   7   17.70   33.30
  -6  17   7  131.29   75.79
  17   6   7   57.29   34.90
 -17  -6   7   40.00   28.30
   6 -17   7   53.59   42.20
  -4  17  -7   64.19   40.60
 -17  -4  -7   96.89   39.50
  17   4   7   13.20   20.00
 -17  -4   7  -15.10   17.70
  -4  17   7  110.39   64.59
   4 -17   7   68.59   41.20
  -4  17   7   77.59   38.10
 -17  -4   7  121.89   42.80
  -2  17  -7   -5.20   16.80
 -17  -2  -7  -12.30   14.30
   2 -17   7    4.10   18.30
 -17  -2   7  -17.40   16.70
  -2  17   7    4.00   25.30
  -2  17   7  122.19   97.79
  17   2   7  -17.10   12.50
 -17  -2   7   34.50   32.60
   0  17  -7  -16.40   14.50
 -17   0  -7  -13.60   15.40
  17   0   7   12.20   18.30
   0 -17   7   26.00   23.30
 -17   0   7  -26.50   15.40
 -17   0   7   -0.50   20.00
   0  17   7   -0.70   20.40
   0  17   7  -16.40   11.70
 -17   2  -7  -18.00   14.90
   2  17  -7  -24.20   16.20
  -2 -17   7  -11.80   17.80
 -17   2   7   -3.10   13.40
  17  -2   7  -16.40   14.00
   2  17   7   -7.20   17.00
   2  17   7   19.00   30.80
 -17   2   7   11.00   23.00
 -17   4  -7   37.50   32.90
   4  17  -7   86.59   40.40
   4  17   7   10.40   21.20
  17  -4   7  113.49   44.20
   4  17   7   33.20   23.80
 -17   4   7   36.00   31.80
  -4 -17   7   46.70   36.00
   6  17  -7   54.99   33.50
   6  17   7    8.30   19.90
   6  17   7   14.50   26.70
 -17   6   7    3.20   14.20
 -17   6   7   -3.70   16.30
  17  -6   7  142.09   52.79
 -17   8  -7    7.00   18.30
   8  17  -7   -1.80   17.00
  17  -8   7   11.40   21.80
 -17   8   7  -10.40   18.60
 -17   8   7    7.70   19.00
   8  17   7  -14.40   13.50
   8  17   7  -12.40   14.90
  -8 -17   7    5.20   24.50
  -7  18  -7    9.00   28.30
 -18  -7  -7   72.69   33.60
   7 -18   7   38.00   28.10
 -18  -7   7   29.60   29.50
  18   7   7   55.89   28.10
  -7  18   7  114.79   56.19
 -18  -5  -7   18.10   26.70
  -5  18  -7    9.00   26.70
 -18  -5   7   58.79   32.10
 -18  -5   7   61.89   31.30
  18   5   7   38.70   24.70
  -5  18   7   14.20   23.00
   5 -18   7   26.80   24.40
  -5  18   7   11.70   23.60
 -18  -3  -7   18.50   25.10
  -3  18  -7   25.40   27.80
   3 -18   7   39.80   36.20
  -3  18   7  -18.70   20.00
 -18  -3   7   80.89   40.20
  18   3   7   15.80   20.40
 -18  -3   7   13.20   19.40
  -3  18   7   32.70   37.00
  -1  18  -7  -15.40   17.00
 -18  -1  -7   -0.30   17.80
  -1  18   7   25.00   30.60
   1 -18   7    6.90   21.00
  -1  18   7  -10.80   20.90
  18   1   7   -9.10   14.80
 -18  -1   7   -1.50   15.70
 -18  -1   7   -3.70   20.80
   1  18  -7   26.90   26.80
 -18   1  -7  -11.10   16.50
 -18   1   7  -16.50   17.00
  -1 -18   7   17.70   22.30
   1  18   7    8.90   17.30
  18  -1   7   14.90   17.20
 -18   1   7  -16.70   16.60
   1  18   7   13.80   31.20
   3  18  -7   14.60   24.50
 -18   3  -7   34.40   27.50
 -18   3   7   31.30   26.60
  18  -3   7   40.20   28.40
   3  18   7   37.20   31.00
 -18   3   7   61.59   34.70
   3  18   7    1.10   18.60
  -3 -18   7   17.00   27.30
   5  18  -7   81.79   39.70
 -18   5  -7   43.50   30.50
   5  18   7   60.39   41.50
   5  18   7   -9.90   14.00
  -5 -18   7  106.49   53.99
 -18   5   7   71.69   34.20
  18  -5   7   47.30   32.90
   7  18  -7    4.00   20.60
   7  18   7   85.69   40.90
  18  -7   7   18.00   24.60
   7  18   7   76.49   34.10
  -7 -18   7   51.99   30.50
 -18   7   7    2.40   14.20
 -18   7   7   71.69   37.60
  -4  19  -7  104.09   47.00
 -19  -4  -7   -9.40   17.50
  -4  19   7   16.20   33.50
   4 -19   7    2.70   21.20
  -4  19   7  -19.10   22.30
  19   4   7  -18.10   13.90
 -19  -4   7   20.90   22.50
 -19  -4   7    4.00   18.90
  -2  19  -7   26.80   33.00
 -19  -2  -7   34.10   27.60
 -19  -2   7  -21.00   14.80
  19   2   7  -18.60   15.90
   2 -19   7  -20.10   17.40
 -19  -2   7   79.69   38.30
  -2  19   7  -20.20   33.30
   0  19  -7   -9.40   21.40
 -19   0  -7   -6.70   14.70
 -19   0   7   -9.20   15.60
  19   0   7    5.00   22.90
 -19   0   7    6.30   22.40
   0  19   7   11.90   33.40
   0  19   7    6.40   19.90
   0 -19   7   -9.90   19.30
   2  19  -7    6.00   20.40
 -19   2  -7   51.99   27.30
   2  19   7   49.40   27.90
   2  19   7   57.29   41.20
 -19   2   7   25.90   29.30
 -19   2   7   16.10   22.50
  -2 -19   7   13.80   23.70
  19  -2   7   -5.10   18.80
   4  19  -7    1.40   23.60
 -19   4  -7   57.29   30.80
 -19   4   7   34.00   25.30
   4  19   7    6.80   27.20
   4  19   7  -19.50   19.30
  19  -4   7   40.30   41.40
  -4 -19   7   21.20   26.70
 -19   4   7   -2.90   22.10
   0   0  -8  739.43  181.18
   0   0   8  508.15  154.68
   1  -1  -8  -17.20   13.80
  -1  -1  -8   -7.20   17.60
  -1   1  -8   -8.60   15.90
   1   1  -8    5.60   18.50
   1   1   8   -5.80   35.40
  -1   1   8   -5.70   18.70
   1  -1   8   -4.70   17.90
  -1  -1   8    0.60   18.20
  -2   0  -8  709.33  232.68
   2   0  -8  852.31  240.48
   0  -2  -8 1375.26  260.27
   0   2  -8 1001.70  241.98
   0  -2   8  809.02  237.38
  -2   0   8 1153.48  259.47
   0   2   8  983.90  245.48
   2   0   8  760.22  233.68
  -2   2  -8 1321.67  256.37
  -2  -2  -8 1030.90  235.18
   2  -2  -8  611.04  214.88
   2   2  -8  772.82  224.88
  -2   2   8  660.13  215.58
  -2  -2   8 1167.68  242.18
   2   2   8 1000.00  233.28
   2  -2   8 1635.24  294.57
   1  -3  -8   16.40   20.00
  -3  -1  -8    6.60   18.10
  -1   3  -8   37.20   34.70
   3   1  -8    5.90   19.80
   3   1   8    6.00   19.90
  -1   3   8  -45.40   36.80
  -3  -1   8   -3.00   15.80
   1  -3   8    0.90   20.10
   1   3  -8   14.90   22.70
  -3   1  -8   -5.00   13.60
   3  -1  -8   30.50   24.20
  -1  -3  -8   10.60   18.20
  -1  -3   8  -18.30   14.20
   1   3   8   28.60   28.00
   3  -1   8   25.90   25.40
  -3   1   8   45.30   30.00
   3  -3  -8   -2.70   16.30
  -3  -3  -8   -8.40   12.40
  -3   3  -8   31.50   38.00
   3   3  -8   28.30   25.80
  -3   3   8  -23.20   13.20
   3  -3   8   -6.00   32.70
   3   3   8   42.00   25.20
  -3  -3   8   -8.30   15.10
   2  -4  -8  357.86   98.79
   4   2  -8  304.27  119.19
  -4  -2  -8  459.35  112.69
  -2   4  -8  489.25  128.79
  -4  -2   8  345.57   99.59
  -2   4   8  188.48   87.59
   4   2   8  359.46   99.19
   2  -4   8  464.35  115.19
   0  -4  -8  581.54  159.08
   4   0  -8  414.16  140.79
  -4   0  -8  753.32  168.68
   0   4  -8  509.95  140.69
   0   4   8  434.56  141.49
   4   0   8  349.77  136.29
   0  -4   8  546.55  141.39
  -4   0   8  556.24  143.99
   2   4  -8  264.47   96.29
   4  -2  -8  378.76  103.29
  -2  -4  -8  534.05  119.69
  -4   2  -8  395.66  106.69
   4  -2   8  267.77   96.79
  -2  -4   8  382.86  103.89
   2   4   8  288.37   99.49
  -4   2   8  247.38   94.59
   4   4  -8  172.58   81.39
  -4  -4  -8  286.97   88.59
  -4   4  -8  227.98   84.19
   4   4   8  267.97   83.49
  -4   4   8  278.57   90.39
  -4  -4   8  419.26  101.89
   4  -4   8  397.06  104.39
  -5  -3  -8   21.20   25.30
   5   3  -8   -6.90   12.80
  -3   5  -8  -18.80   12.30
   5   3   8    0.80   17.60
   3  -5   8  -11.80   15.80
  -3   5   8  -18.90   14.50
  -5  -3   8  -32.80   37.90
  -3   5   8   -7.50   17.30
  -1   5  -8   46.30   29.40
   5   1  -8    6.20   19.50
   1  -5  -8    5.30   14.60
  -5  -1  -8   34.40   30.80
  -1   5   8    9.40   24.70
   5   1   8  -14.50   12.20
   1  -5   8   17.20   31.10
  -5  -1   8   53.59   34.80
  -5   1  -8  -18.30   15.80
  -1  -5  -8   36.90   24.50
   1   5  -8   57.59   43.70
   5  -1  -8   24.00   26.20
   5  -1   8   -4.60   21.10
  -5   1   8   25.60   27.30
   1   5   8  -10.10   16.70
  -1  -5   8   27.90   29.90
   3   5  -8   42.00   26.40
   5  -3  -8   -1.70   14.60
  -3  -5  -8  -15.00   18.60
  -5   3  -8  139.19   67.59
  -5   3   8   -4.30   23.70
   5  -3   8   -1.10   18.10
   3   5   8   20.30   20.00
  -3  -5   8  -16.50   13.50
   5   5  -8    3.50   20.30
  -5   5  -8  -11.80   19.70
  -5  -5  -8  -26.10   15.80
  -5   5   8   85.59   48.20
   5   5   8    3.20   16.40
  -5  -5   8  -12.70   17.80
  -5   5   8   -7.20   15.00
   5  -5   8  -11.40   13.90
  -4   6  -8  597.74  140.59
   6   4  -8  304.67  111.99
  -6  -4  -8  485.25  122.09
  -6  -4   8  362.76  117.89
  -4   6   8  380.56  112.79
   4  -6   8  450.95  121.69
   6   4   8  278.47  106.69
  -4   6   8  389.56  110.09
   6   2  -8  185.98   60.29
  -6  -2  -8  234.48   64.29
  -2   6  -8   86.09   43.70
  -2   6   8  264.87   70.69
  -6  -2   8  112.19   46.10
  -2   6   8  102.09   45.90
   6   2   8   49.20   38.00
   2  -6   8  119.39   46.80
   6   0  -8  218.88   84.89
  -6   0  -8   98.69   53.99
   0   6  -8  245.88   82.09
   0   6   8  207.28   68.39
   6   0   8  200.08   66.99
   0  -6   8  136.19   57.09
   0   6   8  139.49   51.69
  -6   0   8  192.78   69.19
   6  -2  -8  164.18   54.39
  -6   2  -8  220.78   68.89
   2   6  -8  137.69   85.99
  -2  -6  -8   66.39   37.20
   2   6   8   81.59   42.20
   6  -2   8  189.48   62.69
  -6   2   8  320.17   96.99
  -2  -6   8  130.99   47.80
  -4  -6  -8  368.66  103.39
  -6   4  -8  399.36  109.29
   4   6  -8  315.17   98.99
   6  -4   8  369.86  105.99
  -6   4   8  268.97   97.59
   4   6   8  396.16  109.29
  -6   4   8  269.17   95.29
  -4  -6   8  345.87  102.89
   6   6  -8  732.83  186.38
  -6  -6  -8  663.43  188.58
  -6   6  -8 1277.67  229.58
  -6   6   8  566.34  184.58
  -6   6   8  871.31  195.88
   6  -6   8  617.64  189.68
  -6  -6   8  588.44  183.58
   6   6   8  866.81  200.48
   7   5  -8   18.60   21.50
  -7  -5  -8   -7.90   15.70
  -5   7  -8    6.80   25.30
  -7  -5   8    0.40   17.90
  -5   7   8   11.60   21.60
  -5   7   8  -18.50   14.10
   5  -7   8   35.40   32.90
   7   5   8  -27.70   15.50
  -3   7  -8  124.39   67.69
  -7  -3  -8    5.40   23.80
   7   3  -8  110.79   44.80
  -3   7   8  -10.30   18.60
  -7  -3   8   17.80   23.00
   3  -7   8  201.18   68.29
   7   3   8   56.79   33.90
  -3   7   8   57.79   29.80
  -1   7  -8   18.40   26.60
  -7  -1  -8   59.99   38.20
   7   1  -8   58.49   42.70
  -1   7   8   54.69   47.70
  -1   7   8   10.90   30.70
  -7  -1   8  118.09   43.90
   7   1   8   75.69   39.50
   1  -7   8   30.70   28.60
   1   7  -8    3.70   35.10
  -7   1  -8  121.09   52.39
   7  -1  -8    9.50   22.00
  -1  -7   8   81.49   47.80
   7  -1   8   26.80   28.00
   1   7   8   50.89   27.70
   1   7   8    0.50   14.40
  -7   1   8   12.00   21.30
   3   7  -8  175.38   57.29
  -7   3  -8   15.70   21.90
  -3  -7   8   16.60   25.30
   7  -3   8   31.60   27.80
  -7   3   8   34.90   29.10
  -7   3   8   68.89   39.80
   3   7   8   64.19   28.30
   3   7   8   65.29   30.60
  -7   5  -8   85.79   37.20
   5   7  -8   24.50   22.40
  -7   5   8   10.10   23.50
   7  -5   8    1.40   17.20
  -5  -7   8   50.39   32.10
   5   7   8  -21.50   12.60
  -7   5   8   85.49   37.00
  -7  -7  -8    4.50   16.90
  -7   7  -8   24.90   24.80
   7   7  -8   -1.20   14.00
   7  -7   8   12.60   28.90
  -7   7   8   -6.90   15.90
  -7   7   8  -11.50   17.90
  -7  -7   8  -13.40   16.50
   7   7   8   -8.40   13.70
  -8  -6  -8  189.78   70.89
   8   6  -8  172.88   67.39
  -6   8  -8  256.67   83.29
   8   6   8  288.87   81.29
  -8  -6   8  235.78   75.79
   6  -8   8  210.68   78.09
  -6   8   8  148.89   64.89
  -6   8   8  199.18   70.39
   8   4  -8  251.37   69.79
  -4   8  -8  126.29   59.49
  -8  -4  -8  147.99   61.39
  -8  -4   8  139.19   59.19
   4  -8   8  281.97   74.79
   8   4   8  139.59   57.69
  -4   8   8  220.58   70.69
  -4   8   8  321.17   78.59
  -8  -2  -8  197.68   65.69
   8   2  -8  120.89   59.49
  -2   8  -8  190.48   70.09
  -2   8   8  395.86   85.99
  -2   8   8  294.77   80.79
   8   2   8  168.18   66.79
  -8  -2   8  132.09   65.69
   2  -8   8  377.86   95.99
   8   0  -8  273.37  106.49
  -8   0  -8  437.76  118.19
   0   8  -8  365.16  112.99
   0   8   8  383.16  134.49
   0   8   8  417.66  120.99
   8   0   8  359.66  113.89
   0  -8   8  371.76  117.49
  -8   0   8  397.96  106.59
   2   8  -8  316.47   83.09
  -8   2  -8  184.78   62.29
  -8   2   8  256.37   80.19
   2   8   8   89.89   59.79
  -2  -8   8  263.97   78.49
   8  -2   8  246.28   73.39
   2   8   8  189.78   65.89
   4   8  -8   75.79   46.30
  -8   4  -8  126.39   54.99
  -8   4   8  299.97   74.49
   4   8   8  169.38   66.69
   4   8   8  128.39   56.39
  -4  -8   8  185.48   61.59
  -8   4   8  336.27   83.49
   8  -4   8  208.68   70.49
  -8   6  -8  146.69   59.39
   6   8  -8  180.48   61.49
  -6  -8   8  157.88   64.49
  -8   6   8  144.19   67.29
   6   8   8  187.98   61.09
   6   8   8  190.78   64.39
   8  -6   8  265.87   79.89
  -8   6   8  138.39   62.99
   8   8  -8    6.50   21.60
  -8   8  -8   36.40   31.40
  -8  -8   8   89.39   41.70
   8  -8   8   27.00   31.40
   8   8   8   99.19   36.90
  -8   8   8   79.09   41.30
  -8   8   8   20.00   27.60
   8   8   8   60.39   35.60
   9   7  -8   33.70   31.80
  -9  -7  -8    5.00   18.10
  -7   9  -8   18.60   29.00
  -9  -7   8   -3.90   16.40
  -7   9   8   48.40   57.19
  -7   9   8    4.90   18.90
   9   7   8   65.69   34.50
   7  -9   8  -15.50   18.90
  -9  -5  -8    2.60   15.90
  -5   9  -8    7.90   20.70
   9   5  -8  -12.40   12.60
  -5   9   8   -3.80   32.90
   9   5   8    3.30   19.40
   5  -9   8  -16.60   39.20
  -5   9   8   -8.40   21.60
  -9  -5   8   -2.70   18.50
   9   3  -8   36.20   34.30
  -3   9  -8   45.20   30.30
  -9  -3  -8    5.90   17.80
  -3   9   8  -15.70   20.30
  -3   9   8   26.30   28.10
   9   3   8    0.00   16.70
   3  -9   8   50.89   36.50
  -9  -3   8    8.70   19.10
   9   1  -8   64.19   31.20
  -1   9  -8   35.60   27.50
  -9  -1  -8  -26.30   13.90
   1  -9   8   -2.60   22.00
  -9  -1   8   23.30   26.10
   9   1   8  -12.70   17.00
  -1   9   8    2.70   22.00
  -9   1  -8   61.29   31.70
   1   9  -8   48.20   32.80
  -9   1   8  -17.70   16.60
   1   9   8   -7.00   17.60
   1   9   8   30.20   26.60
  -1  -9   8   23.80   26.60
   9  -1   8   -7.70   17.80
  -9   3  -8   15.30   21.70
   3   9  -8    6.20   22.20
   3   9   8   35.70   26.30
   9  -3   8   13.40   19.30
  -9   3   8   32.50   32.20
  -3  -9   8    0.50   25.00
   3   9   8   13.50   25.30
  -9   3   8   20.10   22.90
  -9   5  -8   -9.60   14.10
   5   9  -8    8.00   16.50
  -5  -9   8   37.90   34.60
  -9   5   8   33.40   30.20
   9  -5   8   62.39   36.90
   5   9   8  -11.20   22.60
  -9   5   8  -12.50   15.00
   5   9   8   25.80   27.30
  -9   7  -8   36.30   25.20
   7   9  -8  -14.00   14.00
   7   9   8    5.70   20.30
  -9   7   8   45.90   34.90
   7   9   8   18.40   25.90
   9  -7   8    0.40   21.00
  -7  -9   8   34.00   39.20
  -9   7   8   -2.50   19.80
   9   9  -8   12.90   20.20
  -9   9  -8  -10.50   23.50
   9  -9   8  -24.00   17.50
  -9   9   8   45.40   29.50
   9   9   8   49.10   29.40
   9   9   8  -19.70   12.90
  -9   9   8   29.20   28.00
  -9  -9   8   -1.30   14.20
  -8  10  -8  140.19   62.19
  10   8  -8  149.88   63.89
 -10  -8   8  292.97   77.99
   8 -10   8  242.78   86.99
  -8  10   8  191.28   69.99
  10   8   8  156.58   61.19
  -8  10   8  288.77   85.49
 -10  -6  -8  103.89   49.20
  10   6  -8  217.68   57.09
  -6  10  -8  196.18   58.29
  10   6   8  135.69   49.80
  -6  10   8   77.69   50.09
   6 -10   8  105.39   48.30
 -10  -6   8  104.19   49.50
  -6  10   8  243.28   71.79
  -4  10  -8   59.39   40.90
 -10  -4  -8  119.89   44.60
  10   4  -8  166.28   58.59
   4 -10   8  195.78   66.09
  10   4   8  129.49   49.30
 -10  -4   8   20.80   29.40
  -4  10   8  122.49   51.59
  -4  10   8  152.58   59.29
 -10  -2  -8   -7.90   18.80
  10   2  -8   -4.40   15.70
  -2  10  -8   17.20   23.60
   2 -10   8    0.30   20.60
  -2  10   8   12.40   27.70
  10   2   8   28.70   21.60
 -10  -2   8   48.20   30.00
   0  10  -8   18.80   25.00
 -10   0  -8   27.90   26.10
  10   0  -8   40.50   28.70
   0  10   8   16.90   24.60
   0 -10   8   12.00   26.10
   0  10   8   56.29   29.70
  10   0   8   20.60   23.00
 -10   0   8    8.10   18.60
 -10   2  -8   36.20   22.10
   2  10  -8   52.29   31.60
  10  -2   8   -0.10   19.60
   2  10   8   -1.00   18.00
  -2 -10   8   52.59   28.20
 -10   2   8    2.00   21.00
 -10   2   8   -7.00   16.40
   2  10   8   15.30   22.60
 -10   4  -8   56.49   35.20
   4  10  -8   63.09   37.80
 -10   4   8   98.69   46.80
   4  10   8   76.19   41.10
  10  -4   8  109.79   41.10
  -4 -10   8   60.59   44.60
   4  10   8   92.69   50.69
 -10   4   8   68.89   38.90
   6  10  -8   89.49   41.70
 -10   6  -8  148.99   51.69
   6  10   8  142.99   53.79
  10  -6   8  152.68   59.49
   6  10   8  165.88   61.89
  -6 -10   8   96.59   49.00
 -10   6   8  140.69   52.99
 -10   6   8   69.59   44.80
 -10   8  -8  157.68   74.89
   8  10  -8  245.78   84.79
  10  -8   8  191.18   72.09
   8  10   8  186.78   72.09
   8  10   8  263.07   79.09
 -10   8   8  171.48   71.29
  -8 -10   8  457.25  105.09
 -10   8   8  785.92  157.88
 -10  10  -8  441.56  130.59
  10  10  -8  308.47  115.19
  10  10   8  570.54  128.79
 -10 -10   8  522.55  138.09
  10 -10   8  651.33  149.69
 -10  10   8  286.27  115.59
  10  10   8  523.45  131.49
 -10  10   8  493.15  137.29
  -9  11  -8    2.70   21.20
  11   9  -8    2.50   18.20
  11   9   8    2.90   22.40
   9 -11   8  -14.40   16.40
  11   9   8  -14.10   14.20
  -9  11   8   27.30   32.70
  -9  11   8   21.90   26.40
  11   7  -8    1.00   21.00
  -7  11  -8  -17.70   14.70
  -7  11   8    7.50   23.70
 -11  -7   8  -15.40   18.70
  11   7   8    5.70   21.60
  -7  11   8   53.49   38.40
   7 -11   8   -2.80   22.40
 -11  -5  -8   -1.00   12.00
  -5  11  -8   39.70   29.70
  11   5  -8    9.20   25.30
 -11  -5   8   11.00   25.20
   5 -11   8   45.00   36.30
  11   5   8    5.20   17.00
  -5  11   8   51.79   35.50
  -5  11   8   17.30   28.90
  11   3  -8   -9.30   14.00
  -3  11  -8    4.20   19.70
 -11  -3  -8  -12.10   12.10
 -11  -3   8  -17.50   16.20
  -3  11   8  -28.50   19.80
  11   3   8   26.60   21.70
  -3  11   8   17.30   29.50
   3 -11   8   11.10   40.80
  11   1  -8   -6.50   15.90
 -11  -1  -8   28.20   28.80
  -1  11  -8   60.69   35.50
  11   1   8  -19.50   13.90
  -1  11   8  -12.20   16.90
 -11  -1   8   -6.30   16.00
  -1  11   8   -8.10   16.30
   1 -11   8  -19.40   13.50
 -11   1  -8    8.80   24.00
   1  11  -8   18.50   21.10
   1  11   8    7.30   21.60
  -1 -11   8    3.80   24.70
  11  -1   8   -9.50   18.50
 -11   1   8    4.20   18.50
 -11   1   8   -3.30   18.40
   1  11   8    9.00   21.20
   3  11  -8    2.70   17.00
 -11   3  -8    4.00   18.90
  -3 -11   8  -11.10   19.30
   3  11   8  -17.30   13.10
   3  11   8    6.60   20.90
 -11   3   8   -0.50   15.20
 -11   3   8    5.00   20.30
  11  -3   8  -15.20   16.40
   5  11  -8   32.10   27.70
 -11   5  -8  -12.40   13.80
  11  -5   8   -8.30   13.50
  -5 -11   8   19.20   27.90
 -11   5   8  -19.70   17.70
   5  11   8   46.40   30.70
 -11   5   8   -6.40   19.70
   5  11   8   27.60   29.20
 -11   7  -8   -1.20   19.00
   7  11  -8   34.90   34.60
   7  11   8   29.60   26.70
 -11   7   8   13.40   26.20
 -11   7   8    1.90   22.20
  -7 -11   8    5.60   18.60
  11  -7   8   12.30   24.00
   7  11   8  -16.60   14.90
   9  11  -8    7.80   22.30
 -11   9  -8   25.60   25.40
   9  11   8  -18.90   14.10
  11  -9   8   -2.80   18.30
 -11   9   8   25.30   28.30
  -9 -11   8   41.50   36.90
 -11   9   8   22.20   29.00
   9  11   8  -18.70   13.00
  11  11  -8   -3.80   16.20
 -11  11  -8    9.10   29.90
  11 -11   8   16.70   27.80
 -11 -11   8   31.30   28.70
  11  11   8    9.80   23.50
 -11  11   8   34.20   35.90
 -11  11   8   13.90   26.00
  11  11   8  -12.80   14.40
 -10  12  -8  232.18   92.09
  12  10  -8  302.37   90.19
  12  10   8  235.48   81.69
 -10  12   8  533.05  146.89
  10 -12   8  177.68   85.99
  12  10   8  267.77   87.99
 -12 -10   8  275.77   92.69
 -10  12   8  322.77   95.89
  12   8  -8   48.40   36.60
  -8  12  -8  111.09   48.60
  -8  12   8  169.78   73.49
  12   8   8   91.49   42.40
  -8  12   8   26.20   35.80
   8 -12   8   94.09   48.60
 -12  -8   8  133.49   53.69
  12   6  -8   22.20   24.00
  -6  12  -8   20.80   29.10
  12   6   8   36.60   25.20
  -6  12   8   15.90   24.30
   6 -12   8   42.70   30.30
 -12  -6   8   25.20   25.40
  -6  12   8   23.00   34.00
  -4  12  -8   36.20   36.30
  12   4  -8   28.80   26.70
  -4  12   8   77.09   37.80
  12   4   8   90.19   42.50
 -12  -4   8   73.89   36.00
   4 -12   8  168.28   86.39
  -4  12   8   19.70   32.10
 -12  -2  -8   -6.70   10.20
  12   2  -8    3.60   19.00
  -2  12  -8  -18.90   15.70
 -12  -2   8   14.20   20.20
  12   2   8    6.60   19.00
  -2  12   8   27.10   30.90
   2 -12   8   27.80   43.30
  -2  12   8   21.10   50.69
 -12   0  -8   13.10   20.80
   0  12  -8   -5.30   20.60
  12   0   8   15.60   21.80
   0  12   8    9.90   22.70
   0 -12   8  -22.50   16.30
 -12   0   8   38.90   33.80
 -12   0   8   22.00   26.60
   0  12   8   -2.70   18.20
 -12   2  -8   -2.50   20.00
   2  12  -8   21.80   28.30
  12  -2   8   37.90   33.20
   2  12   8  -22.40   13.60
   2  12   8   25.50   29.00
 -12   2   8   44.30   29.20
 -12   2   8    7.40   21.30
  -2 -12   8   27.70   33.30
 -12   4  -8    8.20   21.40
   4  12  -8   32.90   27.40
   4  12   8   77.49   39.50
 -12   4   8  139.39   51.59
 -12   4   8  -11.20   16.90
   4  12   8   25.00   25.20
  -4 -12   8   -6.90   24.10
  12  -4   8   58.09   34.40
 -12   6  -8   -3.50   17.30
   6  12  -8    6.60   20.90
 -12   6   8    3.80   23.70
   6  12   8   -3.30   15.50
  12  -6   8   -9.10   21.20
  -6 -12   8    9.80   27.90
   6  12   8   26.10   27.20
 -12   6   8    4.00   26.60
   8  12  -8   75.09   38.30
 -12   8  -8   84.99   46.70
   8  12   8  146.49   52.99
 -12   8   8   92.89   43.60
   8  12   8  128.19   50.59
 -12   8   8  148.49   61.09
  -8 -12   8   74.69   43.70
  12  -8   8  145.89   55.69
  10  12  -8  186.18   75.39
 -12  10  -8  174.58   76.09
  10  12   8  169.58   72.99
  12 -10   8  280.47   84.99
 -12  10   8  286.27   92.39
 -10 -12   8  297.57   81.79
 -12  10   8  256.97   76.29
  10  12   8  248.68   78.49
 -12  12  -8  185.98   86.69
  12  12  -8  267.87   83.19
  12  12   8  268.27   86.49
 -12  12   8  209.98   84.09
 -12 -12   8  294.87   91.29
 -12  12   8  500.05  135.79
  12  12   8  257.57   83.69
  12 -12   8  427.26  114.99
 -11  13  -8    3.00   25.50
  13  11  -8    0.90   19.50
  13  11   8  -15.50   14.70
 -13 -11   8   14.60   28.90
 -11  13   8    8.90   23.40
  -9  13  -8   11.80   26.10
  13   9  -8   19.90   22.10
  -9  13   8   -1.00   27.40
  13   9   8    3.30   22.90
 -13  -9   8    9.90   26.50
  13   9   8   11.30   20.90
   9 -13   8   47.50   51.99
  -9  13   8   19.20   28.10
 -13  -7  -8  105.09   43.70
  -7  13  -8   -0.70   22.10
  13   7  -8   22.00   27.90
   7 -13   8    8.30   30.00
  13   7   8   70.19   30.60
  -7  13   8   41.40   48.30
 -13  -7   8   32.00   28.00
  -7  13   8   29.20   33.40
 -13  -5  -8   -8.00   15.70
  13   5  -8   11.40   22.70
  -5  13  -8  -29.10   27.90
  13   5   8   18.70   18.70
 -13  -5   8  -18.20   24.30
  -5  13   8   28.10   28.50
  -5  13   8  -13.10   37.70
   5 -13   8  -35.40   18.00
  -3  13  -8  -36.60   34.40
  13   3  -8   -0.90   14.70
   3 -13   8    6.60   27.70
  13   3   8    4.60   19.90
  -3  13   8   27.80   34.30
  -3  13   8   10.00   31.00
 -13  -3   8  -14.70   16.50
 -13  -1  -8   -0.60   13.00
  -1  13  -8    2.80   23.80
  -1  13   8   12.80   29.70
   1 -13   8   24.90   35.40
  13   1   8   30.70   30.00
 -13  -1   8   40.00   24.60
 -13  -1   8  -11.20   17.30
  -1  13   8  -19.70   17.30
   1  13  -8   55.79   37.50
 -13   1  -8   40.70   28.20
   1  13   8   28.50   28.90
 -13   1   8   19.50   25.70
 -13   1   8   17.00   25.20
  -1 -13   8   48.20   34.50
  13  -1   8   34.60   27.70
   1  13   8   25.30   29.60
   3  13  -8   15.80   22.40
  -3 -13   8  -23.70   17.80
   3  13   8   47.50   33.70
 -13   3   8    0.20   18.20
  13  -3   8   -9.40   15.40
   3  13   8   -7.30   21.40
 -13   3   8   -8.60   17.80
 -13   5  -8   -4.50   15.90
   5  13  -8   -5.50   22.50
  -5 -13   8  -23.60   17.80
   5  13   8  -40.50   17.10
   5  13   8    2.60   20.30
 -13   5   8    2.60   23.30
 -13   5   8   40.90   38.00
  13  -5   8  -25.50   17.80
   7  13  -8  103.79   44.00
 -13   7  -8   71.29   44.10
  13  -7   8    2.70   25.00
 -13   7   8   59.79   39.00
   7  13   8   44.60   33.10
  -7 -13   8   11.50   26.50
   7  13   8   17.30   27.40
 -13   7   8   30.80   30.80
   9  13  -8  -14.20   15.00
 -13   9  -8    7.00   23.50
  -9 -13   8    5.10   24.20
 -13   9   8   -4.30   18.50
 -13   9   8  -26.90   21.30
   9  13   8    4.90   23.00
   9  13   8   -2.10   24.40
  13  -9   8  -12.30   15.60
 -13  11  -8  -24.90   16.00
  11  13  -8   37.60   38.60
  11  13   8   11.70   21.10
 -13  11   8    0.20   25.00
  -8  14  -8   15.20   42.30
  14   8  -8  117.09   67.79
  -8  14   8    6.60   21.80
   8 -14   8   63.89   40.50
  14   8   8   -7.60   18.80
  -8  14   8   13.90   27.80
 -14  -8   8   40.80   28.20
  14   6  -8   36.90   30.90
 -14  -6  -8   -4.80   19.20
  -6  14   8  -13.70   18.20
  -6  14   8    9.10   22.10
  14   6   8   -4.40   16.70
   6 -14   8   17.10   35.80
 -14  -6   8   -8.70   20.20
  14   4  -8  207.38   63.09
  -4  14  -8  288.07   73.89
 -14  -4  -8  121.59   55.99
   4 -14   8   79.69   76.69
  14   4   8  145.49   54.19
  -4  14   8  174.78   66.79
  -4  14   8   66.59   49.20
 -14  -4   8  104.49   50.69
 -14  -2  -8  241.28   76.09
  -2  14  -8  101.59   54.49
  14   2   8  171.58   58.39
  -2  14   8   95.49   53.19
   2 -14   8  170.48   63.09
  -2  14   8  136.39   59.79
   0  14  -8  363.96   92.59
   0  14   8  196.48   66.19
   0  14   8  235.88   72.09
   0 -14   8  113.09   57.49
  14   0   8  172.88   65.39
 -14   0   8  147.79   61.09
   2  14  -8  117.99   56.69
 -14   2  -8   86.89   50.49
 -14   2   8   98.89   55.79
  14  -2   8  173.78   58.29
 -14   2   8  163.88   63.39
  -2 -14   8  280.67   89.49
   2  14   8  177.98   63.99
   2  14   8  236.18   63.89
 -14   4  -8  103.39   47.60
   4  14  -8   41.40   39.10
   4  14   8  120.09   48.20
 -14   4   8  118.19   46.60
 -14   4   8   58.89   41.60
  -4 -14   8  316.37   83.29
  14  -4   8  121.99   51.59
   4  14   8   38.00   39.20
 -14   6  -8  -21.40   14.40
   6  14  -8   -4.20   18.50
  -6 -14   8   46.20   29.00
 -14   6   8  -16.30   15.10
  14  -6   8  -14.80   13.60
   6  14   8    2.30   25.60
 -14   6   8   34.50   27.40
   6  14   8   78.49   38.40
 -14   8  -8    9.00   26.30
   8  14  -8   18.30   25.30
  -8 -14   8  -20.40   17.10
 -14   8   8    5.50   23.70
 -14   8   8  -12.70   19.30
  14  -8   8   20.30   27.40
   8  14   8   67.19   38.50
   8  14   8   11.20   18.10
  -7  15  -8    8.30   61.59
  15   7  -8  -12.60   15.40
 -15  -7  -8   -9.20   18.00
   7 -15   8   -5.60   28.40
  15   7   8  -18.70   14.00
  -7  15   8   -2.40   34.40
  -7  15   8   -7.00   17.70
 -15  -7   8   37.40   29.80
 -15  -5  -8    0.40   23.40
  15   5  -8   -4.20   17.90
  -5  15  -8   -5.00   20.50
 -15  -5   8    5.10   20.70
  -5  15   8   12.80   28.60
  -5  15   8   -2.70   22.50
   5 -15   8    7.70   26.50
  15   5   8   -9.20   15.10
  -3  15  -8   43.00   37.00
 -15  -3  -8  -20.50   13.00
  15   3   8    4.70   19.90
 -15  -3   8   17.40   21.10
 -15  -3   8  -14.40   17.50
  -3  15   8  -18.80   21.90
   3 -15   8  -11.80   17.80
  -3  15   8   -2.00   20.40
 -15  -1  -8  -18.00   12.90
  -1  15  -8    3.30   20.20
  -1  15   8  -24.90   48.50
  15   1   8    5.80   16.00
  -1  15   8    1.80   24.50
 -15  -1   8   -8.80   17.00
   1 -15   8   30.90   23.30
   1  15  -8   18.70   29.30
   1  15   8   13.80   22.20
 -15   1   8   -2.30   11.00
   1  15   8    7.80   27.10
 -15   1   8  -17.10   16.20
  -1 -15   8   11.90   31.50
  15  -1   8   59.09   37.90
 -15   3  -8   -3.30   12.90
   3  15  -8   -1.50   19.10
  -3 -15   8    7.10   24.40
   3  15   8   62.19   39.70
 -15   3   8   -9.40   18.40
 -15   3   8   -6.60   18.20
  15  -3   8   10.20   22.20
   3  15   8   23.70   26.30
   5  15  -8    9.40   22.90
 -15   5  -8   30.90   26.40
   5  15   8  -15.10   16.00
 -15   5   8   29.50   31.10
 -15   5   8  -11.30   18.30
  15  -5   8   11.10   22.40
   5  15   8   -2.70   27.90
  -5 -15   8   24.10   29.60
   7  15  -8  -15.20   15.90
 -15   7  -8   35.80   26.40
  -7 -15   8   56.29   41.90
   7  15   8   -6.10   18.10
 -15   7   8   15.60   32.20
 -15   7   8  -23.00   17.80
  15  -7   8  -16.10   19.30
   7  15   8  -17.30   17.50
  -4  16  -8  130.99   56.49
 -16  -4  -8  104.69   52.29
   4 -16   8  150.38   74.89
  -4  16   8  108.09   63.69
  -4  16   8  209.08   79.29
 -16  -4   8  215.68   67.89
 -16  -4   8  192.68   58.89
  16   4   8   71.29   47.30
 -16  -2  -8  182.88   61.09
  -2  16  -8   87.19   50.49
 -16  -2   8  137.19   54.99
  16   2   8  147.19   54.79
   2 -16   8  256.57   81.09
  -2  16   8  130.59   62.09
 -16  -2   8  166.88   58.79
  -2  16   8  265.87   77.59
 -16   0  -8  267.47   95.19
   0  16  -8  437.06  113.99
  16   0   8  292.37  101.19
   0 -16   8  213.98   96.69
 -16   0   8  288.77   98.69
   0  16   8  429.56  119.39
   0  16   8  340.67  110.19
   2  16  -8  194.78   80.09
   2  16   8  364.16   94.79
  -2 -16   8  201.68   76.99
   2  16   8  196.58   85.69
  16  -2   8  184.18   71.79
 -16   2   8  228.68   75.19
   4  16  -8  126.19   54.39
  -4 -16   8  383.16   97.99
 -16   4   8   98.19   53.19
 -16   4   8  159.98   64.79
  16  -4   8  149.88   55.69
   4  16   8  148.49   61.09
   4  16   8  137.09   56.29
 -17  -1  -8  -11.40   17.20
  -1  17  -8  -20.90   20.20
 -17  -1   8    0.00   18.60
   1  17  -8  -10.60   37.60
 -17   1  -8   13.20   23.50
 -17   1   8   29.50   32.40
   1  17   8   19.60   28.90
   0  -1  -9  -15.40   16.60
   1   0  -9   -9.80   17.20
   0   1  -9   -0.70   18.30
  -1   0  -9   -7.00   14.70
   0  -1   9   -8.10   16.40
   1   0   9  -11.70   14.80
   0   1   9   53.99   32.90
  -1   0   9   -6.00   21.40
  -1   2  -9   18.40   28.50
   2   1  -9  -19.80   17.30
  -2  -1  -9   39.70   28.40
   1  -2  -9   -8.10   14.90
   2   1   9   -0.40   18.60
  -2  -1   9  -24.20   16.80
  -1   2   9   -8.40   18.10
   1  -2   9  -21.00   14.60
  -1  -2  -9   -6.20   15.30
   2  -1  -9  -15.70   15.40
   1   2  -9    5.00   22.10
  -2   1  -9   10.80   33.80
  -2   1   9   10.60   19.10
   2  -1   9   54.69   37.50
   1   2   9  -25.90   14.70
  -1  -2   9    4.20   20.10
   2  -3  -9   -3.50   17.10
   3   2  -9   27.10   30.40
  -2   3  -9   -4.80   18.50
  -3  -2  -9  -17.20   21.80
  -2   3   9    1.80   18.20
   2  -3   9  -23.20   15.90
  -3  -2   9  -24.20   14.20
   3   2   9   17.00   47.70
   3   0  -9  -12.70   16.00
   0   3  -9   10.10   22.60
   0  -3  -9    2.20   17.60
  -3   0  -9   15.70   36.60
   0  -3   9  -21.60   12.90
   0   3   9   37.90   34.90
  -3   0   9   16.20   21.00
   3   0   9    0.60   21.00
  -3   2  -9  -10.40   18.70
   3  -2  -9   -1.80   18.30
  -2  -3  -9   12.80   21.60
   2   3  -9   29.40   37.80
  -2  -3   9   21.60   30.20
   3  -2   9  -15.60   17.40
  -3   2   9   80.29   55.99
   3  -4  -9    3.60   18.60
   4   3  -9   58.19   36.40
  -4  -3  -9    1.00   16.70
  -3   4  -9   17.20   26.00
   3  -4   9   26.40   32.80
  -4  -3   9   16.70   25.40
  -3   4   9   10.10   30.30
   4   3   9   10.90   21.20
  -1   4  -9  -16.00   15.40
   1  -4  -9   34.00   32.20
  -4  -1  -9    6.00   20.40
   4   1  -9    0.70   21.40
   4   1   9  -19.30   14.20
   1  -4   9   -4.40   17.20
  -4  -1   9   11.00   24.90
  -1   4   9  -10.30   15.70
  -1  -4  -9   12.40   21.30
   1   4  -9   41.90   37.00
   4  -1  -9  -27.60   16.50
  -4   1  -9   35.60   30.80
   4  -1   9   10.10   29.40
  -4   1   9   58.59   46.30
  -1  -4   9   54.09   31.40
   1   4   9   -1.20   22.40
   4  -3  -9   38.10   32.20
  -3  -4  -9    3.20   23.70
  -4   3  -9    7.50   23.70
   3   4  -9   43.20   35.30
   4  -3   9   59.69   32.70
   3   4   9   -3.70   21.20
  -4   3   9   65.49   41.10
  -3  -4   9   94.89   40.50
  -5  -4  -9  329.27   84.29
   5   4  -9  218.48   76.49
  -4   5  -9  277.07   81.89
  -5  -4   9  203.28   70.79
   4  -5   9  212.58   78.79
   5   4   9  115.49   68.29
  -4   5   9  262.97   85.59
  -4   5   9  152.98   68.59
   5   2  -9  225.68   93.49
  -2   5  -9  220.18   84.59
  -5  -2  -9  384.46  110.09
   2  -5   9  265.77  111.79
  -2   5   9  225.38  101.49
   5   2   9  175.98   74.79
  -5  -2   9  176.08   74.59
   0   5  -9   64.69   54.99
  -5   0  -9   37.70   35.20
   0  -5  -9    8.30   19.40
   5   0  -9  -11.90   16.10
   5   0   9   11.90   26.60
   0  -5   9    9.10   21.60
  -5   0   9   -6.10   17.40
   0   5   9    8.90   24.90
   5  -2  -9  325.37  108.09
  -5   2  -9  120.09   59.99
  -2  -5  -9  297.97   84.39
   2   5  -9  191.08   67.89
  -5   2   9  176.58   73.39
   2   5   9  172.78   71.29
   5  -2   9  178.98   71.89
  -2  -5   9  299.67   97.99
  -5   4  -9  711.03  160.28
   4   5  -9  163.88   76.59
  -4  -5  -9  145.39   76.59
  -5   4   9  223.58   86.69
   4   5   9  374.36   96.99
   5  -4   9  207.48   73.29
  -4  -5   9  415.96  117.19
  -5   4   9  307.37   90.09
   6   5  -9  174.38   63.69
  -5   6  -9  250.67   74.49
  -6  -5  -9  108.89   50.99
   5  -6   9  236.88   74.59
   6   5   9  172.38   57.99
  -6  -5   9  126.09   51.99
  -5   6   9  168.28   60.39
  -5   6   9   44.70   47.10
   6   3  -9  -11.10   19.00
  -6  -3  -9   10.40   23.90
  -3   6  -9   -1.80   17.90
   3  -6   9  -10.90   16.00
  -6  -3   9   19.00   33.90
  -3   6   9   11.10   17.60
   6   3   9  -18.30   17.20
  -3   6   9  -20.60   15.10
  -6  -1  -9  -10.30   16.50
   6   1  -9   -8.70   15.70
  -1   6  -9   17.40   30.30
   1  -6   9   20.60   22.50
  -1   6   9   49.50   57.19
  -6  -1   9   16.00   25.50
   6   1   9   -5.80   15.20
  -1   6   9  -18.90   14.90
   6  -1  -9   61.09   32.00
  -6   1  -9   -2.80   20.90
   1   6  -9   59.09   37.90
   1   6   9    3.90   23.80
   6  -1   9   13.40   29.30
  -1  -6   9   11.80   21.40
  -6   1   9   38.70   32.40
  -3  -6  -9    1.40   19.30
  -6   3  -9   -1.90   14.30
   3   6  -9   39.60   25.40
  -6   3   9   12.30   32.30
   3   6   9   25.20   28.00
  -3  -6   9    2.10   19.70
   6  -3   9  -22.00   14.00
  -5  -6  -9  113.39   67.39
  -6   5  -9  285.87   86.99
   5   6  -9  201.88   70.19
   5   6   9  155.08   64.39
  -5  -6   9  316.07   90.69
  -6   5   9  395.66  105.59
  -6   5   9  112.89   60.79
   6  -5   9  273.57   76.19
  -7  -6  -9  113.79   55.49
  -6   7  -9   90.29   63.59
   7   6  -9   64.79   48.90
  -6   7   9  164.08   77.39
   7   6   9  174.18   63.69
   6  -7   9  210.98   70.19
  -6   7   9  395.06  124.29
  -7  -6   9  167.38   58.09
  -7  -4  -9   33.90   31.50
  -4   7  -9   72.99   39.50
   7   4  -9   45.80   40.10
   4  -7   9   27.70   29.70
  -7  -4   9   24.30   31.40
   7   4   9   20.40   28.80
  -4   7   9   48.20   35.50
  -4   7   9   -6.30   22.80
   7   2  -9   82.99   39.70
  -7  -2  -9   66.89   35.80
  -2   7  -9   96.99   62.19
  -7  -2   9   80.99   44.70
   2  -7   9   59.09   47.20
   7   2   9   22.30   28.40
  -2   7   9  200.48   82.99
  -7   0  -9   51.59   32.20
   7   0  -9    0.80   19.50
   0   7  -9    0.30   20.50
   0  -7   9   -1.70   18.20
  -7   0   9   30.10   29.30
   0   7   9    3.80   19.60
   0   7   9  -16.90   13.80
   7   0   9   -1.00   21.00
   7  -2  -9   49.40   29.90
  -7   2  -9   55.59   38.10
   2   7  -9   -0.10   25.40
  -7   2   9  -11.60   15.90
  -2  -7   9   40.80   35.80
   2   7   9   55.09   33.20
   7  -2   9   -0.70   21.30
   2   7   9   59.89   45.00
  -7   4  -9   42.50   31.70
   4   7  -9   42.00   33.70
   4   7   9   22.60   26.70
  -7   4   9   37.10   33.20
  -4  -7   9   24.40   30.80
   7  -4   9   59.09   37.80
  -7   4   9   21.20   23.90
   6   7  -9  139.99   53.19
  -7   6  -9   99.99   52.19
  -6  -7  -9  102.69   55.89
   7  -6   9  130.09   64.09
  -7   6   9  173.48   68.39
  -7   6   9  156.98   59.89
   6   7   9  108.49   52.99
  -6  -7   9  180.48   67.79
  -8  -7  -9   19.90   24.90
   8   7  -9   37.10   29.60
  -7   8  -9   -6.70   18.10
  -7   8   9  -11.80   17.70
  -8  -7   9  113.29   52.79
  -7   8   9   -2.80   20.20
   7  -8   9    5.40   21.80
   8   7   9   -7.40   17.50
  -5   8  -9   -2.70   22.40
   8   5  -9   -0.60   17.50
  -8  -5  -9   48.80   28.60
   5  -8   9    6.80   37.60
  -8  -5   9   -0.70   20.70
  -5   8   9  -13.20   19.30
  -5   8   9   70.49   44.70
   8   5   9   -2.90   17.20
  -8  -3  -9  -11.70   19.30
   8   3  -9   39.00   31.40
  -3   8  -9   20.80   28.40
   8   3   9   -0.80   21.20
  -3   8   9  226.08   78.29
  -8  -3   9   27.30   31.40
   3  -8   9   16.20   29.10
  -8  -1  -9  -10.00   18.40
   8   1  -9   30.50   32.70
  -1   8  -9  -10.10   23.20
  -8  -1   9    5.40   23.60
   8   1   9  -24.50   16.50
   1  -8   9  -10.90   25.00
  -1   8   9   13.10   23.70
  -1   8   9  -13.20   14.20
   8  -1  -9   -9.30   17.60
   1   8  -9   12.60   23.20
  -8   1  -9  -14.10   14.50
   8  -1   9    9.80   24.30
  -1  -8   9   -6.00   18.20
   1   8   9  -10.20   19.80
   1   8   9   -7.80   20.50
  -8   1   9  -27.00   19.50
   3   8  -9   36.10   28.40
  -8   3  -9   74.69   40.30
   3   8   9    3.80   23.40
  -8   3   9  112.59   45.80
   8  -3   9    1.60   24.10
  -8   3   9  104.39   42.30
  -3  -8   9   83.29   42.80
   3   8   9    8.70   26.20
  -8   5  -9   17.30   23.50
   5   8  -9  -17.30   16.20
   5   8   9   17.80   28.10
  -5  -8   9   -7.60   21.60
   8  -5   9  -18.80   17.60
  -8   5   9   25.80   34.90
  -8   5   9   12.40   29.10
   5   8   9   -8.20   21.20
  -8   7  -9    1.00   21.60
   7   8  -9   40.10   28.80
  -8   7   9    3.90   19.60
   7   8   9    2.70   22.60
   7   8   9   26.70   27.80
  -7  -8   9   -4.00   27.10
  -8   7   9   16.30   26.20
   9   8  -9   -9.70   16.30
  -8   9  -9   54.49   34.30
   8  -9   9   20.20   35.40
  -8   9   9  -25.10   17.40
   9   8   9    8.30   20.80
  -8   9   9   -8.60   21.00
  -9  -8   9   -7.90   38.30
   9   8   9   -2.60   18.60
  -9  -6  -9   22.00   27.60
  -6   9  -9   -9.40   19.60
   9   6  -9   -5.00   16.40
  -9  -6   9   -3.50   20.20
  -6   9   9   -2.50   21.20
   6  -9   9   -9.10   18.90
   9   6   9    3.40   23.10
  -6   9   9   31.60   36.00
   9   4  -9  -13.00   17.10
  -9  -4  -9    3.50   26.50
  -4   9  -9   55.29   34.40
   4  -9   9   -7.20   18.00
  -4   9   9   40.20   36.80
  -9  -4   9   80.09   43.40
   9   4   9    3.40   20.30
  -2   9  -9   18.50   24.30
  -9  -2  -9   22.20   27.50
   9   2  -9    1.60   24.10
   9   2   9    6.20   21.60
   2  -9   9  -15.10   17.50
  -2   9   9    9.70   26.10
  -9  -2   9  -13.90   18.70
  -2   9   9    7.10   25.10
   0   9  -9   30.10   31.60
   9   0  -9   -0.20   17.50
  -9   0  -9    6.20   22.60
  -9   0   9    3.50   24.20
   0   9   9   68.89   43.60
   0   9   9  -15.10   26.30
   9   0   9   -0.80   23.10
   0  -9   9    2.20   28.80
   2   9  -9   17.80   23.60
  -9   2  -9    5.20   21.20
  -9   2   9   40.10   32.90
   2   9   9   -9.70   14.30
   9  -2   9   42.00   29.20
  -9   2   9   35.50   30.40
  -2  -9   9   21.30   30.60
   2   9   9   62.29   38.50
  -9   4  -9   -1.90   19.00
   4   9  -9    7.20   17.20
  -9   4   9  -10.80   19.10
   4   9   9   -0.90   19.90
  -9   4   9   13.20   24.70
   4   9   9    6.30   23.20
  -4  -9   9    1.10   17.30
   9  -4   9   14.60   28.80
   6   9  -9    4.40   20.80
  -9   6  -9    2.50   24.20
  -6  -9   9   59.19   38.90
   6   9   9  -22.70   14.80
   9  -6   9   26.40   28.40
   6   9   9   -6.50   17.40
  -9   6   9    5.90   24.70
  -9   6   9   -0.90   21.60
  -9   8  -9   17.40   25.70
   8   9  -9   36.20   30.90
  -8  -9   9  -21.40   14.70
   8   9   9  -11.90   16.40
  -9   8   9   12.80   26.70
  -9   8   9   29.70   31.00
   8   9   9   -2.80   16.20
  -9  10  -9   36.20   29.20
  10   9  -9   58.89   35.60
   9 -10   9   16.90   26.50
 -10  -9   9   19.30   26.90
  10   9   9   26.00   25.60
  -9  10   9   56.39   34.80
  -9  10   9   -5.70   26.80
  10   9   9   83.59   40.10
  -7  10  -9   13.50   24.60
 -10  -7  -9    4.80   25.40
  10   7  -9    0.90   20.20
  -7  10   9   29.80   34.40
   7 -10   9  -20.60   30.10
  -7  10   9   10.70   41.30
  10   7   9   17.40   28.70
 -10  -7   9    2.50   29.10
 -10  -5  -9  -19.90   18.70
  -5  10  -9   29.50   33.50
  10   5  -9   43.50   27.70
  -5  10   9  138.99   84.89
  -5  10   9  -24.20   20.90
 -10  -5   9    9.50   24.60
   5 -10   9  -31.80   18.80
  10   5   9   27.60   29.10
 -10  -3  -9   -9.40   18.50
  -3  10  -9  -10.60   18.30
  10   3  -9   57.89   34.60
 -10  -3   9    3.70   26.00
  -3  10   9   35.00   32.50
  10   3   9   21.20   22.80
  -3  10   9   33.10   33.50
   3 -10   9   -1.80   42.20
 -10  -1  -9   23.70   27.10
  10   1  -9   24.10   27.20
  -1  10  -9   81.49   54.39
  -1  10   9   20.20   29.10
   1 -10   9  -26.40   14.20
  10   1   9   44.40   32.00
  -1  10   9   50.59   62.89
 -10  -1   9   21.30   27.90
   1  10  -9   -7.50   18.80
 -10   1  -9    7.90   25.70
  10  -1   9   10.20   27.00
 -10   1   9  -30.50   17.80
  -1 -10   9    2.60   20.20
   1  10   9   18.70   28.80
   1  10   9   -4.60   19.90
 -10   1   9    0.80   14.80
 -10   3  -9  -18.50   12.60
   3  10  -9   23.60   28.70
 -10   3   9   38.50   34.40
  -3 -10   9    0.80   25.80
   3  10   9    4.70   23.90
  10  -3   9    7.20   25.20
 -10   3   9    4.50   23.30
   3  10   9   -5.80   22.60
   5  10  -9   12.00   21.80
 -10   5  -9  -12.10   19.20
   5  10   9   22.30   27.10
  10  -5   9   60.29   35.90
 -10   5   9   95.79   40.60
   5  10   9   96.69   50.39
  -5 -10   9   50.79   31.20
 -10   5   9   34.30   24.50
   7  10  -9    0.80   24.00
 -10   7  -9   22.50   33.80
 -10   7   9  -11.20   18.80
   7  10   9   18.30   27.40
   7  10   9    0.70   20.60
  10  -7   9   -0.10   23.70
  -7 -10   9   12.30   28.00
 -10   7   9   11.30   23.80
   9  10  -9   30.50   26.00
 -10   9  -9   38.50   38.90
 -10   9   9   83.49   50.59
   9  10   9   74.89   41.40
 -10   9   9   76.79   42.50
  -9 -10   9   27.50   33.50
   9  10   9   16.90   30.00
  -8  11  -9   34.90   31.00
  11   8  -9  -10.10   21.30
 -11  -8   9   -9.10   19.80
   8 -11   9   49.70   39.90
  -8  11   9   26.10   31.40
  -8  11   9  120.09   63.99
  11   8   9   56.49   37.60
  -6  11  -9  -13.90   21.50
  11   6  -9   31.10   29.80
 -11  -6  -9   32.30   30.30
  -6  11   9  -19.70   28.20
 -11  -6   9    9.70   23.60
   6 -11   9   34.30   37.30
  11   6   9   14.60   22.40
  11   4  -9    3.90   24.30
 -11  -4  -9   21.90   26.00
  -4  11  -9  -21.50   24.60
  11   4   9   20.60   28.10
 -11  -4   9   20.50   35.00
  -4  11   9  -27.20   18.30
  -4  11   9   86.19   78.69
   4 -11   9  -31.50   18.80
  -2  11  -9   29.60   27.10
 -11  -2  -9   -6.10   22.30
  11   2  -9  -13.40   15.10
  -2  11   9   28.10   64.49
   2 -11   9   35.30   36.60
  11   2   9   11.60   24.40
  -2  11   9   30.10   28.30
 -11  -2   9  -23.10   14.80
 -11   0  -9   28.20   29.70
   0  11  -9   43.50   27.20
  11   0   9  -12.90   17.00
   0  11   9  -13.90   17.70
   0  11   9   -3.10   20.00
 -11   0   9   -1.20   16.40
   0 -11   9  -18.70   16.00
 -11   0   9   16.40   23.90
 -11   2  -9   -1.00   15.50
   2  11  -9  -14.40   15.40
   2  11   9    5.10   25.20
  -2 -11   9  -18.50   18.60
   2  11   9  -21.60   26.80
 -11   2   9   21.40   24.30
 -11   2   9   -4.60   19.20
  11  -2   9   -3.50   15.10
   4  11  -9   51.49   35.30
 -11   4  -9   -1.10   21.00
  -4 -11   9  -15.90   19.00
 -11   4   9  -15.70   19.80
 -11   4   9  -14.30   16.90
   4  11   9   -8.00   23.60
   4  11   9   32.00   34.50
  11  -4   9   48.60   32.70
 -11   6  -9   40.80   34.30
   6  11  -9   45.00   36.50
   6  11   9   -7.00   23.80
  11  -6   9   -7.70   23.80
 -11   6   9   35.50   31.00
   6  11   9   39.10   25.00
 -11   6   9   41.10   35.20
  -6 -11   9   79.79   41.40
 -11   8  -9   23.40   32.90
   8  11  -9   32.80   31.90
 -11   8   9   11.20   24.30
   8  11   9   20.50   25.80
 -11   8   9   81.99   42.70
   8  11   9   33.80   30.30
  -8 -11   9   24.30   30.80
  11  -8   9   19.20   25.30
 -12  -5  -9   -0.20   16.30
  -5  12  -9  -11.20   22.50
  12   5  -9    8.20   23.40
  12   5   9   11.00   22.30
 -12  -5   9   12.30   22.70
  -5  12   9   -9.60   25.80
   5 -12   9   25.40   26.50
  -5  12   9   13.00   28.80
 -12  -3  -9   44.00   37.00
  12   3  -9    1.90   17.20
  -3  12  -9   19.00   27.10
  -3  12   9   36.40   37.00
  -3  12   9   20.40   32.30
  12   3   9  -10.40   17.20
   3 -12   9   90.79   60.69
 -12  -3   9  -15.30   18.30
  -1  12  -9   -3.70   24.10
 -12  -1   9   34.20   52.39
  -1  12   9  -16.80   18.10
   1 -12   9   13.70   32.90
  -1  12   9  -18.00   19.50
  12   1   9  -13.90   14.60
   1  12  -9    8.80   25.60
 -12   1  -9    4.00   22.10
 -12   1   9  -15.00   18.30
  -1 -12   9  -43.80   31.50
  12  -1   9   18.60   23.20
 -12   1   9  -11.80   15.30
   1  12   9  -12.90   18.60
   1  12   9   -1.40   22.70
 -12   3  -9   41.20   34.00
   3  12  -9  -13.60   17.60
  -3 -12   9  -22.70   17.20
   3  12   9   32.00   34.40
 -12   3   9   40.80   32.10
  12  -3   9   40.30   35.40
 -12   3   9   -9.10   19.80
   3  12   9    4.50   19.40
 -12   5  -9    1.60   20.90
   5  12  -9   20.70   26.20
   5  12   9   43.20   34.50
  -5 -12   9   -6.30   21.40
   5  12   9   14.20   20.70
 -12   5   9   10.40   31.80
 -12   5   9   29.40   27.20
  12  -5   9  -17.00   16.60
  -4  13  -9   28.10   33.20
 -13  -4  -9   -0.10   17.00
  13   4  -9   -7.00   18.70
   4 -13   9  108.69   66.29
  13   4   9   -4.70   21.40
  -4  13   9    2.10   20.50
 -13  -4   9    1.00   28.80
  -4  13   9    3.00   23.20
 -13  -2  -9    3.90   18.60
  -2  13  -9   47.20   38.70
  -2  13   9   -0.70   25.60
   2 -13   9   -8.10   25.10
 -13  -2   9   -1.30   18.80
  13   2   9    2.20   22.10
  -2  13   9   58.99   42.40
 -13   0  -9   -1.40   22.60
   0  13  -9   -9.60   19.70
   0 -13   9  -18.80   24.30
   0  13   9   25.80   35.50
 -13   0   9    5.30   18.90
  13   0   9  -18.90   18.40
   0  13   9  -30.00   17.90
 -13   0   9    6.90   26.00
   2  13  -9   -0.90   21.50
 -13   2  -9   24.80   27.00
  -2 -13   9   26.10   30.30
  13  -2   9   42.30   31.90
   2  13   9   79.09   43.40
   2  13   9   19.20   32.00
 -13   2   9   -2.40   21.90
 -13   2   9   20.50   27.20
 -13   4  -9   17.90   20.20
   4  13  -9   29.10   31.50
  -4 -13   9   21.40   30.70
   4  13   9    7.60   24.30
   4  13   9   -6.00   18.00
 -13   4   9  -18.40   39.70
  13  -4   9   -9.10   19.90
 -13   4   9   27.30   34.00
   0   0 -10    9.20   27.70
   0   0  10   38.20   29.20
   1   1 -10   52.89   37.40
  -1   1 -10  133.09   55.49
  -1  -1 -10  117.69   53.49
   1  -1 -10   38.60   37.60
  -1   1  10   47.70   36.00
  -1  -1  10  175.08   62.29
   1  -1  10   49.80   41.00
   1   1  10   51.39   42.80
  -2   0 -10  162.68   63.69
   2   0 -10  206.38   79.09
   0  -2 -10  212.58   87.59
   0   2 -10  131.19   56.39
   0   2  10   56.59   44.70
   0  -2  10   90.09   46.60
   2   0  10   65.79   41.50
  -2   0  10   80.79   50.99
  -2   2 -10   -5.20   21.10
   2   2 -10   22.40   27.10
   2  -2 -10   -7.60   21.90
  -2  -2 -10  -12.70   19.40
   2   2  10   14.80   28.40
  -2   2  10  -11.80   21.30
  -2  -2  10  -27.40   19.00
   2  -2  10  -10.70   23.70
   3   1 -10  -23.50   23.10
  -3  -1 -10    2.80   27.20
   1  -3 -10   -4.70   19.40
  -1   3 -10   11.10   41.00
   3   1  10   23.20   23.50
  -3  -1  10  -25.00   20.90
   1  -3  10    0.20   18.90
  -1   3  10  -10.00   18.20
   1   3 -10   20.80   26.70
  -3   1 -10  -17.30   17.50
   3  -1 -10   -3.60   18.60
  -1  -3 -10  -19.10   16.50
  -1  -3  10   66.79   49.00
   3  -1  10    3.70   43.20
  -3   1  10   10.60   26.00
   1   3  10   -2.70   26.60
   3  -3 -10   26.50   33.70
  -3   3 -10   50.59   37.20
  -3  -3 -10  -16.60   19.10
   3   3 -10   34.70   33.10
   3   3  10   78.59   41.40
  -3  -3  10  -16.30   35.00
  -3   3  10   17.40   44.20
   3  -3  10  -10.20   26.30
   2  -4 -10   47.60   28.30
  -4  -2 -10    2.20   25.00
   4   2 -10   13.60   31.30
  -2   4 -10   -7.10   24.00
  -2   4  10   53.59   33.10
   4   2  10   -4.40   24.50
   2  -4  10  -35.70   24.70
  -4  -2  10   43.40   39.80
   0   4 -10   27.70   32.80
  -4   0 -10   39.40   34.30
   4   0 -10   20.30   28.50
   0  -4 -10   95.79   62.89
  -4   0  10   25.30   29.80
   4   0  10  -32.00   28.00
   0  -4  10   46.70   33.60
   0   4  10   26.50   35.30
  -2  -4 -10   30.80   33.60
  -4   2 -10    7.20   24.80
   4  -2 -10   41.50   40.40
   2   4 -10   63.19   39.10
  -4   2  10    1.00   24.30
   4  -2  10  -29.50   16.50
  -2  -4  10  -16.00   26.40
   2   4  10   13.70   24.50
  -4  -4 -10  -19.70   17.90
   4   4 -10    2.50   23.30
  -4   4 -10   -3.20   22.70
  -4   4  10   44.70   63.99
   4   4  10    9.80   29.20
  -4   4  10   13.00   50.09
  -4  -4  10   33.60   33.30
   4  -4  10  -35.00   20.00
  -3   5 -10  835.32  215.68
  -5  -3 -10  783.82  222.18
   5   3 -10  557.84  205.08
  -3   5  10  984.20  229.58
  -3   5  10  741.23  227.18
  -5  -3  10  790.32  214.78
   5   3  10  853.11  225.38
   3  -5  10  827.42  219.88
  -1   5 -10 1159.08  238.28
  -5  -1 -10  907.61  223.48
   5   1 -10  516.55  174.68
   1  -5  10  618.04  179.78
  -5  -1  10  744.93  193.38
  -1   5  10  601.54  179.68
  -1  -5 -10  823.52  211.58
   1   5 -10  625.94  198.88
   5  -1 -10  653.73  203.68
  -5   1 -10  825.22  210.18
   5  -1  10  539.25  189.48
  -5   1  10 1373.36  274.07
   1   5  10  987.40  216.88
  -1  -5  10  694.13  205.58
  -5   3 -10  543.65  212.38
   3   5 -10 1044.10  235.38
   5  -3 -10  693.93  209.38
  -3  -5 -10 1516.85  270.77
   3   5  10  576.14  204.58
   5  -3  10 1457.05  264.97
  -3  -5  10  784.62  223.78
  -5   3  10 1062.79  236.08
  -5  -5 -10    4.10   23.50
  -5   5 -10   71.89   47.70
   5   5 -10   76.99   41.70
  -5   5  10   85.09   44.50
   5  -5  10   57.79   78.29
  -5   5  10  104.39   47.70
   5   5  10   50.59   39.10
  -5  -5  10   51.99   36.90
   6   4 -10   -4.80   38.20
  -6  -4 -10   -5.50   20.20
  -4   6 -10   49.30   65.59
  -6  -4  10  -12.80   25.40
   4  -6  10   -2.10   23.60
  -4   6  10    4.50   29.60
   6   4  10   51.29   36.90
  -2   6 -10  146.79   89.39
  -6  -2 -10   20.60   30.80
   6   2 -10  -22.90   19.80
  -2   6  10   24.40   45.10
   2  -6  10   -8.00   26.10
  -2   6  10  -10.20   15.80
  -6  -2  10    8.30   24.00
   6   2  10   52.89   37.40
  -6   0 -10    7.90   31.10
   6   0 -10   19.50   32.40
   0   6 -10   49.60   43.50
  -6   0  10   62.89   36.90
   0  -6  10   12.30   24.40
   0   6  10   37.40   43.30
   6   0  10   59.09   43.60
   0   6  10  101.79   81.59
   6  -2 -10   38.40   29.20
   2   6 -10  -14.50   21.20
  -6   2 -10   37.10   32.80
  -6   2  10   24.20   36.30
   2   6  10   15.90   57.69
  -2  -6  10   13.60   29.20
   6  -2  10   15.90   29.50
  -4  -6 -10    1.80   16.80
  -6   4 -10    9.50   20.90
   4   6 -10   22.80   28.90
   6  -4  10   47.00   32.70
  -6   4  10    8.50   20.50
  -4  -6  10   -3.20   21.30
  -6   4  10   55.79   47.30
   4   6  10  -37.60   21.50
  -6  -6 -10   -3.20   17.80
   6   6 -10   -8.20   21.70
  -6   6 -10    9.80   33.90
   6   6  10   35.00   33.50
  -6   6  10   46.60   36.40
  -6   6  10   14.90   25.00
   6  -6  10  -28.40   21.90
  -6  -6  10   32.80   30.30
   7   5 -10   35.20   37.20
  -5   7 -10   23.70   26.20
   5  -7  10    2.50   41.40
  -5   7  10   55.69   42.80
   7   5  10   15.00   25.40
  -7  -5  10   17.30   26.40
   7   3 -10  438.26  150.28
  -3   7 -10  453.05  155.48
  -7  -3 -10  460.45  161.88
  -3   7  10  495.45  156.48
  -7  -3  10  698.83  177.48
   3  -7  10  970.60  203.18
   7   3  10  727.53  169.78
  -3   7  10  576.14  169.28
   7   1 -10  161.08   59.59
  -1   7 -10   75.09   49.30
  -7  -1 -10  168.98   67.39
   7   1  10  132.69   55.59
  -1   7  10  143.09   60.09
  -7  -1  10  130.09   68.39
  -1   7  10  250.97   88.89
   1  -7  10  173.18   62.19
  -7   1 -10  308.47   90.79
   1   7 -10  141.99   63.29
   7  -1 -10  158.38   68.49
  -7   1  10  213.98   77.39
   1   7  10   94.09   61.79
   7  -1  10  127.19   62.99
   1   7  10  231.48   77.69
  -1  -7  10  272.47   87.89
  -7   3 -10  511.35  133.29
   3   7 -10  338.67  126.59
  -7   3  10  730.83  162.18
   7  -3  10  434.46  144.99
   3   7  10  374.56  131.29
  -7   3  10  489.75  144.59
  -3  -7  10  535.15  136.09
   5   7 -10    3.20   23.60
  -7   5 -10   19.70   25.00
   7  -5  10    8.10   32.00
   5   7  10  -21.30   23.10
  -5  -7  10  -24.00   19.40
  -7   5  10    3.50   28.70
  -8  -2 -10    4.30   26.50
  -2   8 -10   52.09   32.50
   8   2 -10  -13.30   21.50
   8   2  10    8.50   30.00
  -8  -2  10   13.10   24.60
  -2   8  10   94.89   61.09
   2  -8  10   -3.40   25.80
  -2   8  10   10.70   27.40
   0   8 -10  -13.40   20.50
  -8   0 -10   64.19   36.80
   8   0 -10   99.19   46.50
  -8   0  10   -0.40   23.20
   8   0  10  112.09   54.09
   0   8  10   67.89   40.00
   0   8  10   33.30   30.30
   0  -8  10   -8.00   21.90
  -8   2 -10   22.50   28.50
   2   8 -10   19.70   37.20
  -8   2  10    6.20   25.30
  -2  -8  10    3.00   22.60
  -8   2  10   30.10   27.50
   2   8  10   -4.60   20.50
   2   8  10    5.80   25.20
   8  -2  10   -0.60   21.60
   0   0   0    0.00    0.00

_computing_structure_solution     'SHELXT 2018/2 (Sheldrick, 2018)'
;
_shelx_hkl_checksum   43321

_shelx_fab_file
;
    0    2    0    934.06      0.00
   -2    4    0    -96.73      0.00
    0    4    0    162.95      0.00
    2    4    0    -91.32      0.00
    4    4    0    -29.99      0.00
   -4    6    0    -68.19      0.00
   -2    6    0    156.28      0.00
    0    6    0   -209.37      0.00
    2    6    0    171.02      0.00
    4    6    0    -80.94      0.00
    6    6    0     13.37      0.00
   -6    8    0    -13.76      0.00
   -4    8    0    -18.02      0.00
   -2    8    0     82.32      0.00
    2    8    0     96.11      0.00
    4    8    0    -34.44      0.00
    6    8    0     -4.48      0.00
    8    8    0      8.82      0.00
   -8   10    0      2.12      0.00
   -6   10    0    -17.67      0.00
   -4   10    0     22.50      0.00
   -2   10    0    -13.68      0.00
    0   10    0      8.53      0.00
    2   10    0    -12.73      0.00
    4   10    0     12.99      0.00
    6   10    0     -3.80      0.00
    8   10    0     -4.43      0.00
   10   10    0      5.21      0.00
  -10   12    0      3.18      0.00
   -8   12    0     -0.68      0.00
   -6   12    0    -10.24      0.00
   -4   12    0     13.14      0.00
   -2   12    0     -7.53      0.00
    0   12    0      9.52      0.00
    2   12    0    -15.53      0.00
    4   12    0      8.12      0.00
    6   12    0      6.62      0.00
    8   12    0     -8.72      0.00
   10   12    0      0.71      0.00
   12   12    0      1.66      0.00
  -12   14    0     -0.50      0.00
  -10   14    0      0.86      0.00
   -8   14    0      3.24      0.00
   -6   14    0     -6.89      0.00
   -4   14    0      1.05      0.00
   -2   14    0      7.96      0.00
    0   14    0     -7.57      0.00
    2   14    0      2.84      0.00
    4   14    0     -5.16      0.00
    6   14    0      8.09      0.00
    8   14    0     -2.11      0.00
   10   14    0     -4.01      0.00
   12   14    0      1.62      0.00
   14   14    0      0.60      0.00
  -14   16    0     -2.50      0.00
  -12   16    0     -0.18      0.00
  -10   16    0     -0.75      0.00
   -8   16    0      8.81      0.00
   -6   16    0    -14.38      0.00
   -4   16    0     11.77      0.00
   -2   16    0     -7.82      0.00
    0   16    0      8.10      0.00
    2   16    0     -8.79      0.00
    4   16    0      7.13      0.00
    6   16    0     -6.46      0.00
    8   16    0      7.06      0.00
   10   16    0     -4.35      0.00
   12   16    0     -0.75      0.00
   14   16    0      2.14      0.00
   16   16    0      0.06      0.00
  -16   18    0      0.55      0.00
  -14   18    0     -1.93      0.00
  -12   18    0     -2.11      0.00
  -10   18    0      1.98      0.00
   -8   18    0      6.40      0.00
   -6   18    0    -14.84      0.00
   -4   18    0     16.02      0.00
   -2   18    0    -12.62      0.00
    0   18    0     11.31      0.00
    2   18    0    -13.73      0.00
    4   18    0     15.19      0.00
    6   18    0    -11.32      0.00
    8   18    0      4.98      0.00
   10   18    0     -2.09      0.00
   12   18    0      2.00      0.00
   14   18    0      0.31      0.00
   16   18    0     -4.26      0.00
   18   18    0      4.81      0.00
  -16   20    0      0.32      0.00
  -14   20    0      4.24      0.00
  -12   20    0     -8.56      0.00
  -10   20    0      6.16      0.00
   -8   20    0     -0.23      0.00
   -6   20    0     -3.00      0.00
   -4   20    0      2.39      0.00
   -2   20    0      0.03      0.00
    0   20    0     -1.79      0.00
    2   20    0      0.99      0.00
    4   20    0      0.14      0.00
    6   20    0      2.49      0.00
    8   20    0     -5.86      0.00
   10   20    0      2.95      0.00
   12   20    0      3.62      0.00
   14   20    0     -4.36      0.00
   16   20    0     -1.36      0.00
  -12   22    0     -9.40      0.00
  -10   22    0      2.59      0.00
   -8   22    0      3.05      0.00
   -6   22    0      0.46      0.00
   -4   22    0     -5.77      0.00
   -2   22    0      6.91      0.00
    0   22    0     -8.26      0.00
    2   22    0     11.16      0.00
    4   22    0    -10.67      0.00
    6   22    0      7.68      0.00
    8   22    0     -6.97      0.00
   10   22    0      5.87      0.00
   12   22    0     -0.21      0.00
   -8   24    0     11.11      0.00
   -6   24    0     -6.07      0.00
   -4   24    0     -2.28      0.00
   -2   24    0      6.56      0.00
    0   24    0     -8.23      0.00
    2   24    0      8.02      0.00
    4   24    0     -3.17      0.00
    6   24    0     -2.65      0.00
    8   24    0      2.49      0.00
    0    1    1      0.81      0.00
   -1    2    1    -35.66      0.00
    1    2    1     35.77      0.00
   -2    3    1    -18.22      0.00
    0    3    1      0.19      0.00
    2    3    1     19.80      0.00
   -3    4    1    -16.05      0.00
   -1    4    1    -23.43      0.00
    1    4    1     26.14      0.00
    3    4    1     11.11      0.00
   -4    5    1     24.65      0.00
   -2    5    1    -39.83      0.00
    0    5    1     -2.61      0.00
    2    5    1     43.99      0.00
    4    5    1    -25.44      0.00
   -5    6    1    -18.50      0.00
   -3    6    1      2.92      0.00
   -1    6    1      5.60      0.00
    1    6    1     -2.93      0.00
    3    6    1     -6.80      0.00
    5    6    1     15.80      0.00
   -6    7    1     11.47      0.00
   -4    7    1     10.03      0.00
   -2    7    1    -17.55      0.00
    0    7    1     -3.57      0.00
    2    7    1     20.33      0.00
    4    7    1     -3.51      0.00
    6    7    1    -22.95      0.00
   -7    8    1     19.74      0.00
   -5    8    1    -23.01      0.00
   -3    8    1      9.86      0.00
   -1    8    1      7.94      0.00
    1    8    1     -7.86      0.00
    3    8    1    -10.71      0.00
    5    8    1     22.50      0.00
    7    8    1    -13.40      0.00
   -8    9    1      2.02      0.00
   -6    9    1     -3.43      0.00
   -4    9    1      8.56      0.00
   -2    9    1     -5.82      0.00
    0    9    1     -2.58      0.00
    2    9    1      5.58      0.00
    4    9    1      0.66      0.00
    6    9    1     -8.37      0.00
    8    9    1      7.24      0.00
   -9   10    1      1.05      0.00
   -7   10    1     -4.78      0.00
   -5   10    1      5.10      0.00
   -3   10    1     -0.82      0.00
   -1   10    1     -1.98      0.00
    1   10    1      1.72      0.00
    3   10    1     -1.89      0.00
    5   10    1      1.31      0.00
    7   10    1      3.23      0.00
    9   10    1     -8.63      0.00
  -10   11    1     -9.39      0.00
   -8   11    1      5.45      0.00
   -6   11    1     -4.73      0.00
   -4   11    1      7.87      0.00
   -2   11    1     -5.48      0.00
    0   11    1     -1.93      0.00
    2   11    1      5.74      0.00
    4   11    1     -4.58      0.00
    6   11    1      3.39      0.00
    8   11    1     -2.95      0.00
   10   11    1      0.46      0.00
  -11   12    1      1.75      0.00
   -9   12    1      4.35      0.00
   -7   12    1    -12.12      0.00
   -5   12    1     14.77      0.00
   -3   12    1    -10.11      0.00
   -1   12    1      2.56      0.00
    1   12    1      1.53      0.00
    3   12    1      0.12      0.00
    5   12    1     -4.92      0.00
    7   12    1      8.84      0.00
    9   12    1     -9.03      0.00
   11   12    1      5.90      0.00
  -12   13    1      2.75      0.00
  -10   13    1     -6.76      0.00
   -8   13    1      0.03      0.00
   -6   13    1      9.83      0.00
   -4   13    1    -12.66      0.00
   -2   13    1      8.66      0.00
    0   13    1     -1.65      0.00
    2   13    1     -6.32      0.00
    4   13    1      9.33      0.00
    6   13    1     -2.68      0.00
    8   13    1     -5.64      0.00
   10   13    1      4.48      0.00
   12   13    1      1.99      0.00
  -13   14    1     -1.97      0.00
  -11   14    1     -1.01      0.00
   -9   14    1      1.21      0.00
   -7   14    1      2.24      0.00
   -5   14    1     -1.58      0.00
   -3   14    1     -5.70      0.00
   -1   14    1      8.24      0.00
    1   14    1      0.66      0.00
    3   14    1    -10.01      0.00
    5   14    1      9.08      0.00
    7   14    1     -3.14      0.00
    9   14    1      1.29      0.00
   11   14    1     -3.17      0.00
   13   14    1      4.14      0.00
  -14   15    1      2.41      0.00
  -12   15    1      1.88      0.00
  -10   15    1     -2.82      0.00
   -8   15    1     -2.29      0.00
   -6   15    1     11.18      0.00
   -4   15    1    -16.45      0.00
   -2   15    1     12.64      0.00
    0   15    1     -1.15      0.00
    2   15    1    -11.35      0.00
    4   15    1     15.81      0.00
    6   15    1     -7.99      0.00
    8   15    1     -3.91      0.00
   10   15    1      7.42      0.00
   12   15    1     -2.06      0.00
   14   15    1     -3.00      0.00
  -15   16    1      4.10      0.00
  -13   16    1      1.95      0.00
  -11   16    1     -8.24      0.00
   -9   16    1      3.49      0.00
   -7   16    1      7.85      0.00
   -5   16    1    -10.01      0.00
   -3   16    1      2.28      0.00
   -1   16    1     -1.06      0.00
    1   16    1     11.26      0.00
    3   16    1    -18.75      0.00
    5   16    1     15.62      0.00
    7   16    1     -9.19      0.00
    9   16    1      5.07      0.00
   11   16    1     -2.78      0.00
   13   16    1      3.56      0.00
   15   16    1     -5.50      0.00
  -16   17    1     -1.67      0.00
  -14   17    1     -2.15      0.00
  -12   17    1      2.06      0.00
  -10   17    1      0.90      0.00
   -8   17    1      0.25      0.00
   -6   17    1     -6.97      0.00
   -4   17    1     12.47      0.00
   -2   17    1     -9.58      0.00
    0   17    1     -0.23      0.00
    2   17    1      7.14      0.00
    4   17    1     -5.64      0.00
    6   17    1      2.11      0.00
    8   17    1     -3.62      0.00
   10   17    1      6.42      0.00
   12   17    1     -4.01      0.00
   14   17    1     -1.09      0.00
   16   17    1      2.19      0.00
  -17   18    1      0.35      0.00
  -15   18    1      3.72      0.00
  -13   18    1      0.63      0.00
  -11   18    1     -9.34      0.00
   -9   18    1     10.06      0.00
   -7   18    1     -4.43      0.00
   -5   18    1      2.09      0.00
   -3   18    1      0.32      0.00
   -1   18    1    -10.42      0.00
    1   18    1     19.70      0.00
    3   18    1    -15.74      0.00
    5   18    1      4.40      0.00
    7   18    1      1.68      0.00
    9   18    1     -2.99      0.00
   11   18    1      4.14      0.00
   13   18    1     -2.09      0.00
   15   18    1     -2.76      0.00
   17   18    1      3.05      0.00
  -16   19    1      4.50      0.00
  -14   19    1     -6.42      0.00
  -12   19    1      1.82      0.00
  -10   19    1      4.01      0.00
   -8   19    1      0.03      0.00
   -6   19    1    -14.67      0.00
   -4   19    1     26.09      0.00
   -2   19    1    -21.01      0.00
    0   19    1      1.87      0.00
    2   19    1     15.69      0.00
    4   19    1    -19.17      0.00
    6   19    1     11.05      0.00
    8   19    1     -3.24      0.00
   10   19    1      1.88      0.00
   12   19    1     -3.04      0.00
   14   19    1      2.52      0.00
   16   19    1     -1.83      0.00
  -15   20    1      2.70      0.00
  -13   20    1     -4.54      0.00
  -11   20    1     -0.02      0.00
   -9   20    1      6.18      0.00
   -7   20    1    -10.73      0.00
   -5   20    1     12.54      0.00
   -3   20    1     -6.81      0.00
   -1   20    1     -6.30      0.00
    1   20    1     13.80      0.00
    3   20    1     -5.88      0.00
    5   20    1     -7.59      0.00
    7   20    1     11.26      0.00
    9   20    1     -6.01      0.00
   11   20    1      2.71      0.00
   13   20    1     -3.68      0.00
   15   20    1      3.57      0.00
  -14   21    1     -5.75      0.00
  -12   21    1      0.58      0.00
  -10   21    1      5.79      0.00
   -8   21    1     -4.37      0.00
   -6   21    1     -2.59      0.00
   -4   21    1      6.02      0.00
   -2   21    1     -5.16      0.00
    0   21    1      4.04      0.00
    2   21    1     -0.67      0.00
    4   21    1     -5.30      0.00
    6   21    1      5.86      0.00
    8   21    1      0.96      0.00
   10   21    1     -4.31      0.00
   12   21    1     -0.87      0.00
   14   21    1      5.17      0.00
  -13   22    1     -4.33      0.00
  -11   22    1      6.99      0.00
   -9   22    1     -5.43      0.00
   -7   22    1     -0.30      0.00
   -5   22    1      5.73      0.00
   -3   22    1     -5.96      0.00
   -1   22    1      1.17      0.00
    1   22    1      2.31      0.00
    3   22    1      0.73      0.00
    5   22    1     -6.37      0.00
    7   22    1      5.91      0.00
    9   22    1      0.72      0.00
   11   22    1     -3.89      0.00
   13   22    1     -0.57      0.00
  -10   23    1      4.22      0.00
   -8   23    1     -4.68      0.00
   -6   23    1      4.33      0.00
   -4   23    1     -6.87      0.00
   -2   23    1      5.63      0.00
    0   23    1      4.01      0.00
    2   23    1    -10.83      0.00
    4   23    1      6.00      0.00
    6   23    1     -0.14      0.00
    8   23    1      3.26      0.00
   10   23    1     -6.51      0.00
   -9   24    1     -6.73      0.00
   -7   24    1      7.80      0.00
   -5   24    1     -5.24      0.00
   -3   24    1      1.39      0.00
   -1   24    1      2.24      0.00
    1   24    1     -3.70      0.00
    3   24    1      1.82      0.00
    5   24    1      0.97      0.00
    7   24    1     -2.15      0.00
    9   24    1      2.55      0.00
   -6   25    1     -2.00      0.00
   -4   25    1      2.04      0.00
   -2   25    1     -1.66      0.00
    0   25    1      2.78      0.00
    2   25    1     -3.41      0.00
    4   25    1      0.77      0.00
    6   25    1      2.07      0.00
    1    1    2     -0.82      0.00
    0    2    2     15.10      0.00
    2    2    2      1.09      0.00
   -1    3    2     -1.41      0.00
    1    3    2     -5.79      0.00
    3    3    2      6.04      0.00
   -2    4    2    -22.80      0.00
    0    4    2     34.43      0.00
    2    4    2    -24.20      0.00
    4    4    2      2.82      0.00
   -3    5    2     -1.27      0.00
   -1    5    2     -2.01      0.00
    1    5    2     -6.90      0.00
    3    5    2      1.10      0.00
    5    5    2     16.21      0.00
   -4    6    2     12.96      0.00
   -2    6    2    -23.32      0.00
    0    6    2     26.70      0.00
    2    6    2    -27.09      0.00
    4    6    2     19.05      0.00
    6    6    2     -3.23      0.00
   -5    7    2     15.08      0.00
   -3    7    2     -5.09      0.00
   -1    7    2     -1.48      0.00
    1    7    2     -1.70      0.00
    3    7    2     -3.96      0.00
    5    7    2     13.69      0.00
    7    7    2     -6.00      0.00
   -6    8    2     -6.03      0.00
   -4    8    2     14.75      0.00
   -2    8    2    -10.98      0.00
    0    8    2      5.56      0.00
    2    8    2     -9.73      0.00
    4    8    2     14.60      0.00
    6    8    2    -10.27      0.00
    8    8    2      4.40      0.00
   -7    9    2      8.71      0.00
   -5    9    2     -3.32      0.00
   -3    9    2      0.17      0.00
   -1    9    2     -0.72      0.00
    1    9    2      0.98      0.00
    3    9    2      1.34      0.00
    5    9    2     -6.61      0.00
    7    9    2     11.37      0.00
    9    9    2     -8.53      0.00
   -8   10    2     -5.46      0.00
   -6   10    2     -3.52      0.00
   -4   10    2      8.07      0.00
   -2   10    2     -0.41      0.00
    0   10    2     -7.85      0.00
    2   10    2      5.23      0.00
    4   10    2      2.17      0.00
    6   10    2     -4.40      0.00
    8   10    2      3.64      0.00
   10   10    2     -5.39      0.00
   -9   11    2      0.73      0.00
   -7   11    2      5.13      0.00
   -5   11    2     -7.80      0.00
   -3   11    2      3.74      0.00
   -1   11    2     -0.57      0.00
    1   11    2     -0.16      0.00
    3   11    2      5.59      0.00
    5   11    2    -12.79      0.00
    7   11    2     11.06      0.00
    9   11    2     -2.32      0.00
   11   11    2     -1.81      0.00
  -10   12    2      7.16      0.00
   -8   12    2     -7.31      0.00
   -6   12    2      0.03      0.00
   -4   12    2      1.41      0.00
   -2   12    2      7.76      0.00
    0   12    2    -14.43      0.00
    2   12    2     10.00      0.00
    4   12    2     -2.86      0.00
    6   12    2      0.93      0.00
    8   12    2     -0.61      0.00
   10   12    2     -1.13      0.00
   12   12    2      0.88      0.00
  -11   13    2      1.21      0.00
   -9   13    2      3.97      0.00
   -7   13    2     -6.30      0.00
   -5   13    2      5.41      0.00
   -3   13    2     -4.46      0.00
   -1   13    2      1.15      0.00
    1   13    2      4.54      0.00
    3   13    2     -5.79      0.00
    5   13    2      2.09      0.00
    7   13    2     -0.63      0.00
    9   13    2      1.82      0.00
   11   13    2     -0.14      0.00
   13   13    2     -3.29      0.00
  -12   14    2      1.50      0.00
  -10   14    2      5.02      0.00
   -8   14    2     -5.04      0.00
   -6   14    2     -0.23      0.00
   -4   14    2     -0.88      0.00
   -2   14    2      9.47      0.00
    0   14    2    -13.81      0.00
    2   14    2      9.13      0.00
    4   14    2     -2.83      0.00
    6   14    2     -0.25      0.00
    8   14    2      1.96      0.00
   10   14    2     -2.25      0.00
   12   14    2     -0.50      0.00
   14   14    2      3.43      0.00
  -13   15    2     -2.67      0.00
  -11   15    2      4.15      0.00
   -9   15    2     -2.84      0.00
   -7   15    2     -2.80      0.00
   -5   15    2     10.20      0.00
   -3   15    2    -12.19      0.00
   -1   15    2      2.85      0.00
    1   15    2     12.15      0.00
    3   15    2    -18.62      0.00
    5   15    2     12.28      0.00
    7   15    2     -3.66      0.00
    9   15    2      0.73      0.00
   11   15    2      0.13      0.00
   13   15    2     -2.06      0.00
   15   15    2      1.05      0.00
  -14   16    2     -2.65      0.00
  -12   16    2      0.59      0.00
  -10   16    2      3.22      0.00
   -8   16    2     -2.38      0.00
   -6   16    2     -1.06      0.00
   -4   16    2      1.72      0.00
   -2   16    2      0.68      0.00
    0   16    2     -3.73      0.00
    2   16    2      5.70      0.00
    4   16    2     -4.28      0.00
    6   16    2     -1.08      0.00
    8   16    2      6.10      0.00
   10   16    2     -6.72      0.00
   12   16    2      4.54      0.00
   14   16    2     -2.58      0.00
   16   16    2      0.91      0.00
  -15   17    2     -3.84      0.00
  -13   17    2      1.31      0.00
  -11   17    2      3.64      0.00
   -9   17    2     -9.49      0.00
   -7   17    2      9.29      0.00
   -5   17    2     -1.08      0.00
   -3   17    2     -5.32      0.00
   -1   17    2      0.83      0.00
    1   17    2      9.24      0.00
    3   17    2    -12.36      0.00
    5   17    2      6.18      0.00
    7   17    2      0.06      0.00
    9   17    2     -0.79      0.00
   11   17    2      0.40      0.00
   13   17    2     -1.61      0.00
   15   17    2     -0.03      0.00
   17   17    2      5.06      0.00
  -16   18    2      0.40      0.00
  -14   18    2      1.72      0.00
  -12   18    2     -3.20      0.00
  -10   18    2      2.61      0.00
   -8   18    2     -0.54      0.00
   -6   18    2     -2.33      0.00
   -4   18    2      5.50      0.00
   -2   18    2     -6.41      0.00
    0   18    2      2.86      0.00
    2   18    2      2.10      0.00
    4   18    2     -3.35      0.00
    6   18    2      0.59      0.00
    8   18    2      3.25      0.00
   10   18    2     -6.89      0.00
   12   18    2      9.18      0.00
   14   18    2     -7.75      0.00
   16   18    2      3.07      0.00
   18   18    2      1.18      0.00
  -17   19    2      6.57      0.00
  -15   19    2     -6.32      0.00
  -13   19    2      3.71      0.00
  -11   19    2      2.48      0.00
   -9   19    2    -10.52      0.00
   -7   19    2     13.61      0.00
   -5   19    2     -9.82      0.00
   -3   19    2      4.82      0.00
   -1   19    2     -1.91      0.00
    1   19    2     -0.43      0.00
    3   19    2      2.09      0.00
    5   19    2     -1.68      0.00
    7   19    2      0.26      0.00
    9   19    2      0.54      0.00
   11   19    2     -0.60      0.00
   13   19    2      0.45      0.00
   15   19    2     -1.05      0.00
  -14   20    2      5.21      0.00
  -12   20    2     -3.23      0.00
  -10   20    2     -1.31      0.00
   -8   20    2      2.13      0.00
   -6   20    2     -2.33      0.00
   -4   20    2      3.92      0.00
   -2   20    2     -2.44      0.00
    0   20    2     -0.87      0.00
    2   20    2     -0.17      0.00
    4   20    2      2.31      0.00
    6   20    2      0.73      0.00
    8   20    2     -2.91      0.00
   10   20    2     -2.99      0.00
   12   20    2      9.02      0.00
   14   20    2     -6.19      0.00
  -13   21    2      1.55      0.00
  -11   21    2      3.47      0.00
   -9   21    2    -10.36      0.00
   -7   21    2     11.59      0.00
   -5   21    2     -6.80      0.00
   -3   21    2      2.79      0.00
   -1   21    2     -1.20      0.00
    1   21    2     -1.25      0.00
    3   21    2      3.38      0.00
    5   21    2     -2.09      0.00
    7   21    2     -1.03      0.00
    9   21    2      3.31      0.00
   11   21    2     -4.67      0.00
   13   21    2      4.34      0.00
  -12   22    2      1.64      0.00
  -10   22    2     -7.71      0.00
   -8   22    2      3.53      0.00
   -6   22    2      2.89      0.00
   -4   22    2     -3.40      0.00
   -2   22    2      2.59      0.00
    0   22    2     -2.15      0.00
    2   22    2     -2.32      0.00
    4   22    2      5.89      0.00
    6   22    2     -1.31      0.00
    8   22    2     -3.48      0.00
   10   22    2     -0.68      0.00
   12   22    2      5.65      0.00
   -9   23    2     -9.63      0.00
   -7   23    2      9.37      0.00
   -5   23    2     -2.04      0.00
   -3   23    2     -3.30      0.00
   -1   23    2     -0.22      0.00
    1   23    2      5.37      0.00
    3   23    2     -3.34      0.00
    5   23    2     -1.56      0.00
    7   23    2      0.75      0.00
    9   23    2      4.29      0.00
   -8   24    2      3.16      0.00
   -6   24    2      7.28      0.00
   -4   24    2     -8.15      0.00
   -2   24    2      1.87      0.00
    0   24    2      2.10      0.00
    2   24    2     -3.12      0.00
    4   24    2      4.13      0.00
    6   24    2     -3.76      0.00
    8   24    2      2.01      0.00
   -3   25    2     -1.43      0.00
   -1   25    2     -1.59      0.00
    1   25    2      6.11      0.00
    3   25    2     -2.83      0.00
    0    1    3      7.71      0.00
   -1    2    3     -4.73      0.00
    1    2    3     14.48      0.00
   -2    3    3    -13.27      0.00
    0    3    3     11.44      0.00
    2    3    3     -0.29      0.00
   -3    4    3      9.32      0.00
   -1    4    3    -11.30      0.00
    1    4    3     12.57      0.00
    3    4    3     -9.18      0.00
   -4    5    3      1.69      0.00
   -2    5    3      1.12      0.00
    0    5    3     -1.70      0.00
    2    5    3      3.71      0.00
    4    5    3     -6.96      0.00
   -5    6    3     -6.27      0.00
   -3    6    3      6.11      0.00
   -1    6    3     -3.91      0.00
    1    6    3      4.27      0.00
    3    6    3     -5.52      0.00
    5    6    3      4.35      0.00
   -6    7    3     -1.26      0.00
   -4    7    3     -3.95      0.00
   -2    7    3     12.71      0.00
    0    7    3    -12.89      0.00
    2    7    3      5.69      0.00
    4    7    3     -0.78      0.00
    6    7    3     -0.03      0.00
   -7    8    3     -0.55      0.00
   -5    8    3     -1.01      0.00
   -3    8    3     -2.91      0.00
   -1    8    3      6.48      0.00
    1    8    3     -5.00      0.00
    3    8    3      1.70      0.00
    5    8    3     -0.96      0.00
    7    8    3      1.95      0.00
   -8    9    3     -1.04      0.00
   -6    9    3      0.31      0.00
   -4    9    3     -4.05      0.00
   -2    9    3     12.10      0.00
    0    9    3    -11.75      0.00
    2    9    3      2.15      0.00
    4    9    3      5.88      0.00
    6    9    3     -7.34      0.00
    8    9    3      3.73      0.00
   -9   10    3     -1.98      0.00
   -7   10    3      0.32      0.00
   -5   10    3      1.48      0.00
   -3   10    3     -3.28      0.00
   -1   10    3      4.46      0.00
    1   10    3     -7.02      0.00
    3   10    3     10.44      0.00
    5   10    3     -9.51      0.00
    7   10    3      2.55      0.00
    9   10    3      4.73      0.00
  -10   11    3     -6.73      0.00
   -8   11    3      2.03      0.00
   -6   11    3     -1.47      0.00
   -4   11    3     -1.10      0.00
   -2   11    3      7.00      0.00
    0   11    3     -8.11      0.00
    2   11    3      1.16      0.00
    4   11    3      5.98      0.00
    6   11    3     -5.69      0.00
    8   11    3     -0.30      0.00
   10   11    3      4.35      0.00
  -11   12    3      2.92      0.00
   -9   12    3     -3.96      0.00
   -7   12    3      3.22      0.00
   -5   12    3     -3.35      0.00
   -3   12    3      5.21      0.00
   -1   12    3     -5.71      0.00
    1   12    3      0.34      0.00
    3   12    3      8.06      0.00
    5   12    3     -9.01      0.00
    7   12    3     -1.43      0.00
    9   12    3     12.70      0.00
   11   12    3    -12.63      0.00
  -12   13    3      3.79      0.00
  -10   13    3     -3.95      0.00
   -8   13    3      5.12      0.00
   -6   13    3     -5.32      0.00
   -4   13    3      1.97      0.00
   -2   13    3      4.75      0.00
    0   13    3     -8.75      0.00
    2   13    3      5.30      0.00
    4   13    3     -0.66      0.00
    6   13    3      2.82      0.00
    8   13    3     -6.89      0.00
   10   13    3      4.03      0.00
   12   13    3      1.48      0.00
  -13   14    3      0.03      0.00
  -11   14    3      0.35      0.00
   -9   14    3      0.01      0.00
   -7   14    3      2.32      0.00
   -5   14    3     -6.07      0.00
   -3   14    3      8.09      0.00
   -1   14    3     -9.17      0.00
    1   14    3      8.90      0.00
    3   14    3     -3.62      0.00
    5   14    3     -3.05      0.00
    7   14    3      0.88      0.00
    9   14    3      8.80      0.00
   11   14    3    -11.77      0.00
   13   14    3      4.03      0.00
  -14   15    3      2.00      0.00
  -12   15    3     -0.73      0.00
  -10   15    3     -2.52      0.00
   -8   15    3      6.13      0.00
   -6   15    3     -6.81      0.00
   -4   15    3      3.03      0.00
   -2   15    3      3.48      0.00
    0   15    3     -7.90      0.00
    2   15    3      7.49      0.00
    4   15    3     -6.22      0.00
    6   15    3      7.27      0.00
    8   15    3     -5.54      0.00
   10   15    3     -1.78      0.00
   12   15    3      6.44      0.00
   14   15    3     -2.13      0.00
  -15   16    3      5.19      0.00
  -13   16    3     -5.33      0.00
  -11   16    3      0.15      0.00
   -9   16    3      3.90      0.00
   -7   16    3     -2.99      0.00
   -5   16    3      1.54      0.00
   -3   16    3     -0.95      0.00
   -1   16    3     -3.82      0.00
    1   16    3     10.23      0.00
    3   16    3     -7.57      0.00
    5   16    3     -3.02      0.00
    7   16    3      7.08      0.00
    9   16    3     -0.72      0.00
   11   16    3     -3.89      0.00
   13   16    3      0.82      0.00
   15   16    3      2.03      0.00
  -16   17    3      0.10      0.00
  -14   17    3     -1.74      0.00
  -12   17    3      4.14      0.00
  -10   17    3     -5.76      0.00
   -8   17    3      6.27      0.00
   -6   17    3     -4.68      0.00
   -4   17    3      1.08      0.00
   -2   17    3      2.36      0.00
    0   17    3     -4.08      0.00
    2   17    3      4.69      0.00
    4   17    3     -4.94      0.00
    6   17    3      3.57      0.00
    8   17    3      0.79      0.00
   10   17    3     -5.60      0.00
   12   17    3      6.18      0.00
   14   17    3     -2.37      0.00
   16   17    3     -1.21      0.00
  -17   18    3     -1.92      0.00
  -15   18    3      6.58      0.00
  -13   18    3     -4.68      0.00
  -11   18    3     -2.01      0.00
   -9   18    3      4.19      0.00
   -7   18    3     -3.57      0.00
   -5   18    3      6.99      0.00
   -3   18    3     -8.97      0.00
   -1   18    3      2.19      0.00
    1   18    3      5.17      0.00
    3   18    3     -3.13      0.00
    5   18    3     -2.38      0.00
    7   18    3      2.56      0.00
    9   18    3     -1.09      0.00
   11   18    3      3.09      0.00
   13   18    3     -4.32      0.00
   15   18    3      1.41      0.00
   17   18    3      1.19      0.00
  -16   19    3      1.81      0.00
  -14   19    3     -5.56      0.00
  -12   19    3      7.89      0.00
  -10   19    3     -7.88      0.00
   -8   19    3      6.57      0.00
   -6   19    3     -3.38      0.00
   -4   19    3     -1.17      0.00
   -2   19    3      3.83      0.00
    0   19    3     -3.19      0.00
    2   19    3      1.44      0.00
    4   19    3     -0.20      0.00
    6   19    3     -0.93      0.00
    8   19    3      2.10      0.00
   10   19    3     -2.65      0.00
   12   19    3      2.25      0.00
   14   19    3     -1.04      0.00
   16   19    3     -0.08      0.00
  -13   20    3      1.22      0.00
  -11   20    3     -7.72      0.00
   -9   20    3      4.18      0.00
   -7   20    3      3.49      0.00
   -5   20    3     -2.06      0.00
   -3   20    3     -4.64      0.00
   -1   20    3      4.86      0.00
    1   20    3      0.36      0.00
    3   20    3     -4.44      0.00
    5   20    3      7.70      0.00
    7   20    3     -9.39      0.00
    9   20    3      4.66      0.00
   11   20    3      3.18      0.00
   13   20    3     -4.58      0.00
  -12   21    3      2.83      0.00
  -10   21    3     -2.52      0.00
   -8   21    3      4.21      0.00
   -6   21    3     -4.16      0.00
   -4   21    3     -0.87      0.00
   -2   21    3      5.57      0.00
    0   21    3     -4.14      0.00
    2   21    3     -0.19      0.00
    4   21    3      1.40      0.00
    6   21    3      0.13      0.00
    8   21    3     -0.57      0.00
   10   21    3     -0.88      0.00
   12   21    3      2.11      0.00
  -11   22    3     -8.72      0.00
   -9   22    3      3.92      0.00
   -7   22    3      7.61      0.00
   -5   22    3    -11.62      0.00
   -3   22    3      3.43      0.00
   -1   22    3      4.45      0.00
    1   22    3     -0.86      0.00
    3   22    3     -9.06      0.00
    5   22    3     13.76      0.00
    7   22    3    -10.71      0.00
    9   22    3      5.44      0.00
   11   22    3     -1.92      0.00
   -8   23    3     -1.69      0.00
   -6   23    3     -2.07      0.00
   -4   23    3     -0.25      0.00
   -2   23    3      3.83      0.00
    0   23    3     -1.55      0.00
    2   23    3     -2.04      0.00
    4   23    3      0.23      0.00
    6   23    3      2.50      0.00
    8   23    3      0.13      0.00
   -5   24    3     -6.02      0.00
   -3   24    3      3.31      0.00
   -1   24    3      1.81      0.00
    1   24    3     -0.63      0.00
    3   24    3     -4.79      0.00
    5   24    3      4.95      0.00
    0    0    4    -19.41      0.00
    1    1    4      2.82      0.00
    0    2    4    -11.17      0.00
    2    2    4      5.96      0.00
   -1    3    4     -0.31      0.00
    1    3    4      2.18      0.00
    3    3    4      0.19      0.00
   -2    4    4      0.01      0.00
    0    4    4      2.93      0.00
    2    4    4     -4.06      0.00
    4    4    4     -1.26      0.00
   -3    5    4     -6.55      0.00
   -1    5    4      7.85      0.00
    1    5    4     -3.75      0.00
    3    5    4      0.59      0.00
    5    5    4     -1.14      0.00
   -4    6    4     -8.64      0.00
   -2    6    4      1.08      0.00
    0    6    4      8.21      0.00
    2    6    4     -6.48      0.00
    4    6    4     -2.25      0.00
    6    6    4      6.33      0.00
   -5    7    4      1.95      0.00
   -3    7    4     -9.70      0.00
   -1    7    4     14.13      0.00
    1    7    4     -9.32      0.00
    3    7    4      1.64      0.00
    5    7    4      0.39      0.00
    7    7    4      0.91      0.00
   -6    8    4      3.83      0.00
   -4    8    4     -8.88      0.00
   -2    8    4      3.96      0.00
    0    8    4      3.89      0.00
    2    8    4     -2.17      0.00
    4    8    4     -2.55      0.00
    6    8    4      1.50      0.00
    8    8    4     -1.07      0.00
   -7    9    4      0.47      0.00
   -5    9    4      1.02      0.00
   -3    9    4     -8.07      0.00
   -1    9    4     10.10      0.00
    1    9    4     -4.18      0.00
    3    9    4      0.01      0.00
    5    9    4     -3.27      0.00
    7    9    4      6.85      0.00
    9    9    4     -4.11      0.00
   -8   10    4     -4.38      0.00
   -6   10    4     -0.71      0.00
   -4   10    4     -1.53      0.00
   -2   10    4      5.00      0.00
    0   10    4     -4.68      0.00
    2   10    4      2.38      0.00
    4   10    4      0.29      0.00
    6   10    4     -0.89      0.00
    8   10    4     -4.07      0.00
   10   10    4      9.69      0.00
   -9   11    4     -1.07      0.00
   -7   11    4      1.59      0.00
   -5   11    4      2.47      0.00
   -3   11    4     -6.01      0.00
   -1   11    4      2.24      0.00
    1   11    4      3.66      0.00
    3   11    4     -1.97      0.00
    5   11    4     -4.77      0.00
    7   11    4      7.45      0.00
    9   11    4     -5.14      0.00
   11   11    4      2.39      0.00
  -10   12    4      6.78      0.00
   -8   12    4     -2.83      0.00
   -6   12    4     -5.18      0.00
   -4   12    4      5.27      0.00
   -2   12    4      4.65      0.00
    0   12    4    -11.59      0.00
    2   12    4      6.29      0.00
    4   12    4      3.57      0.00
    6   12    4     -5.70      0.00
    8   12    4     -0.15      0.00
   10   12    4      4.75      0.00
   12   12    4     -3.60      0.00
  -11   13    4     -0.35      0.00
   -9   13    4     -1.64      0.00
   -7   13    4     -1.13      0.00
   -5   13    4      4.30      0.00
   -3   13    4     -3.48      0.00
   -1   13    4      1.16      0.00
    1   13    4     -1.28      0.00
    3   13    4      2.14      0.00
    5   13    4     -1.03      0.00
    7   13    4      0.70      0.00
    9   13    4     -3.65      0.00
   11   13    4      5.76      0.00
   13   13    4     -3.38      0.00
  -12   14    4     -1.59      0.00
  -10   14    4      0.85      0.00
   -8   14    4      1.37      0.00
   -6   14    4     -5.27      0.00
   -4   14    4      5.97      0.00
   -2   14    4      0.91      0.00
    0   14    4     -8.94      0.00
    2   14    4      7.12      0.00
    4   14    4      3.34      0.00
    6   14    4    -10.38      0.00
    8   14    4      8.33      0.00
   10   14    4     -2.66      0.00
   12   14    4     -0.87      0.00
   14   14    4      2.38      0.00
  -13   15    4     -0.32      0.00
  -11   15    4      2.03      0.00
   -9   15    4     -2.53      0.00
   -7   15    4     -0.36      0.00
   -5   15    4      0.20      0.00
   -3   15    4      1.21      0.00
   -1   15    4      4.63      0.00
    1   15    4    -12.59      0.00
    3   15    4      9.83      0.00
    5   15    4     -0.22      0.00
    7   15    4     -1.18      0.00
    9   15    4     -5.81      0.00
   11   15    4      8.12      0.00
   13   15    4     -2.05      0.00
   15   15    4     -3.95      0.00
  -14   16    4      3.04      0.00
  -12   16    4     -3.13      0.00
  -10   16    4      2.22      0.00
   -8   16    4     -1.57      0.00
   -6   16    4      0.45      0.00
   -4   16    4      2.89      0.00
   -2   16    4     -4.79      0.00
    0   16    4      1.39      0.00
    2   16    4      1.98      0.00
    4   16    4      1.19      0.00
    6   16    4     -6.26      0.00
    8   16    4      5.06      0.00
   10   16    4      0.42      0.00
   12   16    4     -3.38      0.00
   14   16    4      3.46      0.00
   16   16    4     -3.67      0.00
  -15   17    4      4.68      0.00
  -13   17    4     -3.03      0.00
  -11   17    4      5.47      0.00
   -9   17    4     -6.22      0.00
   -7   17    4      4.58      0.00
   -5   17    4     -4.89      0.00
   -3   17    4      3.90      0.00
   -1   17    4      4.24      0.00
    1   17    4    -13.18      0.00
    3   17    4     12.69      0.00
    5   17    4     -6.44      0.00
    7   17    4      4.87      0.00
    9   17    4     -7.48      0.00
   11   17    4      5.83      0.00
   13   17    4      1.80      0.00
   15   17    4     -8.49      0.00
   17   17    4      8.03      0.00
  -14   18    4      2.79      0.00
  -12   18    4     -3.56      0.00
  -10   18    4      5.93      0.00
   -8   18    4     -7.78      0.00
   -6   18    4      5.90      0.00
   -4   18    4     -0.02      0.00
   -2   18    4     -5.08      0.00
    0   18    4      5.11      0.00
    2   18    4     -1.85      0.00
    4   18    4     -1.15      0.00
    6   18    4      4.05      0.00
    8   18    4     -6.92      0.00
   10   18    4      7.05      0.00
   12   18    4     -4.90      0.00
   14   18    4      4.45      0.00
  -13   19    4     -4.13      0.00
  -11   19    4      7.35      0.00
   -9   19    4     -6.39      0.00
   -7   19    4      2.85      0.00
   -5   19    4     -1.51      0.00
   -3   19    4      1.91      0.00
   -1   19    4      0.07      0.00
    1   19    4     -5.12      0.00
    3   19    4      9.41      0.00
    5   19    4     -9.47      0.00
    7   19    4      5.96      0.00
    9   19    4     -2.55      0.00
   11   19    4      0.66      0.00
   13   19    4      2.14      0.00
  -12   20    4      1.63      0.00
  -10   20    4      1.23      0.00
   -8   20    4     -6.65      0.00
   -6   20    4      6.67      0.00
   -4   20    4     -2.39      0.00
   -2   20    4      0.89      0.00
    0   20    4     -2.10      0.00
    2   20    4      2.60      0.00
    4   20    4     -4.84      0.00
    6   20    4      9.62      0.00
    8   20    4    -10.04      0.00
   10   20    4      4.08      0.00
   12   20    4     -0.41      0.00
  -11   21    4      5.38      0.00
   -9   21    4     -1.47      0.00
   -7   21    4     -4.55      0.00
   -5   21    4      4.96      0.00
   -3   21    4     -0.14      0.00
   -1   21    4     -2.42      0.00
    1   21    4     -0.59      0.00
    3   21    4      4.15      0.00
    5   21    4     -2.92      0.00
    7   21    4     -1.30      0.00
    9   21    4      3.12      0.00
   11   21    4     -1.44      0.00
   -8   22    4     -0.28      0.00
   -6   22    4      4.44      0.00
   -4   22    4     -3.94      0.00
   -2   22    4      5.05      0.00
    0   22    4     -7.78      0.00
    2   22    4      7.71      0.00
    4   22    4     -6.74      0.00
    6   22    4      6.65      0.00
    8   22    4     -3.19      0.00
   -5   23    4      3.65      0.00
   -3   23    4      0.58      0.00
   -1   23    4     -2.29      0.00
    1   23    4      0.65      0.00
    3   23    4     -0.60      0.00
    5   23    4      3.28      0.00
    0   24    4     -5.14      0.00
    0    1    5     -0.34      0.00
   -1    2    5     -2.85      0.00
    1    2    5      4.48      0.00
   -2    3    5      8.44      0.00
    0    3    5     -1.22      0.00
    2    3    5     -6.00      0.00
   -3    4    5      3.38      0.00
   -1    4    5      2.48      0.00
    1    4    5     -0.37      0.00
    3    4    5     -6.18      0.00
   -4    5    5     -9.93      0.00
   -2    5    5     11.71      0.00
    0    5    5     -0.09      0.00
    2    5    5    -12.56      0.00
    4    5    5     10.69      0.00
   -5    6    5      3.81      0.00
   -3    6    5     -4.10      0.00
   -1    6    5      5.97      0.00
    1    6    5     -6.25      0.00
    3    6    5      3.72      0.00
    5    6    5     -1.44      0.00
   -6    7    5      0.37      0.00
   -4    7    5    -10.19      0.00
   -2    7    5     11.80      0.00
    0    7    5      3.80      0.00
    2    7    5    -18.24      0.00
    4    7    5     13.12      0.00
    6    7    5      2.41      0.00
   -7    8    5     -6.08      0.00
   -5    8    5      9.70      0.00
   -3    8    5     -4.49      0.00
   -1    8    5      0.99      0.00
    1    8    5     -6.50      0.00
    3    8    5     11.63      0.00
    5    8    5     -6.65      0.00
    7    8    5     -1.79      0.00
   -8    9    5     -2.89      0.00
   -6    9    5      3.61      0.00
   -4    9    5     -9.70      0.00
   -2    9    5      8.60      0.00
    0    9    5      4.29      0.00
    2    9    5    -14.13      0.00
    4    9    5     10.54      0.00
    6    9    5     -3.10      0.00
    8    9    5      2.32      0.00
   -9   10    5     -3.88      0.00
   -7   10    5      3.13      0.00
   -5   10    5     -1.08      0.00
   -3   10    5      1.76      0.00
   -1   10    5     -0.78      0.00
    1   10    5     -6.77      0.00
    3   10    5     10.06      0.00
    5   10    5      0.58      0.00
    7   10    5    -11.20      0.00
    9   10    5      6.42      0.00
  -10   11    5     -3.35      0.00
   -8   11    5      0.70      0.00
   -6   11    5      3.72      0.00
   -4   11    5     -4.40      0.00
   -2   11    5      1.96      0.00
    0   11    5     -0.47      0.00
    2   11    5      0.06      0.00
    4   11    5      1.60      0.00
    6   11    5     -4.07      0.00
    8   11    5      4.74      0.00
   10   11    5     -2.77      0.00
  -11   12    5      0.34      0.00
   -9   12    5     -1.16      0.00
   -7   12    5      7.40      0.00
   -5   12    5     -9.47      0.00
   -3   12    5      3.92      0.00
   -1   12    5      4.08      0.00
    1   12    5     -8.04      0.00
    3   12    5      2.71      0.00
    5   12    5      9.28      0.00
    7   12    5    -14.24      0.00
    9   12    5      5.89      0.00
   11   12    5      2.17      0.00
  -12   13    5     -1.16      0.00
  -10   13    5     -2.59      0.00
   -8   13    5      3.19      0.00
   -6   13    5     -1.81      0.00
   -4   13    5      3.48      0.00
   -2   13    5     -3.75      0.00
    0   13    5     -2.31      0.00
    2   13    5      8.47      0.00
    4   13    5     -8.36      0.00
    6   13    5      4.69      0.00
    8   13    5     -0.88      0.00
   10   13    5     -2.82      0.00
   12   13    5      4.15      0.00
  -13   14    5     -1.97      0.00
  -11   14    5     -1.18      0.00
   -9   14    5      4.20      0.00
   -7   14    5     -2.07      0.00
   -5   14    5     -1.93      0.00
   -3   14    5      1.78      0.00
   -1   14    5      2.18      0.00
    1   14    5     -3.62      0.00
    3   14    5     -1.59      0.00
    5   14    5      8.81      0.00
    7   14    5     -9.11      0.00
    9   14    5      2.12      0.00
   11   14    5      2.16      0.00
   13   14    5      0.80      0.00
  -14   15    5      3.35      0.00
  -12   15    5     -5.29      0.00
  -10   15    5      2.27      0.00
   -8   15    5      3.39      0.00
   -6   15    5     -5.97      0.00
   -4   15    5      4.36      0.00
   -2   15    5     -2.24      0.00
    0   15    5      0.95      0.00
    2   15    5      2.72      0.00
    4   15    5     -9.18      0.00
    6   15    5     11.99      0.00
    8   15    5     -6.58      0.00
   10   15    5     -1.45      0.00
   12   15    5      3.88      0.00
   14   15    5     -1.11      0.00
  -15   16    5     -1.47      0.00
  -13   16    5     -0.44      0.00
  -11   16    5      0.27      0.00
   -9   16    5      5.37      0.00
   -7   16    5    -10.58      0.00
   -5   16    5      6.68      0.00
   -3   16    5      3.10      0.00
   -1   16    5     -7.14      0.00
    1   16    5      3.45      0.00
    3   16    5     -1.22      0.00
    5   16    5      3.75      0.00
    7   16    5     -3.87      0.00
    9   16    5     -1.33      0.00
   11   16    5      4.96      0.00
   13   16    5     -2.84      0.00
   15   16    5     -0.09      0.00
  -14   17    5      0.27      0.00
  -12   17    5     -1.64      0.00
  -10   17    5      1.58      0.00
   -8   17    5      2.27      0.00
   -6   17    5     -4.20      0.00
   -4   17    5     -0.19      0.00
   -2   17    5      3.31      0.00
    0   17    5      0.53      0.00
    2   17    5     -2.79      0.00
    4   17    5     -2.93      0.00
    6   17    5      8.47      0.00
    8   17    5     -6.78      0.00
   10   17    5      2.68      0.00
   12   17    5     -1.07      0.00
   14   17    5      0.64      0.00
  -13   18    5     -2.22      0.00
  -11   18    5      4.09      0.00
   -9   18    5      0.41      0.00
   -7   18    5     -5.78      0.00
   -5   18    5      2.66      0.00
   -3   18    5      6.15      0.00
   -1   18    5     -8.49      0.00
    1   18    5      2.79      0.00
    3   18    5      0.75      0.00
    5   18    5      0.92      0.00
    7   18    5     -0.47      0.00
    9   18    5     -3.67      0.00
   11   18    5      4.94      0.00
   13   18    5     -2.08      0.00
  -12   19    5      1.73      0.00
  -10   19    5     -0.32      0.00
   -8   19    5      0.14      0.00
   -6   19    5     -1.12      0.00
   -4   19    5     -0.36      0.00
   -2   19    5      3.85      0.00
    0   19    5     -4.80      0.00
    2   19    5      2.49      0.00
    4   19    5     -0.56      0.00
    6   19    5      1.25      0.00
    8   19    5     -3.27      0.00
   10   19    5      3.63      0.00
   12   19    5     -1.11      0.00
  -11   20    5      6.01      0.00
   -9   20    5     -3.72      0.00
   -7   20    5      1.47      0.00
   -5   20    5     -3.31      0.00
   -3   20    5      4.69      0.00
   -1   20    5     -0.73      0.00
    1   20    5     -4.20      0.00
    3   20    5      4.00      0.00
    5   20    5     -1.87      0.00
    7   20    5      2.97      0.00
    9   20    5     -3.82      0.00
   11   20    5      0.33      0.00
   -8   21    5     -1.96      0.00
   -6   21    5      0.05      0.00
   -4   21    5      2.82      0.00
   -2   21    5     -0.65      0.00
    0   21    5     -5.70      0.00
    2   21    5      7.58      0.00
    4   21    5     -2.68      0.00
    6   21    5     -1.11      0.00
    8   21    5      0.12      0.00
   -5   22    5     -0.55      0.00
   -3   22    5      1.36      0.00
   -1   22    5      2.52      0.00
    1   22    5     -6.71      0.00
    3   22    5      6.77      0.00
    5   22    5     -5.36      0.00
    1    1    6      2.98      0.00
    0    2    6     -2.33      0.00
    2    2    6     -2.13      0.00
   -1    3    6      7.21      0.00
    1    3    6     -0.53      0.00
    3    3    6     -2.61      0.00
   -2    4    6      2.50      0.00
    0    4    6     -2.90      0.00
    2    4    6      1.74      0.00
    4    4    6     -0.27      0.00
   -3    5    6      1.03      0.00
   -1    5    6      5.78      0.00
    1    5    6     -9.77      0.00
    3    5    6      7.72      0.00
    5    5    6     -3.68      0.00
   -4    6    6      0.34      0.00
   -2    6    6     -4.32      0.00
    0    6    6      2.32      0.00
    2    6    6      3.55      0.00
    4    6    6     -3.52      0.00
    6    6    6     -2.59      0.00
   -5    7    6     -0.16      0.00
   -3    7    6      0.46      0.00
   -1    7    6      1.56      0.00
    1    7    6     -5.29      0.00
    3    7    6      5.23      0.00
    5    7    6     -2.90      0.00
    7    7    6      2.67      0.00
   -6    8    6      6.25      0.00
   -4    8    6      1.29      0.00
   -2    8    6     -7.11      0.00
    0    8    6      3.21      0.00
    2    8    6      5.11      0.00
    4    8    6     -5.79      0.00
    6    8    6     -1.79      0.00
    8    8    6      6.93      0.00
   -7    9    6      2.38      0.00
   -5    9    6      2.78      0.00
   -3    9    6     -2.61      0.00
   -1    9    6     -5.61      0.00
    1    9    6     11.01      0.00
    3    9    6     -5.57      0.00
    5    9    6     -3.73      0.00
    7    9    6      6.74      0.00
    9    9    6     -3.73      0.00
   -8   10    6     -5.19      0.00
   -6   10    6      5.92      0.00
   -4   10    6     -0.53      0.00
   -2   10    6     -2.16      0.00
    0   10    6     -2.34      0.00
    2   10    6      7.34      0.00
    4   10    6     -5.75      0.00
    6   10    6      0.37      0.00
    8   10    6      1.64      0.00
   10   10    6      0.40      0.00
   -9   11    6     -1.74      0.00
   -7   11    6      0.02      0.00
   -5   11    6      3.41      0.00
   -3   11    6      0.08      0.00
   -1   11    6    -10.75      0.00
    1   11    6     15.28      0.00
    3   11    6     -6.48      0.00
    5   11    6     -4.46      0.00
    7   11    6      5.82      0.00
    9   11    6     -1.27      0.00
   11   11    6     -0.85      0.00
  -10   12    6     -1.37      0.00
   -8   12    6     -3.37      0.00
   -6   12    6      5.84      0.00
   -4   12    6     -2.23      0.00
   -2   12    6     -0.18      0.00
    0   12    6     -2.66      0.00
    2   12    6      4.55      0.00
    4   12    6     -2.10      0.00
    6   12    6      0.84      0.00
    8   12    6     -3.30      0.00
   10   12    6      3.92      0.00
   12   12    6     -0.19      0.00
  -11   13    6      0.31      0.00
   -9   13    6     -3.09      0.00
   -7   13    6     -0.61      0.00
   -5   13    6      2.52      0.00
   -3   13    6      2.65      0.00
   -1   13    6     -6.96      0.00
    1   13    6      4.08      0.00
    3   13    6      0.76      0.00
    5   13    6     -1.90      0.00
    7   13    6      0.77      0.00
    9   13    6      0.77      0.00
   11   13    6     -3.00      0.00
   13   13    6      3.87      0.00
  -12   14    6     -2.63      0.00
  -10   14    6      0.10      0.00
   -8   14    6     -3.13      0.00
   -6   14    6      3.67      0.00
   -4   14    6      1.47      0.00
   -2   14    6     -4.82      0.00
    0   14    6      3.38      0.00
    2   14    6     -3.06      0.00
    4   14    6      4.25      0.00
    6   14    6     -0.88      0.00
    8   14    6     -4.19      0.00
   10   14    6      1.75      0.00
   12   14    6      6.17      0.00
   14   14    6     -8.58      0.00
  -13   15    6      0.98      0.00
  -11   15    6      0.92      0.00
   -9   15    6     -4.09      0.00
   -7   15    6      0.87      0.00
   -5   15    6      3.11      0.00
   -3   15    6     -1.70      0.00
   -1   15    6      0.43      0.00
    1   15    6     -2.52      0.00
    3   15    6      2.30      0.00
    5   15    6      1.18      0.00
    7   15    6     -2.90      0.00
    9   15    6      3.00      0.00
   11   15    6     -3.43      0.00
   13   15    6      1.36      0.00
   15   15    6      3.29      0.00
  -14   16    6      2.90      0.00
  -12   16    6     -0.45      0.00
  -10   16    6      0.51      0.00
   -8   16    6     -1.89      0.00
   -6   16    6     -1.19      0.00
   -4   16    6      6.29      0.00
   -2   16    6     -6.18      0.00
    0   16    6      3.51      0.00
    2   16    6     -5.08      0.00
    4   16    6      6.75      0.00
    6   16    6     -1.73      0.00
    8   16    6     -3.56      0.00
   10   16    6     -0.16      0.00
   12   16    6      7.81      0.00
   14   16    6     -8.70      0.00
  -13   17    6     -2.66      0.00
  -11   17    6      0.40      0.00
   -9   17    6     -1.40      0.00
   -7   17    6      0.91      0.00
   -5   17    6      3.18      0.00
   -3   17    6     -5.24      0.00
   -1   17    6      2.38      0.00
    1   17    6      0.82      0.00
    3   17    6     -1.17      0.00
    5   17    6      1.53      0.00
    7   17    6     -4.07      0.00
    9   17    6      5.55      0.00
   11   17    6     -2.42      0.00
   13   17    6     -2.92      0.00
  -10   18    6      0.46      0.00
   -8   18    6     -1.53      0.00
   -6   18    6     -1.71      0.00
   -4   18    6      4.27      0.00
   -2   18    6     -0.50      0.00
    0   18    6     -4.34      0.00
    2   18    6      2.86      0.00
    4   18    6      0.81      0.00
    6   18    6      0.51      0.00
    8   18    6     -3.56      0.00
   10   18    6      1.77      0.00
   -9   19    6      2.30      0.00
   -7   19    6     -0.08      0.00
   -5   19    6      0.08      0.00
   -3   19    6     -2.54      0.00
   -1   19    6      1.35      0.00
    1   19    6      1.77      0.00
    3   19    6     -1.12      0.00
    5   19    6      0.16      0.00
    7   19    6     -3.43      0.00
    9   19    6      5.15      0.00
   -6   20    6      2.39      0.00
   -4   20    6     -1.31      0.00
   -2   20    6      3.91      0.00
    0   20    6     -8.89      0.00
    2   20    6     10.12      0.00
    4   20    6     -6.12      0.00
    6   20    6      2.18      0.00
   -3   21    6     -0.29      0.00
   -1   21    6      2.32      0.00
    1   21    6     -1.54      0.00
    3   21    6      1.23      0.00
    0    1    7     -0.33      0.00
   -1    2    7     -7.07      0.00
    1    2    7      6.60      0.00
   -2    3    7     -9.92      0.00
    0    3    7     -1.68      0.00
    2    3    7     12.44      0.00
   -3    4    7      9.46      0.00
   -1    4    7     -6.42      0.00
    1    4    7      4.14      0.00
    3    4    7     -3.76      0.00
   -4    5    7      0.91      0.00
   -2    5    7     -5.44      0.00
    0    5    7     -3.22      0.00
    2    5    7     11.51      0.00
    4    5    7     -8.86      0.00
   -5    6    7     -4.23      0.00
   -3    6    7      3.85      0.00
   -1    6    7     -3.51      0.00
    1    6    7     -2.89      0.00
    3    6    7     10.46      0.00
    5    6    7     -9.27      0.00
   -6    7    7      1.05      0.00
   -4    7    7     -2.96      0.00
   -2    7    7      4.47      0.00
    0    7    7     -4.14      0.00
    2    7    7      4.30      0.00
    4    7    7     -5.56      0.00
    6    7    7      6.11      0.00
   -7    8    7      6.28      0.00
   -5    8    7     -6.11      0.00
   -3    8    7      4.60      0.00
   -1    8    7     -4.12      0.00
    1    8    7     -0.81      0.00
    3    8    7      8.94      0.00
    5    8    7     -9.93      0.00
    7    8    7      1.99      0.00
   -8    9    7      4.65      0.00
   -6    9    7     -5.19      0.00
   -4    9    7     -1.63      0.00
   -2    9    7      6.75      0.00
    0    9    7     -4.39      0.00
    2    9    7      1.29      0.00
    4    9    7     -2.69      0.00
    6    9    7      3.37      0.00
    8    9    7     -0.59      0.00
   -9   10    7     -1.25      0.00
   -7   10    7      7.46      0.00
   -5   10    7     -8.04      0.00
   -3   10    7      5.22      0.00
   -1   10    7     -6.17      0.00
    1   10    7      8.26      0.00
    3   10    7     -3.80      0.00
    5   10    7     -3.73      0.00
    7   10    7      4.86      0.00
    9   10    7     -0.38      0.00
  -10   11    7     -2.53      0.00
   -8   11    7      4.67      0.00
   -6   11    7     -5.58      0.00
   -4   11    7      3.16      0.00
   -2   11    7      0.19      0.00
    0   11    7     -1.49      0.00
    2   11    7      1.06      0.00
    4   11    7      0.06      0.00
    6   11    7     -2.67      0.00
    8   11    7      5.35      0.00
   10   11    7     -3.23      0.00
  -11   12    7      3.31      0.00
   -9   12    7     -7.07      0.00
   -7   12    7      9.47      0.00
   -5   12    7     -5.86      0.00
   -3   12    7      2.17      0.00
   -1   12    7     -5.20      0.00
    1   12    7      9.56      0.00
    3   12    7     -6.47      0.00
    5   12    7     -0.91      0.00
    7   12    7      3.47      0.00
    9   12    7     -0.67      0.00
   11   12    7     -2.74      0.00
  -12   13    7      5.20      0.00
  -10   13    7     -2.04      0.00
   -8   13    7      1.12      0.00
   -6   13    7     -2.18      0.00
   -4   13    7      3.25      0.00
   -2   13    7     -4.16      0.00
    0   13    7      4.61      0.00
    2   13    7     -3.78      0.00
    4   13    7      2.92      0.00
    6   13    7     -3.95      0.00
    8   13    7      4.98      0.00
   10   13    7     -1.92      0.00
   12   13    7     -3.84      0.00
  -13   14    7     -5.44      0.00
  -11   14    7      6.20      0.00
   -9   14    7     -9.81      0.00
   -7   14    7      9.88      0.00
   -5   14    7     -4.33      0.00
   -3   14    7      0.74      0.00
   -1   14    7     -2.12      0.00
    1   14    7      2.21      0.00
    3   14    7      0.74      0.00
    5   14    7     -1.10      0.00
    7   14    7     -1.95      0.00
    9   14    7      3.78      0.00
   11   14    7     -4.37      0.00
   13   14    7      6.24      0.00
  -12   15    7      5.85      0.00
  -10   15    7     -1.05      0.00
   -8   15    7     -0.67      0.00
   -6   15    7      0.48      0.00
   -4   15    7     -1.77      0.00
   -2   15    7      0.24      0.00
    0   15    7      5.72      0.00
    2   15    7     -8.24      0.00
    4   15    7      4.22      0.00
    6   15    7     -0.92      0.00
    8   15    7      1.04      0.00
   10   15    7      1.01      0.00
   12   15    7     -5.22      0.00
  -11   16    7      1.73      0.00
   -9   16    7     -4.71      0.00
   -7   16    7      6.28      0.00
   -5   16    7     -4.26      0.00
   -3   16    7      1.79      0.00
   -1   16    7     -0.34      0.00
    1   16    7     -1.82      0.00
    3   16    7      2.88      0.00
    5   16    7      0.31      0.00
    7   16    7     -4.84      0.00
    9   16    7      5.71      0.00
   11   16    7     -3.74      0.00
   -8   17    7      0.34      0.00
   -6   17    7     -0.57      0.00
   -4   17    7     -5.13      0.00
   -2   17    7      8.40      0.00
    0   17    7     -1.79      0.00
    2   17    7     -5.28      0.00
    4   17    7      3.67      0.00
    6   17    7      0.43      0.00
    8   17    7     -0.87      0.00
   -7   18    7      0.75      0.00
   -5   18    7     -2.03      0.00
   -3   18    7      0.98      0.00
   -1   18    7      0.72      0.00
    1   18    7     -0.76      0.00
    3   18    7     -0.66      0.00
    5   18    7      2.06      0.00
    7   18    7     -3.03      0.00
   -4   19    7     -4.13      0.00
   -2   19    7     10.63      0.00
    0   19    7     -7.28      0.00
    2   19    7     -0.45      0.00
    4   19    7      2.40      0.00
    0    0    8     -1.29      0.00
    1    1    8     -7.85      0.00
    0    2    8      2.11      0.00
    2    2    8     -2.68      0.00
   -1    3    8      9.84      0.00
    1    3    8     -9.49      0.00
    3    3    8     11.47      0.00
   -2    4    8     -3.20      0.00
    0    4    8      6.23      0.00
    2    4    8     -4.09      0.00
    4    4    8      0.65      0.00
   -3    5    8    -10.61      0.00
   -1    5    8      5.18      0.00
    1    5    8     -2.58      0.00
    3    5    8      5.35      0.00
    5    5    8     -8.53      0.00
   -4    6    8     -0.28      0.00
   -2    6    8      0.30      0.00
    0    6    8      2.86      0.00
    2    6    8     -4.69      0.00
    4    6    8      2.85      0.00
    6    6    8     -0.97      0.00
   -5    7    8      8.60      0.00
   -3    7    8     -5.89      0.00
   -1    7    8     -4.20      0.00
    1    7    8      8.40      0.00
    3    7    8     -4.41      0.00
    5    7    8     -0.04      0.00
    7    7    8      0.56      0.00
   -6    8    8     -0.40      0.00
   -4    8    8     -1.08      0.00
   -2    8    8      5.95      0.00
    0    8    8     -5.26      0.00
    2    8    8     -0.70      0.00
    4    8    8      2.41      0.00
    6    8    8      0.77      0.00
    8    8    8     -2.07      0.00
   -7    9    8      2.12      0.00
   -5    9    8      3.52      0.00
   -3    9    8     -1.01      0.00
   -1    9    8     -4.99      0.00
    1    9    8      6.10      0.00
    3    9    8     -3.39      0.00
    5    9    8      2.63      0.00
    7    9    8     -4.75      0.00
    9    9    8      6.87      0.00
   -8   10    8     -1.82      0.00
   -6   10    8      1.79      0.00
   -4   10    8     -2.75      0.00
   -2   10    8      6.60      0.00
    0   10    8     -8.88      0.00
    2   10    8      6.88      0.00
    4   10    8     -4.23      0.00
    6   10    8      2.86      0.00
    8   10    8     -0.94      0.00
   10   10    8     -0.22      0.00
   -9   11    8     -6.80      0.00
   -7   11    8      5.45      0.00
   -5   11    8     -3.78      0.00
   -3   11    8      1.72      0.00
   -1   11    8      4.04      0.00
    1   11    8     -9.32      0.00
    3   11    8      8.04      0.00
    5   11    8     -2.90      0.00
    7   11    8     -0.21      0.00
    9   11    8      1.13      0.00
   11   11    8     -2.14      0.00
  -10   12    8      1.49      0.00
   -8   12    8     -5.56      0.00
   -6   12    8      7.38      0.00
   -4   12    8     -4.83      0.00
   -2   12    8      2.36      0.00
    0   12    8     -4.75      0.00
    2   12    8      8.62      0.00
    4   12    8     -7.36      0.00
    6   12    8      1.50      0.00
    8   12    8      2.99      0.00
   10   12    8     -3.17      0.00
   12   12    8      0.76      0.00
  -11   13    8      3.08      0.00
   -9   13    8     -4.19      0.00
   -7   13    8      5.03      0.00
   -5   13    8     -6.39      0.00
   -3   13    8      2.20      0.00
   -1   13    8      9.02      0.00
    1   13    8    -16.09      0.00
    3   13    8     11.58      0.00
    5   13    8     -4.45      0.00
    7   13    8      4.45      0.00
    9   13    8     -7.19      0.00
   11   13    8      5.06      0.00
   -8   14    8     -8.29      0.00
   -6   14    8     10.57      0.00
   -4   14    8     -5.90      0.00
   -2   14    8     -0.77      0.00
    0   14    8      1.69      0.00
    2   14    8      1.80      0.00
    4   14    8     -2.27      0.00
    6   14    8     -1.37      0.00
    8   14    8      3.93      0.00
   -7   15    8      0.52      0.00
   -5   15    8     -2.00      0.00
   -3   15    8      0.78      0.00
   -1   15    8      3.64      0.00
    1   15    8     -5.19      0.00
    3   15    8      1.18      0.00
    5   15    8      1.60      0.00
    7   15    8      2.12      0.00
   -4   16    8     -3.23      0.00
   -2   16    8     -1.95      0.00
    0   16    8      4.04      0.00
    2   16    8     -3.17      0.00
    4   16    8      2.01      0.00
   -1   17    8     -2.71      0.00
    1   17    8      6.19      0.00
    0    1    9      3.77      0.00
   -1    2    9     -3.07      0.00
    1    2    9     -5.13      0.00
   -2    3    9    -13.67      0.00
    0    3    9      8.77      0.00
    2    3    9     -3.62      0.00
   -3    4    9      2.08      0.00
   -1    4    9     -2.93      0.00
    1    4    9     -5.32      0.00
    3    4    9     13.49      0.00
   -4    5    9     10.20      0.00
   -2    5    9    -12.07      0.00
    0    5    9      6.00      0.00
    2    5    9      1.27      0.00
    4    5    9     -1.95      0.00
   -5    6    9     -1.19      0.00
   -3    6    9     -1.56      0.00
   -1    6    9      2.62      0.00
    1    6    9     -6.66      0.00
    3    6    9      9.19      0.00
    5    6    9     -3.02      0.00
   -6    7    9      5.98      0.00
   -4    7    9      1.16      0.00
   -2    7    9     -2.44      0.00
    0    7    9     -3.51      0.00
    2    7    9      6.68      0.00
    4    7    9     -1.64      0.00
    6    7    9     -5.99      0.00
   -7    8    9      8.44      0.00
   -5    8    9      0.71      0.00
   -3    8    9     -9.77      0.00
   -1    8    9     10.19      0.00
    1    8    9     -5.44      0.00
    3    8    9      2.03      0.00
    5    8    9      1.46      0.00
    7    8    9     -7.57      0.00
   -8    9    9    -11.30      0.00
   -6    9    9      7.16      0.00
   -4    9    9      0.76      0.00
   -2    9    9      0.75      0.00
    0    9    9     -7.96      0.00
    2    9    9      7.55      0.00
    4    9    9      0.93      0.00
    6    9    9     -7.65      0.00
    8    9    9      8.65      0.00
   -9   10    9     -6.09      0.00
   -7   10    9      4.88      0.00
   -5   10    9      4.15      0.00
   -3   10    9    -10.36      0.00
   -1   10    9      5.28      0.00
    1   10    9      4.33      0.00
    3   10    9     -6.23      0.00
    5   10    9      1.69      0.00
    7   10    9     -1.15      0.00
    9   10    9      4.87      0.00
   -8   11    9     -7.55      0.00
   -6   11    9      0.85      0.00
   -4   11    9      7.02      0.00
   -2   11    9     -5.26      0.00
    0   11    9     -1.43      0.00
    2   11    9      1.88      0.00
    4   11    9      3.10      0.00
    6   11    9     -4.96      0.00
    8   11    9      2.42      0.00
   -5   12    9      2.40      0.00
   -3   12    9      1.17      0.00
   -1   12    9    -10.27      0.00
    1   12    9     14.92      0.00
    3   12    9     -9.03      0.00
    5   12    9     -0.50      0.00
   -4   13    9      7.78      0.00
   -2   13    9     -7.65      0.00
    0   13    9      5.65      0.00
    2   13    9     -4.67      0.00
    4   13    9      4.27      0.00
    1    1   10      3.57      0.00
    0    2   10      1.03      0.00
    2    2   10     -1.32      0.00
   -1    3   10      7.97      0.00
    1    3   10      6.36      0.00
    3    3   10    -14.27      0.00
   -2    4   10      0.70      0.00
    0    4   10     -0.04      0.00
    2    4   10     -0.89      0.00
    4    4   10     -1.81      0.00
   -3    5   10     -8.29      0.00
   -1    5   10      0.68      0.00
    1    5   10      7.22      0.00
    3    5   10     -9.11      0.00
    5    5   10      6.80      0.00
   -4    6   10      6.31      0.00
   -2    6   10      1.17      0.00
    0    6   10     -5.17      0.00
    2    6   10      4.04      0.00
    4    6   10     -4.81      0.00
    6    6   10      8.07      0.00
   -5    7   10      3.45      0.00
   -3    7   10      1.90      0.00
   -1    7   10     -8.99      0.00
    1    7   10      7.79      0.00
    3    7   10     -1.21      0.00
    5    7   10     -0.77      0.00
   -2    8   10     -0.05      0.00
    0    8   10     -6.04      0.00
    2    8   10      5.87      0.00
    2    2    0   -639.55      0.00
    0    8    0   -122.54      0.00
  -14   22    0      6.24      0.00
   14   22    0     -4.88      0.00
  -10   24    0     -6.10      0.00
   10   24    0      1.23      0.00
   -2   26    0      4.62      0.00
    0   26    0     -4.75      0.00
    2   26    0      1.35      0.00
  -12   23    1     -0.48      0.00
   12   23    1      1.40      0.00
   -1   26    1      0.62      0.00
    1   26    1     -3.66      0.00
   17   19    2      2.75      0.00
  -16   20    2     -0.48      0.00
   16   20    2      0.58      0.00
  -11   23    2      5.23      0.00
   11   23    2     -6.25      0.00
   -5   25    2     -2.11      0.00
    5   25    2     -3.74      0.00
  -15   20    3      3.79      0.00
   15   20    3     -0.45      0.00
  -10   23    3      4.94      0.00
   10   23    3     -4.52      0.00
   -7   24    3      2.78      0.00
    7   24    3     -1.01      0.00
   -2   25    3      1.08      0.00
    0   25    3      1.62      0.00
    2   25    3     -3.27      0.00
  -16   18    4     -3.41      0.00
   16   18    4     -5.26      0.00
  -15   19    4      1.63      0.00
   15   19    4     -6.06      0.00
  -10   22    4     -6.19      0.00
   10   22    4     -2.84      0.00
   -7   23    4     -4.53      0.00
    7   23    4     -4.40      0.00
   -4   24    4     -2.42      0.00
   -2   24    4      3.55      0.00
    2   24    4      4.97      0.00
    4   24    4     -2.77      0.00
   -7   22    5     -1.00      0.00
    7   22    5      4.68      0.00
   -2   23    5     -2.89      0.00
    0   23    5     -0.95      0.00
    2   23    5      3.97      0.00
  -12   18    6      1.60      0.00
   12   18    6      2.47      0.00
   -8   20    6     -3.03      0.00
    8   20    6     -1.96      0.00
   -5   21    6     -2.22      0.00
    5   21    6     -1.12      0.00
  -10   17    7      0.54      0.00
   10   17    7      1.33      0.00
  -10   14    8      3.21      0.00
   10   14    8     -2.88      0.00
   -6   16    8      6.76      0.00
    6   16    8     -1.80      0.00
   -3   17    8     -0.38      0.00
    3   17    8     -6.77      0.00
   -7   12    9      0.45      0.00
    7   12    9      3.72      0.00
   -1   14    9    -15.51      0.00
    1   14    9     13.18      0.00
   -4    8   10      6.97      0.00
    4    8   10     -3.58      0.00
   -3    9   10      4.32      0.00
   -1    9   10     -8.05      0.00
    1    9   10      5.23      0.00
    3    9   10      1.24      0.00
    0    0    0      0.00      0.00
# SQUEEZE RESULTS (Version = 260221)
# Note: Data are Listed for all Voids in the P1 Unit Cell
# i.e. Centre of Gravity, Solvent Accessible Volume,
# Recovered number of Electrons in the Void and
# Details about the Squeezed Material
loop_
  _platon_squeeze_void_nr
  _platon_squeeze_void_average_x
  _platon_squeeze_void_average_y
  _platon_squeeze_void_average_z
  _platon_squeeze_void_volume
  _platon_squeeze_void_count_electrons
  _platon_squeeze_void_content
   1  0.250  0.000  0.389       645       338 ' '
   2  0.250  0.500  0.899       645       338 ' '
   3  0.750  0.000  0.076       645       338 ' '
   4  0.749  0.500  0.594       645       338 ' '
# Missing Reflections Below sin(th)/lambda = 0.25
loop_
  _platon_missing_refln_index_h
  _platon_missing_refln_index_k
  _platon_missing_refln_index_l
  _platon_missing_refln_theta
    2    2    0     2.019
    0    8    0     5.718
_platon_squeeze_void_probe_radius                  1.20
_platon_squeeze_details
)
TITL er1658_a         I 41/a       R = 0.11
CELL   28.5320   28.5320   11.6640     90.00     90.00     90.00
SPGR I41/a
# Solvent Accessible Volume =      2553
# Electrons Found in S.A.V. =      1349
# Note: Atoms in Void are Labelled as Cxxx and Qxxx for all Others
C101 0.321 0.477 0.075 !       1.22 eA-3
C102 0.202 0.553 0.026 !       1.20 eA-3
C103 0.324 0.570 0.356 !       1.18 eA-3
C104 0.820 0.514 0.064 !       1.18 eA-3
C105 0.187 0.477 0.480 !       1.17 eA-3
C106 0.704 0.944 0.201 !       1.14 eA-3
C107 0.314 0.014 0.460 !       1.11 eA-3
C108 0.186 0.039 0.236 !       1.08 eA-3
C109 0.686 0.069 0.226 !       1.06 eA-3
C110 0.219 0.554 0.127 !       1.05 eA-3
C111 0.308 0.015 0.143 !       1.05 eA-3
C112 0.821 0.053 0.082 !       1.02 eA-3
C113 0.804 0.984 0.239 !       1.01 eA-3
C114 0.267 0.474-0.001 !       1.01 eA-3
Q115 0.347 0.995 0.342 !       1.00 eA-3
C116 0.790 0.466 0.390 !       0.99 eA-3
C117 0.304 0.507 0.312 !       0.95 eA-3
Q118 0.839 0.959 0.063 !       0.92 eA-3
C119 0.732 0.501 0.316 !       0.88 eA-3
C120 0.794 0.056 0.156 !       0.88 eA-3
Q121 0.773 0.906 0.095 !       0.86 eA-3
Q122 0.798 0.087 0.222 !       0.85 eA-3
C123 0.166 0.968 0.403 !       0.83 eA-3
C124 0.250 0.519 0.360 !       0.81 eA-3
Q125 0.322 0.889 0.160 !       0.78 eA-3
Q126 0.804 0.404 0.085 !       0.78 eA-3
Q127 0.795 0.594 0.451 !       0.78 eA-3
C128 0.234 0.913 0.418 !       0.75 eA-3
Q129 0.802 0.138 0.371 !       0.70 eA-3
Q130 0.371 0.998 0.229 !       0.69 eA-3
Q131 0.500 0.750 0.125 !       0.68 eA-3
Q132 0.398 0.411 0.429 !       0.61 eA-3
Q133 0.813 0.833 0.280 !       0.60 eA-3
Q134 0.856 0.462 0.222 !       0.59 eA-3
Q135 0.821 0.849 0.024 !       0.58 eA-3
Q136 0.821 0.342 0.266 !       0.57 eA-3
Q137 0.321 0.879 0.275 !       0.53 eA-3
Q138 0.308 0.854 0.349 !       0.53 eA-3
Q139 0.355 0.591 0.303 !       0.52 eA-3
)
;
_shelx_fab_checksum   97124

