 
data_er-1548_autored_a
 
_audit_creation_method            'SHELXL-2018/3'
_shelx_SHELXL_version_number      '2018/3'
_chemical_name_systematic         ?
_chemical_name_common             ?
_chemical_melting_point           ?
_chemical_formula_moiety          ?
_chemical_formula_sum
 'C H N O S Zn' 
_chemical_formula_weight          140.46

loop_
 _atom_type_symbol
 _atom_type_description
 _atom_type_scat_dispersion_real
 _atom_type_scat_dispersion_imag
 _atom_type_scat_source
 'C'  'C'   0.0033   0.0016
 'International Tables Vol C Tables 4.2.6.8 and 6.1.1.4'
 'H'  'H'   0.0000   0.0000
 'International Tables Vol C Tables 4.2.6.8 and 6.1.1.4'
 'N'  'N'   0.0061   0.0033
 'International Tables Vol C Tables 4.2.6.8 and 6.1.1.4'
 'O'  'O'   0.0106   0.0060
 'International Tables Vol C Tables 4.2.6.8 and 6.1.1.4'
 'S'  'S'   0.1246   0.1234
 'International Tables Vol C Tables 4.2.6.8 and 6.1.1.4'
 'Zn'  'Zn'   0.2839   1.4301
 'International Tables Vol C Tables 4.2.6.8 and 6.1.1.4'
 
_space_group_crystal_system       trigonal
_space_group_IT_number            167
_space_group_name_H-M_alt         'R -3 c :H'
_space_group_name_Hall            '-R 3 2"c'
 
_shelx_space_group_comment
;
The symmetry employed for this shelxl refinement is uniquely defined
by the following loop, which should always be used as a source of
symmetry information in preference to the above space-group names.
They are only intended as comments.
;
 
loop_
 _space_group_symop_operation_xyz
 'x, y, z'
 '-y, x-y, z'
 '-x+y, -x, z'
 'y, x, -z+1/2'
 'x-y, -y, -z+1/2'
 '-x, -x+y, -z+1/2'
 'x+2/3, y+1/3, z+1/3'
 '-y+2/3, x-y+1/3, z+1/3'
 '-x+y+2/3, -x+1/3, z+1/3'
 'y+2/3, x+1/3, -z+5/6'
 'x-y+2/3, -y+1/3, -z+5/6'
 '-x+2/3, -x+y+1/3, -z+5/6'
 'x+1/3, y+2/3, z+2/3'
 '-y+1/3, x-y+2/3, z+2/3'
 '-x+y+1/3, -x+2/3, z+2/3'
 'y+1/3, x+2/3, -z+7/6'
 'x-y+1/3, -y+2/3, -z+7/6'
 '-x+1/3, -x+y+2/3, -z+7/6'
 '-x, -y, -z'
 'y, -x+y, -z'
 'x-y, x, -z'
 '-y, -x, z-1/2'
 '-x+y, y, z-1/2'
 'x, x-y, z-1/2'
 '-x+2/3, -y+1/3, -z+1/3'
 'y+2/3, -x+y+1/3, -z+1/3'
 'x-y+2/3, x+1/3, -z+1/3'
 '-y+2/3, -x+1/3, z-1/6'
 '-x+y+2/3, y+1/3, z-1/6'
 'x+2/3, x-y+1/3, z-1/6'
 '-x+1/3, -y+2/3, -z+2/3'
 'y+1/3, -x+y+2/3, -z+2/3'
 'x-y+1/3, x+2/3, -z+2/3'
 '-y+1/3, -x+2/3, z+1/6'
 '-x+y+1/3, y+2/3, z+1/6'
 'x+1/3, x-y+2/3, z+1/6'
 
_cell_length_a                    12.3327(7)
_cell_length_b                    12.3327(7)
_cell_length_c                    69.664(3)
_cell_angle_alpha                 90
_cell_angle_beta                  90
_cell_angle_gamma                 120
_cell_volume                      9176.0(11)
_cell_formula_units_Z             102
_cell_measurement_temperature     293(2)
_cell_measurement_reflns_used     ?
_cell_measurement_theta_min       ?
_cell_measurement_theta_max       ?
 
_exptl_crystal_description        ?
_exptl_crystal_colour             ?
_exptl_crystal_density_meas       ?
_exptl_crystal_density_method     ?
_exptl_crystal_density_diffrn     2.593          
_exptl_crystal_F_000              6936
_exptl_transmission_factor_min    ?
_exptl_transmission_factor_max    ?
_exptl_crystal_size_max           ?
_exptl_crystal_size_mid           ?
_exptl_crystal_size_min           ?
_exptl_absorpt_coefficient_mu     7.177
_shelx_estimated_absorpt_T_min    ?
_shelx_estimated_absorpt_T_max    ?
_exptl_absorpt_correction_type    ?
_exptl_absorpt_correction_T_min   ?
_exptl_absorpt_correction_T_max   ?
_exptl_absorpt_process_details    ?
_exptl_absorpt_special_details    ?
_diffrn_ambient_temperature       293(2)
_diffrn_radiation_wavelength      0.71073
_diffrn_radiation_type            MoK\a
_diffrn_source                    ?
_diffrn_measurement_device_type   ?
_diffrn_measurement_method        ?
_diffrn_detector_area_resol_mean  ?
_diffrn_reflns_number             15024
_diffrn_reflns_av_unetI/netI      0.0639
_diffrn_reflns_av_R_equivalents   0.0820
_diffrn_reflns_limit_h_min        -16
_diffrn_reflns_limit_h_max        12
_diffrn_reflns_limit_k_min        -10
_diffrn_reflns_limit_k_max        15
_diffrn_reflns_limit_l_min        -90
_diffrn_reflns_limit_l_max        85
_diffrn_reflns_theta_min          3.018
_diffrn_reflns_theta_max          29.032
_diffrn_reflns_theta_full         25.242
_diffrn_measured_fraction_theta_max   0.911
_diffrn_measured_fraction_theta_full  0.996
_diffrn_reflns_Laue_measured_fraction_max    0.911
_diffrn_reflns_Laue_measured_fraction_full   0.996
_diffrn_reflns_point_group_measured_fraction_max   0.911
_diffrn_reflns_point_group_measured_fraction_full  0.996
_reflns_number_total              2490
_reflns_number_gt                 1423
_reflns_threshold_expression      'I > 2\s(I)'
_reflns_Friedel_coverage          0.000
_reflns_Friedel_fraction_max      .
_reflns_Friedel_fraction_full     .
 
_reflns_special_details
;
 Reflections were merged by SHELXL according to the crystal
 class for the calculation of statistics and refinement.
 
 _reflns_Friedel_fraction is defined as the number of unique
 Friedel pairs measured divided by the number that would be
 possible theoretically, ignoring centric projections and
 systematic absences. Completness statistics refer to single and
 composite reflections containing twin component 1 only.
;
 
_computing_data_collection        ?
_computing_cell_refinement        ?
_computing_data_reduction         ?
_computing_structure_solution     'SHELXT 2018/2 (Sheldrick, 2018)'
_computing_structure_refinement 'SHELXL-2018/3 (Sheldrick, 2018)'
_computing_molecular_graphics     ?
_computing_publication_material   ?
_refine_special_details
;
 Refined as a 2-component inversion twin.
;
_refine_ls_structure_factor_coef  Fsqd
_refine_ls_matrix_type            full
_refine_ls_weighting_scheme       calc
_refine_ls_weighting_details
'w=1/[\s^2^(Fo^2^)+(0.1000P)^2^] where P=(Fo^2^+2Fc^2^)/3'
_atom_sites_solution_primary      ?
_atom_sites_solution_secondary    ?
_atom_sites_solution_hydrogens    .
_refine_ls_hydrogen_treatment     undef
_refine_ls_extinction_method      none
_refine_ls_extinction_coef        .
_refine_ls_number_reflns          2490
_refine_ls_number_parameters      102
_refine_ls_number_restraints      0
_refine_ls_R_factor_all           0.2120
_refine_ls_R_factor_gt            0.1525
_refine_ls_wR_factor_ref          0.4211
_refine_ls_wR_factor_gt           0.3925
_refine_ls_goodness_of_fit_ref    2.369
_refine_ls_restrained_S_all       2.369
_refine_ls_shift/su_max           0.001
_refine_ls_shift/su_mean          0.000
 
loop_
 _atom_site_label
 _atom_site_type_symbol
 _atom_site_fract_x
 _atom_site_fract_y
 _atom_site_fract_z
 _atom_site_U_iso_or_equiv
 _atom_site_adp_type
 _atom_site_occupancy
 _atom_site_site_symmetry_order  
 _atom_site_calc_flag
 _atom_site_refinement_flags_posn
 _atom_site_refinement_flags_adp
 _atom_site_refinement_flags_occupancy
 _atom_site_disorder_assembly
 _atom_site_disorder_group
Zn01 Zn 0.666667 0.333333 0.333333 0.0471(8) Uani 1 6 d S T P . .
S1 S 0.3377(4) 0.3377(4) 0.250000 0.298(7) Uani 1 2 d S T P . .
N1 N 0.6769(5) 0.4798(6) 0.31476(7) 0.0550(16) Uani 1 1 d . . . . .
N2 N 0.4400(10) 0.4015(13) 0.26686(15) 0.221(9) Uani 1 1 d . . . . .
N3 N 1.000000 1.000000 0.2801(2) 0.084(4) Uani 1 3 d S T P . .
N004 N 0.6760(6) 0.5782(6) 0.28818(7) 0.0627(18) Uani 1 1 d . . . . .
C005 C 0.6485(8) 0.5996(7) 0.26899(9) 0.064(2) Uani 1 1 d . . . . .
C006 C 0.7276(7) 0.7023(7) 0.25993(9) 0.062(2) Uani 1 1 d . . . . .
C007 C 0.6197(7) 0.4651(8) 0.29781(9) 0.061(2) Uani 1 1 d . . . . .
C008 C 0.7644(9) 0.6032(8) 0.31596(10) 0.083(3) Uani 1 1 d . . . . .
C009 C 0.7687(10) 0.6674(8) 0.29976(12) 0.091(3) Uani 1 1 d . . . . .
C00B C 0.5351(9) 0.5091(10) 0.25948(13) 0.104(4) Uani 1 1 d . . . . .
O00C O 1.0218(8) 0.9100(9) 0.28082(14) 0.130(3) Uani 1 1 d . . . . .
 
loop_
 _atom_site_aniso_label
 _atom_site_aniso_U_11
 _atom_site_aniso_U_22
 _atom_site_aniso_U_33
 _atom_site_aniso_U_23
 _atom_site_aniso_U_13
 _atom_site_aniso_U_12
Zn01 0.0625(10) 0.0625(10) 0.0164(9) 0.000 0.000 0.0312(5)
S1 0.216(5) 0.216(5) 0.198(6) 0.145(5) -0.145(5) -0.090(6)
N1 0.065(4) 0.077(4) 0.025(3) 0.002(2) 0.002(2) 0.037(3)
N2 0.143(9) 0.214(12) 0.133(10) 0.111(9) -0.097(8) -0.040(8)
N3 0.084(6) 0.084(6) 0.084(10) 0.000 0.000 0.042(3)
N004 0.076(4) 0.075(4) 0.032(3) 0.007(3) -0.012(3) 0.034(3)
C005 0.091(6) 0.087(5) 0.031(3) 0.013(3) -0.010(3) 0.057(5)
C006 0.087(5) 0.073(5) 0.032(4) 0.006(3) -0.005(3) 0.044(4)
C007 0.083(5) 0.089(5) 0.024(3) 0.008(3) 0.002(3) 0.052(4)
C008 0.121(7) 0.067(5) 0.035(4) -0.003(4) -0.018(4) 0.028(5)
C009 0.108(7) 0.081(6) 0.053(5) 0.011(4) -0.030(5) 0.024(5)
C00B 0.093(7) 0.107(7) 0.058(6) 0.041(5) -0.030(5) 0.010(6)
O00C 0.116(6) 0.128(6) 0.162(8) 0.019(5) 0.021(5) 0.073(5)
 
_geom_special_details
;
 All esds (except the esd in the dihedral angle between two l.s. planes)
 are estimated using the full covariance matrix.  The cell esds are taken
 into account individually in the estimation of esds in distances, angles
 and torsion angles; correlations between esds in cell parameters are only
 used when they are defined by crystal symmetry.  An approximate (isotropic)
 treatment of cell esds is used for estimating esds involving l.s. planes.
;
 
loop_
 _geom_bond_atom_site_label_1
 _geom_bond_atom_site_label_2
 _geom_bond_distance
 _geom_bond_site_symmetry_2
 _geom_bond_publ_flag
Zn01 N1 2.173(6) 33_545 ?
Zn01 N1 2.173(6) 32 ?
Zn01 N1 2.173(6) 31_655 ?
Zn01 N1 2.173(6) 3_665 ?
Zn01 N1 2.173(6) 2_655 ?
Zn01 N1 2.173(6) . ?
S1 N2 1.612(9) 4 ?
S1 N2 1.612(9) . ?
N1 C007 1.341(8) . ?
N1 C008 1.359(10) . ?
N2 C00B 1.358(12) . ?
N3 O00C 1.267(9) . ?
N3 O00C 1.267(9) 2_765 ?
N3 O00C 1.267(9) 3_675 ?
N004 C007 1.381(9) . ?
N004 C009 1.382(10) . ?
N004 C005 1.436(7) . ?
C005 C006 1.310(10) . ?
C005 C00B 1.443(12) . ?
C006 C006 1.486(12) 4 ?
C008 C009 1.363(11) . ?
C00B C00B 1.433(15) 4 ?
 
loop_
 _geom_angle_atom_site_label_1
 _geom_angle_atom_site_label_2
 _geom_angle_atom_site_label_3
 _geom_angle
 _geom_angle_site_symmetry_1
 _geom_angle_site_symmetry_3
 _geom_angle_publ_flag
N1 Zn01 N1 88.2(2) 33_545 32 ?
N1 Zn01 N1 88.2(2) 33_545 31_655 ?
N1 Zn01 N1 88.2(2) 32 31_655 ?
N1 Zn01 N1 180.0 33_545 3_665 ?
N1 Zn01 N1 91.8(2) 32 3_665 ?
N1 Zn01 N1 91.8(2) 31_655 3_665 ?
N1 Zn01 N1 91.8(2) 33_545 2_655 ?
N1 Zn01 N1 180.0(3) 32 2_655 ?
N1 Zn01 N1 91.8(2) 31_655 2_655 ?
N1 Zn01 N1 88.2(2) 3_665 2_655 ?
N1 Zn01 N1 91.8(2) 33_545 . ?
N1 Zn01 N1 91.8(2) 32 . ?
N1 Zn01 N1 180.0 31_655 . ?
N1 Zn01 N1 88.2(2) 3_665 . ?
N1 Zn01 N1 88.2(2) 2_655 . ?
N2 S1 N2 101.1(8) 4 . ?
C007 N1 C008 105.9(6) . . ?
C007 N1 Zn01 127.2(5) . . ?
C008 N1 Zn01 125.3(5) . . ?
C00B N2 S1 106.5(7) . . ?
O00C N3 O00C 119.86(12) . 2_765 ?
O00C N3 O00C 119.86(12) . 3_675 ?
O00C N3 O00C 119.86(12) 2_765 3_675 ?
C007 N004 C009 108.6(6) . . ?
C007 N004 C005 126.3(6) . . ?
C009 N004 C005 125.1(7) . . ?
C006 C005 N004 119.7(7) . . ?
C006 C005 C00B 119.5(6) . . ?
N004 C005 C00B 120.8(7) . . ?
C005 C006 C006 121.2(4) . 4 ?
N1 C007 N004 109.0(7) . . ?
N1 C008 C009 112.2(7) . . ?
C008 C009 N004 104.2(7) . . ?
N2 C00B C00B 112.8(5) . 4 ?
N2 C00B C005 127.7(7) . . ?
C00B C00B C005 119.3(4) 4 . ?
 
_refine_diff_density_max    3.250
_refine_diff_density_min   -1.248
_refine_diff_density_rms    0.185

_shelx_res_file
;
TITL er-1548_autored_a.res in R-3c
    er-1548_autored_a.res
    created by SHELXL-2018/3 at 15:10:58 on 02-May-2023
REM Old TITL er-1548_autored in R-3c
REM SHELXT solution in R-3c: R1 0.351, Rweak 0.110, Alpha 0.033
REM <I/s>   0.365 for  304 systematic absences,  Orientation as input
REM Formula found by SHELXT:  C44 N6 O15 Zn
CELL  0.71073  12.3327  12.3327  69.6637   90.000   90.000  120.000
ZERR  102.000   0.0007   0.0007   0.0026    0.000    0.000    0.000
LATT  3
SYMM -Y, X-Y, Z
SYMM -X+Y, -X, Z
SYMM Y, X, 1/2-Z
SYMM X-Y, -Y, 1/2-Z
SYMM -X, -X+Y, 1/2-Z
SFAC C H N O S ZN
UNIT 102.00 102.00 102.00 102.00 102.00 102.00
OMIT -2 2 8
ACTA
OMIT -3 3 6
OMIT 0 0 12
OMIT -1 2 0
OMIT -2 2 2
OMIT -1 1 4
L.S. 10
BOND
LIST 4
FMAP 2
TWIN
PLAN 20
WGHT    0.100000
BASF   5.93443
FVAR       0.11649
ZN01  6    0.666667    0.333333    0.333333    10.16667    0.06247    0.06247 =
         0.01636    0.00000    0.00000    0.03124
S1    5    0.337658    0.337658    0.250000    10.50000    0.21570    0.21570 =
         0.19769    0.14491   -0.14491   -0.08995
N1    3    0.676911    0.479789    0.314764    11.00000    0.06520    0.07698 =
         0.02522    0.00249    0.00180    0.03730
N2    3    0.439967    0.401486    0.266859    11.00000    0.14260    0.21448 =
         0.13278    0.11054   -0.09717   -0.03990
N3    3    1.000000    1.000000    0.280147    10.33333    0.08380    0.08380 =
         0.08389    0.00000    0.00000    0.04190
N004  3    0.676028    0.578183    0.288181    11.00000    0.07590    0.07489 =
         0.03200    0.00724   -0.01169    0.03368
C005  1    0.648533    0.599621    0.268992    11.00000    0.09099    0.08659 =
         0.03054    0.01309   -0.01031    0.05721
C006  1    0.727621    0.702259    0.259931    11.00000    0.08704    0.07278 =
         0.03169    0.00626   -0.00468    0.04373
C007  1    0.619719    0.465100    0.297808    11.00000    0.08284    0.08918 =
         0.02382    0.00790    0.00189    0.05160
C008  1    0.764384    0.603243    0.315960    11.00000    0.12123    0.06737 =
         0.03537   -0.00344   -0.01820    0.02772
C009  1    0.768746    0.667356    0.299762    11.00000    0.10827    0.08093 =
         0.05250    0.01134   -0.03046    0.02370
C00B  1    0.535134    0.509053    0.259476    11.00000    0.09289    0.10688 =
         0.05823    0.04134   -0.02955    0.01000
O00C  4    1.021774    0.909993    0.280825    11.00000    0.11565    0.12764 =
         0.16250    0.01867    0.02135    0.07283
HKLF 4




REM  er-1548_autored_a.res in R-3c
REM wR2 = 0.4211, GooF = S = 2.369, Restrained GooF = 2.369 for all data
REM R1 = 0.1525 for 1423 Fo > 4sig(Fo) and 0.2120 for all 2490 data
REM 102 parameters refined using 0 restraints

END

WGHT      0.2000      0.0000

REM Highest difference peak  3.250,  deepest hole -1.248,  1-sigma level  0.185
Q1    1   0.6667  0.3333  0.2585  10.33333  0.05    1.20
Q2    1   0.3181  0.4451  0.2604  11.00000  0.05    0.98
Q3    1   1.0787  0.8939  0.3313  11.00000  0.05    0.86
Q4    1   0.6286  0.8160  0.3294  11.00000  0.05    0.85
Q5    1   0.6777  0.6777  0.2500  10.50000  0.05    0.64
Q6    1   0.8045  0.7754  0.2661  11.00000  0.05    0.62
Q7    1   0.5334  0.3682  0.2931  11.00000  0.05    0.61
Q8    1   1.0333  0.9436  0.2889  11.00000  0.05    0.58
Q9    1   0.8108  0.6362  0.3265  11.00000  0.05    0.55
Q10   1   1.1275  0.7577  0.3126  11.00000  0.05    0.48
Q11   1   0.6667  0.3333  0.2458  10.33333  0.05    0.46
Q12   1   0.8082  0.6584  0.2970  11.00000  0.05    0.46
Q13   1   1.0000  1.0000  0.3501  10.33333  0.05    0.42
Q14   1   0.3411  0.6320  0.2742  11.00000  0.05    0.39
Q15   1   1.0086  0.9316  0.2698  11.00000  0.05    0.39
Q16   1   0.7157  0.6443  0.2972  11.00000  0.05    0.39
Q17   1   0.3107  0.5556  0.2716  11.00000  0.05    0.37
Q18   1   0.8196  0.7388  0.2936  11.00000  0.05    0.36
Q19   1   0.8210  0.4893  0.3154  11.00000  0.05    0.36
Q20   1   0.2766  0.5177  0.2850  11.00000  0.05    0.32
;
_shelx_res_checksum   68805

_shelx_hkl_file
;
   0   0  -9    1.56    1.10
   0   0   9    0.20    0.88
   0   0  12 1366.43   24.63
   0   0 -12 1322.04   23.70
   0   0 -15   -0.08    1.09
   0   0  15    0.63    1.59
   0   0 -18   35.89    5.17
   0   0  18   35.15    5.10
   0   0  21    3.18    2.16
   0   0 -21    1.83    1.89
   0   0  24  246.72   14.73
   0   0 -24  232.50   14.27
   0   0  27    1.82    2.27
   0   0 -27    1.06    2.31
   0   0  30  148.90   13.34
   0   0 -30  143.12   12.45
   0   0  33    0.60    1.96
   0   0 -33    2.74    2.67
   0   0  36  321.84   20.70
   0   0 -36  321.69   20.72
   0   0  39    1.28    2.47
   0   0 -39    2.92    3.54
   0   0  42  384.31   25.55
   0   0 -42  407.72   26.33
   0   0  45    1.79    2.70
   0   0 -45    1.39    2.07
   0   0  48  230.13   20.76
   0   0 -48  253.53   21.81
   0   0  51    1.73    2.54
   0   0 -51   -7.45    5.63
   0   0  54  796.00   41.00
   0   0  57    2.15    2.80
   0   0  60  575.48   36.74
   0   0  63    0.55    2.25
   0   0  66  256.33   26.14
   0   0  69   -2.56    2.39
   0   0  72   18.53    8.38
   0   0  75   -2.54    4.38
   0   0  78    6.10    5.96
   0   0  81   11.73    6.73
   0   0  84    8.38    7.45
   1  -1  83   10.61    8.00
   0   1  83    0.09    3.17
  -1   0  83    0.11    5.38
   0   1  80   11.07    7.14
  -1   0  80    8.45    7.29
   1  -1  80    9.30    6.12
  -1   0  77   -7.12    5.05
   1  -1  77    0.41    2.70
   0   1  77    3.47    5.49
  -1   0  74    8.72    5.18
   1  -1  74   -2.04    3.45
   0   1  74    4.51    4.93
  -1   0  71    4.93    4.66
   1  -1  71   -0.13    2.49
   0   1  71   -3.78    3.25
  -1   0  68   37.65    9.86
   0   1  68   47.91   11.10
   1  -1  68   44.41   11.08
   0   1  65   -0.76    2.57
   1  -1  65    2.04    3.41
  -1   0  65   -0.55    2.39
  -1   0  62  154.10   19.72
   1  -1  62  172.83   20.89
   0   1  62  155.05   19.16
   0   1  59   -1.35    2.30
   1  -1  59    4.67    4.32
  -1   0  59   -0.49    1.98
   1  -1  56  438.85   31.28
  -1   0  56  415.16   30.40
   0   1  56  427.29   31.08
  -1   0  53   -3.09    3.84
   0   1  53   -1.31    3.15
   1  -1  53   -3.40    3.92
   0  -1 -53    2.12    2.39
   1  -1  50  541.84   32.61
  -1   0  50  564.17   33.61
   1   0 -50  564.87   33.04
  -1   1 -50  585.45   34.10
   0  -1 -50  656.70   36.86
   0  -1 -50  483.25   25.71
   0   1  50  569.76   33.30
  -1   0  47    1.35    2.26
   0   1  47   -0.79    2.86
  -1   1 -47   -6.39    5.05
   1  -1  47   -5.40    4.41
   0  -1 -47   -0.30    2.61
   1   0 -47    3.02    2.96
   0  -1 -47    1.42    2.25
   1  -1  44  189.45   18.51
   0  -1 -44  221.54   19.84
   0   1  44  212.87   19.23
  -1   1 -44  199.23   18.28
   1   0 -44  189.28   17.95
  -1   0  44  191.45   17.94
  -1   0  41   -1.02    2.30
   0   1  41   -4.19    4.23
  -1   1 -41   -7.13    4.44
   1  -1  41   -7.49    4.56
   1   0 -41   -3.00    3.41
   0  -1 -41   -2.26    3.19
   1  -1  38   17.17    5.32
   0   1  38   15.10    4.34
  -1   1 -38   19.19    5.41
  -1   0  38   12.25    4.48
   1   0 -38   15.88    5.35
   0  -1 -38   19.06    4.37
  -1   0  35   -3.37    2.72
   1  -1  35   -1.53    2.18
  -1   1 -35    1.77    2.52
   0   1  35    1.14    1.46
   0  -1 -35   -2.06    2.87
   1   0 -35    1.54    2.40
   1  -1  32  182.28   15.69
   0   1  32  215.71   16.12
  -1   0  32  188.92   14.76
   1   0 -32  205.30   15.62
  -1   1 -32  190.17   15.08
   0  -1 -32  220.52   16.11
  -1   0  29   10.26    4.25
   1  -1  29   -0.48    1.37
   0   1  29    2.84    2.48
  -1   1 -29    3.34    2.64
   1   0 -29    5.34    4.85
   0  -1 -29    1.90    2.36
   1  -1  26   48.45    7.54
   0  -1 -26   56.12    7.14
   0   1  26   52.32    7.21
  -1   0  26   50.90    6.99
   1   0 -26   46.77    6.51
  -1   1 -26   48.28    6.87
   1  -1  23    2.03    1.67
   0   1  23   -1.32    1.52
  -1   0  23    2.42    1.93
  -1   1 -23   -1.47    1.79
   1   0 -23    2.14    1.99
   0  -1 -23    1.03    1.24
   1  -1  20  271.94   14.95
  -1   1 -20  273.22   14.31
   0  -1 -20  252.29   13.61
   0  -1 -20  194.08    9.82
  -1   0  20  259.62   13.90
   1   0 -20  233.45   12.86
   0   1  20  253.70   13.43
  -1   1 -17   -0.37    1.09
   0   1  17    0.06    1.14
  -1   0  17   -0.05    1.54
   1  -1  17   -0.37    1.00
   0  -1 -17    0.96    0.72
   1   0 -17    1.22    1.95
   0  -1 -17    0.64    1.34
  -1   1 -14  598.14   18.45
   1  -1  14  594.11   18.00
   0   1  14  688.39   18.86
  -1   0  14  599.41   17.30
   1   0 -14  640.88   18.08
   0  -1 -14  695.30   18.84
   0  -1 -14  700.51   17.62
  -1   1 -11    1.63    1.15
   1  -1  11    0.51    0.97
  -1   0  11    0.30    0.98
   0   1  11    1.58    1.24
   0  -1 -11    0.91    0.94
   0   1  11    0.94    0.67
   1   0 -11   -0.80    1.21
   0  -1 -11    0.40    0.87
   1   0  -8  146.44    6.74
   0   1   8  161.18    6.92
  -1   0   8  131.49    6.21
   0  -1  -8  162.42    7.09
   1  -1   8   81.68    5.25
  -1   1  -8   95.35    5.51
  -1   1  -8  164.84    7.04
   0  -1  -8  158.75    6.31
   0   1   8  159.62    6.17
  -1   0   5   -0.30    0.41
   1   0  -5    0.20    0.45
   1  -1   5    1.28    0.75
  -1   1  -5   -0.08    0.50
   0  -1  -5    0.19    0.40
   0  -1   1    0.78    0.58
   0   1  -4 1120.13   13.79
   1  -1  -4  991.35   15.65
   0  -1   7    1.78    0.72
   1   0   7    1.27    0.58
  -1   0  -7    1.98    0.70
   0   1  -7    2.22    1.04
   1  -1  -7    1.01    0.76
  -1   1   7    0.83    0.82
   0   1 -10  799.18   17.02
   0  -1  10  858.29   17.76
   1   0  10  882.27   18.40
  -1   0 -10  944.60   18.96
  -1   1  10  828.54   18.15
   1  -1 -10  809.32   17.71
  -1   1  10  861.01   18.41
  -1   0 -13   -0.69    1.22
   0  -1  13   -0.28    1.24
   1   0  13    2.71    1.77
   0   1 -13    0.80    1.06
  -1   1  13   -1.30    1.33
  -1   1  13    1.43    0.90
   1  -1 -13   -1.22    1.17
   1  -1 -13    0.84    1.29
   0  -1  16 1300.14   27.65
   1   0  16 1381.98   28.71
   1  -1 -16 1348.96   28.65
   0   1 -16 1316.82   28.19
  -1   0 -16 1436.21   30.01
  -1   1  16 1389.49   29.11
   1  -1 -16 1387.02   28.67
   0   1 -19   -0.12    1.29
   0  -1  19   -0.84    1.24
   1   0  19    2.94    2.12
  -1   0 -19    0.92    1.73
  -1   1  19    0.49    1.59
   1  -1 -19    0.70    1.23
   1  -1 -19    1.16    1.31
   1   0  22   36.01    5.86
   0  -1  22   29.06    5.32
  -1   0 -22   44.66    6.36
   1  -1 -22   43.89    6.00
  -1   1  22   42.30    6.02
   0   1 -22   35.47    5.58
   1  -1 -22   31.63    4.25
   0  -1  25    0.01    1.74
  -1   0 -25    1.24    1.76
  -1   1  25   -0.74    1.39
   1   0  25    3.32    2.77
   0   1 -25    0.49    1.31
   1  -1 -25    0.59    1.76
   1  -1 -25    1.51    1.69
   1   0  28  830.73   30.42
   0  -1  28  779.14   29.57
   0   1 -28  852.73   30.16
  -1   1  28  869.71   29.61
   1  -1 -28  872.83   29.95
  -1   0 -28  907.86   30.67
   1  -1 -28  713.04   23.47
   0   1 -31    1.87    2.08
  -1   1  31    2.59    2.35
   1   0  31    2.59    2.80
   0  -1  31    1.96    2.43
  -1   0 -31    1.78    1.78
   1  -1 -31    2.84    1.86
   1  -1 -31    1.32    1.92
   1   0  34  155.12   14.30
   0  -1  34  151.78   14.23
  -1   0 -34  170.99   14.43
   1  -1 -34  130.37   11.07
   1  -1 -34  152.11   14.22
  -1   1  34  157.28   14.29
   0   1 -34  149.16   13.70
   0   1 -37   -0.21    1.40
  -1   1  37    1.13    1.81
   0  -1  37   -2.01    2.41
   1   0  37    0.02    1.77
  -1   0 -37    2.32    2.02
   1  -1 -37    2.15    1.47
   1  -1 -37    0.82    1.37
   0  -1  40   67.64   10.44
   1   0  40   77.53   11.00
   0   1 -40   82.01   11.06
  -1   0 -40   81.51   10.63
   1  -1 -40   68.06    8.58
   1  -1 -40   82.72   10.72
  -1   1  40   79.88   11.11
   1   0  43   -4.15    3.66
   0   1 -43   -3.09    3.28
   0  -1  43   -3.24    3.37
  -1   1  43    2.14    2.61
  -1   0 -43   -1.24    1.98
   1  -1 -43    2.12    2.65
   1  -1 -43   -0.08    2.30
   0  -1  46  455.08   27.89
   1   0  46  538.86   31.08
   0   1 -46  500.79   29.18
   1  -1 -46  420.83   23.34
   1  -1 -46  544.56   30.66
  -1   0 -46  562.97   31.60
  -1   1  46  513.05   29.96
   0   1 -49   -2.21    3.21
   1   0  49   -5.83    4.89
   0  -1  49   -1.71    3.43
  -1   1  49    4.25    3.96
   1  -1 -49    2.46    3.36
  -1   0 -49    1.95    2.01
   1  -1 -49    3.52    2.23
   0  -1  52  222.37   21.51
   1   0  52  218.24   20.94
  -1   1  52  228.36   21.84
   1  -1 -52  181.67   16.23
  -1   1  55   -8.68    5.89
   0  -1  55   -7.10    5.12
   1   0  55   -4.81    5.01
   0  -1  58  354.55   29.37
   1   0  58  362.64   29.08
  -1   1  58  326.58   27.06
  -1   1  61   -0.82    3.09
   1   0  61   -2.73    3.65
   0  -1  61   -2.89    4.86
   1   0  64  254.92   26.04
   0  -1  64  233.01   24.55
  -1   1  64  234.92   24.74
   1   0  67   -4.37    4.42
   0  -1  67   -6.26    5.05
  -1   1  67   -2.92    3.50
   0  -1  70   16.09    7.80
   1   0  70   19.93    8.50
  -1   1  70   20.64    7.81
   0  -1  73    3.18    2.93
   1   0  73   -3.76    4.83
  -1   1  73    0.70    2.77
  -1   1  76    4.24    5.32
   0  -1  76    4.21    3.50
   1   0  76   -9.28    6.56
  -1   1  79    0.49    4.10
   0  -1  79   -1.50    3.34
   1   0  79   -7.46    5.20
   1   0  82   19.14    8.29
   0  -1  82   18.96    7.53
  -1   1  82   18.52    8.70
   0  -1  85   -3.00    3.50
   1  -2   0  709.61   15.20
   2  -1   0  704.66   13.46
  -1   2   0  707.46   14.88
  -2   1   0  727.70   13.78
   2  -1   3  529.82   11.00
  -1   2   3  538.03   13.34
   1  -2   3  558.95   14.44
   1  -2  -3  522.89   13.05
  -1   2  -3  527.95   13.37
  -2   1  -3  555.50   11.46
  -2   1   3  561.85   13.22
   2  -1  -3  527.56   12.80
  -1  -1  -6 1861.66   20.22
   1   1  -6 1811.56   20.22
   1   1   6 1880.24   19.99
  -1  -1   6 1793.29   20.33
   1  -2   6 1904.74   27.88
   2  -1   6 1884.90   21.69
   1  -2  -6 1880.44   26.39
  -2   1  -6 1969.17   22.37
  -1   2  -6 1874.56   26.90
  -1   2   6 1943.43   26.61
  -2   1   6 1888.33   27.01
   2  -1  -6 1831.28   26.03
  -1  -1  -9 1046.10   18.38
   1   1   9 1012.85   18.00
   1   1  -9  907.83   17.10
  -2   1  -9  973.66   19.91
  -1  -1   9  925.27   17.08
  -2   1  -9  983.21   17.69
  -1   2  -9  912.58   20.68
   2  -1   9  954.95   17.33
   1  -2   9  902.24   20.77
  -1   2   9  969.41   20.07
  -1  -1  -9  921.37   13.49
   1  -2  -9  983.85   20.88
  -2   1   9  955.46   20.75
   2  -1  -9  939.94   20.62
  -2   1  12  108.55    7.44
   1   1 -12   88.99    6.12
  -1  -1 -12  125.69    7.38
   1   1  12  117.47    7.20
  -2   1 -12  107.67    7.10
   2  -1  12  103.63    7.04
  -1  -1  12   87.82    6.03
  -1   2 -12  109.20    7.11
  -2   1 -12   88.45    5.70
  -1   2 -12   91.07    6.94
   2  -1 -12   95.74    6.97
  -1   2  12  112.65    7.32
  -2   1  12   90.31    6.48
   1  -2 -12  101.51    7.06
  -1  -1 -12  103.92    5.33
   2  -1  15  225.34   11.48
  -2   1 -15  253.85   12.93
  -1  -1  15  235.29   11.43
  -1   2 -15  237.90   12.00
   1  -2  15  221.37   11.27
  -1  -1 -15  278.24   12.49
  -1   2  15  233.90   11.99
   1   1 -15  220.97   11.01
  -2   1  15  222.04   11.51
   1   1  15  262.77   12.49
   2  -1 -15  221.15   11.76
  -1   2  15  240.48   11.47
   1  -2 -15  231.78   11.34
  -1  -1 -15  216.93    8.76
  -1  -1  18 2258.14   38.97
  -1   2 -18 2458.05   42.23
  -2   1 -18 2224.96   40.47
   1  -2  18 2270.06   39.01
   2  -1  18 2307.82   38.78
  -2   1  18 2468.75   44.07
   1   1  18 2448.55   40.60
   1   1 -18 2245.34   38.96
  -1  -1 -18 2475.10   40.43
  -1   2  18 2313.52   40.68
  -1   2  18 2413.25   40.28
   2  -1 -18 2275.87   41.24
   1  -2 -18 2350.15   39.84
   1   1  21   18.36    4.13
  -2   1 -21    8.51    2.47
   2  -1  21   13.82    3.82
  -1   2 -21   15.43    3.71
   1   1 -21   13.47    3.40
   1  -2  21   11.93    3.01
  -1  -1  21   12.22    3.52
  -1  -1 -21   14.59    3.66
   2  -1 -21   13.91    3.61
  -1   2  21   12.49    3.34
  -1   2  21   10.55    2.07
   2  -1 -21   12.85    3.68
   1  -2 -21    8.97    2.39
  -2   1  21   12.95    3.37
   2  -1  24  171.92   12.73
  -2   1 -24  191.46   13.41
  -1  -1  24  179.53   12.69
   1  -2  24  178.56   12.97
  -1   2 -24  183.79   13.02
   1  -2 -24  171.01   12.64
  -1   2  24  167.38   12.75
   1   1  24  189.44   13.02
  -2   1  24  164.54   12.16
  -1  -1 -24  187.75   12.74
   2  -1 -24  160.37   11.98
   1   1 -24  165.73   11.86
   2  -1 -24  144.67   10.81
   1  -2 -24  173.93   12.05
   1  -2  27   87.48    9.68
  -1  -1  27   90.81    9.52
   2  -1  27   86.27   10.36
  -1   2 -27   87.43    9.64
  -1  -1 -27  103.73   10.11
   1   1  27   97.50    9.96
   1   1 -27   80.96    8.74
   2  -1 -27   90.15    9.53
  -2   1 -27   99.09   10.38
  -1   2  27   92.31    9.69
  -2   1  27   80.98    8.87
   1  -2 -27   95.10   10.04
   2  -1 -27   69.06    7.42
   1  -2 -27  100.73    9.72
  -2   1  30    5.96    3.43
  -1  -1  30    3.53    2.95
  -1   2  30    3.15    2.78
   1   1 -30    4.32    2.26
  -1   2 -30    2.55    1.46
  -2   1 -30    2.43    1.30
   1   1  30    4.49    2.20
   2  -1  30    2.39    2.57
   1  -2  30    4.08    2.26
   1  -2 -30    2.06    1.97
   2  -1 -30    5.30    3.27
   2  -1 -30    8.54    4.45
  -1  -1 -30    4.57    2.61
   1  -2 -30    4.02    1.97
   1  -2  33  311.46   19.93
   2  -1  33  318.40   20.33
  -1  -1  33  323.27   20.07
  -1   2 -33  330.70   20.72
   2  -1 -33  327.64   20.27
   1   1  33  346.20   21.07
   1  -2 -33  345.47   20.85
  -1  -1 -33  373.09   21.58
  -2   1 -33  346.78   20.99
  -2   1  33  335.96   20.44
  -1   2  33  359.87   21.65
   1   1 -33  313.30   19.72
   1  -2 -33  344.96   19.71
   2  -1 -33  252.95   15.38
   2  -1  36  637.36   30.38
   1  -2  36  601.42   29.13
  -1  -1  36  607.86   28.70
  -1   2 -36  622.99   29.26
  -1  -1 -36  731.90   31.86
  -1   2  36  636.91   29.09
   1   1  36  682.29   30.79
   1   1 -36  591.30   27.68
  -2   1  36  661.15   30.69
  -2   1 -36  676.89   30.79
   2  -1 -36  645.67   29.75
   1  -2 -36  687.47   30.66
   1  -2 -36  680.01   28.95
   2  -1 -36  491.05   22.21
   2  -1  39  263.56   20.66
  -1  -1  39  254.43   19.38
   1  -2  39  260.92   19.98
   1   1  39  277.19   20.38
  -2   1 -39  291.78   21.24
  -1  -1 -39  290.46   20.87
   2  -1 -39  279.18   20.48
  -2   1  39  267.10   20.22
  -1   2 -39  269.09   20.51
  -1   2  39  285.93   20.95
   1  -2 -39  292.94   20.87
   1   1 -39  258.78   19.41
   2  -1 -39  208.11   15.11
   1  -2 -39  281.49   19.64
   1  -2  42  174.36   17.18
  -1  -1  42  172.10   16.82
   2  -1  42  179.14   17.79
  -1  -1 -42  221.61   19.01
   1   1 -42  177.49   16.88
  -2   1 -42  205.48   18.51
  -1   2 -42  184.90   17.44
   1   1  42  177.25   16.90
   2  -1 -42  194.29   17.62
  -2   1  42  190.32   17.74
  -1   2  42  197.77   18.10
   1  -2 -42  205.44   18.15
   2  -1 -42  142.37   12.98
   1  -2 -42  199.81   17.17
   2  -1  45    5.54    3.33
   1   1  45    8.51    4.32
  -1   2 -45    4.20    2.64
  -1   2  45    6.88    3.49
  -2   1 -45    8.10    3.96
  -1  -1  45    4.71    2.86
   1  -2  45    3.93    2.52
  -2   1  45    5.88    3.86
   2  -1 -45    7.11    4.61
   1   1 -45    9.51    4.00
   1  -2 -45    4.55    3.53
   1  -2 -45    5.83    3.83
  -1  -1 -45    7.80    4.19
   2  -1 -45    4.12    2.52
   2  -1  48   81.13   12.33
  -1  -1  48   73.12   11.83
   1   1  48   86.13   13.30
   1  -2  48   86.79   12.92
   1   1 -48   76.99   12.02
  -1   2  48   80.73   12.33
  -1   2 -48   69.47   11.83
  -1  -1 -48   96.56   13.54
   2  -1 -48   78.08   12.07
  -2   1  48   78.91   12.15
  -2   1 -48   91.48   13.37
   1  -2 -48   76.84   11.61
   1  -2 -48   85.69   11.76
   2  -1 -48   64.64    9.36
  -1   2  51   25.22    7.28
   2  -1  51   24.51    7.12
  -2   1  51   27.56    7.38
   1  -2  51   19.83    5.65
   1   1  51   30.62    7.95
  -1  -1  51   19.19    6.01
  -2   1 -51   14.58    5.34
  -1  -1 -51   28.25    7.68
   2  -1 -51   21.33    5.96
   1  -2 -51   25.33    6.47
   2  -1 -51   28.30    7.46
   1   1 -51   14.21    4.32
  -1  -1 -51   18.40    4.71
   1  -2  54  276.64   23.88
  -1  -1  54  252.16   22.70
   2  -1  54  292.74   24.49
   1   1  54  290.25   24.69
  -2   1  54  278.25   24.80
  -1   2  54  283.67   24.41
  -1  -1 -54  231.61   18.03
   1  -2 -54  290.14   23.62
   1  -2  57   -5.86    5.41
   2  -1  57   -7.86    6.03
  -2   1  57   -1.13    2.88
  -1   2  57    2.51    4.37
   1   1  57    5.76    5.07
  -1  -1  57   -2.60    3.81
  -1  -1 -57    2.00    2.55
   1   1  60   89.83   14.58
  -1  -1  60   93.37   15.45
   2  -1  60   97.65   15.10
   1  -2  60   93.18   14.88
  -2   1  60   87.54   14.49
  -1   2  60  102.52   16.14
  -2   1  63    7.04    4.35
   1   1  63   12.56    6.17
  -1   2  63   -1.79    3.49
  -1  -1  63   12.89    5.86
   2  -1  63    5.87    3.13
   1  -2  63   -2.37    4.87
   1   1  66   15.40    6.11
  -1   2  66   17.31    7.19
  -1  -1  66   12.87    6.22
   2  -1  66    9.20    5.98
   1  -2  66   21.61    7.93
  -2   1  66   13.94    6.95
  -1   2  69   69.51   14.80
   1  -2  69   62.96   12.87
   1   1  69   70.56   14.51
  -2   1  69   70.07   14.46
   2  -1  69   50.36   12.15
  -1  -1  69   58.67   12.43
  -1   2  72   49.47   11.93
  -2   1  72   47.05   11.77
   1  -2  72   52.64   12.69
  -1  -1  72   48.80   12.66
   1   1  72   59.13   14.18
   2  -1  72   58.75   13.81
  -1   2  75    1.54    5.34
  -2   1  75    1.46    3.65
  -1  -1  75   -5.08    6.59
   1  -2  75    5.70    5.72
   2  -1  75    9.56    6.01
   1   1  75   -7.89    7.34
  -2   1  78   25.63    6.98
  -1   2  78   31.01    9.32
   1   1  78   40.99   11.28
   2  -1  78   34.74   10.97
   1  -2  78   32.65   10.78
  -1  -1  78   30.54   11.49
   1   1  81   -0.50    3.90
  -1  -1  81    3.23    2.90
  -1   2  81    0.34    3.87
   2  -1  81    9.00    4.97
  -2   1  81    2.52    2.90
   1  -2  81    6.00    7.04
   1  -2  84   30.99   11.38
  -2   1  84   18.09    8.27
   1   1  84   24.87   10.99
  -1  -1  84   17.35    8.03
   2  -1  84   16.34    8.52
  -1   2  84   32.75    9.91
  -2   0  82   43.37   13.55
   0   2  82   41.89   12.41
   2  -2  82   45.05   12.57
  -2   0  79    2.53    3.75
   0   2  79   -1.42    3.66
   2  -2  79    5.40    6.15
   2  -2  76   30.98   10.14
   0   2  76   22.10    8.01
  -2   0  76   24.35    9.11
  -2   0  73   -2.55    3.42
   2  -2  73    2.19    3.69
   0   2  73    6.71    6.02
   2  -2  70   16.83    6.53
  -2   0  70   10.54    5.79
   0   2  70   12.63    4.81
   0   2  67    0.47    3.14
   2  -2  67   -1.44    4.85
  -2   0  67    0.01    2.31
  -2   0  64   11.54    5.63
   0   2  64   13.43    5.80
   2  -2  64   10.34    5.12
  -2   0  61   -2.06    3.93
   0   2  61   -1.07    4.28
   2  -2  61  -10.29    6.25
   2  -2  58   44.19    9.74
  -2   0  58   44.57    9.98
   0   2  58   43.68   10.19
   0   2  55   -4.24    5.27
   2  -2  55   -7.76    5.52
  -2   0  55   -0.84    3.50
   0  -2 -55   -0.93    2.82
   2  -2  52  257.43   22.58
   0   2  52  273.29   23.91
  -2   0  52  246.67   22.55
   0  -2 -52  283.30   22.24
   2  -2  49   -4.99    3.94
   0   2  49   -1.86    3.30
  -2   0  49   -1.92    2.84
  -2   2 -49   -3.68    3.11
   2   0 -49   -3.30    3.71
   0  -2 -49   -4.26    3.23
   0  -2 -49    1.38    2.75
   2  -2  46  281.54   22.28
  -2   0  46  289.64   23.26
   0   2  46  297.81   23.02
   0  -2 -46  327.08   24.21
  -2   2 -46  286.46   23.26
   2   0 -46  283.80   22.66
   0  -2 -46  321.74   22.15
   2  -2  43    1.18    2.14
   0   2  43    4.56    4.28
  -2   2 -43   -2.23    2.46
  -2   0  43   -3.08    2.92
   0  -2 -43    0.77    2.23
   0  -2 -43    0.47    2.12
   2   0 -43    1.12    1.62
   2  -2  40  376.43   23.86
  -2   0  40  352.82   23.22
   0  -2 -40  438.20   26.01
  -2   2 -40  408.50   25.33
   2   0 -40  406.79   25.41
   0   2  40  411.56   25.39
   0  -2 -40  433.39   23.72
  -2   0  37   -2.84    2.90
   2  -2  37    2.02    2.94
  -2   2 -37   -0.41    1.73
   0   2  37    2.69    3.05
   2   0 -37   -2.70    3.10
   0  -2 -37   -1.15    1.88
   0  -2 -37    0.41    1.47
   2  -2  34  325.07   20.27
  -2   2 -34  351.90   21.91
   0  -2 -34  386.03   22.52
   2   0 -34  368.86   22.64
   0   2  34  387.61   22.70
  -2   0  34  332.52   20.86
   0  -2 -34  388.40   20.38
  -2   0  31    3.10    2.70
  -2   2 -31    2.54    2.04
   2  -2  31    1.69    1.87
   0   2  31   -0.11    1.78
   0  -2 -31   -0.32    1.38
   2   0 -31    0.08    1.92
   0  -2 -31   -0.06    1.54
   2  -2  28  139.67   11.80
  -2   2 -28  141.69   12.40
   0  -2 -28  167.22   13.36
   0   2  28  158.12   12.80
  -2   0  28  134.46   11.96
   2   0 -28  152.94   13.07
   0  -2 -28  155.99   11.85
  -2   0  25    2.04    1.85
   0   2  25   -0.14    1.55
  -2   2 -25    0.64    1.72
   2  -2  25   -1.63    1.27
   0  -2 -25   -0.97    1.33
   2   0 -25    1.96    2.64
   0  -2 -25    0.73    1.59
   2  -2  22  834.46   26.65
  -2   2 -22  865.08   28.50
   0   2  22  930.21   28.17
   0  -2 -22  941.21   28.22
  -2   0  22  891.23   27.25
   2   0 -22  896.42   27.25
   0  -2 -22  945.13   25.70
   0  -2 -19   -1.76    1.45
   0   2  19   -0.30    1.09
   0   2  19    1.17    1.44
   2   0 -19    2.14    1.69
   0  -2 -19   -0.21    1.38
  -2   2 -19    0.45    1.22
  -2   0  19    0.61    1.21
   2  -2  19    0.77    1.38
  -2   2 -19   -1.50    1.75
   0   2  16   26.72    3.66
   0   2  16   25.79    4.01
   2   0 -16   19.90    3.34
  -2   0  16   21.01    3.64
  -2   2 -16   18.77    3.76
  -2   2 -16   29.61    4.41
   0  -2 -16   28.34    3.95
   2   0 -13    0.91    1.29
  -2   0  13    1.90    1.63
   0   2  13    0.24    0.84
   0   2  13    0.25    1.13
  -2   2 -13    1.77    1.17
  -2   2 -13    1.59    1.41
   0  -2 -13    1.77    1.52
  -2   0  10  310.29   11.05
   2  -2  10  299.81   12.04
  -2   2 -10  296.23   11.86
   0   2  10  324.37   10.57
   0  -2 -10  311.65   10.71
  -2   0   7    0.04    0.86
   2   0  -7   -2.13    1.33
  -2   2  -7   -2.38    1.44
   2  -2   7   -0.83    1.02
   0   2   7   -0.33    0.75
   0  -2  -7    1.13    1.03
   0   2   4 1804.70   21.94
   2  -2   4 1754.22   25.88
   0  -2  -4 1814.50   22.52
  -2   2  -4 1810.01   26.23
   2   0  -4 1797.91   22.77
   2   0  -1    0.64    0.59
  -2   0   1   -0.19    0.55
   0  -2  -1    0.48    0.70
   0   2   1   -0.13    0.65
   2  -2   1    0.43    0.95
  -2   2  -1   -0.43    0.79
  -2   2   2  196.35    8.74
   0   2  -2  194.16    7.86
   0  -2   2  182.89    7.69
   2  -2  -2  185.68    8.38
  -2   0  -5   -0.08    0.54
   0  -2   5   -0.12    0.95
   0   2  -5   -0.24    0.79
  -2   2   5   -0.42    1.29
   2  -2  -5   -0.06    0.99
   0   2  -8 9714.68   60.08
   2   0   8 9999.00   54.28
  -2   0  -8 9996.87   56.88
   0   2  -8 9867.26   68.17
   2  -2  -8 9748.01   70.09
  -2   2   8 9779.39   69.27
   0   2 -11   -0.32    0.94
   0  -2  11    1.00    1.30
   2   0  11   -0.14    1.16
  -2   0 -11    0.62    0.88
  -2   2  11    0.80    1.69
   2  -2 -11   -0.26    1.02
   2   0  14 3671.68   44.34
   0   2 -14 3573.40   45.43
   0  -2  14 3465.44   42.16
  -2   0 -14 3724.45   44.38
  -2   2  14 3616.48   47.60
   2  -2 -14 3514.62   47.18
   0  -2  17   -1.48    2.22
   0   2 -17   -1.03    1.48
   2   0  17   -2.32    1.31
  -2   0 -17    0.33    1.29
   2  -2 -17    1.17    2.02
  -2   2  17    3.07    2.05
  -2   2  17    3.25    2.44
   0   2 -20   31.82    4.84
   0  -2  20   25.61    4.58
   2   0  20   29.90    5.16
  -2   0 -20   36.00    5.34
  -2   2  20   32.71    4.86
  -2   2  20   40.85    5.92
   2  -2 -20   35.76    5.53
   0  -2  23   -0.73    1.33
  -2   0 -23    1.96    2.05
   2   0  23    0.68    1.56
   0   2 -23   -0.30    1.11
  -2   2  23   -0.66    1.61
   2  -2 -23    0.26    1.62
   0  -2  26  550.65   23.55
   2   0  26  556.90   23.44
  -2   0 -26  618.73   25.01
   0   2 -26  572.45   24.18
  -2   2  26  550.57   23.65
   2  -2 -26  564.76   23.41
   0  -2  29    0.46    1.66
  -2   0 -29   -1.62    2.21
   2   0  29    3.16    2.39
   0   2 -29    2.45    2.85
   2  -2 -29   -1.00    2.18
  -2   2  29    1.76    2.17
   0  -2  32  160.53   14.38
   2   0  32  151.94   13.27
   0   2 -32  154.03   13.68
  -2   2  32  181.35   15.01
  -2   0 -32  198.60   15.70
   2  -2 -32  183.79   14.91
   0   2 -35   -1.01    2.39
   2   0  35   -1.97    2.40
  -2   0 -35    1.57    2.57
  -2   2  35    2.61    2.61
   0  -2  35    0.57    1.73
   2  -2 -35    0.07    1.94
   2  -2 -35   -1.71    1.60
   0  -2  38  472.09   27.56
   2   0  38  459.30   25.83
  -2   2  38  474.54   26.50
   2  -2 -38  468.24   26.41
  -2   0 -38  500.75   26.43
   0   2 -38  455.32   26.25
   2  -2 -38  473.51   25.58
  -2   0 -41   -5.30    4.29
   0  -2  41    3.26    2.26
   2   0  41   -2.71    3.21
  -2   2  41    1.67    2.94
   0   2 -41   -4.09    3.63
   2  -2 -41   -0.68    2.60
   2  -2 -41    0.45    1.76
   0  -2  44    0.40    2.41
  -2   0 -44    2.56    2.44
   0   2 -44    3.23    3.53
  -2   2  44   -3.77    3.85
   2   0  44   -0.32    1.56
   2  -2 -44   -0.53    3.27
   2  -2 -44   -5.52    4.79
  -2   0 -47   -2.19    3.82
   0   2 -47   -5.42    3.95
   0  -2  47    2.79    1.98
   2   0  47   -3.67    3.83
  -2   2  47   -0.38    2.32
   2  -2 -47    2.20    2.84
   2  -2 -47   -1.38    3.29
   2   0  50  118.43   16.25
   0  -2  50  109.56   15.45
   2  -2 -50  127.22   15.84
  -2   0 -50  143.12   16.99
  -2   2  50  121.53   15.67
   0   2 -50  104.10   14.43
   2  -2 -50  123.59   15.01
  -2   2  53    1.40    4.08
   2   0  53   -6.33    5.38
   0  -2  53   -4.11    4.42
   2   0  56   62.51   11.99
   0  -2  56   66.34   11.86
  -2   2  56   65.60   12.50
   2   0  59   -3.11    4.13
  -2   2  59    4.12    4.43
   0  -2  59   -2.45    4.00
   2   0  62   40.69   10.57
   0  -2  62   43.98   10.39
  -2   2  62   56.54   12.10
  -2   2  65    0.11    2.63
   2   0  65   -3.37    2.94
   0  -2  65    2.44    2.82
   0  -2  68   80.33   14.52
   2   0  68   83.83   15.92
  -2   2  68   92.43   16.30
   0  -2  71   -5.73    6.18
   2   0  71   -3.00    5.33
  -2   2  71    1.35    4.86
   2   0  74  115.85   19.84
   0  -2  74  125.86   19.75
  -2   2  74  124.49   20.56
  -2   2  77    6.23    4.96
   0  -2  77    0.19    3.23
   2   0  77   -2.76    5.59
   2   0  80   29.75   11.14
   0  -2  80   24.99    9.78
  -2   2  80    8.19    4.76
   2   0  83   -0.15    3.91
  -2   2  83    0.19    3.91
   0  -2  83   -0.36    4.96
  -2  -1  83    4.39    6.53
   1   2  83    0.29    3.94
   2  -3  83    9.07    6.96
  -1   3  83   11.05    6.63
  -3   1  83    1.71    3.42
   3  -2  83    2.45    2.96
  -1   3  80   29.77   11.11
  -2  -1  80   22.30    9.91
   1   2  80   33.97   10.65
   2  -3  80   38.37   10.91
  -3   1  80   29.64   10.82
   3  -2  80   36.66   10.63
   2  -3  77   -4.57    5.68
  -3   1  77    0.35    3.35
   1   2  77   -4.61    4.58
  -1   3  77    5.15    6.35
  -2  -1  77   -2.38    2.99
   3  -2  77    2.68    4.37
   1   2  74   36.83   10.55
   3  -2  74   38.49   10.71
   2  -3  74   32.70    9.94
  -1   3  74   41.98   12.04
  -3   1  74   28.55    9.10
  -2  -1  74   40.78   11.93
  -1   3  71   14.36    7.40
  -2  -1  71   10.60    4.92
   3  -2  71    9.23    4.55
   2  -3  71   15.32    4.88
   1   2  71   19.04    7.28
  -3   1  71   20.90    8.70
   1   2  68   37.92   10.97
  -2  -1  68   41.43   11.06
  -1   3  68   39.91   10.86
   2  -3  68   43.65   10.34
  -3   1  68   43.23   10.87
   3  -2  68   44.91   11.27
   3  -2  65   69.73   13.52
   1   2  65   58.72   12.56
  -1   3  65   63.48   13.67
  -2  -1  65   55.95   12.95
   2  -3  65   55.57   11.00
  -3   1  65   54.78   12.04
   2  -3  62    2.76    2.18
  -2  -1  62    8.73    5.04
  -1   3  62    0.71    3.57
   1   2  62    8.51    5.40
  -3   1  62   14.78    7.57
   3  -2  62    4.14    3.40
   3  -2  59    6.62    3.24
   1   2  59   14.88    6.24
  -2  -1  59   12.55    6.34
   2  -3  59   12.44    5.19
  -3   1  59   16.78    7.35
  -1   3  59   13.18    6.26
  -2  -1  56   72.69   13.23
  -3   1  56   62.25   11.70
   2  -3  56   82.49   12.83
   3  -2  56   92.21   13.97
   1   2  56   88.29   14.26
  -1   3  56   78.59   13.23
  -1  -2 -56   79.75   12.42
   1   2  53   26.75    7.47
   3  -2  53   22.03    6.35
   2  -3  53   25.81    7.01
  -1   3  53   29.76    8.36
  -2  -1  53   18.71    6.49
  -3   1  53   27.68    7.91
   1  -3 -53   28.74    7.40
  -1  -2 -53   25.72    6.35
  -2  -1  50   89.91   13.62
   3  -2  50  105.07   13.77
   2  -3  50  100.23   13.23
   3  -1 -50   81.93   12.43
   2   1 -50  100.42   14.17
   1   2  50  108.79   14.69
  -1   3  50   93.14   13.47
  -1  -2 -50  116.32   14.83
  -3   1  50   96.83   13.88
  -1  -2 -50  109.38   13.24
   1  -3 -50  112.70   14.09
   2  -3  47  108.29   13.10
  -2  -1  47   97.36   13.36
   3  -2  47  111.31   13.55
  -3   1  47  107.05   14.04
  -3   2 -47  107.46   14.41
   3  -1 -47  102.98   13.70
  -2   3 -47   98.94   13.42
  -1  -2 -47  116.97   14.37
   1   2  47  125.89   15.63
  -1   3  47  112.69   14.73
   2   1 -47  109.14   13.95
   1  -3 -47  112.46   13.24
   3  -1 -47  110.47   14.18
  -1  -2 -47  118.69   13.14
  -2  -1  44   77.40   11.42
   3  -2  44   84.11   11.55
   2  -3  44   72.02   10.47
  -3   1  44   74.33   11.49
   1   2  44   85.78   12.40
  -1   3  44   78.77   11.38
   2   1 -44   79.19   11.50
  -2   3 -44   82.56   12.24
  -3   2 -44   94.47   13.06
  -1  -2 -44   90.05   12.13
   3  -1 -44   73.09   10.64
   3  -1 -44   80.46   11.49
  -1  -2 -44   90.95   10.99
   1  -3 -44   87.54   11.48
  -3   1  41   25.03    6.77
  -2  -1  41   25.28    6.25
  -2   3 -41   22.86    6.53
   1   2  41   24.39    6.04
  -3   2 -41   31.17    7.11
   3  -2  41   26.02    6.25
   2  -3  41   23.76    6.19
  -1   3  41   26.63    6.80
   1  -3 -41   30.94    6.69
   2   1 -41   20.32    5.60
   3  -1 -41   24.30    5.94
  -1  -2 -41   25.40    6.23
   3  -1 -41   26.41    6.47
  -1  -2 -41   24.82    5.41
   3  -2  38  361.04   21.95
   2  -3  38  364.53   22.42
  -2  -1  38  356.07   22.99
   1   2  38  386.12   23.50
   2   1 -38  358.35   22.90
  -1   3  38  384.21   23.70
  -3   1  38  355.41   23.03
   3  -1 -38  346.80   22.31
  -3   2 -38  406.45   25.23
  -2   3 -38  369.28   23.93
  -1  -2 -38  393.37   23.78
  -1  -2 -38  398.54   21.42
   3  -1 -38  345.77   22.25
   1  -3 -38  391.99   22.90
   3  -2  35  143.99   13.28
  -2   3 -35  140.45   14.05
   2  -3  35  148.16   13.73
  -3   1  35  141.25   13.59
  -1   3  35  154.78   14.44
   3  -1 -35  147.97   14.03
  -2  -1  35  137.14   13.40
   2   1 -35  135.07   13.33
   1   2  35  161.72   14.75
  -3   2 -35  149.36   14.59
  -1  -2 -35  162.94   14.29
   3  -1 -35  148.30   14.34
   1  -3 -35  155.82   13.82
  -1  -2 -35  162.48   12.91
  -2   3 -32 1064.38   37.09
   2  -3  32 1045.07   35.95
   3  -2  32 1034.00   34.55
  -3   2 -32 1103.74   37.75
  -3   1  32 1046.27   36.23
  -1  -2 -32 1144.47   36.81
  -2  -1  32 1016.16   34.94
   2   1 -32 1011.47   34.87
   1   2  32 1169.53   37.75
   3  -1 -32 1036.09   35.56
  -1   3  32 1134.24   38.08
   3  -1 -32 1056.31   36.75
  -1  -2 -32 1156.73   32.55
   1  -3 -32 1144.19   36.13
  -2   3 -29  301.76   19.76
   2  -3  29  308.70   18.34
  -3   2 -29  329.28   19.47
   3  -2  29  326.96   18.77
  -2  -1  29  300.84   17.97
  -1  -2 -29  347.58   19.15
   1   2  29  354.61   19.79
   2   1 -29  287.39   17.30
  -3   1  29  313.80   18.90
  -1   3  29  342.84   19.93
   1  -3 -29  330.11   18.24
   3  -1 -29  320.69   19.53
  -1  -2 -29  359.03   17.36
  -3   1  26   83.04    9.19
  -2  -1  26   90.99    9.42
  -1   3  26  102.00   10.40
  -1  -2 -26   98.93    9.72
   2   1 -26   83.36    8.89
   1   2  26  101.47    9.90
  -3   2 -26   98.41   10.72
   2  -3  26  105.24   10.50
   3  -2  26   99.23    9.97
  -2   3 -26   95.90   10.24
  -2   3 -26   90.38    9.64
  -3   2 -26   95.31    9.15
   3  -1 -26   81.93    9.54
  -1   3  26   69.31    6.96
   1  -3 -26   95.79    9.39
  -1  -2 -26   96.15    8.27
  -1  -2 -23   12.06    2.89
  -3   1  23   11.66    3.34
  -1   3  23   12.62    3.23
  -1  -2 -23   13.29    3.64
   2   1 -23   11.84    3.42
   3  -1 -23   10.07    2.85
  -1   3  23   12.04    3.27
  -3   2 -23   13.24    3.96
  -2   3 -23   13.44    3.57
   1   2  23   14.75    3.71
   3  -2  23    9.11    3.18
  -2  -1  23   10.70    3.28
  -2   3 -23   10.64    2.90
  -3   2 -23   10.96    2.85
   1  -3 -23   12.82    3.49
  -1   3  20   23.22    4.16
  -1  -2 -20   23.69    4.32
  -3   1  20   33.13    6.30
   2   1 -20   16.13    3.65
  -1  -2 -20   24.05    3.69
  -1   3  20   26.04    4.65
  -2  -1  20   16.65    3.51
  -2   3 -20   21.00    4.25
  -3   2 -20   15.38    3.85
   1   2  20   22.63    4.06
  -3   2 -20   24.17    4.31
  -2   3 -20   24.24    4.63
   1  -3 -20   24.40    4.52
   3  -1 -20   25.29    6.04
  -1  -2 -17  135.11    9.12
   1   2  17  124.91    8.89
   2   1 -17  104.44    7.83
  -3   1  17  112.76    8.92
  -2  -1  17  119.35    8.86
  -2   3 -17  114.56    9.36
  -3   2 -17  128.26    9.31
  -3   2 -17  129.60    9.00
  -2   3 -17  116.99    9.55
   1  -3 -17  123.61    9.49
  -1   3  17  126.54    9.29
   3  -1 -17  119.70    9.67
  -1  -2 -17  118.17    7.21
   1   2  14  486.31   16.26
  -2  -1  14  435.11   15.24
  -3   1  14  437.45   16.55
   2   1 -14  385.71   13.75
  -3   2 -14  422.01   16.50
  -3   2 -14  440.70   15.39
   2  -3  14  451.01   18.22
  -2   3 -14  458.72   18.25
   3  -2  14  463.19   16.27
  -1   3  14  451.58   16.42
   1   2  14  445.27   12.69
  -1  -2 -14  477.23   13.51
   1  -3 -14  463.72   17.36
   3  -1 -14  427.09   16.97
   2   1 -11  267.18   10.04
  -2  -1  11  328.10   11.59
   1   2  11  361.55   12.77
  -1  -2 -11  341.45   10.23
   1  -3 -11  336.02   13.87
   3  -2  11  334.82   12.94
  -3   2 -11  336.70   13.00
   2  -3  11  324.33   14.69
  -2   3 -11  311.91   13.93
   1   2  11  318.50    9.58
   3  -1 -11  324.24   13.81
  -1   3  11  342.04   13.90
  -3   1  11  312.59   13.53
   1   2   8   55.69    4.24
  -2  -1   8   44.86    3.52
   2   1  -8   53.19    3.81
   3  -2   8   57.85    5.13
   2  -3   8   56.03    5.91
  -3   2  -8   61.84    5.23
  -1  -2  -8   56.54    3.57
  -2   3  -8   56.82    5.80
   1  -3  -8   61.20    5.62
  -1   3   8   63.11    5.63
   3  -1  -8   54.88    5.05
   1   2   8   60.47    3.87
  -3   1   8   59.48    5.78
   1  -3  -5 1475.21   27.00
  -1   3   5 1509.14   27.11
   1   2   5 1462.24   17.67
  -3   2  -5 1522.15   25.95
   3  -2   5 1464.25   25.05
  -2   3  -5 1445.10   27.97
   2  -3   5 1528.30   29.79
  -1  -2  -5 1534.68   18.82
   3  -1  -5 1471.59   25.20
  -3   1   5 1467.68   26.09
   1  -3  -2  395.83   13.75
   2  -3   2  388.13   14.34
  -2   3  -2  375.02   13.72
   1   2   2  386.99    9.56
  -1  -2  -2  414.68   10.35
   3  -2   2  390.20   12.85
  -1   3   2  386.31   13.41
  -3   2  -2  394.60   13.13
   3  -1  -2  376.60   11.94
  -3   1   2  398.55   12.52
   1  -3   1   94.21    6.86
  -2   3   1   93.03    6.85
   2  -3  -1   93.09    6.76
   3  -2  -1   93.17    6.31
   3  -1   1   94.27    5.46
  -1   3  -1   90.27    6.42
   1   2  -1  103.75    5.51
  -3   1  -1  104.93    5.90
  -3   2   1   96.11    6.68
   2  -3  -4   22.99    4.36
  -2   3   4   36.53    6.56
   1  -3   4   28.28    3.69
   3  -1   4   27.20    2.71
  -3   1  -4   27.67    2.80
   1   2  -4   27.77    3.19
  -1   3  -4   25.53    3.41
  -3   2   4   23.91    3.44
   3  -2  -4   23.70    3.35
  -2  -1  -7 3743.11   30.78
   1   2  -7 3852.07   34.62
   2   1   7 3937.36   30.04
   3  -1   7 3841.52   33.89
  -1   3  -7 3747.13   46.43
   1  -3   7 3861.82   48.21
   2  -3  -7 3761.30   47.33
  -3   1  -7 3837.32   34.07
  -3   2   7 3870.24   46.46
   3  -2  -7 3799.74   46.46
  -2   3   7 3836.89   47.51
  -2  -1 -10 3091.88   33.17
   1   2 -10 3006.33   34.95
  -3   1 -10 3092.38   39.17
  -1  -2  10 2999.01   32.76
   2   1  10 3090.64   32.63
  -3   1 -10 2938.41   31.05
   3  -1  10 2982.39   31.98
  -1   3 -10 2894.05   42.94
   1  -3  10 2906.27   44.21
   3  -2 -10 2971.80   43.83
  -3   2  10 2989.41   43.41
  -2   3  10 2957.48   43.14
   2  -3 -10 2979.21   43.59
  -3   2  13    1.44    1.71
  -2  -1 -13    5.03    1.12
   1   2 -13    5.71    1.80
   2   1  13   12.60    2.90
  -3   1 -13    9.64    2.32
  -1   3 -13    8.88    2.81
  -2  -1 -13   11.45    2.91
  -1  -2  13    3.40    0.90
  -1   3 -13    5.54    1.85
  -3   1 -13    5.02    1.19
   2  -3 -13    4.88    1.20
  -2   3  13    1.46    1.61
   3  -2 -13    2.83    1.64
  -2  -1 -16  115.08    8.23
   1   2 -16   86.53    7.18
   2   1  16  108.33    8.06
  -1   3 -16  102.36    8.16
  -1  -2  16   94.99    7.67
  -3   1 -16   94.58    8.47
   3  -1  16   89.43    7.63
  -3   1 -16  102.88    6.93
  -1   3 -16  108.53    9.27
  -3   2  16  111.29    9.34
   3  -2 -16  102.26    8.79
  -2   3  16  113.03    9.15
   2  -3 -16  111.97    9.46
  -2  -1 -16   78.26    4.68
  -3   2  19  180.74   12.35
  -2  -1 -19  207.07   11.84
   1   2 -19  185.31   11.77
   2   1  19  208.54   12.23
  -1  -2  19  174.91   11.39
  -3   1 -19  179.35   12.86
  -1   3 -19  198.09   12.46
   3  -1  19  203.75   12.34
  -1   3 -19  187.42   12.82
  -3   1 -19  204.80   10.43
  -3   2  19  196.59   13.19
   3  -2 -19  192.02   12.96
  -2   3  19  187.78   12.24
   2  -3 -19  184.42   12.22
   1   2 -22  611.67   22.61
  -3   2  22  678.37   25.51
  -2   3  22  692.78   25.79
  -3   2  22  550.82   20.18
   2   1  22  697.14   24.16
  -2  -1 -22  731.94   24.41
  -1  -2  22  597.39   22.26
   1  -3  22  545.23   21.60
  -3   1 -22  692.43   24.61
   3  -1  22  623.00   22.29
  -1   3 -22  653.20   24.60
  -3   1 -22  740.31   21.50
  -2   3  22  692.98   24.76
   3  -2 -22  675.99   25.48
   2  -3 -22  705.89   25.42
   1  -3  25    1.41    1.53
   3  -1  25    5.38    2.72
  -1   3 -25   -0.23    1.32
  -2  -1 -25    6.41    2.78
  -3   1 -25    3.22    2.06
  -1  -2  25    1.06    1.26
   2   1  25    6.33    2.94
  -2   3  25   -0.15    2.04
   3  -2 -25    3.18    2.61
  -2   3  25    1.66    1.28
  -3   2  25    2.00    1.42
   1   2 -25   21.18    6.83
   2  -3 -25    2.67    2.11
   2   1  28  746.30   28.30
   3  -1  28  713.57   26.59
   1  -3  28  718.12   27.38
  -1   3 -28  680.57   27.66
  -1  -2  28  663.85   26.98
  -2  -1 -28  791.12   28.92
  -3   2  28  715.42   28.69
   1   2 -28  653.49   26.58
  -3   1 -28  719.33   27.81
  -2   3  28  703.89   28.18
  -2   3  28  552.53   20.99
   2  -3 -28  714.85   27.58
   3  -2 -28  695.88   28.19
   1   2 -31    6.94    3.50
  -1  -2  31    5.44    2.95
   2   1  31    7.65    3.52
  -3   1 -31    3.16    1.98
   1  -3  31    3.05    2.39
   3  -1  31    6.33    3.48
  -1   3 -31    5.07    3.12
   2  -3 -31    3.05    2.44
   3  -2 -31    5.52    3.70
  -3   2  31    0.21    1.95
  -2   3  31    3.93    1.58
  -2  -1 -31    4.14    2.43
  -1  -2  34   92.84   11.13
   1  -3  34   86.12   10.04
   2   1  34  106.14   11.86
   3  -1  34  101.04   11.39
  -1   3 -34   90.60   11.20
   1   2 -34  105.95   11.87
  -2   3  34  101.43   11.47
  -3   2  34  107.51   11.92
  -2  -1 -34  112.89   12.02
  -3   1 -34  104.14   11.82
   3  -2 -34  117.02   12.50
   2  -3 -34  121.36   12.47
  -3   1 -37   35.09    6.94
   2   1  37   45.01    7.85
  -1   3 -37   33.64    7.01
  -3   2  37   40.60    7.57
   1  -3  37   36.84    6.66
  -1  -2  37   30.48    6.52
   3  -1  37   42.63    7.68
   1   2 -37   25.73    5.95
  -2   3  37   37.61    7.56
   2  -3 -37   36.59    7.25
  -2  -1 -37   44.60    7.95
   3  -2 -37   45.38    8.35
  -1  -2  40  178.23   16.56
   1  -3  40  191.47   16.68
   3  -1  40  197.54   17.47
   2   1  40  188.14   16.85
  -2   3  40  207.58   18.41
   1   2 -40  176.15   16.53
  -2  -1 -40  224.26   18.55
  -1   3 -40  186.42   17.43
  -3   2  40  195.86   17.76
  -3   1 -40  215.60   18.56
   2  -3 -40  201.15   17.21
   3  -2 -40  199.56   17.60
  -1  -2  43   56.55    9.80
   2   1  43   55.67    9.69
   3  -1  43   63.33   10.17
   1  -3  43   58.05    9.61
  -2  -1 -43   65.67   10.36
  -2   3  43   59.16    9.97
  -3   1 -43   61.44   10.10
   1   2 -43   57.80    9.61
  -1   3 -43   55.46    9.84
  -3   2  43   57.65    9.95
   2  -3 -43   65.91   10.07
   3  -2 -43   58.81   10.30
   3  -1  46   32.36    7.97
  -3   1 -46   31.50    7.71
  -1  -2  46   28.74    7.34
   2   1  46   31.39    7.48
  -1   3 -46   32.22    8.24
  -2   3  46   25.92    6.75
   1   2 -46   25.31    6.71
   1  -3  46   35.29    7.64
  -3   2  46   24.52    6.27
   3  -2 -46   36.43    8.14
   2  -3 -46   31.25    7.32
  -2  -1 -46   38.19    8.21
   1   2 -49    1.21    2.83
  -2   3  49   -4.81    4.44
   2   1  49   -2.15    2.84
  -3   1 -49   -2.63    4.07
  -1  -2  49   -8.29    5.25
   3  -1  49   -0.22    2.79
   1  -3  49   -2.87    2.61
  -1   3 -49   -0.07    1.99
  -3   2  49   -3.37    3.30
  -2  -1 -49   -9.84    5.94
   2  -3 -49    0.26    1.94
   3  -2 -49    2.71    2.81
  -1  -2  52   80.61   13.37
   2   1  52   80.16   12.84
   3  -1  52   84.00   13.32
   1  -3  52   82.80   12.98
  -3   2  52   69.11   12.02
  -2   3  52   74.63   12.18
  -2  -1 -52   67.90    9.37
  -2   3  55    6.89    4.86
   1  -3  55   -2.13    4.05
  -3   2  55    4.20    3.98
   2   1  55    0.62    2.13
   3  -1  55   -2.86    3.86
  -1  -2  55   10.84    5.85
  -2  -1 -55    4.39    2.06
  -2   3  58   28.24    8.14
   3  -1  58   31.62    8.59
  -1  -2  58   28.50    8.57
  -3   2  58   28.78    8.71
   1  -3  58   34.56    8.44
   2   1  58   33.15    8.96
  -2  -1 -58   26.50    6.44
   3  -1  61   -3.26    4.56
  -2   3  61    0.86    3.32
  -3   2  61    3.50    3.77
  -1  -2  61    2.35    3.00
   1  -3  61   -7.42    5.36
   2   1  61   11.79    5.52
   2   1  64   44.14   11.62
   3  -1  64   46.19   10.97
  -2   3  64   33.95    9.61
   1  -3  64   46.89   10.85
  -1  -2  64   50.10   11.40
  -3   2  64   48.09   12.11
   1  -3  67   28.32    9.06
  -2   3  67   40.32   11.58
   2   1  67   17.42    7.52
   3  -1  67   14.54    3.90
  -3   2  67   35.38   10.72
  -1  -2  67   22.04    7.01
   1  -3  70   93.97   15.97
  -3   2  70   78.09   15.62
  -1  -2  70   89.53   15.98
   2   1  70   79.76   15.82
   3  -1  70   88.95   15.49
  -2   3  70   82.77   16.44
  -3   2  73   17.46    8.19
   3  -1  73   10.87    4.96
  -2   3  73   13.76    6.93
  -1  -2  73    6.85    5.24
   2   1  73   13.35    4.97
   1  -3  73   12.42    7.58
   3  -1  76   79.82   16.00
   1  -3  76   76.14   14.94
   2   1  76   78.75   16.71
  -2   3  76   69.42   15.37
  -3   2  76   69.73   15.60
  -1  -2  76   73.08   16.62
  -1  -2  79    5.64    5.82
   3  -1  79    6.02    5.90
  -3   2  79   -7.21    4.72
  -2   3  79    4.47    6.40
   2   1  79   -1.62    6.32
   1  -3  79    7.49    3.19
  -1  -2  82   36.67   13.49
  -3   2  82   35.27   10.76
  -2   3  82   33.01   12.16
   1  -3  82   41.94   11.44
   3  -1  82   57.27   14.11
   2   1  82   38.31   11.32
  -3   0  84   20.41   10.79
  -3   0  81   -0.27    3.42
   3  -3  81   -3.49    4.34
   0   3  81    0.07    5.21
   0   3  78   15.02    7.89
  -3   0  78   13.30    8.33
   3  -3  78   23.91    8.90
  -3   0  75    3.44    5.59
   0   3  75    9.83    6.91
   3  -3  75   -0.54    4.20
  -3   0  72   14.40    7.05
   3  -3  72   22.41    9.33
   0   3  72   26.97   10.72
   3  -3  69   -0.40    2.76
  -3   0  69    2.31    2.84
   0   3  69    3.85    4.01
  -3   0  66   39.07   10.56
   3  -3  66   51.39   11.40
   0   3  66   53.47   12.25
   3  -3  63   -5.47    4.45
  -3   0  63   -2.04    4.04
   0   3  63   -1.08    4.35
   3  -3  60   60.22   11.88
   0   3  60   62.36   12.27
  -3   0  60   56.12   11.88
   0   3  57    2.36    3.38
   3  -3  57   -0.66    3.94
  -3   0  57   -0.77    2.71
   3  -3  54   -0.66    2.41
   0   3  54    3.02    2.87
  -3   0  54    0.95    2.73
   0  -3 -54    1.49    3.86
   0   3  51    1.64    2.69
   3  -3  51   -0.50    2.93
  -3   0  51   -0.04    2.34
   0  -3 -51   -0.72    1.73
   3   0 -51    6.47    4.94
   3  -3  48  119.47   14.13
   0   3  48  122.69   14.98
  -3   3 -48  114.79   15.32
  -3   0  48  120.02   15.27
   3   0 -48  115.97   14.73
   0  -3 -48  137.90   16.29
   0  -3 -48  128.23   14.09
   3  -3  45    0.88    2.57
  -3   0  45   -4.38    4.02
  -3   3 -45   -2.89    3.29
   0   3  45   -1.50    2.98
   0  -3 -45   -0.67    2.56
   3   0 -45    0.86    1.70
   0  -3 -45    0.99    1.89
   3  -3  42  286.38   21.14
  -3   0  42  224.05   18.96
   3   0 -42  270.41   20.88
   0   3  42  307.90   22.92
  -3   3 -42  272.96   21.40
   0  -3 -42  304.94   22.55
   0  -3 -42  291.93   20.01
   3  -3  39   -1.33    2.08
   0   3  39   -0.39    1.49
  -3   3 -39    0.61    1.91
  -3   0  39   -1.09    1.77
   0  -3 -39    1.40    2.89
   0  -3 -39    1.42    2.39
   3   0 -39    1.56    3.18
  -3   0  36  853.32   35.14
   0   3  36  889.23   34.54
   3   0 -36  820.35   33.25
   3  -3  36  814.19   33.60
  -3   3 -36  874.69   35.93
  -3   3 -36  859.71   33.42
   0  -3 -36  942.96   33.50
   0  -3 -33    1.39    2.41
   3   0 -33   -1.52    1.43
   0   3  33    0.27    1.38
  -3   0  33    0.01    2.36
   3  -3  33    1.52    2.64
  -3   3 -33    2.71    2.69
  -3   3 -33   -0.41    1.88
  -3   0  30  519.19   24.87
   3   0 -30  512.63   23.98
   0   3  30  576.80   25.89
   3  -3  30  436.70   22.68
  -3   3 -30  525.11   25.77
  -3   3 -30  555.12   24.94
   0  -3 -30  560.36   22.90
   3   0 -27    2.66    2.01
   0   3  27    0.26    1.63
   0  -3 -27    0.75    1.46
  -3   0  27   -0.92    1.63
  -3   3 -27   -1.15    1.59
  -3   3 -27    2.01    2.25
   3   0 -24    0.43    1.09
   0   3  24    0.10    1.36
   0   3  24    1.23    1.81
  -3   0  24   -2.59    2.13
  -3   3 -24    3.48    2.25
  -3   3 -24   -1.18    1.71
   0  -3 -24    1.15    1.37
   3   0 -21   -0.67    1.71
   0   3  21   -0.38    1.32
   0   3  21    1.04    1.41
  -3   0  21   -0.60    1.62
  -3   3 -21    0.79    1.33
  -3   3 -21   -2.30    2.03
   0  -3 -21    0.47    1.09
   0   3  18  167.12   11.34
  -3   0  18  143.65   10.11
  -3   3 -18  151.79   11.32
  -3   3 -18  165.27   11.66
   0   3  18  160.44    9.80
   0  -3 -18  169.09   10.50
   3   0 -15   -0.87    2.15
   0   3  15   -1.06    1.38
  -3   0  15    2.06    3.34
   0   3  15    0.16    1.23
  -3   3 -15   -1.59    2.13
   3  -3  15   -1.20    1.34
   0  -3 -15    0.14    1.08
  -3   0  12  341.24   13.75
   0  -3 -12  329.93   12.96
   3  -3  12  311.10   14.49
  -3   3 -12  316.74   14.69
   0   3  12  320.67   12.86
   3   0 -12  241.91   10.84
   3   0  -9   -0.60    1.20
  -3   0   9   -0.55    0.89
  -3   3  -9    1.66    1.20
   3  -3   9   -0.32    1.02
   0  -3  -9   -1.89    1.61
   0   3   9   -0.97    1.11
   3  -3   6 1095.40   25.39
   0  -3  -6 1109.94   21.67
   0   3   6 1124.94   21.53
  -3   3  -6 1096.20   25.15
   3   0  -6 1135.01   22.19
   3   0  -3    0.74    0.78
   3  -3   3   -0.77    1.24
   0  -3  -3    0.51    1.12
  -3   3  -3    0.07    0.97
   0   3   3   -0.33    0.91
  -3   3   0 2683.54   39.25
   3  -3   0 2657.52   39.07
   0  -3   0 2718.72   35.11
   0   3   0 2634.40   33.67
  -3   0  -3   -1.52    1.03
   0  -3   3   -2.41    1.73
   0   3  -3   -3.69    2.22
   3  -3  -3   -6.05    2.95
   3   0   3   -0.36    0.54
  -3   3   3   -4.37    2.82
  -3   0  -6 2731.02   27.42
   0  -3   6 2715.50   40.14
   3  -3  -6 2609.81   41.07
   0   3  -6 2664.59   38.34
  -3   3   6 2649.74   41.53
  -3   0  -9   -0.09    0.91
   0   3  -9    0.16    1.61
   3  -3  -9   -1.03    2.08
  -3   3   9   -1.87    1.51
  -3   0  -9    1.13    0.70
   3   0  12 1924.19   29.38
  -3   0 -12 1881.79   29.45
   0   3 -12 1883.57   31.86
  -3   0 -12 1717.49   19.19
   0   3 -12 1777.05   35.39
  -3   3  12 1796.29   36.40
   3  -3 -12 1780.06   36.73
  -3   3  15   -0.85    1.82
   0   3 -15    0.72    1.05
   3   0  15   -1.13    1.42
  -3   0 -15   -2.68    2.04
   0   3 -15   -2.64    2.74
  -3   0 -15    0.51    0.70
   3  -3 -15   -0.16    1.61
   0   3 -18  615.76   21.60
   3   0  18  642.68   20.20
  -3   0 -18  633.84   21.45
   3  -3 -18  603.32   23.43
  -3   3  18  586.10   22.73
  -3   0 -21   -0.83    1.66
   3   0  21    0.85    1.37
   0   3 -21   -3.84    2.46
   0  -3  21   -0.93    1.69
  -3   3  21   -2.53    2.57
   3  -3 -21   -2.44    2.45
   0  -3  24 2172.57   44.04
   0   3 -24 2074.81   44.97
   3   0  24 2287.28   44.85
  -3   3  24 2173.39   48.05
  -3   0 -24 2380.31   46.80
  -3   3  24 2288.16   49.38
   3  -3 -24 2207.63   47.98
   0   3 -27   -3.26    2.60
   0  -3  27   -2.12    1.36
  -3   0 -27    1.33    3.25
   3   0  27    0.71    3.17
  -3   3  27   -0.53    1.82
   3  -3 -27    1.53    2.10
  -3   3  27   -2.31    2.16
  -3   0 -30    1.73    2.88
   0  -3  30    2.37    1.66
   0   3 -30    2.76    1.97
   3   0  30    0.86    1.26
  -3   3  30    1.83    3.06
  -3   3  30    0.30    1.27
   3  -3 -30    1.92    2.89
   0  -3  33   -3.57    2.99
   0   3 -33   -1.29    2.38
  -3   0 -33    0.32    2.27
   3   0  33    2.33    2.72
  -3   3  33    2.88    1.77
   3  -3 -33   -0.81    1.75
   0  -3  36  190.94   15.60
   3   0  36  195.90   17.85
   0   3 -36  163.07   15.25
  -3   0 -36  211.71   17.32
  -3   3  36  192.18   16.95
   3  -3 -36  198.62   16.89
   0  -3  39   -4.50    4.03
   0   3 -39   -4.76    3.18
  -3   0 -39   -4.07    3.05
   3   0  39   -2.48    2.67
  -3   3  39   -1.20    2.03
   3  -3 -39    1.32    2.79
   0  -3  42   15.50    4.79
  -3   0 -42   24.89    6.08
   0   3 -42   17.20    5.12
   3   0  42   18.83    5.45
   3  -3 -42   24.03    6.69
  -3   3  42   20.21    6.33
   0  -3  45    1.12    2.22
  -3   0 -45   -1.73    2.84
   3   0  45   -0.77    2.48
   0   3 -45    1.96    2.42
  -3   3  45   -2.46    2.63
   3  -3 -45    5.47    4.15
   3   0  48  188.76   19.21
   0  -3  48  179.94   18.56
   0   3 -48  157.26   17.73
  -3   3  48  150.69   16.76
  -3   0 -48  192.49   18.88
   3  -3 -48  184.98   18.43
   0  -3  51   -6.24    5.06
   3   0  51   -4.09    4.18
  -3   3  51  -11.34    6.10
   0  -3  54   -4.02    4.40
   3   0  54    0.57    3.39
  -3   3  54  -10.18    6.12
   3   0  57   -0.30    2.07
   0  -3  57   -4.36    4.22
  -3   3  57   -2.87    4.24
  -3   3  60   39.47    9.85
   0  -3  60   49.08   10.19
   3   0  60   48.30   10.49
   3   0  63   -1.77    5.68
   0  -3  63   -3.35    2.48
  -3   3  63    2.35    3.46
   3   0  66   79.25   14.54
   0  -3  66   85.27   14.56
  -3   3  66   89.18   16.17
   3   0  69   -7.10    6.47
  -3   3  69   -0.39    2.71
   0  -3  69   -7.14    5.86
   0  -3  72  113.60   18.49
   3   0  72  108.63   18.08
  -3   3  72   98.48   18.32
  -3   3  75    1.58    3.30
   3   0  75   -5.48    5.50
   0  -3  75   -0.20    3.52
   3   0  78  106.30   18.45
   0  -3  78   99.08   18.22
  -3   3  78  100.32   18.70
   3   0  81   -1.68    3.70
   0  -3  81   -1.76    4.04
  -2   4   0  352.24   15.35
   2  -4   0  350.94   15.57
   4  -2   0  343.28   13.04
   2   2   0  336.83    9.74
  -4   2   0  369.93   14.23
   2  -4   3   -3.30    2.73
   4  -2   3    1.49    0.91
  -4   2   3   -2.61    2.02
  -2   4  -3   -2.55    2.72
  -2   4   3   -2.92    2.30
   2  -4  -3   -2.73    2.37
  -4   2  -3   -1.79    2.03
   4  -2  -3   -3.16    2.21
   2   2   6  400.29    8.68
   2   2  -6  494.34   10.49
   2  -4   6  573.69   20.42
   2  -4  -6  586.03   20.31
  -2   4   6  583.05   19.96
  -4   2  -6  583.04   16.87
  -2   4  -6  578.13   20.35
   4  -2   6  576.70   16.52
   4  -2  -6  597.89   19.35
  -4   2   6  613.25   19.83
   2   2   9  487.97   13.13
   2   2  -9  404.92   11.61
  -2  -2   9  483.76   11.84
   2  -4   9  448.10   18.76
  -2  -2  -9  423.64    8.27
  -2   4  -9  437.00   18.13
  -4   2  -9  452.54   15.04
   4  -2   9  462.31   15.46
   2  -4  -9  445.95   17.95
  -4   2   9  481.60   18.56
   4  -2  -9  460.03   17.86
  -2   4   9  447.62   17.94
   2   2  12  453.44   14.80
   2   2 -12  352.10   12.44
  -2  -2  12  438.87   13.14
   4  -2  12  424.96   15.16
  -4   2 -12  406.55   14.61
  -2  -2 -12  369.18    8.53
   2  -4 -12  420.20   18.22
   2  -4  12  404.41   18.43
  -2   4 -12  400.00   18.28
  -2   4  12  414.43   17.74
  -4   2  12  425.62   18.15
   4  -2 -12  406.66   17.33
   2   2 -15  513.87   17.03
  -2  -2 -15  621.99   18.41
   2   2  15  610.10   18.96
  -4   2 -15  599.98   21.10
  -2  -2  15  547.16   17.25
   2  -4  15  555.62   22.65
   2  -4 -15  580.12   21.98
  -2   4 -15  542.24   21.80
  -2  -2 -15  490.50   11.65
   4  -2  15  550.91   17.96
  -4   2 -15  541.23   17.58
  -2   4  15  555.69   20.97
   4  -2 -15  558.08   21.48
  -4   2  15  579.44   22.29
  -2  -2 -18  629.59   20.42
   2   2  18  620.25   20.79
   2   2 -18  546.05   19.41
  -4   2 -18  587.47   21.10
  -2   4 -18  514.28   21.86
  -2  -2  18  565.06   19.65
  -4   2 -18  587.56   19.56
  -2   4 -18  577.38   23.29
   2  -4 -18  593.58   23.54
  -2  -2 -18  547.63   14.41
   4  -2 -18  545.33   22.22
  -4   2  18  603.94   23.99
  -2   4  18  559.19   21.55
  -2  -2 -21  128.15    9.71
  -4   2  21  105.23   10.05
   2   2  21  130.55   10.18
   2   2 -21  104.99    8.94
  -2  -2  21  109.65    9.17
  -2   4 -21  110.40    9.85
  -4   2 -21  118.60   10.23
  -4   2 -21  124.37    9.31
  -2   4 -21  117.46   10.88
  -2  -2 -21  115.70    7.35
   4  -2 -21  117.32   10.88
  -2   4  21  124.62   10.63
  -4   2  21   82.70    7.98
   2  -4 -21  117.70   10.48
   2   2  24  121.43   10.47
  -2  -2 -24  123.97   10.35
  -2   4  24  108.95   11.00
   2   2 -24   98.01    9.28
  -4   2  24  102.94   10.43
  -2   4 -24  109.87   10.47
  -4   2 -24  112.45   10.78
  -2  -2  24   99.52    9.65
  -2   4 -24  110.89   11.15
  -4   2 -24  116.51    9.48
   2  -4 -24  125.98   11.65
   4  -2 -24  104.80   10.73
  -2   4  24  110.75   10.24
  -2  -2 -24  108.73    7.86
   2   2 -27  132.96   11.34
  -4   2  27  135.76   12.28
   2   2  27  160.33   13.23
  -2  -2 -27  172.66   13.21
  -2   4  27  145.29   12.81
  -2  -2  27  136.76   12.25
  -4   2 -27  165.24   14.24
  -2   4 -27  135.69   12.80
  -2   4 -27  155.31   13.63
  -4   2 -27  155.24   11.61
   2  -4 -27  158.19   13.56
  -2   4  27  150.87   12.55
  -2  -2 -27  153.62   10.14
   4  -2 -27  147.33   13.13
  -2  -2 -30  419.69   21.78
  -4   2  30  380.52   22.17
  -2   4  30  374.33   21.86
   2   2  30  394.20   21.56
   2   2 -30  356.28   20.31
  -2  -2  30  365.43   20.91
   4  -2  30  354.32   20.26
  -2   4 -30  374.55   22.68
  -4   2 -30  388.67   21.81
  -4   2 -30  384.00   19.23
  -2   4 -30  379.75   22.29
   4  -2 -30  365.64   21.65
  -2   4  30  391.24   21.72
   2  -4 -30  394.20   21.78
  -2  -2 -30  398.31   17.42
   2   2  33  153.65   14.02
  -2  -2 -33  150.22   13.88
   2   2 -33  112.46   11.69
  -4   2  33  136.16   13.82
  -2   4  33  140.01   14.10
  -2  -2  33  114.24   12.39
  -2   4 -33  126.47   13.86
   4  -2  33  135.23   12.98
  -4   2 -33  142.39   14.01
  -4   2 -33  144.45   12.16
  -2   4 -33  145.17   14.25
   2  -4 -33  136.57   13.31
  -2   4  33  100.68    9.60
  -2  -2 -33  150.42   11.52
   4  -2 -33  130.58   13.45
  -2   4  36  216.80   18.01
   2   2  36  233.40   18.35
  -4   2  36  199.65   17.17
   2   2 -36  176.03   15.21
  -2  -2 -36  242.47   18.50
   4  -2  36  222.79   17.37
  -2   4 -36  192.66   17.14
  -4   2 -36  220.62   18.34
  -2  -2  36  206.31   16.84
   2  -4  36  164.94   15.23
  -2   4 -36  212.53   17.52
  -4   2 -36  217.74   15.87
   4  -2 -36  226.32   18.27
   2  -4 -36  226.93   17.62
  -2  -2 -36  229.79   14.96
   4  -2 -39   -0.97    2.42
  -2   4  39   -0.22    2.12
  -2  -2 -39   -0.51    1.25
   2  -4 -39    1.32    2.22
  -2  -2 -39   -2.80    1.90
   2  -4  39   -1.50    1.45
   4  -2  39   -3.61    3.53
  -4   2 -39   -0.68    1.56
   2   2  39    2.13    2.66
  -4   2  39    0.28    1.93
  -2   4 -39   -0.07    1.65
  -4   2 -39   -1.02    2.27
  -2   4 -39   -1.65    2.89
  -2   4 -42  151.79   16.66
  -2  -2  42  145.73   16.11
   2  -4  42  154.71   15.58
   4  -2  42  174.74   16.03
  -2   4  42  167.66   17.11
   2   2 -42  140.85   14.85
  -4   2 -42  185.90   18.24
  -4   2  42  161.28   16.63
  -2  -2 -42  191.15   17.42
   2   2  42  164.74   16.54
   4  -2 -42  178.25   17.43
  -2  -2 -42  182.09   14.55
   2  -4 -42  180.69   16.64
  -2  -2  45  234.30   21.09
   2   2  45  271.43   22.07
   4  -2  45  272.61   21.14
   2  -4  45  253.42   20.97
  -4   2  45  242.87   21.15
  -2   4 -45  234.85   21.43
   2   2 -45  230.81   19.95
  -2   4  45  264.44   22.13
  -4   2 -45  255.97   21.63
  -2  -2 -45  286.53   21.91
   4  -2 -45  278.36   22.59
  -2  -2 -45  266.37   18.51
   2  -4 -45  276.83   21.34
  -2   4  48    3.05    3.62
   2  -4  48    5.87    3.89
  -4   2  48   -0.60    2.67
  -4   2 -48   11.03    5.16
  -2  -2  48    1.31    1.85
   4  -2  48    4.20    2.37
   2   2  48    6.19    4.23
   2   2 -48    3.50    2.94
   2  -4 -48    4.09    2.64
  -2  -2 -48    9.17    3.59
  -2  -2 -48    5.82    3.18
  -4   2  51   -1.47    2.18
   4  -2  51    7.16    4.00
   2  -4  51    7.83    4.02
  -2  -2  51    2.26    2.11
  -2   4  51   -0.36    3.61
   2   2  51    4.85    3.70
  -2  -2 -51    5.06    3.47
   2   2 -51   -6.64    5.24
   2  -4 -51    7.96    4.12
  -2  -2  54  160.32   19.48
   2  -4  54  175.72   19.31
   4  -2  54  187.06   19.23
   2   2  54  171.98   19.45
  -2   4  54  166.92   19.42
  -4   2  54  156.50   18.94
  -2  -2 -54  184.25   17.76
  -2  -2 -57   11.94    4.25
  -2   4  57    5.43    3.94
   2   2  57    8.54    4.32
   4  -2  57    6.88    3.37
  -4   2  57    6.79    4.29
   2  -4  57    0.94    2.33
  -2  -2  57    5.93    3.68
  -2  -2 -60   39.52    9.23
   2   2  60   26.13    7.59
  -2   4  60   32.18    9.26
  -4   2  60   29.97   10.20
  -2  -2  60   30.84    9.15
   4  -2  60   21.11    6.69
   2  -4  60   27.01    7.75
  -2  -2  63   78.76   14.62
  -2   4  63   72.21   14.11
  -4   2  63   57.08   12.69
   2   2  63   69.56   13.77
   4  -2  63   75.01   12.54
   2  -4  63   58.69   12.15
   4  -2  66   40.10    8.25
   2   2  66   46.66   11.06
  -4   2  66   44.00   11.43
   2  -4  66   43.53   10.62
  -2   4  66   39.11   10.17
  -2  -2  66   42.93   11.55
   2   2  69    0.55    3.65
  -2   4  69    5.84    5.47
  -4   2  69   12.55    6.50
   4  -2  69    0.40    2.63
   2  -4  69   -5.12    5.74
  -2  -2  69    4.91    3.12
   4  -2  72   48.70   11.33
  -2  -2  72   30.92   10.87
   2   2  72   50.86   12.32
  -2   4  72   42.91   11.87
  -4   2  72   35.99   10.80
   2  -4  72   45.43   11.48
   4  -2  75    1.73    2.88
   2   2  75   -3.53    3.57
  -2  -2  75   -1.38    3.26
  -2   4  75    8.44    6.76
  -4   2  75   13.82    8.29
   2  -4  75   -1.73    6.25
   2  -4  78   44.12   12.39
   4  -2  78   40.12   10.42
   2   2  78   49.95   13.37
  -2   4  78   45.68   12.77
  -2  -2  78   28.88   11.13
  -4   2  78   36.27   11.63
  -4   2  81   10.29    8.05
   2  -4  81   -8.11    6.65
  -2   4  81    4.31    5.60
   4  -2  81    1.26    4.58
   2   2  81    0.94    4.15
  -2  -2  81   -2.17    5.74
  -4   2 -84   17.87    7.68
  -2  -2  84   25.29   12.01
  -4   2 -87    9.14    7.51
  -4   2 -90   15.11    8.59
  -4   3 -88   13.09    7.36
  -3   4 -85   -1.61    3.13
  -4   3 -85    4.89    3.49
  -3   4 -82   15.36    7.35
  -4   3 -82   18.00    7.66
  -4   1  82   11.79    8.64
   1   3  82   21.64    8.38
   4  -3  82   17.83    8.94
  -1   4  82   11.51    7.77
  -3  -1  82    9.41    7.26
  -3   4 -79    1.92    5.32
  -4   3 -79   12.60    6.24
  -4   1  79    9.89    9.49
   1   3  79    4.02    4.79
   4  -3  79   -0.28    3.16
   3  -4  79    4.71    4.45
  -3  -1  79    0.62    3.75
  -1   4  79   -3.24    4.53
  -3   4 -76   16.12    7.33
  -4   3 -76   15.95    7.51
   4  -3  76   19.60    9.46
  -4   1  76    0.76    2.69
   3  -4  76   22.31    8.08
  -3  -1  76   13.03    7.90
  -1   4  76   24.46   10.33
   1   3  76   21.20    8.43
  -4   3 -73    6.20    4.24
  -3   4 -73   -6.32    3.74
  -4   1  73    1.59    3.87
   4  -3  73   -0.93    3.87
  -3  -1  73   -4.97    6.09
  -1   4  73   -2.09    4.64
   1   3  73   -4.10    5.16
   3  -4  73   -0.04    4.08
  -3   4 -70   60.29   12.73
  -4   3 -70   63.06   12.69
  -3  -1  70   70.69   15.98
   1   3  70   65.40   14.01
   4  -3  70   71.80   14.17
  -1   4  70   64.69   15.56
   3  -4  70   58.05   12.78
  -4   1  70   62.21   13.81
  -3   4 -67   10.56    5.77
  -4   3 -67   12.63    4.58
   1   3  67   10.85    5.90
  -3  -1  67   13.26    7.03
  -1   4  67    7.89    5.02
   3  -4  67    7.33    4.72
   4  -3  67   15.99    6.98
  -4   1  67   12.89    7.06
  -1   4  64   77.15   14.59
  -4   3 -64   73.67   12.93
  -3   4 -64   74.58   13.17
   3  -4  64   77.00   13.61
  -3  -1  64   72.18   14.29
   4  -3  64   97.13   15.17
  -4   1  64   68.96   13.79
   1   3  64   89.16   15.57
  -3   4 -61   39.29    9.49
  -4   3 -61   42.09    9.33
  -3  -1  61   39.07    9.78
  -1   4  61   40.78   10.15
   4  -3  61   44.69   10.25
   3  -4  61   45.52   10.73
  -4   1  61   49.64   11.86
   1   3  61   51.29   11.50
   1   3  58   66.79   12.55
  -1  -3 -58   57.91   10.44
  -3   4 -58   72.56   12.78
  -4   3 -58   72.14   11.93
   4  -3  58   73.65   13.03
   3  -4  58   54.78   11.68
  -3  -1  58   53.27   11.72
  -1   4  58   62.48   11.95
  -4   1  58   53.52   11.44
  -1  -3 -55    7.42    5.01
  -3   4 -55    1.67    3.51
  -4   3 -55    4.47    3.00
   4  -3  55    3.50    3.57
  -1   4  55    4.79    3.88
  -4   1  55  -15.59    7.11
  -3  -1  55    7.84    4.60
   1   3  55   -4.30    3.66
   3  -4  55    4.58    4.35
   1  -4 -52   12.07    5.46
  -1  -3 -52   13.01    4.86
  -4   3 -52   12.45    4.95
  -3   4 -52   14.38    5.33
   3  -4  52    9.59    5.33
  -4   1  52    8.45    4.25
  -1   4  52    7.98    4.01
   1   3  52   19.15    6.50
   4  -3  52   14.84    5.19
  -3  -1  52    7.22    4.35
  -1  -3 -49    5.77    3.47
   3   1 -49    8.61    4.21
   1  -4 -49    5.33    3.16
  -1  -3 -49    7.55    4.49
  -1   4  49    3.01    3.99
   1   3  49    4.69    2.84
  -4   1  49    6.77    3.88
   3  -4  49    2.92    3.44
   4  -3  49    1.35    2.62
  -3  -1  49    2.18    2.83
  -3   4 -49    7.69    3.41
  -4   3 -49    6.72    4.04
  -3   4 -46  225.36   21.05
  -1   4  46  278.95   22.64
   1   3  46  259.46   21.52
  -1  -3 -46  307.32   23.35
   3   1 -46  223.58   19.81
  -4   3 -46  248.32   22.15
  -4   1  46  246.56   21.96
   4  -3  46  248.11   20.96
   3  -4  46  217.05   19.97
  -3  -1  46  232.87   20.86
  -4   3 -46  281.47   21.45
  -3   4 -46  252.16   21.49
   4  -1 -46  272.78   23.01
   1  -4 -46  294.14   21.85
  -1  -3 -46  278.36   19.84
  -1   4  43   82.14   11.73
   3   1 -43   77.08   11.33
  -1  -3 -43   87.94   11.84
   1   3  43   89.27   12.31
  -4   1  43   76.90   11.99
  -4   3 -43   78.31   11.84
   4  -3  43   82.86   11.78
   3  -4  43   64.12   10.27
  -3   4 -43   82.77   12.48
  -3  -1  43   77.42   11.55
  -4   3 -43   79.42   11.15
  -3   4 -43   82.03   11.89
  -1  -3 -43   82.77   10.14
   4  -1 -43   88.10   12.76
   1  -4 -43   90.05   11.71
  -1   4  40  321.85   22.84
  -1  -3 -40  336.06   22.97
  -4   1  40  274.94   21.17
   1   3  40  344.69   23.18
   3   1 -40  295.08   21.30
  -3  -1  40  281.21   21.04
  -3   4 -40  282.92   22.24
  -4   3 -40  322.08   23.38
   4  -3  40  269.59   20.33
  -3   4 -40  322.37   22.78
  -4   3 -40  318.45   21.09
   4  -1 -40  315.85   23.15
   1  -4 -40  334.36   21.83
  -1  -3 -40  335.01   20.25
  -1   4  37   11.59    4.79
   4  -1 -37   11.37    4.66
  -1  -3 -37    8.84    3.33
  -1  -3 -37   12.16    4.69
   3   1 -37    9.55    4.13
  -4   3 -37   13.21    4.95
   4  -3  37    6.01    2.93
   1   3  37   14.93    5.20
  -4   1  37   10.86    3.95
  -3  -1  37    5.45    2.92
  -3   4 -37   11.18    4.72
  -4   3 -37   13.76    4.40
  -3   4 -37    9.81    4.26
   1  -4 -37   12.93    4.66
   3   1 -34  282.98   19.39
  -4   1  34  305.41   20.67
   1   3  34  345.82   21.68
  -1  -3 -34  339.19   21.35
  -3  -1  34  294.08   19.74
  -1   4  34  302.18   20.60
  -3   4 -34  286.63   20.74
  -4   3 -34  300.22   21.14
  -4   3 -34  331.03   19.92
  -3   4 -34  318.22   20.93
   1  -4 -34  329.86   20.05
  -1  -3 -34  335.25   18.23
   4  -1 -34  299.72   20.86
  -4   1  31   50.90    8.19
  -1   4  31   59.60    8.88
  -3  -1  31   47.32    7.59
   3   1 -31   50.69    8.03
   1   3  31   56.64    8.38
  -3   4 -31   45.18    7.93
  -4   3 -31   46.20    8.20
  -4   3 -31   40.86    6.59
  -3   4 -31   54.39    8.32
   4  -1 -31   53.98    8.76
   1  -4 -31   55.73    7.94
  -1   4  31   47.27    6.58
  -1  -3 -31   53.35    6.86
  -4   1  28  634.32   26.83
  -1   4  28  676.03   28.04
   1   3  28  712.40   27.29
  -3  -1  28  648.38   26.51
   3   1 -28  649.56   26.51
  -4   3 -28  657.32   28.35
  -3   4 -28  647.69   28.15
  -3   4 -28  658.27   28.23
  -4   3 -28  660.90   25.90
  -1   4  28  691.08   26.39
   1  -4 -28  723.88   28.41
  -1  -3 -28  709.00   23.92
   4  -1 -28  650.32   28.16
   1   3  25   44.25    6.27
  -3  -1  25   47.89    7.00
  -1   4  25   47.83    6.98
  -4   1  25   42.14    6.65
   3   1 -25   41.42    6.17
  -3   4 -25   39.16    6.27
  -4   3 -25   45.80    6.95
  -4   3 -25   48.36    6.64
  -3   4 -25   47.61    7.05
  -1  -3 -25   47.02    5.58
   1  -4 -25   54.09    7.55
  -1   4  25   49.57    6.71
   4  -1 -25   48.77    7.48
  -1   4  22   31.27    5.44
   1   3  22   34.57    5.41
   4  -1 -22   32.91    5.91
   3   1 -22   20.30    3.88
  -4   1  22   35.34    5.96
  -1   4  22   30.46    4.88
  -4   3 -22   33.01    5.51
  -3  -1  22   31.88    5.19
  -3   4 -22   35.20    5.76
  -3   4 -22   34.44    6.03
  -4   3 -22   31.29    5.16
   1   3  22   25.62    3.52
   1  -4 -22   35.73    5.61
  -1  -3 -22   38.83    5.11
   4  -1 -19   -2.37    1.87
   1   3  19   -0.18    1.07
   1   3  19    0.78    1.20
  -4   1  19   -0.19    1.23
   3   1 -19    0.61    1.13
  -3  -1  19    3.04    2.01
  -4   3 -19    1.84    1.88
  -3   4 -19    3.10    2.24
  -4   3 -19    1.18    1.18
  -3   4 -19   -0.21    1.39
   4  -3  19   -1.10    1.66
   3  -4  19    0.12    1.23
  -1  -3 -19    0.57    1.40
  -3  -1  16  468.58   16.91
   3   1 -16  401.39   15.02
  -4   1  16  463.47   18.22
   1   3  16  549.42   19.96
  -4   3 -16  475.80   18.80
  -3   4 -16  456.14   20.40
  -1  -3 -16  486.92   15.43
   3  -4  16  463.37   20.60
   1  -4 -16  491.35   19.46
   4  -3  16  469.53   18.78
  -1   4  16  467.37   18.67
   1   3  16  426.28   14.38
   4  -1 -16  446.71   19.07
   4  -1 -13    0.88    1.17
   1   3  13    0.80    0.94
   3   1 -13   -0.44    0.89
  -3  -1  13    0.63    1.38
   4  -3  13    0.38    1.50
  -4   3 -13    0.88    1.21
   3  -4  13    0.53    1.10
  -3   4 -13   -1.58    2.04
   1  -4 -13    1.90    1.07
  -1  -3 -13    0.61    1.12
   1   3  13    1.11    0.79
  -1   4  13   -2.64    2.43
   1  -4 -10  354.20   15.20
  -4   3 -10  359.69   15.34
   4  -3  10  362.19   15.64
  -1  -3 -10  352.64   11.60
  -3   4 -10  333.72   16.21
   3  -4  10  359.23   17.25
   1   3  10  350.50   11.75
  -4   1  10  331.48   14.26
   4  -1 -10  346.86   14.78
  -1   4  10  360.78   15.33
  -3   4  -7   73.39    7.07
  -4   3  -7   80.13    7.15
  -1   4   7   75.71    6.62
   4  -3   7   70.76    6.48
   1  -4  -7   77.52    6.77
   3  -4   7   83.39    8.05
  -1  -3  -7   82.92    5.50
   1   3   7   78.49    5.28
  -4   1   7   95.67    7.61
   4  -1  -7   80.19    6.64
   3  -4   4  650.43   21.84
   1   3   4  648.30   15.39
   1  -4  -4  674.22   20.55
  -1  -3  -4  693.59   16.49
  -3   4  -4  623.96   21.06
   4  -3   4  656.48   20.11
  -4   3  -4  650.24   20.13
  -1   4   4  640.36   19.45
   4  -1  -4  667.09   18.85
  -4   1   4  646.88   19.29
  -4   3  -1  509.25   18.25
   1   3   1  506.47   14.24
   4  -1  -1  485.36   14.62
   4  -3   1  500.61   17.66
  -1  -3  -1  527.97   15.36
  -1   4   1  494.99   17.39
   3  -4   1  477.79   18.45
  -3   4  -1  475.03   18.21
   1  -4  -1  496.59   17.86
  -4   1   1  480.17   15.58
  -1   4  -2  514.51   18.01
   1  -4   2  545.78   19.48
   3  -4  -2  510.02   18.99
   1   3  -2  544.23   15.87
   4  -1   2  481.36   13.44
  -3   4   2  514.42   19.30
   4  -3  -2  504.89   17.75
   3   1   2  385.98    7.90
  -4   1  -2  556.97   15.09
  -4   3   2  548.17   19.35
  -3  -1  -5   37.66    2.56
   1  -4   5   48.09    5.87
   4  -3  -5   47.55    5.66
   3  -4  -5   41.30    5.18
   1   3  -5   48.59    5.12
  -1   4  -5   38.57    4.85
   4  -1   5   46.72    3.83
  -4   3   5   39.47    5.26
  -3   4   5   38.47    4.98
  -4   1  -5   43.64    3.93
  -3  -1  -8   51.48    4.01
   1   3  -8   61.32    4.76
   1   3  -8   39.45    4.80
   4  -1   8   43.59    3.78
   3  -4  -8   42.47    5.46
   4  -3  -8   44.50    5.56
  -1   4  -8   42.19    5.62
   1  -4   8   38.83    5.61
  -4   1  -8   41.57    3.64
  -4   3   8   41.55    5.69
  -3   4   8   40.89    5.59
  -3  -1 -11  302.97   11.53
   1   3 -11  271.74   11.78
  -4   1 -11  287.18   12.76
   3   1  11  278.03   10.28
   3  -4 -11  295.38   15.65
   1   3 -11  292.02   14.51
   1  -4  11  298.83   16.16
  -4   1 -11  293.98   10.37
   4  -1  11  286.61   10.21
  -1   4 -11  278.73   14.85
  -3   4  11  299.58   15.93
  -4   3  11  303.15   15.86
   4  -3 -11  296.73   15.54
  -3  -1 -14  981.36   22.74
   3   1  14  947.69   22.04
  -4   1 -14  907.13   23.70
   1   3 -14  881.81   23.21
  -4   1 -14  909.72   19.05
  -1   4 -14  909.50   28.06
   4  -3 -14  906.04   28.16
   3  -4 -14  936.93   29.09
  -4   3  14  941.55   29.04
  -3   4  14  894.45   27.96
  -3  -1 -17   29.30    4.54
  -4   3  17   17.28    3.39
  -3   4  17   19.96    3.95
  -3  -1 -17   10.64    1.68
   1   3 -17   22.08    3.80
   3   1  17   27.32    4.26
  -4   1 -17   28.10    4.43
  -1   4 -17   26.69    4.32
  -4   1 -17   17.87    2.47
  -1   4 -17   15.33    3.65
   4  -3 -17   23.22    4.71
   3  -4 -17   21.93    4.31
  -3  -1 -20 1616.05   34.40
  -4   1 -20 1594.59   37.39
  -1  -3  20 1542.95   34.02
   1   3 -20 1396.07   33.50
  -1   4 -20 1472.90   35.62
   3   1  20 1612.99   35.22
  -1   4 -20 1506.26   39.16
  -4   1 -20 1608.59   29.77
   3  -4 -20 1587.02   41.00
   4  -3 -20 1513.79   39.35
  -3   4  20 1563.09   39.51
  -4   3  20 1572.69   40.28
  -3  -1 -23  281.95   15.60
   1   3 -23  198.36   13.21
   3   1  23  264.91   15.12
   4  -1  23  237.63   14.51
  -4   1 -23  245.51   14.99
  -1   4 -23  231.95   15.25
  -1  -3  23  229.28   13.37
  -4   1 -23  240.72   12.05
  -1   4 -23  225.07   15.71
   3  -4 -23  245.80   16.52
  -3   4  23  241.38   15.80
   4  -3 -23  234.59   15.89
  -4   3  23  263.61   17.28
   1   3 -26  312.25   18.07
  -4   3  26  314.85   19.14
  -3   4  26  324.26   19.77
  -3  -1 -26  374.44   19.18
  -4   1 -26  344.02   18.87
  -1   4 -26  326.07   19.46
   3   1  26  354.93   18.63
   4  -1  26  354.13   18.80
  -1  -3  26  324.85   17.07
  -4   1 -26  355.26   15.82
  -1   4 -26  333.98   20.22
   4  -3 -26  314.69   19.20
  -3   4  26  332.04   19.48
  -4   3  26  323.23   19.32
   3  -4 -26  361.20   21.09
  -3   4  29   37.73    6.81
   4  -3 -29   32.54    6.57
  -3   4  29   32.70    6.56
  -4   3  29   21.74    4.71
  -4   3  29   30.70    6.20
  -3  -1 -29   40.43    6.39
  -1  -3  29   31.98    5.66
   3   1  29   38.85    6.49
   4  -1  29   35.78    6.16
   1   3 -29   20.56    4.46
  -4   1 -29   38.32    6.66
  -1   4 -29   35.64    7.11
  -1   4 -29   34.14    6.63
  -4   1 -29   33.46    5.06
   3  -4 -29   33.40    6.66
  -4   1 -32  165.77   14.83
  -3   4  32  150.92   14.74
  -4   3  32  144.12   14.02
   1   3 -32  140.79   13.55
  -3  -1 -32  159.55   13.66
   4  -1  32  148.29   13.08
   1  -4  32  119.98   12.08
   3   1  32  153.50   13.61
  -1  -3  32  131.64   12.32
  -1   4 -32  135.81   13.76
  -4   1 -32  165.40   12.19
  -3   4  32  154.98   13.91
   4  -3 -32  163.35   14.93
   3  -4 -32  165.41   14.86
  -1  -3  35   -5.09    3.82
   1  -4  35   -2.72    2.32
   3   1  35   -1.67    2.07
   1   3 -35   -1.51    1.91
  -1   4 -35   -0.77    2.73
  -4   1 -35   -2.53    2.35
   4  -1  35   -0.47    2.12
  -3  -1 -35   -0.70    1.70
  -3   4  35   -2.49    2.58
  -4   3  35   -2.67    3.51
  -3   4  35   -2.39    3.05
   3  -4 -35    0.50    1.57
   4  -3 -35    2.09    2.23
   3   1  38   14.31    5.02
  -1  -3  38   12.86    4.22
   1  -4  38   13.76    4.39
  -4   1 -38   11.11    4.25
   4  -1  38   14.73    4.57
   1   3 -38   15.42    5.25
  -1   4 -38   10.55    4.32
  -3  -1 -38   16.79    5.04
   4  -3 -38   14.57    5.28
  -3   4  38    8.72    2.93
  -4   3  38    8.61    3.14
   3  -4 -38   14.76    4.28
  -4   1 -41   40.32    8.29
  -1  -3  41   26.65    6.46
   3   1  41   32.45    7.32
  -1   4 -41   30.54    7.44
   1   3 -41   33.31    7.70
   1  -4  41   35.14    7.22
   4  -1  41   42.19    7.76
  -4   3  41   31.61    7.33
  -3  -1 -41   46.94    8.66
  -3   4  41   39.84    8.35
   4  -3 -41   36.94    8.12
   3  -4 -41   40.39    7.95
   3   1  44  153.46   16.68
   4  -1  44  154.88   15.60
  -1  -3  44  133.18   14.81
   1  -4  44  152.86   15.75
  -3   4  44  158.78   17.53
  -4   3  44  148.94   16.92
  -1   4 -44  137.96   16.42
  -3  -1 -44  181.25   17.49
   1   3 -44  133.41   15.19
  -4   1 -44  176.22   17.68
   4  -3 -44  154.98   16.70
   3  -4 -44  165.57   16.88
  -1  -3  47   -0.26    1.86
  -4   1 -47    4.25    3.78
   1  -4  47    4.42    3.80
   3   1  47   -7.93    6.78
  -1   4 -47   -3.22    4.35
   4  -1  47    1.32    2.06
   1   3 -47   -6.35    4.88
  -4   3  47   -3.83    3.81
   3  -4 -47    3.93    4.62
  -3   4  47   -2.54    2.79
  -3  -1 -47   -9.24    5.49
   1  -4  50  127.11   15.09
   3   1  50  130.48   16.93
  -1  -3  50  117.16   15.31
   4  -1  50  132.73   15.63
  -3   4  50  124.72   15.81
  -4   3  50  119.68   15.88
  -3  -1 -50  145.64   16.86
   1   3 -50  119.28   15.62
  -3  -1 -50  103.39   10.84
  -3  -1 -53   -1.17    2.83
  -1  -3  53   -5.30    5.17
   3   1  53    3.59    3.25
   4  -1  53    3.61    2.23
  -3   4  53    0.41    2.11
   1  -4  53   -1.30    4.02
  -4   3  53   10.15    5.59
  -3  -1 -56   15.93    4.10
  -1  -3  56   18.00    6.03
   3   1  56   18.70    6.69
  -4   3  56    4.41    2.42
   1  -4  56   16.60    5.49
   4  -1  56   15.72    5.61
  -3   4  56   18.03    6.51
  -3  -1 -59   -0.15    1.85
   1  -4  59   -1.06    3.10
  -1  -3  59    0.56    2.72
   4  -1  59   -2.47    4.62
  -4   3  59   -0.41    3.34
  -3   4  59   -3.02    4.68
   3   1  59   -1.28    3.49
  -3   4  62   35.12    9.57
  -4   3  62   26.01    7.97
  -1  -3  62   35.55    8.93
   3   1  62   33.68   10.69
   4  -1  62   36.67    9.35
   1  -4  62   41.13    9.79
  -1  -3  65   -8.67    6.13
  -3   4  65   -7.73    5.21
   1  -4  65    2.31    3.85
   4  -1  65   -3.75    4.17
   3   1  65    1.56    4.35
  -4   3  65    5.37    4.38
  -3   4  68   64.02   14.18
  -4   3  68   62.40   13.67
   3   1  68   73.49   14.50
  -1  -3  68   71.62   14.77
   4  -1  68   77.62   14.11
   1  -4  68   79.21   14.93
   1  -4  71    2.25    4.04
  -3   4  71    7.82    7.01
  -1  -3  71    0.33    3.34
  -4   3  71    2.97    4.09
   4  -1  71   -0.69    3.05
   3   1  71   -8.59    5.99
  -1  -3  74   42.49   12.16
  -3   4  74   55.59   13.10
   3   1  74   50.84   12.22
  -4   3  74   53.37   13.63
   1  -4  74   40.34   11.52
   4  -1  74   58.96   12.94
   3   1  77   -4.33    5.79
  -4   3  77    1.43    4.84
  -1  -3  77    3.64    3.42
   4  -1  77    6.60    5.36
   1  -4  77   -6.81    5.81
   4  -1  80   55.14   12.77
   3   1  80   63.13   14.52
  -1  -3  80   46.16   15.10
  -3   4  80   59.32   15.93
  -4   3  80   51.79   14.50
   1  -4  80   52.04   13.70
   3   1  83    2.13    3.25
   4  -1  83    1.22    4.96
  -1  -3  83    6.37    4.10
  -4   4 -83   -2.18    4.44
  -4   0  83    2.92    4.27
  -4   4 -80   22.70    9.29
  -4   0  80    6.52    6.44
   4  -4  80   19.51    8.60
   0   4  80   17.16    8.07
  -4   4 -77    3.07    3.30
   0   4  77    7.20    5.47
  -4   0  77    6.51    5.96
   4  -4  77   -1.78    5.29
  -4   4 -74   43.31   19.50
   4  -4  74   23.58    9.62
  -4   0  74    9.49    4.48
   0   4  74   17.60    8.84
  -4   4 -71    4.84    5.12
   0   4  71    6.14    3.72
  -4   0  71   -0.50    4.31
   4  -4  71    1.67    2.79
   0   4  68  115.26   19.22
  -4   4 -68  112.28   17.22
   4  -4  68  112.56   17.21
  -4   0  68   76.43   15.28
  -4   4 -65    3.30    3.93
  -4   0  65   -4.20    3.77
   0   4  65    5.92    5.33
   4  -4  65    6.66    5.38
   0   4  62  185.03   22.00
  -4   4 -62  186.98   21.82
   4  -4  62  168.37   20.01
  -4   0  62  157.51   20.46
  -4   4 -59    4.80    4.44
   4  -4  59    2.67    2.81
   0   4  59   -4.35    4.12
  -4   0  59    3.44    3.86
   0  -4 -56    5.57    3.90
  -4   4 -56    6.58    3.45
   0   4  56    5.11    2.47
   4  -4  56    9.90    4.67
  -4   0  56   18.20    6.52
   0  -4 -53    4.20    3.84
  -4   4 -53    4.68    4.30
   4  -4  53    0.34    3.09
   0   4  53    2.48    4.41
  -4   0  53   -0.71    2.05
   0  -4 -50   19.19    5.92
   4   0 -50   11.93    5.17
  -4   4 -50   12.46    5.18
   0   4  50   19.17    7.32
  -4   0  50    8.26    4.32
   4   0 -47    3.26    3.46
   0  -4 -47    0.86    2.77
  -4   0  47   -1.52    3.95
   0   4  47   -3.17    3.35
  -4   4 -47    1.11    3.82
  -4   0  44  267.54   21.63
   0   4  44  317.85   23.66
   4   0 -44  271.31   21.35
  -4   4 -44  288.61   23.58
  -4   4 -44  293.41   22.06
   0  -4 -44  323.64   21.82
   4   0 -44  225.48   17.80
   4   0 -41   -0.22    2.31
   4   0 -41    1.31    1.89
   0   4  41   -1.85    2.28
  -4   0  41    0.15    1.74
  -4   4 -41    0.10    3.08
  -4   4 -41    0.04    2.00
   0  -4 -41   -0.32    2.17
  -4   0  38  102.67   12.56
   0   4  38  121.84   13.48
   4   0 -38   94.20   11.47
   4   0 -38   90.28   10.60
  -4   4 -38   97.49   13.99
  -4   4 -38  130.37   13.83
   0  -4 -38  128.85   12.51
   0   4  35    4.98    2.72
   4   0 -35    1.07    2.46
   4   0 -35    1.81    2.20
  -4   0  35   -4.64    3.02
  -4   4 -35    2.63    2.86
  -4   4 -35    1.62    2.41
   0  -4 -35   -0.97    1.34
  -4   0  32  261.92   18.37
   0   4  32  303.69   20.00
   4   0 -32  212.91   15.13
  -4   4 -32  282.37   20.00
  -4   4 -32  277.61   18.72
   0  -4 -32  306.25   18.47
   4   0 -29   -0.17    1.22
   0   4  29   -0.14    1.83
   0   4  29   -0.07    2.28
  -4   0  29    2.12    1.75
  -4   4 -29    0.40    2.14
  -4   4 -29    0.92    1.55
   0  -4 -29    1.00    1.41
  -4   0  26  273.33   16.58
   0   4  26  340.71   20.10
  -4   4 -26  274.30   17.41
  -4   4 -26  300.08   18.30
   0   4  26  297.62   15.85
   4   0 -26  206.60   13.47
   0  -4 -26  310.06   16.86
   0   4  23   -2.39    2.10
   0   4  23   -1.37    1.75
   4   0 -23   -0.12    1.23
  -4   0  23    0.54    1.64
  -4   4 -23   -0.71    1.82
  -4   4 -23   -3.47    2.58
   0  -4 -23   -0.93    2.19
   0   4  20  418.03   19.30
  -4   0  20  375.40   17.47
  -4   4 -20  327.86   18.20
   4  -4  20  406.86   20.31
   0  -4 -20  423.50   17.86
  -4   4 -20  403.84   20.29
   4   0 -20  332.50   16.65
   0   4  20  400.29   16.88
  -4   0  17   -1.02    1.34
   4   0 -17    2.17    2.08
  -4   4 -17   -1.85    2.62
   4  -4  17   -0.31    1.76
   0  -4 -17    0.80    1.57
   0   4  17   -0.77    1.65
  -4   0  14  248.71   12.46
  -4   4 -14  238.40   14.45
   0  -4 -14  244.11   12.41
   4  -4  14  247.44   14.81
   0   4  14  261.91   12.66
   4   0 -14  224.79   13.16
   4   0 -11    1.87    1.75
  -4   0  11   -0.78    1.19
   4  -4  11   -0.01    1.04
  -4   4 -11   -2.47    2.30
   0  -4 -11   -0.51    1.34
   0   4  11   -1.04    1.61
   0   4   8  501.39   16.74
   4  -4   8  534.84   20.96
   0  -4  -8  539.90   17.85
  -4   4  -8  524.32   20.26
   4   0  -8  509.93   16.95
   4   0  -5    0.57    0.81
   0  -4  -5   -2.15    2.02
   4  -4   5   -2.12    1.78
  -4   4  -5   -3.41    2.64
   0   4   5   -4.52    2.26
   4  -4   2  207.03   12.79
   0   4   2  208.89   10.73
   0  -4  -2  221.37   11.90
  -4   4  -2  207.58   12.64
   4   0  -2  176.39    7.92
   0   4  -1    0.02    1.37
   0  -4   1   -5.55    2.74
   4   0   1    0.29    0.65
   4  -4  -1   -2.43    1.95
  -4   4   1   -2.04    1.80
   4   0   4  184.32    6.31
  -4   4   4  206.22   13.28
   0   4  -4  200.88   11.49
   4  -4  -4  202.15   12.64
   0  -4   4  215.93   12.42
  -4   0  -7   -1.47    1.33
   0  -4   7   -2.50    2.06
   0   4  -7    0.91    1.23
   4   0   7    0.05    0.48
  -4   4   7   -2.53    2.04
   4  -4  -7   -0.22    1.52
  -4   0  -7   -0.98    0.90
  -4   0 -10  273.38   11.53
   0   4 -10  279.20   14.75
   4  -4 -10  273.81   15.44
  -4   4  10  291.79   16.25
  -4   0 -13   -0.85    1.89
   0   4 -13   -4.10    2.09
   0   4 -13   -1.61    2.03
  -4   0 -13   -0.87    0.87
   4  -4 -13   -2.85    3.03
  -4   4  13   -3.73    2.50
   0   4 -16 1345.87   30.92
  -4   0 -16 1370.56   30.28
  -4   0 -16 1331.48   18.62
   0   4 -16 1406.32   36.11
  -4   4  16 1422.03   37.24
   4  -4 -16 1445.30   38.62
  -4   4  19   -2.49    2.85
   4   0  19   -2.57    2.27
  -4   0 -19   -1.80    1.30
   0   4 -19   -3.16    2.49
   0   4 -19   -5.98    3.40
  -4   0 -19    1.20    0.84
   4  -4 -19   -2.88    3.29
  -4   0 -22  882.60   28.24
   0   4 -22  825.65   29.05
   4   0  22  830.42   25.47
  -4   0 -22  797.74   19.21
   0   4 -22  847.95   31.07
  -4   4  22  830.03   30.90
   4  -4 -22  872.98   32.48
  -4   4  25   -1.63    2.93
  -4   0 -25    0.60    1.49
   0   4 -25   -3.45    2.87
   4   0  25   -0.68    1.66
  -4   0 -25   -0.17    1.13
   4  -4 -25    2.05    2.99
   0   4 -28   70.11    9.26
   4   0  28  101.37   10.11
  -4   0 -28   99.02   10.47
  -4   4  28   92.75   11.18
  -4   4  28   91.82   11.07
   4  -4 -28   91.37   10.94
   4   0  31   -0.45    1.66
   0  -4  31   -0.30    1.52
   0   4 -31    0.92    1.47
  -4   0 -31    4.42    3.09
  -4   4  31   -0.93    1.86
  -4   4  31    2.32    1.65
   4  -4 -31   -1.12    1.40
   0  -4  34   57.65    8.60
   4   0  34   60.37    8.62
   0   4 -34   51.38    8.73
  -4   0 -34   63.94    9.46
  -4   4  34   64.44    9.99
   4  -4 -34   73.97   10.52
  -4   4  34   51.01    7.50
   4  -4 -37   -1.02    1.73
  -4   4  37   -0.25    1.98
   0   4 -37   -2.78    3.43
   0  -4  37    0.26    1.50
   4   0  37    1.50    1.64
  -4   0 -37    1.51    1.74
   4  -4 -40   10.37    4.39
  -4   4  40    8.19    3.80
  -4   0 -40    8.65    3.34
   4   0  40    9.79    3.64
   0   4 -40    4.37    2.13
   0  -4  40    8.29    3.66
  -4   4  43    0.22    2.87
   4  -4 -43    6.04    4.71
   0  -4  43    1.27    2.01
   0   4 -43   -5.43    4.37
   4   0  43    0.55    2.15
  -4   0 -43   -9.91    4.57
   0   4 -46 1163.19   48.23
  -4   4  46 1327.34   52.26
  -4   0 -46 1452.12   51.36
   0  -4  46 1244.28   46.16
   4   0  46 1292.07   48.12
  -4   4  49    1.33    3.66
  -4   0 -49   -3.31    4.00
   4   0  49    0.67    2.36
   0  -4  49    5.85    4.52
   0  -4  52   29.42    7.68
   4   0  52   34.49    8.01
  -4   4  52   30.09    8.65
   0  -4  55    0.49    3.02
   4   0  55    0.84    3.09
  -4   4  55   -1.16    2.64
   0  -4  58   30.11    8.01
  -4   4  58   30.78    9.06
   4   0  58   35.25    9.34
  -4   4  61   -0.74    3.99
   0  -4  61   -2.99    3.73
   4   0  61   -4.33    5.01
  -4   4  64   20.30    7.59
   4   0  64   35.82    9.55
   0  -4  64   27.80    8.22
   0  -4  67   -0.36    3.77
  -4   4  67   -1.49    2.87
   4   0  67   -8.17    5.13
   0  -4  70   63.26   14.36
  -4   4  70   59.36   14.78
   4   0  70   80.88   14.51
   4   0  73    0.97    3.43
   0  -4  73    0.00    4.18
  -4   4  73   -1.38    3.12
  -4   4  76   56.70   14.03
   4   0  76   69.89   15.10
   0  -4  76   57.16   14.91
   4   0  79   -1.01    4.63
  -4   4  79    8.73    7.03
   0  -4  79    4.03    3.15
   0  -4  82    5.80    5.70
   4   0  82    9.00    4.79
  -5   3 -86   16.07    8.90
  -3  -2  83    3.61    4.41
  -5   3 -83    4.33    4.78
  -3  -2  80   12.13    8.18
   2   3  80   14.92    8.17
  -2   5  80    6.28    7.29
   5  -3  80   -0.22    4.06
  -5   2  80   10.42    6.80
  -5   3 -80   16.81    7.67
  -3   5 -80   13.47    6.05
  -3  -2  77    0.64    4.96
   2   3  77    3.29    3.68
   5  -3  77   -2.66    4.98
  -2   5  77    0.24    5.04
  -5   2  77    4.15    5.07
  -3   5 -77    0.46    3.06
  -5   3 -77   -3.14    4.53
   2   3  74   65.25   14.72
   5  -3  74   57.30   12.64
  -3  -2  74   41.55   13.90
  -2   5  74   49.72   13.05
  -5   2  74   64.69   15.18
  -5   3 -74   52.28   12.51
  -3   5 -74   59.28   13.90
  -2   5  71   15.08    7.54
   5  -3  71    9.91    5.37
  -5   2  71   14.66    8.65
  -3  -2  71    8.20    5.12
   2   3  71    9.12    6.37
  -5   3 -71   10.73    6.53
  -3   5 -71   14.62    7.64
  -2   5  68   49.28   12.11
  -5   2  68   56.28   13.31
   2   3  68   54.40   12.90
  -3  -2  68   47.01   13.01
   5  -3  68   51.52   12.40
  -3   5 -68   62.92   13.78
  -5   3 -68   57.55   12.13
  -2   5  65    6.29    3.37
   2   3  65    8.30    5.44
  -3  -2  65    6.28    3.04
   5  -3  65    3.64    2.36
  -5   2  65   -0.70    2.67
  -5   3 -65    5.68    3.53
  -3   5 -65    7.78    5.07
  -2   5  62   11.21    6.20
  -5   2  62   17.23    6.57
   2   3  62   20.37    7.26
  -3  -2  62   22.90    7.49
   5  -3  62   24.76    7.25
  -3   5 -62   19.86    6.73
  -5   3 -62   19.35    6.41
  -2   5  59  178.23   21.83
  -5   2  59  172.18   21.46
   2   3  59  199.74   22.16
   5  -3  59  178.09   20.24
  -3  -2  59  171.73   20.58
  -3   5 -59  180.15   21.51
  -5   3 -59  189.17   19.89
  -2  -3 -59  172.68   18.11
  -2   5  56  102.07   15.87
  -5   2  56   86.28   14.42
   2   3  56  113.92   16.61
   5  -3  56   97.99   14.52
  -3  -2  56  104.22   15.54
  -3   5 -56  104.18   16.01
  -5   3 -56  104.08   14.39
  -2  -3 -56  107.94   13.66
   2   3  53  122.04   16.10
  -2   5  53  121.92   16.78
  -5   2  53  109.01   16.31
  -3  -2  53   94.33   14.58
   5  -3  53  114.49   14.53
  -3   5 -53  128.57   17.12
  -5   3 -53  124.72   15.29
  -2  -3 -53  126.02   13.99
  -2  -3 -50   16.71    5.02
   3   2 -50   16.07    5.53
  -2  -3 -50    6.34    3.02
  -5   2  50   16.26    6.39
  -2   5  50   21.87    7.02
  -3  -2  50   11.84    4.39
   5  -3  50   10.49    3.14
   2   3  50   11.52    3.68
  -3   5 -50   12.75    5.41
  -5   3 -50   15.67    5.39
  -2  -3 -47   -0.03    2.43
  -2  -3 -47   -1.17    2.71
   3   2 -47    0.96    2.94
  -2   5  47   -0.73    2.65
  -3  -2  47   -2.15    3.37
  -5   2  47   -2.52    2.63
   2   3  47   -0.09    2.69
  -3   5 -47   -5.99    4.84
  -5   3 -47   -2.04    3.14
   2  -5 -47    1.51    2.03
  -2   5  44   79.34   12.20
  -2  -3 -44   92.94   12.63
   2   3  44   95.64   13.25
  -5   2  44   75.68   12.29
   3   2 -44   79.35   11.64
  -5   3 -44   80.82   12.61
  -3  -2  44   80.25   12.15
  -3   5 -44   68.69   11.91
  -3   5 -44   66.43   10.81
  -5   3 -44   78.55   10.71
  -2  -3 -44   88.17   10.42
   2  -5 -44   78.70   11.48
   5  -2 -41   15.78    5.44
  -2  -3 -41   16.93    4.56
  -2  -3 -41   13.89    4.71
   3   2 -41    6.76    4.01
  -2   5  41    9.21    3.01
  -3   5 -41    2.03    1.50
  -3  -2  41   16.96    5.32
  -5   3 -41   14.22    4.74
  -5   2  41   12.67    4.32
   2   3  41   14.37    4.41
  -5   3 -41   13.36    4.51
  -3   5 -41   16.64    5.75
   2  -5 -41   15.39    5.53
   2   3  38  302.47   20.90
  -2  -3 -38  310.06   21.10
  -5   2  38  276.68   21.29
  -2   5  38  320.20   23.67
   3   2 -38  259.52   19.46
  -5   3 -38  276.00   21.65
  -3  -2  38  264.59   19.48
  -3   5 -38  248.04   21.72
  -3   5 -38  279.05   21.46
  -5   3 -38  278.30   18.95
  -2   5  38  222.75   15.38
  -2  -3 -38  303.45   17.50
   5  -2 -38  281.51   21.57
   2  -5 -38  327.06   22.87
  -2   5  35   12.85    3.90
  -2   5  35   15.56    4.79
  -5   2  35   17.09    5.14
  -2  -3 -35   20.14    5.31
   3   2 -35   15.19    4.75
  -2  -3 -35   14.88    3.82
   5  -2 -35   15.29    4.84
  -3  -2  35   11.67    4.04
   2   3  35   18.74    5.37
  -5   3 -35   18.83    5.71
  -3   5 -35   11.29    4.68
  -5   3 -35   18.78    4.78
  -3   5 -35   16.84    5.37
   2  -5 -35   18.46    4.81
  -5   2  32   35.71    7.15
  -2   5  32   38.95    7.43
  -2   5  32   37.18    6.60
   3   2 -32   29.51    6.12
  -2  -3 -32   42.58    7.26
   5  -2 -32   36.30    7.39
  -3   5 -32   33.82    7.27
  -3  -2  32   31.87    6.25
   2   3  32   39.99    6.81
  -5   3 -32   35.87    7.37
  -3   5 -32   39.03    7.50
  -5   3 -32   44.76    6.98
  -2  -3 -32   38.06    5.33
   2  -5 -32   44.47    7.55
  -2   5  29   37.97    6.97
  -2  -3 -29   39.52    6.68
   3   2 -29   24.83    5.24
   5  -2 -29   34.68    7.07
  -5   2  29   30.42    6.27
  -2   5  29   26.95    5.03
  -3  -2  29   24.30    5.19
   2   3  29   35.97    6.51
  -3   5 -29   35.58    6.81
  -5   3 -29   36.51    6.88
  -5   3 -29   33.81    5.77
  -3   5 -29   30.85    6.33
  -2  -3 -29   28.39    4.32
   2  -5 -29   37.08    6.76
   3   2 -26  334.04   17.96
   2   3  26  416.99   20.81
  -5   2  26  361.51   20.54
  -3   5 -26  365.49   20.49
  -5   3 -26  391.85   21.30
  -3  -2  26  367.41   18.93
  -3   5 -26  385.68   22.24
  -5   3 -26  393.30   19.49
  -2   5  26  387.17   20.69
   5  -2 -26  384.19   21.90
  -2  -3 -26  413.19   16.56
   2  -5 -26  406.48   22.23
   3   2 -23   31.90    5.10
   2   3  23   49.44    6.66
  -2   5  23   40.98    6.25
  -5   2  23   38.86    6.34
  -3  -2  23   42.91    6.20
  -3   5 -23   38.66    6.79
  -5   3 -23   48.47    7.04
  -3   5 -23   41.64    7.09
  -5   3 -23   44.18    6.26
   5  -2 -23   46.99    7.40
  -2  -3 -23   36.36    4.24
   2  -5 -23   48.25    7.22
  -5   2  20   -1.05    1.94
   5  -2 -20    4.01    2.29
   3   2 -20    1.07    1.36
  -2   5  20   -2.51    2.97
   2   3  20    2.86    1.58
  -3  -2  20    0.23    1.06
  -3   5 -20    3.57    2.77
  -5   3 -20    2.10    1.70
   3  -5  20    0.72    2.43
  -5   3 -20   -3.19    2.19
   5  -3  20   -2.83    1.87
  -3   5 -20   -0.57    1.84
   2  -5 -20   -3.19    3.08
  -2  -3 -20    0.27    1.02
   2   3  17  173.14   10.86
   3   2 -17  135.62    9.02
  -3  -2  17  147.92    9.46
  -5   3 -17  121.30   10.88
  -2  -3 -17  156.49    7.77
   3  -5  17  164.31   13.42
   2  -5 -17  162.54   12.61
   5  -3  17  163.52   11.16
  -5   3 -17  155.18   10.89
  -3   5 -17  172.13   13.93
   2   3  17  126.29    7.35
   5  -2 -17  148.04   11.83
  -2   5  17  168.35   12.82
  -5   2  17  154.84   12.52
   2   3  14  769.16   20.55
   3   2 -14  701.67   18.48
  -3  -2  14  677.99   17.73
   2  -5 -14  744.71   26.03
   5  -3  14  743.60   23.45
   3  -5  14  763.71   28.60
  -3   5 -14  734.88   27.16
  -5   3 -14  746.10   23.24
  -2  -3 -14  737.78   15.51
  -2   5  14  748.73   25.83
   2   3  14  617.43   14.62
   5  -2 -14  733.02   25.32
  -5   2  14  808.57   27.78
   2   3  11  242.62   10.65
   3   2 -11  224.94    9.25
  -3  -2  11  252.15    9.04
  -5   3 -11  229.70   12.67
   2  -5 -11  231.93   14.06
  -2  -3 -11  239.57    8.60
   3  -5  11  236.96   15.55
  -3   5 -11  224.08   14.54
   5  -3  11  232.91   12.95
   2   3  11  206.44    8.26
  -2   5  11  241.47   14.34
   5  -2 -11  250.98   14.37
  -5   2  11  257.03   14.83
   2   3   8  603.20   15.19
  -2  -3  -8  592.58   14.01
   3  -5   8  541.40   22.51
   5  -3   8  550.91   19.14
   2   3   8  497.69   12.91
  -3   5  -8  539.23   22.12
  -2   5   8  578.50   21.91
   2  -5  -8  586.50   22.44
  -5   3  -8  572.18   19.68
   5  -2  -8  601.53   21.15
  -5   2   8  620.69   22.01
  -5   3  -5  319.25   15.17
  -3   5  -5  305.56   16.19
   2  -5  -5  327.37   16.65
  -2  -3  -5  316.55   10.82
   5  -3   5  281.93   13.53
  -2   5   5  302.14   15.67
   3  -5   5  304.43   16.76
   2   3   5  278.23    9.36
  -5   2   5  344.15   15.58
   5  -2  -5  310.64   14.14
   2   3   2   38.99    3.71
   2  -5  -2   43.64    5.80
  -5   3  -2   47.10    5.58
   3  -5   2   42.38    6.11
   5  -2  -2   48.70    5.30
  -2   5   2   45.49    5.91
   5  -3   2   42.48    5.33
  -3   5  -2   40.63    5.56
  -5   2   2   51.91    5.76
   5  -2   1  132.70    8.52
   3   2   1   97.99    5.00
   2   3  -1  127.63    7.22
  -2   5  -1  131.07   10.28
  -3   5   1  124.48   10.15
   2  -5   1  137.22   11.01
   3  -5  -1  128.77   10.49
   5  -3  -1  133.76    9.56
  -5   3   1  136.06   10.10
  -5   2  -1  149.99    9.90
   2   3  -4    0.76    0.60
   2   3  -4   -0.80    1.33
  -2   5  -4    1.51    1.44
   3   2   4    0.66    0.49
   2  -5   4    1.54    1.71
   3  -5  -4    0.07    1.13
  -5   3   4   -1.09    1.96
   5  -3  -4   -2.01    1.75
  -3   5   4    0.86    1.28
  -5   2  -4   -0.41    1.35
   5  -2   4   -1.03    1.28
   2   3  -7   11.00    1.90
   3   2   7    6.51    0.93
   2   3  -7    8.60    2.30
   5  -2   7    8.83    2.02
  -2   5  -7   13.99    3.86
   2  -5   7   11.67    3.20
   3  -5  -7   11.90    3.10
  -5   2  -7    4.63    1.19
  -3   5   7   15.22    3.71
  -5   3   7   13.59    3.59
   5  -3  -7   13.51    3.00
   2   3 -10  410.48   13.00
   3   2  10  488.45   12.86
  -2   5 -10  412.69   19.46
  -5   2 -10  423.49   15.30
   3  -5 -10  435.71   20.00
   2  -5  10  423.55   20.41
   5  -2  10  412.73   14.97
   5  -3 -10  419.99   19.03
  -3   5  10  443.87   20.37
  -5   3  10  450.03   20.04
   2   3 -13  474.70   15.76
  -3  -2 -13  517.65   15.16
   3   2  13  570.13   16.03
   3  -5 -13  511.64   22.43
   5  -2  13  525.20   17.22
  -5   2 -13  521.95   17.33
   2  -5  13  524.73   23.47
  -2   5 -13  511.72   22.85
  -3   5  13  514.94   22.26
  -5   3  13  559.08   23.60
   5  -3 -13  529.73   22.36
   2   3 -16  121.47    8.96
  -3  -2 -16  125.90    8.39
   3   2  16  136.22    8.73
  -5   2 -16  138.47   10.38
   2  -5  16  121.27   11.52
  -5   2 -16  134.17    8.95
   5  -2  16  119.41    8.33
  -2   5 -16  114.96   10.74
   3  -5 -16  118.26   10.85
   5  -3 -16  141.36   12.07
  -5   3  16  127.94   11.42
  -3   5  16  141.31   12.17
  -3  -2 -19   39.65    5.12
   3   2  19   35.49    4.97
  -2   5 -19   23.54    4.88
   2   3 -19   30.69    4.76
  -2  -3  19   31.28    4.62
  -5   2 -19   34.73    5.08
  -2   5 -19   31.05    5.57
  -5   2 -19   36.73    4.64
   3  -5 -19   42.87    6.76
   5  -3 -19   36.29    6.21
  -3  -2 -19   15.57    1.70
  -3   5  19   32.46    5.67
  -5   3  19   39.97    7.23
   2   3 -22  209.69   13.69
  -3  -2 -22  273.53   15.01
  -5   2 -22  249.34   15.79
  -2   5 -22  244.89   16.15
   3   2  22  251.69   14.50
  -2  -3  22  237.71   13.20
  -2   5 -22  250.36   17.35
  -5   2 -22  255.12   13.53
  -3  -2 -22  212.30    8.75
  -3   5  22  243.03   16.36
   5  -3 -22  235.94   16.57
  -5   3  22  259.52   17.97
   3  -5 -22  258.57   17.46
  -3  -2 -25    0.55    1.66
  -3   5  25    1.17    1.63
  -5   3  25    0.00    1.35
  -5   3  25    1.49    1.40
   2   3 -25    4.14    2.91
  -2  -3  25   -0.31    1.14
  -2   5 -25    0.14    2.22
  -5   2 -25    0.43    1.80
   3   2  25    2.52    2.11
  -2   5 -25    0.23    2.02
  -5   2 -25    1.21    1.07
  -3  -2 -25    0.38    1.01
   3  -5 -25    1.11    2.92
   5  -3 -25    0.32    1.88
   2   3 -28   90.22    9.95
  -5   3  28   84.10    9.44
  -5   3  28   99.02   11.28
  -3  -2 -28  130.45   12.41
  -5   2 -28  110.30   12.03
   3   2  28  117.05   11.06
  -2   5 -28  110.19   11.91
  -2  -3  28  104.01   10.25
  -5   2 -28  106.24    9.60
  -2   5 -28   98.37   11.59
  -3   5  28  103.52   11.30
   5  -3 -28  100.83   11.42
   3  -5 -28  108.00   11.92
  -3  -2 -28   96.25    7.45
   5  -3 -31   26.11    6.57
  -3  -2 -31   18.78    3.62
  -3   5  31   21.24    5.62
  -3  -2 -31   31.22    6.33
  -5   3  31   22.65    5.55
  -3   5  31   25.11    5.53
  -2  -3  31   24.40    5.08
  -5   2 -31   25.19    6.16
  -2   5 -31   18.79    4.93
   3   2  31   24.06    5.06
   2   3 -31   17.60    4.45
  -5   2 -31   21.12    4.33
  -2   5 -31   18.83    5.00
   3  -5 -31   19.23    5.14
   2   3 -34   64.12    9.27
  -3   5  34   83.30   11.61
  -5   3  34   69.68   10.04
  -3  -2 -34   93.60   11.35
   3   2  34   81.10   10.24
  -5   2 -34   78.86   10.69
  -2   5 -34   63.70   10.29
  -2  -3  34   62.48    9.04
  -2   5 -34   79.20   10.98
  -5   2 -34   82.59    9.09
   3  -5 -34   85.05   11.35
  -3  -2 -34   74.49    7.43
  -3   5  34   88.98   11.41
   5  -3 -34   80.28   11.05
  -3  -2 -37   14.36    3.50
  -5   3  37   13.40    4.59
   5  -3 -37   19.53    5.76
  -3  -2 -37   19.25    5.07
  -3   5  37   18.41    4.91
  -3   5  37   16.53    5.06
   2   3 -37    6.35    2.11
   3   2  37   22.74    5.45
   5  -2  37   17.73    5.38
  -2  -3  37   14.96    4.32
  -5   2 -37   16.17    5.92
  -2   5 -37   15.12    4.99
  -2   5 -37   12.46    4.59
  -5   2 -37   26.43    5.50
   3  -5 -37   19.45    5.88
  -3   5  40  202.16   15.92
  -5   2 -40  240.93   19.90
   2   3 -40  231.38   19.18
  -5   3  40  252.72   21.31
  -3  -2 -40  293.62   21.65
  -3   5  40  263.24   22.18
   5  -2  40  228.64   18.73
  -2   5 -40  221.50   19.98
   3   2  40  268.23   20.46
  -2  -3  40  236.79   19.36
  -2   5 -40  239.19   20.55
  -5   2 -40  250.14   17.30
   5  -3 -40  259.18   21.37
   3  -5 -40  271.53   21.56
  -3  -2 -40  262.14   16.44
   5  -3 -43   -0.33    1.78
  -3  -2 -43   -1.16    3.05
  -3  -2 -43    5.82    2.40
  -5   3  43   -0.87    2.75
  -3   5  43   -6.72    5.25
   2   3 -43   -3.88    3.50
  -2  -3  43    0.16    2.05
   5  -2  43    1.04    2.75
   3   2  43    2.24    2.50
  -2   5 -43    1.06    1.77
  -5   2 -43    1.92    3.50
  -2   5 -43   -1.97    2.25
  -5   2 -43    1.32    1.91
   3  -5 -43    1.29    2.13
  -3   5  46    3.46    3.03
  -3  -2 -46    4.59    3.00
  -3  -2 -46    5.87    4.23
  -5   3  46    5.70    4.62
  -2  -3  46   -1.58    2.62
   3   2  46    4.18    2.68
   2   3 -46    2.36    3.25
   5  -2  46    5.63    2.94
  -5   2 -46    2.32    2.17
  -5   2 -46    6.59    3.62
  -2   5 -46    5.66    3.85
   3  -5 -46    2.43    3.20
  -5   3  49  126.88   16.26
  -3  -2 -49  164.23   17.78
   2   3 -49  118.85   15.16
  -3   5  49  139.35   17.48
   5  -2  49  144.91   16.73
  -2  -3  49  136.96   16.49
   3   2  49  143.98   16.91
  -5   2 -49  138.06   14.93
  -2   5 -49  136.51   17.26
  -3  -2 -49  158.13   14.94
  -3   5  52  292.40   26.05
  -5   3  52  285.87   25.69
   3   2  52  269.39   23.05
   5  -2  52  303.45   24.77
  -2  -3  52  255.52   23.33
  -2   5 -52  249.84   23.44
  -5   2 -52  282.43   21.68
  -3  -2 -52  308.53   21.90
  -3  -2 -55   -2.71    3.30
  -2   5 -55   -4.56    5.34
  -5   2 -55   -1.49    2.79
  -2  -3  55   -7.85    5.05
   3   2  55   -5.81    4.29
  -3   5  55    5.59    4.30
   5  -2  55   -2.53    2.85
   2  -5  55    6.08    5.14
  -5   3  55   -0.30    2.73
  -3  -2 -58    7.44    3.72
  -2   5 -58    9.73    5.27
  -5   2 -58   12.24    5.58
   2  -5  58    8.30    5.35
  -5   3  58    0.96    2.52
  -2  -3  58    0.37    4.70
   3   2  58   12.16    4.97
  -3   5  58    7.75    5.28
   5  -2  58   12.78    5.66
  -3  -2 -61   34.46    8.10
  -2   5 -61   27.26    8.77
  -5   2 -61   38.45    8.48
  -3   5  61   32.02    9.62
  -2  -3  61   33.61    9.10
   5  -2  61   37.66    8.87
  -5   3  61   21.37    6.93
   3   2  61   39.19   11.05
   2  -5  61   23.51    8.73
  -5   2 -64   64.26   12.00
  -2   5 -64   51.38   12.10
  -3   5  64   60.87   13.53
   5  -2  64   75.83   13.96
  -2  -3  64   62.43   12.59
   3   2  64   57.80   14.01
  -5   3  64   54.55   12.74
   2  -5  64   48.30   12.54
  -5   2 -67    7.96    4.26
  -2   5 -67    9.22    5.47
   2  -5  67   -0.09    3.51
  -5   3  67    7.86    6.00
  -3   5  67    6.92    5.48
  -2  -3  67   -4.31    4.41
   5  -2  67    4.04    4.24
   3   2  67    0.69    3.24
  -5   2 -70   17.87    6.80
  -2   5 -70   14.50    8.27
   2  -5  70    5.25    4.83
   5  -2  70   17.48    7.49
  -3   5  70   14.72    6.85
  -2  -3  70   13.24    6.26
  -5   3  70   14.47    7.21
   3   2  70   25.96    9.19
  -5   2 -73    3.75    3.98
  -2   5 -73   -1.66    2.74
   5  -2  73   -1.26    4.11
  -3   5  73    6.60    5.47
  -2  -3  73    0.22    2.73
  -5   3  73    6.14    3.95
   2  -5  73    2.33    3.01
   3   2  73   -0.69    4.27
  -2   5 -76   39.94   11.45
  -5   2 -76   41.68   10.86
   5  -2  76   21.63    8.81
  -2  -3  76   31.69   11.56
   2  -5  76   22.63    9.64
  -5   3  76   37.93   11.56
  -3   5  76   39.05   11.69
   3   2  76   36.48   10.75
  -5   2 -79   -4.71    3.81
  -2   5 -79    9.50    6.05
   5  -2  79   -4.71    6.51
   2  -5  79   -8.06    6.54
  -2  -3  79    5.32    4.79
  -3   5  79    0.52    3.78
  -5   3  79    8.83    6.93
   3   2  79    2.42    2.80
  -5   2 -82   25.69   10.28
   3   2  82   30.58   10.20
  -2  -3  82   36.30   12.34
  -5   2 -85    0.77    5.03
  -5   2 -88   17.31    9.21
  -5   4 -84   17.07    8.68
  -4   5 -81   14.32    8.67
  -5   4 -81    9.64    7.32
  -5   1  81   -1.62    5.03
   1   4  81   -4.96    5.50
  -4  -1  81    3.00    3.23
  -1   5  81    6.17    6.76
  -4   5 -78   21.56    9.08
  -5   4 -78   18.39    8.32
   1   4  78   39.22   12.52
  -1   5  78   19.82    9.55
  -5   1  78    5.42    4.60
  -4  -1  78   17.93   10.15
  -5   4 -75   -1.24    3.97
  -4   5 -75    7.51    5.22
  -5   1  75    2.87    5.11
   1   4  75    1.05    2.62
  -1   5  75    7.01    7.52
  -4  -1  75   -5.82    4.69
  -4   5 -72   33.02   11.22
  -5   4 -72   37.52   10.13
   1   4  72   38.37   11.96
  -4  -1  72   29.15   10.57
  -1   5  72   33.34   10.73
  -5   1  72   35.08   10.49
  -4   5 -69   16.60    6.75
  -5   4 -69    7.47    4.78
  -4  -1  69   10.73    6.82
   1   4  69   10.20    5.73
  -1   5  69   10.91    5.83
  -5   1  69   12.87    7.04
   1   4  66   88.90   15.62
  -4   5 -66   67.71   13.69
  -5   4 -66   67.58   13.01
  -4  -1  66   67.43   14.22
  -1   5  66   75.96   15.32
  -5   1  66   58.21   12.66
  -4   5 -63  -11.06    6.79
  -5   4 -63   -5.04    4.89
  -4  -1  63   -2.82    4.83
  -1   5  63    3.14    3.53
  -5   1  63    0.37    3.34
   1   4  63    8.32    5.48
  -5   4 -60   19.44    5.64
  -4   5 -60   30.69    7.54
  -4  -1  60   39.09   10.25
  -1   5  60   32.53    8.42
  -5   1  60   35.38    9.44
   1   4  60   49.64   11.36
  -1  -4 -57   34.13    7.97
  -4   5 -57   14.36    5.25
  -5   4 -57   15.37    5.26
  -4  -1  57   23.41    7.88
  -5   1  57   23.55    7.73
   1   4  57   27.95    8.17
  -1   5  57   31.33    8.36
  -1  -4 -54   23.63    6.37
  -1   5  54   26.94    8.40
  -5   1  54   12.46    5.22
   1   4  54   12.99    3.82
  -4  -1  54   10.53    4.07
  -5   4 -54   20.37    6.35
  -4   5 -54   10.39    4.22
  -1  -4 -51    4.24    3.15
  -4  -1  51   -1.65    2.42
  -1   5  51   -2.79    3.86
  -5   1  51    6.08    4.29
   1   4  51    4.68    4.18
  -5   4 -51    2.90    2.80
  -4   5 -51   -1.23    1.96
   1  -5 -51    1.77    3.19
   4   1 -48   19.14    6.49
  -1   5  48   17.04    5.52
  -5   1  48    9.92    4.61
  -4  -1  48    8.34    4.31
   1   4  48   18.67    6.51
  -5   4 -48   20.67    6.35
  -4   5 -48   17.75    5.83
  -1  -4 -48   13.89    4.61
   1  -5 -48    8.46    3.98
   4   1 -45   16.84    5.79
   1   4  45   20.67    7.39
  -1   5  45   24.51    6.96
  -4  -1  45   18.11    5.83
  -5   1  45   19.22    6.63
  -5   4 -45   18.16    5.76
  -4   5 -45   17.54    5.65
   1  -5 -45   22.36    6.64
  -1  -4 -45   20.02    5.97
  -4  -1  42  151.59   15.89
   4   1 -42  133.43   14.49
  -5   1  42  126.67   15.02
  -1   5  42  160.35   16.90
   1   4  42  175.64   17.12
  -5   4 -42  128.76   15.68
  -4   5 -42  122.73   16.95
  -5   4 -42  150.07   15.25
  -4   5 -42  148.66   16.18
  -1  -4 -42  163.44   14.33
   5  -1 -42  146.72   16.18
   1  -5 -42  167.57   16.27
   5  -1 -39   42.15    8.49
   4   1 -39   37.69    7.48
  -1   5  39   55.42    9.76
  -5   1  39   45.11    8.46
   1   4  39   50.04    8.84
  -5   4 -39   40.97    9.09
  -4   5 -39   36.70    8.82
  -4  -1  39   37.69    7.41
  -4   5 -39   43.25    8.85
  -5   4 -39   48.57    8.12
  -1  -4 -39   44.53    7.06
   1  -5 -39   49.80    8.69
   1   4  36   94.19   10.86
  -5   1  36   83.06   11.29
  -4  -1  36   76.72   10.41
   4   1 -36   73.51    9.79
  -1   5  36   92.63   11.85
  -5   4 -36   81.82   12.29
  -4   5 -36   86.31   12.21
  -4   5 -36   87.22   11.51
  -5   4 -36   90.02   10.95
  -1  -4 -36   91.57    9.94
   1  -5 -36   98.64   11.72
  -1   5  36   69.23    8.08
   5  -1 -36   92.37   12.15
  -1   5  33    5.60    3.08
  -1   5  33   -3.72    3.71
   5  -1 -33    1.10    1.58
   4   1 -33    1.55    2.13
  -5   1  33   -1.32    1.78
  -5   4 -33   -1.62    2.16
  -4   5 -33    0.75    2.12
   1   4  33   -1.48    1.51
  -4  -1  33   -0.69    1.95
  -4   5 -33   -0.53    2.03
  -5   4 -33   -2.37    2.54
  -1  -4 -33   -2.25    2.59
   1  -5 -33   -2.44    1.97
   4   1 -30  100.78   10.29
   1   4  30  123.98   11.96
  -5   1  30  110.95   11.85
  -1   5  30  121.13   12.74
  -4  -1  30  124.03   12.19
  -5   4 -30  117.39   12.45
  -4   5 -30  112.13   11.99
  -5   4 -30  105.51   10.93
  -4   5 -30  115.34   12.56
  -1  -4 -30  117.62   10.43
   1  -5 -30  122.71   12.00
  -1   5  30  127.56   11.78
   5  -1 -30  120.30   12.94
  -5   1  27  306.88   19.11
   1   4  27  342.72   19.10
   4   1 -27  298.80   16.98
  -1   5  27  324.41   19.93
  -4  -1  27  325.94   18.49
  -4   5 -27  312.34   19.64
  -5   4 -27  330.18   19.84
  -4   5 -27  285.47   18.80
  -5   4 -27  311.26   18.85
   1   4  27  245.59   11.89
  -1   5  27  318.86   17.95
   1  -5 -27  323.42   19.17
  -1  -4 -27  330.79   16.64
   5  -1 -27  316.68   19.86
   1   4  24  227.40   15.05
  -4  -1  24  191.68   13.03
   4   1 -24  181.91   12.38
  -1   5  24  202.89   15.09
  -5   1  24  212.12   15.18
  -4   5 -24  211.92   16.15
  -5   4 -24  225.16   16.08
  -1  -4 -24  213.34   12.72
  -4   5 -24  194.42   15.40
   1  -5 -24  213.98   14.92
  -5   4 -24  202.39   14.68
   5  -1 -24  208.37   15.39
  -1   5  24  214.11   14.35
   1   4  24  209.01   12.01
  -5   1  21   48.02    6.54
  -4  -1  21   51.94    6.42
   1   4  21   72.28    8.18
  -5   4 -21   61.18    8.05
  -1  -4 -21   59.90    6.19
   1  -5 -21   55.94    7.02
   5  -4  21   61.19    7.73
  -4   5 -21   60.22    8.45
   4  -5  21   63.03    8.57
  -5   4 -21   63.25    8.06
   1   4  21   59.42    5.93
   5  -1 -21   56.21    7.44
  -1   5  21   59.98    7.06
  -4  -1  18  199.45   11.27
  -5   1  18  250.75   14.65
   1   4  18  261.59   14.12
  -4   5 -18  267.26   17.01
  -1  -4 -18  265.24   12.67
  -5   4 -18  243.03   15.23
   1  -5 -18  266.08   15.50
   4  -5  18  263.39   17.35
   5  -4  18  261.97   16.04
   5  -1 -18  255.08   15.61
   1   4  18  253.34   12.16
  -1   5  18  249.82   14.57
   1   4  15    5.02    1.77
   5  -1 -15    6.30    2.63
  -4  -1  15    3.68    1.82
  -4   5 -15    5.03    2.48
   4  -5  15    5.95    2.15
  -5   4 -15    2.46    1.88
   5  -4  15    6.01    1.72
   1   4  15    3.17    1.38
  -1   5  15    3.69    1.20
   1  -5 -15    1.35    1.70
  -1  -4 -15    2.55    1.00
  -5   4 -12  235.11   14.09
   1  -5 -12  262.11   14.82
  -1  -4 -12  252.82   11.62
   5  -4  12  236.55   14.32
  -4   5 -12  232.79   15.18
   4  -5  12  252.13   16.24
  -1   5  12  260.77   14.53
   1   4  12  242.49   11.46
   5  -1 -12  247.87   13.72
  -4  -1   9   18.83    2.82
   1  -5  -9   66.93    7.07
   4  -5   9   68.49    8.09
  -5   4  -9   63.94    7.15
  -1  -4  -9   62.36    5.58
  -1   5   9   64.56    6.76
   1   4   9   56.41    5.40
  -4   5  -9   65.20    7.69
   5  -4   9   64.59    7.13
   5  -1  -9   68.87    6.78
  -5   1   9   53.32    5.52
   1  -5  -6  191.73   12.36
  -4   5  -6  194.55   13.54
   5  -4   6  182.12   12.33
   1   4   6  183.70    9.32
  -1  -4  -6  194.47   10.27
  -1   5   6  186.09   11.65
   4  -5   6  190.19   13.51
  -5   4  -6  189.30   12.50
   4   1  -6  142.64    8.12
  -5   1   6  202.26   11.96
   5  -1  -6  202.38   11.46
   4   1  -3   21.49    3.08
  -5   1   3   28.00    4.03
  -1  -4  -3   21.15    3.26
   4  -5   3   20.27    4.17
   5  -4   3   19.37    3.65
   1  -5  -3   22.75    3.60
  -5   4  -3   17.49    3.59
   5  -1  -3   19.72    3.19
  -1   5   3   21.24    3.76
   1   4   3   18.32    2.79
  -4   5  -3   20.14    3.93
   1  -5   0   84.73    8.62
   1   4   0   75.44    6.41
  -4   5   0   69.30    7.77
  -1   5   0   80.71    7.76
  -1  -4   0   85.07    7.27
   5  -1   0   73.79    6.11
   4  -5   0   77.99    8.37
  -5   4   0   84.22    8.57
   5  -4   0   76.17    7.72
  -5   1   0   62.28    6.25
   5  -1   3  137.24    7.34
  -1   5  -3  132.16   10.09
   5  -4  -3  140.80   10.71
  -4   5   3  135.47   11.19
   1  -5   3  154.25   11.68
   4  -5  -3  134.60   10.89
   1   4  -3  142.36    9.29
   4   1   3   70.14    3.71
  -5   4   3  141.43   11.10
  -5   1  -3  121.98    8.15
  -4  -1  -6  110.46    5.11
  -4   5   6  146.28   11.85
   1  -5   6  147.65   11.66
  -1   5  -6  136.71   10.68
   4  -5  -6  139.75   11.41
   5  -4  -6  134.49   10.80
   5  -1   6  142.46    7.28
   1   4  -6  133.52    9.27
  -5   1  -6  143.92    7.86
  -5   4   6  144.81   11.66
  -4  -1  -9   39.04    3.53
   1   4  -9   47.86    5.05
   5  -1   9   47.45    4.05
   1  -5   9   49.25    6.99
   1   4  -9   56.45    6.51
  -1   5  -9   52.48    6.92
   5  -4  -9   45.98    6.38
   4  -5  -9   53.16    7.23
  -5   1  -9   39.35    3.80
  -4   5   9   48.96    6.99
  -5   4   9   51.01    7.29
  -4  -1 -12   12.39    2.45
   1   4 -12   12.28    2.55
  -5   1 -12   11.14    2.52
   1   4 -12   12.82    3.46
   1  -5  12   18.30    4.87
  -1   5 -12   13.61    3.08
   5  -1  12   11.80    2.24
   4  -5 -12   16.08    4.22
   5  -4 -12   16.24    4.35
  -4   5  12   14.68    3.90
  -5   4  12   13.73    3.96
  -5   1 -12    8.42    1.64
  -5   4  15    7.18    2.80
  -5   1 -15    2.49    1.55
   4   1  15    5.97    1.65
  -4  -1 -15    5.22    2.47
   1   4 -15    2.16    1.24
   1   4 -15    7.80    3.14
  -1   5 -15    7.35    3.33
   4  -5 -15    4.15    2.61
  -5   1 -15    3.15    1.22
  -4   5  15    1.77    2.00
   5  -4 -15    3.42    1.92
  -4  -1 -18  691.23   22.19
   1   4 -18  592.29   21.85
  -5   1 -18  672.55   23.60
  -1   5 -18  658.45   25.35
   4   1  18  681.75   20.01
  -1   5 -18  589.87   25.48
   1   4 -18  609.17   25.08
  -5   1 -18  596.37   16.47
   4  -5 -18  607.86   26.50
   5  -4 -18  611.42   26.60
  -5   4  18  622.93   27.08
  -4   5  18  611.52   26.29
  -4  -1 -21  310.81   15.61
   1   4 -21  244.07   15.18
  -5   1 -21  306.00   17.24
   4   1  21  318.07   15.05
  -1   5 -21  277.17   16.04
  -5   1 -21  275.61   11.83
  -4  -1 -21  227.17    7.34
  -1   5 -21  273.44   17.74
  -4  -1 -21  251.89    8.26
   4  -5 -21  282.72   18.60
   5  -4 -21  281.27   18.44
  -5   4  21  284.21   18.65
  -4   5  21  282.03   18.21
  -4  -1 -24  168.38   12.42
   1   4 -24  125.93   11.34
  -5   1 -24  152.38   12.59
   4   1  24  172.40   11.98
  -1   5 -24  153.74   12.84
  -1   5 -24  149.78   13.71
  -5   1 -24  158.34    9.86
  -4  -1 -24  126.53    6.73
   4  -5 -24  158.83   14.36
  -4   5  24  159.24   14.34
  -5   4  24  159.46   14.34
   5  -4 -24  163.57   14.73
  -4  -1 -27   46.46    6.93
  -5   4  27   43.16    7.63
  -5   1 -27   43.98    6.83
  -1   5 -27   41.36    7.43
   4   1  27   48.03    6.74
   1   4 -27   33.46    6.06
  -1   5 -27   41.02    7.54
  -5   1 -27   41.06    5.22
   4  -5 -27   41.68    7.60
  -4   5  27   46.01    7.95
   5  -4 -27   43.34    7.86
   1   4 -30  118.15   12.53
  -5   1 -30  141.87   13.55
  -5   4  30  136.61   14.14
  -4  -1 -30  152.01   13.39
   5  -1  30  141.68   12.38
  -1  -4  30  135.26   12.25
  -1   5 -30  131.93   13.78
   4   1  30  149.54   12.97
  -5   1 -30  135.28   10.25
  -1   5 -30  121.54   13.25
   5  -4 -30  132.79   13.78
  -4   5  30  146.78   14.44
   4  -5 -30  144.95   14.66
  -5   4  30  141.59   14.52
  -4  -1 -33  200.92   15.71
  -4   5  33  199.50   17.77
   1   4 -33  166.00   15.24
  -5   4  33  194.47   17.49
  -5   1 -33  217.87   17.48
   5  -1  33  204.33   15.65
   4   1  33  209.72   16.22
  -1   5 -33  184.39   16.99
  -1  -4  33  214.24   16.35
  -5   1 -33  192.73   12.98
  -1   5 -33  187.61   17.07
  -5   4  33  143.86   13.03
   5  -4 -33  187.47   17.16
  -4   5  33  207.31   17.74
   4  -5 -33  222.20   18.85
  -4  -1 -36    7.42    3.89
  -4   5  36    6.55    3.30
  -4   5  36    4.27    3.37
  -5   4  36    3.12    2.68
   5  -1  36    5.42    3.84
  -1   5 -36    3.15    2.61
   1   4 -36    0.69    1.73
  -5   1 -36    5.49    3.60
  -1  -4  36    4.20    2.74
   4   1  36    4.11    2.90
  -5   1 -36    8.26    2.73
  -1   5 -36    4.80    3.63
   4  -5 -36    7.95    4.32
   5  -4 -36    6.13    3.15
   5  -4 -39   52.58    9.47
  -5   4  39   43.60    8.70
  -5   1 -39   57.00    9.88
  -4  -1 -39   55.90    9.10
  -4   5  39   33.66    6.47
  -4   5  39   44.13    8.68
  -1   5 -39   40.20    8.41
   5  -1  39   55.18    8.87
   1   4 -39   35.04    7.15
  -1  -4  39   53.99    8.44
   4   1  39   55.02    8.63
  -5   1 -39   47.12    7.08
  -1   5 -39   53.34   10.06
   4  -5 -39   50.83    9.68
  -4  -1 -42  428.59   26.31
  -5   4  42  397.77   27.85
  -5   1 -42  403.09   27.19
  -4   5  42  408.14   28.16
   1   4 -42  341.32   24.68
  -1  -4  42  383.70   24.21
   5  -1  42  396.46   24.75
  -1   5 -42  304.01   24.25
   4   1  42  419.95   26.12
  -1   5 -42  347.67   25.30
  -5   1 -42  388.88   21.38
   5  -4 -42  404.14   27.28
  -4  -1 -42  307.66   15.84
   4  -5 -42  396.24   26.91
  -5   4  45   11.87    5.14
  -4  -1 -45   11.17    3.56
  -4  -1 -45    4.59    3.62
  -4   5  45   10.56    4.95
   5  -1  45   14.43    5.46
  -1  -4  45    1.37    2.20
   1   4 -45   -1.20    4.21
  -1   5 -45   11.72    6.33
  -5   1 -45    7.58    4.57
   4   1  45   10.75    3.99
  -1   5 -45   14.47    6.67
  -5   1 -45   13.90    4.82
  -4  -1 -48  116.08   14.87
  -5   4  48   80.19   13.60
  -4   5  48   94.14   14.12
   1   4 -48   79.54   12.90
  -5   1 -48   89.01   13.29
  -1  -4  48   71.66   10.90
   5  -1  48   89.59   12.13
   4   1  48   92.23   12.88
   1  -5  48   78.63   11.97
  -5   1 -48   94.37   11.33
  -1   5 -48   83.45   13.26
  -4  -1 -48   59.73    7.27
  -4   5  51   -2.30    3.14
  -5   4  51   -0.09    3.03
  -4  -1 -51   -4.38    3.04
  -5   1 -51    2.20    2.57
  -1  -4  51    6.78    4.11
   1  -5  51    0.50    2.19
   4   1  51    0.18    2.93
   5  -1  51   -2.20    2.26
  -4   5  54   36.07    9.57
  -4  -1 -54   33.07    6.48
  -5   1 -54   32.83    6.79
  -1  -4  54   41.41    9.16
  -5   4  54   33.63    8.71
   1  -5  54   39.87    9.02
   5  -1  54   45.88    8.93
   4   1  54   49.76   10.27
  -4  -1 -57    2.44    2.88
  -5   1 -57   -0.30    1.70
  -1  -4  57   -1.30    3.24
   4   1  57    1.06    2.07
  -4   5  57   -2.84    4.20
  -5   4  57   -6.87    5.72
   5  -1  57    1.86    3.94
   1  -5  57    8.14    5.49
  -4  -1 -60   24.65    6.90
   4   1  60   15.59    5.70
  -1  -4  60   16.65    6.71
  -5   4  60   22.09    8.44
   5  -1  60   30.56    7.75
   1  -5  60   20.09    7.85
  -4   5  60   18.14    6.67
  -4  -1 -63   -1.15    3.77
   4   1  63   -5.11    5.34
  -1  -4  63    7.78    4.70
  -4   5  63    1.86    3.56
  -5   4  63    5.02    4.27
   5  -1  63    0.89    2.84
   1  -5  63    4.96    3.59
  -1  -4  66   44.77   10.73
  -5   4  66   25.46    8.16
   4   1  66   55.63   12.80
   5  -1  66   49.74   10.71
  -4   5  66   35.41    9.75
   1  -5  66   45.63   11.02
  -5   1 -69   -1.19    3.11
  -1  -4  69    3.11    3.59
   1  -5  69   -6.24    6.81
  -4   5  69   -2.70    3.46
   4   1  69   -6.00    5.23
  -5   4  69    4.75    5.95
   5  -1  69   -5.91    3.79
  -5   1 -72   30.06    8.18
  -1  -4  72   19.60    7.84
   5  -1  72   30.58    8.84
   4   1  72   38.82   10.28
  -5   4  72   29.28   10.22
  -4   5  72   25.83   10.06
   1  -5  72   21.12    8.77
  -5   1 -75    6.91    3.51
   1  -5  75   -2.29    6.94
   4   1  75   -1.71    3.49
  -1  -4  75   -7.17    6.24
  -4   5  75    6.21    6.67
  -5   4  75    5.40    6.38
   5  -1  75    2.40    4.24
  -5   1 -78   24.60    8.36
  -1   5 -78   29.54   11.14
   4   1  78   30.56    9.86
  -1  -4  78   11.43    5.18
   1  -5  78   15.71    8.14
  -4   5  78   30.26   10.71
  -5   4  78   25.73   10.90
   5  -1  78   16.91    8.43
  -5   1 -81   -1.97    4.80
   4   1  81   15.20    7.95
  -1  -4  81    6.73    6.35
   1  -5  81   13.83    8.98
   5  -1  81   10.15    8.25
  -5   1 -84   14.87    7.58
  -5   1 -87    1.16    5.00
  -5   5 -82   13.20    6.96
  -5   0  82    2.87    6.13
  -5   5 -79    2.34    3.49
  -5   0  79    3.91    4.99
   0   5  79    7.52    7.53
  -5   5 -76   27.33    9.56
  -5   0  76    9.84    6.99
   0   5  76   23.37    8.84
  -5   5 -73    6.75    3.15
  -5   0  73    1.07    4.60
   0   5  73   -5.61    5.87
  -5   5 -70    7.75    4.78
  -5   0  70    4.39    3.88
   0   5  70    5.59    5.98
  -5   5 -67    0.85    2.41
  -5   0  67   -4.31    3.65
   0   5  67    2.04    2.91
   0   5  64  166.91   21.00
  -5   0  64  146.76   20.19
  -5   5 -64  123.31   17.60
   0   5  61   -7.53    6.50
  -5   0  61   -2.70    4.37
  -5   5 -61   -0.03    3.22
   0   5  58   -4.65    5.54
  -5   0  58   -2.54    4.78
  -5   5 -58    4.68    3.71
  -5   0  55    2.01    2.56
   0   5  55    2.21    2.76
  -5   5 -55    1.87    4.07
   0  -5 -55   -0.06    2.76
  -5   0  52  137.27   17.90
   0   5  52  149.28   18.24
  -5   5 -52  132.61   16.66
   0  -5 -52  141.02   16.07
   0   5  49    3.22    3.22
  -5   0  49    3.00    2.58
  -5   5 -49    3.00    4.38
   0  -5 -49   -0.16    2.36
   0   5  46   22.70    6.28
  -5   0  46   20.18    6.59
  -5   5 -46   14.15    5.11
   0  -5 -46   27.23    6.66
   0   5  43    0.55    1.96
  -5   0  43   -1.46    1.80
  -5   5 -43   -0.46    2.32
   0  -5 -43   -1.14    2.16
   0   5  40  117.10   14.19
  -5   0  40  101.22   13.33
  -5   5 -40  101.96   14.60
  -5   5 -40  108.03   13.17
   0  -5 -40  127.75   13.56
   5   0 -40  106.48   13.83
   0   5  37    1.76    2.79
   5   0 -37   -0.92    2.13
  -5   0  37    0.28    1.79
  -5   5 -37   -2.24    2.08
  -5   5 -37   -4.11    3.05
   0  -5 -37   -0.68    1.60
   0   5  34   82.25   10.86
  -5   0  34   75.44   10.24
  -5   5 -34   88.15   12.14
  -5   5 -34   92.55   11.50
   5   0 -34   81.58   11.21
   0  -5 -34   88.23   10.40
   0   5  34   71.80    7.58
   0   5  31    0.56    2.20
   5   0 -31    1.17    2.47
   0   5  31   -2.33    2.48
  -5   0  31   -0.66    1.68
  -5   5 -31   -0.56    1.35
  -5   5 -31    2.06    2.26
   0  -5 -31    2.86    2.45
   0   5  28    0.09    1.91
   0   5  28    1.36    1.21
   5   0 -28    0.77    2.07
  -5   5 -28    0.62    2.20
  -5   0  28   -0.28    1.40
  -5   5 -28    0.92    2.24
   0  -5 -28    2.70    2.80
   0   5  25   -3.69    2.52
   5   0 -25    4.22    3.35
   0   5  25   -2.11    1.48
  -5   5 -25   -0.16    2.69
  -5   0  25   -1.19    1.83
   5  -5  25   -7.00    3.83
  -5   5 -25    4.70    3.31
   0  -5 -25   -6.39    3.46
   0   5  22 1642.70   40.71
  -5   0  22 1472.66   36.02
   0  -5 -22 1656.42   38.51
  -5   5 -22 1583.95   42.90
   5  -5  22 1615.67   44.24
   0   5  22 1630.50   36.73
   5   0 -22 1591.19   42.16
   5   0 -19    2.42    2.53
  -5   0  19   -0.13    1.67
   5  -5  19   -0.98    1.53
  -5   5 -19    1.85    3.09
   0  -5 -19    1.55    1.74
   0   5  19   -0.61    1.77
   5   0 -16   27.71    5.21
  -5   0  16   18.98    3.90
  -5   5 -16   21.52    4.81
   5  -5  16   25.62    4.84
   0   5  16   25.64    4.32
   0  -5 -16   25.93    4.34
  -5   0  13    0.22    1.25
   5   0 -13    0.48    1.10
   5  -5  13   -2.00    1.45
  -5   5 -13    0.38    1.85
   0  -5 -13    0.36    1.23
   0   5  13    2.57    1.32
  -5   0  10   30.02    3.82
  -5   5 -10   53.84    7.39
   0  -5 -10   51.08    6.00
   5  -5  10   61.46    8.03
   0   5  10   53.64    6.20
   5   0 -10   48.23    5.80
   5   0  -7    0.75    1.61
   0  -5  -7   -3.34    1.51
   5  -5   7   -5.37    2.59
  -5   5  -7   -5.54    3.03
   0   5   7    3.05    2.75
   5  -5   4  215.72   14.48
   0   5   4  206.24   12.05
  -5   5  -4  206.97   14.11
   0  -5  -4  235.47   13.80
   5   0  -4  177.68    9.57
   0  -5  -1   -6.13    3.11
   5  -5   1   -3.65    2.57
   5   0  -1   -1.05    1.54
  -5   5  -1   -5.02    3.36
   0   5   1   -3.31    2.11
   0  -5   2  540.57   21.39
   5   0   2  478.99   12.73
   0   5  -2  490.43   19.04
   5  -5  -2  495.59   22.06
  -5   5   2  526.41   23.09
  -5   0  -5   -1.30    0.80
   0   5  -5   -5.29    2.80
   0  -5   5   -8.17    3.73
   5  -5  -5   -4.15    3.05
   5   0   5   -0.24    0.75
  -5   5   5   -1.70    1.98
  -5   0  -8    9.36    1.69
  -5   0  -8   19.25    2.72
   0   5  -8   20.42    4.09
   0  -5   8   22.42    4.60
   5   0   8   18.28    1.90
   5  -5  -8   24.76    5.23
  -5   5   8   24.68    5.34
  -5   0 -11   -0.01    1.50
   0   5 -11   -0.13    1.72
   5  -5 -11   -1.98    2.32
  -5   5  11   -2.74    2.31
  -5   0 -11   -0.02    0.70
  -5   0 -14  202.05   10.98
   0   5 -14  196.24   12.38
   5  -5 -14  219.60   16.03
   0   5 -14  227.71   15.09
  -5   0 -14  148.98    5.55
  -5   5  14  227.34   16.44
  -5   5  17   -9.36    4.70
   0   5 -17   -5.22    2.95
  -5   0 -17   -0.31    1.54
   0   5 -17   -2.26    2.47
   5  -5 -17   -5.74    4.75
  -5   0 -17   -0.77    0.73
  -5   0 -20  186.10   12.65
   0   5 -20  186.32   13.23
   0   5 -20  191.46   15.11
  -5   0 -20  176.51    7.25
  -5   5  20  184.67   15.20
   5  -5 -20  185.58   15.40
  -5   5  23   -0.12    2.69
  -5   0 -23    2.00    2.03
   0   5 -23   -0.96    1.28
  -5   0 -23    0.66    0.69
   0   5 -23   -2.65    2.46
   5  -5 -23   -0.59    2.21
  -5   0 -26  199.09   14.46
   0   5 -26  170.21   14.41
   5   0  26  201.90   13.74
  -5   0 -26  170.23    8.88
   0   5 -26  191.74   16.18
   5  -5 -26  201.80   17.29
  -5   5  26  191.93   16.59
  -5   5  29   -7.77    4.55
   0   5 -29   -2.25    2.30
  -5   0 -29    1.23    1.82
   5   0  29    0.10    2.49
   0   5 -29   -2.08    2.63
  -5   0 -29    0.21    1.49
   5  -5 -29   -1.48    3.30
  -5   5  32   19.88    6.14
  -5   5  32   19.85    6.02
   0   5 -32   17.93    4.87
   5   0  32   23.40    4.67
  -5   0 -32   18.34    5.02
  -5   0 -32   16.01    3.24
   0   5 -32   20.77    5.46
   5  -5 -32   25.31    6.38
  -5   5  35    0.92    2.84
  -5   5  35   -3.35    2.16
   5   0  35   -2.85    2.00
  -5   0 -35    2.18    2.68
   0   5 -35    2.84    3.39
   0   5 -35    5.85    2.93
  -5   0 -35    1.06    1.77
   5  -5 -35    0.00    2.47
   0   5 -38   69.75   10.86
  -5   0 -38  105.18   13.32
  -5   5  38   96.66   13.34
   5   0  38  103.36   11.48
  -5   0 -38  101.49    9.46
   0   5 -38   86.40   12.35
  -5   5  38   85.92   11.05
   5  -5 -38  103.24   14.06
  -5   5  41    2.33    3.39
  -5   5  41   -1.45    2.77
  -5   0 -41    1.29    1.89
  -5   0 -41   -2.67    3.39
   0   5 -41   -2.10    3.58
   5   0  41   -0.20    2.69
   0   5 -44  447.93   30.04
  -5   0 -44  552.20   31.30
  -5   5  44  565.59   35.06
  -5   0 -44  515.51   24.01
   0  -5  44  442.51   27.43
   5   0  44  521.46   28.40
  -5   0 -47  -10.49    5.54
   0  -5  47    0.24    2.08
   5   0  47   -0.89    2.31
  -5   5  47   -1.95    3.72
   5   0  50    0.91    3.73
   0  -5  50    4.90    3.08
  -5   5  50   -0.61    2.52
   0  -5  53   -6.26    4.60
   5   0  53   -2.96    3.72
  -5   5  53   -1.27    2.84
   0  -5  56   48.44   10.82
   5   0  56   57.39   10.90
  -5   5  56   46.01   11.10
  -5   5  59   -9.94    6.56
   5   0  59   -5.70    5.12
   0  -5  59   -5.77    4.33
  -5   5  62    8.64    4.98
   5   0  62   11.69    5.66
   0  -5  62    9.12    5.65
  -5   5  65    1.17    2.59
   0  -5  65   -7.63    5.81
   5   0  65   -2.59    5.28
  -5   5  68   14.49    6.10
   0  -5  68   30.12    9.57
   5   0  68   34.20    9.58
   5   0  71   -0.09    2.48
   0  -5  71   -0.50    3.39
  -5   5  71    8.56    5.40
   5   0  74   76.17   14.57
   0  -5  74   51.45   14.07
  -5   5  74   58.26   14.17
  -5   5  77   -0.29    5.81
   0  -5  77    1.58    3.33
   5   0  77    3.68    5.23
   5   0  80    2.44    3.77
   0  -5  80    0.24    2.96
   3   3   0   26.52    3.18
   3  -6   0   30.44    5.42
   6  -3   0   27.99    4.39
  -3   6   0   28.68    5.16
  -6   3   0   31.77    5.17
   3   3  -3   80.83    6.47
  -3   6  -3   86.96    9.36
   3   3   3   67.25    4.50
   3  -6   3   87.89    9.66
   6  -3  -3   82.78    7.93
   6  -3   3   80.89    7.42
  -3   6   3   79.97    8.59
   3  -6  -3   87.99    9.44
  -6   3  -3   90.18    8.53
  -6   3   3  100.09    9.38
   3   3  -6   17.71    1.61
   3   3   6   17.90    1.76
   3  -6  -6   57.82    7.69
   3   3   6   42.52    3.20
   3  -6   6   53.15    7.59
  -3   6   6   49.30    6.93
  -6   3  -6   46.53    5.93
   3   3  -6   55.27    5.90
   6  -3  -6   50.99    6.43
   6  -3   6   44.58    5.51
  -3   6  -6   48.82    6.84
  -6   3   6   54.60    7.04
  -6   3   9   19.88    3.85
   3   3  -9   19.97    2.44
   3   3   9   18.51    2.41
   6  -3   9   27.09    4.09
  -3   6  -9   17.62    3.62
   3  -6   9   32.05    6.12
   3  -6  -9   25.24    3.85
  -6   3  -9   19.63    3.64
   3   3   9   13.79    1.20
   6  -3  -9   24.11    4.21
  -3   6   9   24.69    4.22
   3   3 -12  708.41   17.36
   3   3  12  820.21   18.82
   3  -6  12  768.02   30.43
   6  -3  12  753.37   24.04
   3  -6 -12  805.49   30.03
  -3   6 -12  737.46   29.17
  -6   3 -12  760.71   23.97
   6  -3 -12  786.27   28.18
  -3   6  12  778.29   29.10
  -6   3  12  824.49   29.52
   3   3 -15  648.08   18.91
   3   3  15  759.38   20.74
   3  -6 -15  700.30   28.12
  -3   6 -15  682.99   28.22
  -6   3 -15  696.42   23.47
   3  -6  15  704.64   29.82
   6  -3  15  708.69   23.31
  -3  -3 -15  578.36   11.13
  -6   3  15  755.00   29.04
   6  -3 -15  717.06   27.72
  -3   6  15  709.25   28.03
  -6   3  18   18.63    5.17
   3   3 -18    9.89    2.79
  -6   3 -18   14.76    4.01
   3   3  18   17.58    3.54
  -3  -3  18   14.15    2.85
  -3  -3 -18    4.29    0.66
   6  -3  18    8.40    2.37
   3  -6  18   13.77    4.16
  -3   6 -18   16.72    4.80
   3  -6 -18   14.36    4.00
  -6   3 -18    1.72    1.36
   6  -3 -18   17.55    4.62
  -3   6  18   17.00    4.84
   3   3 -21   94.67    8.59
   3   3  21  131.65   10.54
  -6   3 -21  117.39   10.95
  -3  -3  21  110.51    8.66
  -3  -3 -21   85.40    5.03
  -3   6 -21  108.51   11.95
   6  -3  21  107.94    9.76
  -6   3 -21  104.72    9.17
   3  -6 -21  113.99   12.12
   3  -6  21  116.05   12.56
  -6   3  21  117.62   12.42
   6  -3 -21  112.77   11.74
  -3   6  21  105.48   10.96
   3   3 -24  314.24   16.68
   3   3  24  409.03   19.95
  -3   6 -24  364.34   21.39
  -3  -3  24  376.84   17.40
  -6   3 -24  378.64   20.63
  -3   6 -24  341.85   21.37
  -3  -3 -24  331.92   11.73
   3  -6 -24  380.24   22.64
  -6   3 -24  361.10   18.06
   6  -3 -24  362.50   21.73
  -6   3  24  353.83   21.03
  -3   6  24  371.55   21.31
  -6   3  27   53.77    7.93
   3   3  27   72.05    8.87
   3   3 -27   40.22    6.09
  -6   3  27   64.38    9.42
  -3   6 -27   56.98    8.29
  -6   3 -27   67.43    9.40
  -3  -3  27   52.75    6.85
  -3  -3 -27   50.49    4.91
  -6   3 -27   64.65    7.77
   3  -6 -27   71.53   10.23
  -3   6 -27   57.99    8.69
   6  -3 -27   57.46    8.94
  -3   6  27   66.74    9.57
  -3  -3 -30   33.53    6.30
   6  -3 -30   33.85    7.12
  -6   3  30   31.01    6.82
  -3   6  30   29.63    6.21
   3   3 -30   24.41    5.14
  -3  -3  30   29.05    5.17
  -3   6 -30   31.29    6.51
   3   3  30   35.58    6.39
  -6   3 -30   30.13    6.47
  -3   6 -30   32.00    6.96
  -6   3 -30   30.79    5.74
  -3  -3 -30   24.60    3.95
   3  -6 -30   32.97    7.40
  -3  -3 -33    3.45    2.36
   3   3 -33    1.11    1.69
  -3   6  33    2.95    1.61
  -3   6  33    1.74    1.74
   6  -3 -33    3.27    2.64
  -6   3  33    5.73    3.28
  -3  -3  33    3.74    2.81
  -3   6 -33    3.04    1.83
  -6   3 -33    3.41    2.23
   3   3  33    1.54    1.49
  -6   3 -33    3.02    2.20
  -3   6 -33    2.33    2.68
  -3  -3 -33    3.63    2.13
   3  -6 -33    3.17    3.02
   3   3  36  447.34   25.23
  -6   3  36  442.34   28.25
  -3   6  36  427.81   27.39
   3   3 -36  338.32   21.65
  -3  -3 -36  454.23   25.08
  -6   3 -36  405.74   26.57
  -3   6 -36  381.75   25.91
  -3  -3  36  398.56   23.72
  -6   3 -36  411.74   21.78
  -3   6 -36  386.94   25.74
   3  -6 -36  454.14   27.52
   6  -3 -36  434.47   26.99
  -3  -3 -36  397.28   18.42
  -3   6  36  445.77   26.17
   3   3 -39   -5.18    3.78
   6  -3 -39    2.87    3.41
  -3  -3 -39   -3.25    3.12
  -3   6  39   -4.16    3.36
  -6   3  39   -5.29    4.42
  -3   6  39   -1.93    2.76
  -6   3 -39    2.87    3.07
  -3  -3  39   -1.58    2.58
  -3   6 -39    1.35    2.65
   3   3  39    0.48    1.68
  -3   6 -39   -0.34    2.24
  -6   3 -39   -2.73    2.69
   3  -6 -39   -1.53    2.03
  -3  -3 -39    1.03    1.61
  -3   6  42    5.62    4.94
  -3  -3 -42    8.83    4.64
  -6   3  42    5.31    3.56
  -3   6  42    4.83    2.57
   3   3 -42    7.95    4.29
  -3  -3  42    6.66    3.40
  -6   3 -42   12.06    4.40
   3   3  42    5.58    4.85
  -3   6 -42    9.25    4.11
  -6   3 -42    6.26    2.76
  -3  -3 -42   11.43    3.77
   3  -6 -42    8.06    4.46
  -3  -3 -45    6.89    2.71
  -6   3  45    6.62    4.06
  -3   6  45   10.61    4.96
   3   3 -45    6.70    3.07
  -3  -3 -45    7.19    3.06
   3   3  45    7.36    4.30
  -3  -3  45    3.39    3.15
  -3   6 -45    5.58    2.76
  -6   3 -45    2.32    1.67
  -6   3  48  117.97   16.66
  -3  -3 -48  112.02   13.94
   3   3 -48   77.09   11.77
  -3   6  48  116.76   16.15
   3   3  48  113.53   14.47
  -3  -3  48  106.09   14.11
  -6   3 -48   99.62   12.24
  -3   6 -48  104.75   14.81
  -3  -3 -48  113.86   11.94
  -3   6  51  122.94   16.72
  -6   3  51  101.94   15.34
   3   3  51  137.85   17.06
  -3  -3  51  122.12   15.66
  -3   6 -51  105.42   15.46
  -6   3 -51  102.80   13.14
  -3  -3 -51  114.46   12.57
  -3   6  54   37.61    9.27
  -3  -3 -54   41.61    7.96
  -3   6 -54   28.62    7.87
  -6   3 -54   45.55    9.15
  -6   3  54   37.94   10.17
   3   3  54   38.47    9.15
  -3  -3  54   34.40    8.50
  -3  -3 -57   23.76    6.39
  -6   3 -57   26.41    6.64
  -3   6 -57   33.48    9.27
  -3   6  57   27.31    9.22
  -3  -3  57   22.45    5.85
   3   3  57   15.94    5.79
  -6   3  57   15.33    6.69
  -3  -3 -60   38.89    8.53
  -6   3 -60   41.76    8.98
  -3   6 -60   37.71   10.49
  -3   6  60   42.37   10.76
  -6   3  60   43.38   10.88
   3   3  60   34.63    8.79
  -3  -3  60   38.04    9.54
  -3  -3 -63   15.30    6.24
  -3   6  63   25.86    9.04
  -3  -3  63   17.59    7.39
   3   3  63   13.72    7.35
  -6   3  63   10.19    5.12
  -6   3 -63   14.96    6.65
  -3   6 -63   21.72    8.20
  -3   6  66    4.42    3.16
  -3  -3  66    8.84    6.08
  -6   3  66    7.00    5.32
   3   3  66   14.92    5.84
  -6   3 -66   13.96    6.84
  -3   6 -66   10.52    6.73
  -3   6  69    6.76    4.94
  -6   3  69    4.23    5.82
   3   3  69    9.84    4.92
  -3  -3  69    5.13    4.27
  -6   3 -69    6.08    3.96
  -3   6 -69    4.63    4.82
  -3   6  72   30.14    9.40
  -3  -3  72   40.69   11.70
  -6   3  72   39.07   11.57
   3   3  72   40.68   11.09
  -3   6 -72   26.29    9.35
  -6   3 -72   33.60    9.17
  -3   6  75    0.54    3.34
  -3  -3  75    1.93    3.32
  -6   3  75    2.68    4.19
   3   3  75    2.78    5.05
  -3   6 -75   -3.47    3.29
  -6   3 -75    4.23    4.87
  -3   6  78   31.56   11.32
  -3  -3  78   31.69   11.79
  -6   3  78   36.37   12.69
   3   3  78   31.47   10.75
  -3   6 -78   27.64   10.17
  -6   3 -78   23.60    8.19
  -3  -3  81    1.64    6.05
   3   3  81   -0.25    5.89
  -6   3 -81    3.83    4.35
  -6   3 -84   19.66    8.07
  -6   3 -87    0.64    4.97
  -6   4 -85   15.72    7.06
  -4  -2  82   19.91   10.39
  -6   4 -82   23.28    8.70
  -4  -2  79    1.36    3.37
   2   4  79   10.75    7.66
  -2   6  79    0.91    3.37
  -6   2  79    0.02    3.86
  -4   6 -79   -0.82    4.93
  -6   4 -79   -3.73    3.90
   2   4  76   19.69    8.04
  -2   6  76   18.30    8.62
  -4  -2  76    8.39    6.70
  -6   2  76   23.59    8.72
  -4   6 -76   24.68    9.89
  -6   4 -76   23.45    8.21
  -2   6  73    0.88    4.70
   2   4  73    2.23    4.38
  -6   2  73   11.68    7.85
  -4  -2  73    4.94    5.46
  -6   4 -73    6.35    4.93
  -4   6 -73    7.35    5.13
   2   4  70   46.16   12.24
  -2   6  70   44.90   12.54
  -6   2  70   49.79   13.65
  -4  -2  70   44.30   13.24
  -4   6 -70   39.86   11.40
  -6   4 -70   40.45   10.81
  -2   6  67    6.34    3.49
   2   4  67    7.07    4.22
  -6   2  67   10.31    6.50
  -4  -2  67   10.86    6.91
  -6   4 -67   10.21    5.25
  -4   6 -67    9.46    5.79
   2   4  64    6.76    5.57
  -2   6  64   -1.63    5.39
  -6   2  64    7.03    5.30
  -4  -2  64    7.76    6.01
  -4   6 -64   -0.66    4.45
  -6   4 -64    5.65    4.13
  -2   6  61   13.08    6.67
  -6   2  61    7.49    5.75
  -4  -2  61    2.54    4.04
   2   4  61    4.65    2.53
  -4   6 -61    5.28    4.85
  -6   4 -61    1.82    2.05
  -2  -4 -61    0.99    2.02
  -2   6  58   83.63   14.88
   2   4  58   82.48   14.36
  -6   2  58   58.89   12.90
  -4  -2  58   76.74   14.60
  -4   6 -58   57.84   11.81
  -6   4 -58   64.74   11.52
  -2  -4 -58   59.57    9.62
  -2   6  55    2.76    2.78
  -6   2  55   -1.37    2.53
  -4  -2  55    1.13    2.80
   2   4  55    1.15    3.47
  -6   4 -55   -5.71    4.99
  -4   6 -55   -1.99    4.33
  -2  -4 -55    1.44    2.17
  -2   6  52   22.15    7.54
  -6   2  52   16.99    6.33
  -4  -2  52   15.46    5.88
   2   4  52   15.94    6.13
  -6   4 -52    8.56    4.07
  -4   6 -52   17.13    6.24
  -2  -4 -52   22.47    5.79
  -2   6  49    1.61    3.29
   4   2 -49    5.86    3.61
  -6   2  49   -0.84    3.62
  -4  -2  49   -4.52    4.33
   2   4  49    0.54    3.16
  -6   4 -49   -5.75    4.80
  -4   6 -49   -3.60    4.43
  -2  -4 -49    2.74    2.30
  -2   6  46   39.27    8.91
   4   2 -46   33.27    7.85
  -4  -2  46   39.45    8.90
  -6   2  46   33.34    8.14
   2   4  46   45.12    9.30
  -4   6 -46   41.37    9.27
  -6   4 -46   40.46    8.32
   2  -6 -46   40.40    8.78
  -2  -4 -46   39.30    7.15
  -2   6  43    5.81    2.73
  -2   6  43    5.19    3.81
   4   2 -43    4.87    3.64
  -6   2  43    3.83    2.78
   2   4  43    3.49    1.69
  -4  -2  43    3.84    3.36
  -6   4 -43   10.35    4.60
  -4   6 -43    7.95    4.46
  -2  -4 -43    5.21    2.58
   2  -6 -43    7.78    5.08
   2   4  40  128.36   14.42
  -6   2  40  102.26   13.77
  -2   6  40  125.97   15.87
   4   2 -40   91.29   11.46
  -6   4 -40  106.40   15.97
  -4  -2  40  114.52   13.61
  -4   6 -40   96.51   12.95
  -6   4 -40  110.66   12.54
   2  -6 -40  131.32   14.93
  -2  -4 -40  125.82   12.08
   6  -2 -40  112.97   14.36
  -2   6  40  110.49   12.29
   6  -2 -37   -0.62    2.77
  -2   6  37    0.14    1.71
   4   2 -37    4.10    2.80
  -6   2  37    4.16    3.45
  -2   6  37    0.04    2.12
  -4   6 -37   -0.07    2.67
   2   4  37   -0.49    2.62
  -4  -2  37   -2.74    3.56
  -6   4 -37   -4.15    3.20
  -6   4 -37    2.80    2.63
  -4   6 -37   -5.19    4.50
   2  -6 -37    1.75    3.21
  -2  -4 -37    0.87    1.86
   2   4  34   83.97   10.80
  -2   6  34   81.26   11.35
   4   2 -34   56.91    8.25
  -6   2  34   75.31   11.29
  -4  -2  34   55.32    8.07
  -6   4 -34   67.74   10.55
  -4   6 -34   65.31   10.11
  -6   4 -34   68.67    9.52
  -4   6 -34   71.83   10.78
   6  -2 -34   69.27   10.58
   2  -6 -34   84.14   11.05
  -2  -4 -34   74.00    8.12
  -2   6  34   79.83   10.48
  -2   6  31   95.13   11.96
   2   4  31  105.71   11.67
   4   2 -31   62.03    8.19
  -6   2  31   97.47   12.09
  -4  -2  31   85.48    9.61
  -6   4 -31   89.72   11.90
  -4   6 -31   92.38   11.57
  -6   4 -31   88.76   10.44
  -4   6 -31   77.22   10.41
  -2   6  31   87.93   10.45
   6  -2 -31   99.51   12.36
   2  -6 -31   98.91   11.93
  -2  -4 -31   80.75    8.04
   2   4  28  440.71   22.36
   4   2 -28  321.61   17.75
  -6   2  28  387.84   22.45
  -4   6 -28  373.42   22.61
  -6   4 -28  410.92   23.47
  -4  -2  28  363.55   18.71
  -4   6 -28  383.06   23.65
  -2  -4 -28  415.92   17.61
   2  -6 -28  432.96   24.13
  -6   4 -28  402.82   21.58
  -2   6  28  404.69   22.60
   6  -2 -28  398.95   23.60
   2   4  25  209.39   14.39
   4   2 -25  143.97   11.10
  -6   2  25  186.35   14.94
  -4   6 -25  176.63   15.07
  -4  -2  25  192.48   13.13
  -6   4 -25  198.02   15.44
  -4   6 -25  193.22   16.93
  -6   4 -25  187.87   14.31
  -2  -4 -25  177.12   10.73
   2  -6 -25  197.56   15.68
   6  -2 -25  187.63   15.39
  -2   6  25  187.20   14.72
   2   4  22   57.71    7.11
  -6   2  22   41.75    6.75
   4   2 -22   38.54    5.21
  -6   4 -22   56.73    7.88
  -4  -2  22   55.86    6.77
  -4   6 -22   55.83    8.74
   6  -4  22   57.09    7.51
  -6   4 -22   50.78    6.92
   2  -6 -22   48.89    7.38
  -2  -4 -22   55.32    5.51
   4  -6  22   61.76    9.45
   2   4  22   48.31    5.19
  -2   6  22   56.94    7.82
   6  -2 -22   54.52    8.01
   2   4  19  328.06   16.03
   4   2 -19  261.42   12.52
  -4  -2  19  331.98   15.02
   4  -6  19  321.50   20.69
  -4   6 -19  319.34   19.97
  -6   4 -19  313.13   17.47
  -2  -4 -19  308.15   12.54
   6  -4  19  314.57   17.78
   2  -6 -19  327.14   19.06
   2   4  19  298.63   12.33
  -2   6  19  325.91   19.07
   6  -2 -19  312.01   18.43
   2   4  16  231.83   12.69
  -4  -2  16  175.40    9.53
  -4   6 -16  208.28   15.93
   4  -6  16  221.97   16.88
   2  -6 -16  232.35   15.79
   6  -4  16  211.86   14.13
  -6   4 -16  213.42   14.24
  -2  -4 -16  188.18    9.21
  -6   2  16  185.04   12.85
   2   4  16  188.09    9.44
  -2   6  16  228.88   15.57
   6  -2 -16  215.36   14.68
   2   4  13   -2.21    2.10
  -6   2  13   -2.23    2.67
  -4  -2  13    0.66    0.90
  -2  -4 -13   -2.51    1.92
   6  -4  13   -2.19    2.48
  -4   6 -13   -5.58    3.57
   4  -6  13   -5.13    3.94
  -6   4 -13   -4.75    3.03
   2   4  13   -1.24    1.70
   6  -2 -13   -1.32    1.84
   2  -6 -13   -2.15    3.02
  -2   6  13   -1.55    2.55
   2   4  10  101.39    6.91
  -4  -2  10   85.24    4.14
  -2   6  10  118.08   10.72
   4  -6  10  111.80   11.19
  -2  -4 -10  119.41    7.70
  -6   4 -10  116.50   10.19
   2   4  10  104.62    7.00
  -4   6 -10  112.45   11.03
   2  -6 -10  120.47   11.07
   6  -4  10  119.60   10.43
   6  -2 -10  122.93   10.34
  -6   2  10  135.03   11.48
  -6   4  -7   43.32    6.02
  -4   6  -7   54.80    7.44
   4  -6   7   59.32    8.19
   6  -4   7   52.03    6.47
  -2   6   7   51.01    6.76
   2  -6  -7   49.84    6.76
   2   4   7   44.62    4.22
  -2  -4  -7   52.28    4.90
  -6   2   7   65.56    7.37
   6  -2  -7   56.27    6.55
  -6   4  -4  170.82   12.66
   2  -6  -4  170.33   13.18
   4  -6   4  173.04   13.91
   6  -4   4  161.81   11.81
  -4   6  -4  169.45   13.45
   6  -2  -4  172.94   11.07
  -2   6   4  165.00   12.40
   2   4   4  158.81    8.50
  -6   2   4  188.50   12.48
  -6   2   1    0.45    1.86
   2   4   1    3.38    1.35
   4  -6   1   -2.20    3.27
   2  -6  -1    3.44    1.25
  -4   6  -1   -1.06    2.15
   6  -4   1    0.22    2.02
  -2   6   1    2.10    1.58
   6  -2  -1    1.81    0.94
  -6   4  -1   -3.38    2.53
  -4   6   2   95.18   10.01
   6  -2   2   93.42    7.40
   2  -6   2   98.73   10.31
   6  -4  -2   94.80    9.27
   4  -6  -2   97.24   10.14
  -2   6  -2   92.95    9.56
   2   4  -2   99.42    7.71
   4   2   2   57.92    3.52
  -6   4   2  104.84   10.18
  -6   2  -2  101.71    8.36
   2   4  -5   13.41    1.88
  -2   6  -5   15.26    3.83
   2  -6   5   22.01    4.81
   2   4  -5    8.44    2.17
   6  -2   5    6.65    1.43
  -6   4   5    6.33    1.97
  -4   6   5    8.00    2.68
   6  -4  -5    4.21    2.01
   4  -6  -5    7.52    1.97
  -6   2  -5    2.77    2.06
   2   4  -8  235.42   10.07
   2   4  -8  257.07   13.72
   6  -2   8  244.50   11.81
   4  -6  -8  268.84   17.48
   6  -4  -8  262.30   16.32
   2  -6   8  263.97   17.51
  -2   6  -8  237.74   15.86
  -6   2  -8  250.18   13.11
  -4   6   8  263.08   17.25
  -6   4   8  270.84   16.96
  -6   4  11    3.88    2.08
   2   4 -11    4.56    0.95
   6  -2  11    7.84    2.12
  -2   6 -11    8.70    3.38
   2   4 -11    7.02    2.03
   2  -6  11    7.44    2.86
   6  -4 -11    6.07    2.17
  -4   6  11    2.70    1.94
  -6   2 -11    2.68    1.55
   4  -6 -11   10.28    3.16
  -4  -2 -14   60.79    5.08
   2   4 -14   57.95    6.08
  -6   2 -14   69.18    7.58
   4   2  14   81.42    5.77
   2  -6  14   89.89   10.74
  -6   2 -14   71.32    6.86
   2   4 -14   83.02    8.82
  -2   6 -14   82.35    9.75
   6  -2  14   81.78    7.06
   4  -6 -14   79.75    9.80
  -4   6  14   79.26    9.68
  -6   4  14   83.05    9.88
   6  -4 -14   80.15    9.44
  -6   4  17   32.23    6.26
  -4  -2 -17   26.13    3.73
   4   2  17   36.16    4.39
  -6   2 -17   37.54    5.67
   2   4 -17   20.11    3.83
   6  -2  17   26.39    3.81
   2   4 -17   27.08    5.00
  -2   6 -17   33.92    6.52
   2  -6  17   30.25    6.13
   4  -6 -17   28.74    5.69
  -4   6  17   34.05    6.28
   6  -4 -17   29.76    5.64
  -6   2 -17   19.13    3.13
   2   4 -20  312.80   16.31
  -4  -2 -20  376.75   16.86
   4   2  20  378.86   16.26
  -2   6 -20  309.00   18.57
  -6   2 -20  372.96   18.83
  -6   2 -20  352.45   15.38
  -2   6 -20  371.13   21.58
   4  -6 -20  388.51   22.91
  -6   4  20  387.73   22.63
   6  -4 -20  393.25   22.59
  -4   6  20  381.83   22.05
  -4  -2 -23   -1.40    1.67
  -4   6  23   -1.44    2.48
  -6   4  23   -1.26    2.27
  -6   2 -23    2.32    1.41
   2   4 -23   -2.84    2.47
   4   2  23    1.57    1.66
  -2   6 -23   -2.95    2.66
  -2   6 -23   -6.11    3.83
  -6   2 -23    2.31    1.56
  -4  -2 -23    0.60    0.80
   6  -4 -23   -1.20    2.24
   4  -6 -23    1.16    2.25
   2   4 -26   42.48    6.68
  -4  -2 -26   66.86    8.51
   4   2  26   64.39    7.92
  -6   2 -26   54.43    8.26
  -2   6 -26   49.27    7.55
  -2   6 -26   55.58    8.79
   4  -6 -26   56.91    9.15
  -6   2 -26   49.06    5.98
  -4  -2 -26   48.04    4.04
   6  -4 -26   60.45    9.60
  -4   6  26   54.47    8.74
  -6   4  26   53.81    9.05
   2   4 -29   63.59    8.57
  -4  -2 -29   90.18   10.14
  -6   2 -29   71.62   10.30
   4   2  29   76.29    8.95
  -2  -4  29   67.29    8.28
  -2   6 -29   64.20    9.32
  -6   2 -29   81.40    8.35
  -2   6 -29   78.69   10.72
   4  -6 -29   80.16   11.39
   6  -4 -29   79.62   11.13
  -6   4  29   79.86   11.26
  -4  -2 -29   60.56    5.15
  -4   6  29   77.04   10.61
  -6   4  32  198.62   17.68
   2   4 -32  151.85   14.37
  -4  -2 -32  225.69   17.06
  -6   2 -32  193.79   16.74
  -2  -4  32  193.73   15.06
   4   2  32  190.00   15.10
  -2   6 -32  167.74   16.17
  -6   2 -32  197.33   13.64
  -2   6 -32  187.97   17.46
  -6   4  32  146.67   13.52
   6  -4 -32  198.15   17.93
  -4  -2 -32  186.79   10.70
   4  -6 -32  214.16   18.79
  -4   6  32  189.26   16.86
  -4  -2 -35   -5.78    4.69
  -4  -2 -35    5.58    2.03
  -4   6  35   -0.86    2.99
  -4   6  35   -0.17    2.92
  -6   4  35   -0.43    1.76
  -6   2 -35    0.00    2.26
   2   4 -35    1.50    2.47
   4   2  35    4.25    2.18
  -2  -4  35    2.43    2.57
  -2   6 -35    6.59    3.14
  -6   2 -35    2.78    1.30
  -2   6 -35    2.41    2.64
   6  -4 -35    6.42    4.04
   4  -6 -35    4.15    2.57
   2   4 -38  268.89   20.84
  -4   6  38  319.19   24.24
  -6   4  38  296.54   23.02
  -4  -2 -38  372.15   24.56
  -2  -4  38  315.76   20.69
  -6   2 -38  309.06   23.12
   4   2  38  334.99   21.97
  -2   6 -38  276.95   23.10
  -2   6 -38  301.06   23.48
  -6   2 -38  312.03   18.68
   6  -4 -38  315.11   23.97
   4  -6 -38  329.56   24.63
  -4   6  38  322.05   23.71
  -4  -2 -38  283.22   15.11
  -4  -2 -41    0.73    1.28
  -6   4  41   -5.52    4.52
  -4  -2 -41    9.62    4.50
  -4   6  41   -6.20    3.88
  -4   6  41    1.40    2.83
  -2  -4  41   -3.90    3.23
   2   4 -41   -8.22    4.43
  -2   6 -41   -7.67    4.35
   4   2  41   -8.47    5.11
  -6   2 -41    4.67    3.68
  -2   6 -41    0.06    2.95
  -6   2 -41   -1.07    2.41
   4  -6 -41    0.20    2.54
  -4   6  44   -0.44    2.95
  -4  -2 -44    0.57    1.93
  -4  -2 -44    3.03    2.14
  -6   4  44   -4.41    4.06
  -4   6  44    4.27    3.10
  -2  -4  44   -7.43    4.37
   2   4 -44   -0.03    1.70
   4   2  44   -4.36    4.50
  -6   2 -44    1.46    1.97
  -2   6 -44    3.84    3.68
  -6   2 -44   -0.13    1.62
  -6   4  47   73.18   12.19
  -4  -2 -47   93.75   13.01
  -4   6  47   99.10   15.26
   2   4 -47   49.00    9.32
   4   2  47   99.84   14.02
  -2  -4  47   79.94   11.98
  -6   2 -47   81.84   10.53
  -2   6 -47   98.52   15.02
  -4  -2 -47   74.06    9.04
  -4   6  50  121.20   17.15
  -6   4  50  100.76   15.22
  -4  -2 -50  111.96   14.29
   4   2  50  128.53   16.30
  -2  -4  50  109.81   14.15
  -2   6 -50   83.23   13.28
  -6   2 -50  108.61   12.49
  -4  -2 -50   91.40   10.42
  -4  -2 -53    6.12    3.30
  -4   6  53    8.69    5.84
  -2   6 -53    2.75    3.20
  -6   2 -53    5.09    3.36
   6  -2  53   10.94    5.76
   4   2  53    6.40    2.60
  -2  -4  53   -3.89    3.82
  -6   4  53    5.72    4.35
  -4   6  56   45.22   11.32
  -4  -2 -56   41.62    7.60
  -2   6 -56   42.31   10.10
  -6   2 -56   42.06    8.26
  -6   4  56   32.26    9.07
   6  -2  56   36.33    8.96
   4   2  56   46.66   10.63
  -2  -4  56   36.74    8.78
  -4  -2 -59   -4.85    3.89
  -2   6 -59   -2.15    2.62
  -6   2 -59   -0.82    1.90
  -6   4  59   -1.43    3.91
  -4   6  59   -1.72    3.35
   6  -2  59   -1.13    2.86
   4   2  59    1.62    3.15
  -2  -4  59   -8.48    5.11
  -4  -2 -62   46.65    8.87
  -6   2 -62   51.24    9.97
  -2   6 -62   49.54   11.50
  -6   4  62   50.80   12.91
  -4   6  62   57.47   13.20
   4   2  62   67.32   13.31
   6  -2  62   51.98   11.15
  -2  -4  62   55.52   11.89
  -2   6 -65   11.55    5.97
  -6   2 -65   10.34    6.64
  -6   4  65   16.87    8.66
  -4   6  65    7.39    4.78
   6  -2  65    9.62    4.56
  -2  -4  65   -0.12    4.39
   4   2  65    4.39    4.26
  -2   6 -68   30.34   10.58
  -6   2 -68   34.11    9.03
  -2  -4  68   34.80   10.11
  -4   6  68   25.68    9.11
   6  -2  68   25.60    8.22
  -6   4  68   26.21    9.98
   4   2  68   28.94    9.21
  -2   6 -71    7.25    5.81
  -6   2 -71    6.15    4.09
  -2  -4  71   10.19   23.51
   4   2  71    5.65    3.98
  -4   6  71   10.55    7.27
  -6   4  71    5.12    5.46
   6  -2  71    4.55    4.13
  -6   2 -74    8.62    5.38
  -2   6 -74    0.99    3.35
  -2  -4  74   15.67    7.12
  -4   6  74    6.70    6.66
  -6   4  74    4.15    4.51
   6  -2  74   -1.26    4.19
   4   2  74    6.00    4.53
  -2   6 -77   -4.97    4.66
  -6   2 -77   -6.38    3.97
   4   2  77    2.93    5.92
   6  -2  77   -0.02    4.24
  -2  -4  77    0.39    3.71
  -4   6  77    4.94    7.67
  -6   4  77    2.30    3.23
  -6   2 -80   34.32    9.83
   4   2  80   35.70   10.62
  -2  -4  80   39.37   12.63
   6  -2  80   21.27    9.71
  -6   2 -83   -2.00    4.94
  -6   5 -83    8.81    6.53
  -6   5 -80   11.56    7.28
  -5   6 -80   26.38   10.77
  -6   1  80   14.80    8.79
   1   5  80   19.05    8.78
  -5  -1  80    3.92    3.58
  -5   6 -77   -5.34    3.65
  -6   5 -77   -1.10    4.41
   1   5  77    0.50    3.37
  -6   1  77    6.48    6.51
  -1   6  77  -16.96    8.16
  -5  -1  77   -6.83    7.60
  -5   6 -74   11.09    5.83
  -6   5 -74    9.30    7.24
  -6   1  74    8.42    6.55
  -1   6  74   12.03    7.17
  -5  -1  74   11.00    7.19
   1   5  74    5.89    7.15
  -5   6 -71    0.10    2.58
  -6   5 -71    1.12    3.18
  -1   6  71    5.81    5.89
  -5  -1  71    2.56    3.11
   1   5  71    0.87    4.81
  -6   1  71    1.95    3.39
  -5   6 -68   12.25    7.01
  -6   5 -68   21.46    8.14
  -5  -1  68   20.32    8.92
  -1   6  68   20.33    8.06
   1   5  68   16.26    6.36
  -6   1  68   17.77    7.80
  -5   6 -65    6.75    5.01
  -6   5 -65    4.93    2.66
  -5  -1  65    9.17    5.71
  -1   6  65    4.40    5.27
   1   5  65    8.69    5.01
  -6   1  65    7.21    4.75
  -5   6 -62   18.59    6.84
  -6   5 -62   11.10    4.64
  -5  -1  62    8.98    3.18
  -1   6  62   19.97    5.19
   1   5  62   16.24    6.49
  -6   1  62   11.29    5.53
   1   5  59   86.17   14.52
  -1   6  59   86.71   16.00
  -5  -1  59   68.36   13.30
  -6   1  59   68.63   13.59
  -5   6 -59   76.73   13.84
  -6   5 -59   79.10   13.74
  -6   1  56  108.97   16.28
  -1   6  56  137.00   18.91
   1   5  56  102.32   15.15
  -5  -1  56   70.67   12.15
  -6   5 -56  107.28   15.02
  -5   6 -56  110.74   16.09
  -1  -5 -56  110.69   14.80
  -1   6  53   67.84   12.63
  -5  -1  53   58.36   11.57
   1   5  53   68.16   12.30
  -6   1  53   53.83   11.25
  -5   6 -53   49.94   10.44
  -6   5 -53   50.96   10.27
  -1  -5 -53   56.01   10.24
   1   5  50  100.23   14.81
  -6   1  50   74.95   12.85
  -1   6  50   96.72   14.58
  -5  -1  50   68.64   11.92
  -5   6 -50   72.21   12.28
  -6   5 -50   94.51   13.79
  -1  -5 -50   90.35   12.07
   1  -6 -50  100.12   14.11
  -1   6  47    3.61    3.10
   1   5  47    7.78    4.26
  -6   1  47    2.93    3.00
  -5  -1  47    2.31    2.28
  -5   6 -47    4.20    3.48
  -6   5 -47   -2.98    2.88
  -1  -5 -47    0.79    3.76
   1  -6 -47    2.83    3.39
  -1   6  44   20.81    6.10
   1   5  44   19.88    5.97
  -6   1  44   13.44    5.00
  -5  -1  44   16.96    5.78
  -6   5 -44   11.78    4.72
  -5   6 -44   14.18    5.13
   1  -6 -44   20.69    6.32
  -1  -5 -44   18.30    4.71
  -1   6  41   29.04    7.44
  -1   6  41   22.26    4.92
   5   1 -41   21.76    5.92
   1   5  41   28.92    6.87
  -6   1  41   26.69    7.12
  -5  -1  41   17.62    5.55
  -5   6 -41   25.34    6.96
  -6   5 -41   24.51    6.33
  -1  -5 -41   20.36    5.24
   1  -6 -41   30.86    7.23
   6  -1 -38   39.55    8.49
  -1   6  38   40.59    8.53
  -1   6  38   38.29    6.98
   5   1 -38   21.12    5.21
   1   5  38   38.71    7.36
  -5  -1  38   30.20    6.64
  -6   1  38   35.90    7.73
  -6   5 -38   37.55    8.61
  -6   5 -38   49.13    8.95
  -5   6 -38   42.34    8.51
  -1  -5 -38   38.78    6.80
   1  -6 -38   40.52    7.86
   1   5  35   52.79    8.56
   6  -1 -35   52.00    9.15
  -5  -1  35   49.46    8.62
  -1   6  35   53.18    8.95
  -6   1  35   38.49    7.63
  -5   6 -35   50.05    9.02
  -6   5 -35   52.44    9.72
  -5   6 -35   47.95    8.84
  -6   5 -35   63.22   10.10
  -1  -5 -35   53.74    7.81
   1  -6 -35   56.86    8.90
  -1   6  35   56.10    8.54
   1   5  32  140.45   13.73
  -6   1  32  118.86   13.04
  -5  -1  32  130.10   13.06
  -1   6  32  140.15   14.67
  -6   5 -32  137.42   14.40
  -5   6 -32  130.84   14.09
  -5   6 -32  139.77   15.08
  -1  -5 -32  149.75   12.75
   1  -6 -32  156.72   14.71
  -6   5 -32  138.96   13.98
  -1   6  32  155.06   14.01
   6  -1 -32  127.57   13.91
  -1   6  29    4.60    2.52
   6  -1 -29    6.65    3.30
  -1   6  29    7.49    3.81
   1   5  29    6.27    2.53
   1   5  29    4.22    2.85
  -6   1  29    7.47    3.79
  -5  -1  29    6.85    3.17
  -5   6 -29    8.39    3.02
  -6   5 -29    7.81    3.69
  -5   6 -29    7.04    3.91
  -6   5 -29    7.67    3.84
  -1  -5 -29    3.94    2.37
   1  -6 -29    9.24    3.56
   5   1 -26  185.07   13.86
  -5  -1  26  226.41   15.08
  -6   1  26  233.67   17.08
  -1   6  26  242.15   17.69
   1   5  26  244.28   16.86
  -6   5 -26  221.02   17.69
  -5   6 -26  196.69   16.54
   5  -6  26  242.37   18.72
  -1  -5 -26  225.29   13.91
   1  -6 -26  229.74   16.49
  -6   5 -26  236.59   17.22
  -5   6 -26  219.48   17.64
   6  -5  26  231.73   17.39
   1   5  26  240.46   14.16
  -1   6  26  233.60   16.01
   6  -1 -26  224.80   17.09
  -1   6  23    1.53    1.45
   1   5  23    1.95    1.95
   1   5  23    2.56    1.21
   6  -1 -23    4.81    2.95
  -6   1  23    5.14    3.04
   5   1 -23    2.91    2.33
  -6   5 -23    1.81    1.87
  -5  -1  23    2.17    1.93
  -5   6 -23    4.88    3.14
   5  -6  23    0.82    1.85
   6  -5  23    4.39    3.06
  -6   5 -23    0.30    1.76
  -1  -5 -23    1.63    1.08
   1  -6 -23    0.64    2.18
  -5  -1  20   74.58    7.42
   1   5  20  116.49   10.21
  -6   1  20   98.40    9.85
   1  -6 -20  118.16   11.15
   5  -6  20  119.73   12.90
  -1  -5 -20  109.08    9.02
   6  -5  20  113.89   11.83
  -5   6 -20  106.77   11.72
  -6   5 -20  106.53   10.98
   1   5  20  112.43    8.85
  -1   6  20  112.11   10.56
   6  -1 -20  105.88   10.77
   5   1 -20   73.15    7.66
   1   5  17    3.19    1.81
   6  -1 -17    3.65    1.98
   5   1 -17    1.68    1.28
  -6   1  17    2.67    1.51
  -5  -1  17    4.26    2.13
   6  -5  17    0.01    3.20
   5  -6  17    3.76    2.10
  -5   6 -17    2.56    1.43
  -1  -5 -17    4.96    1.65
   1   5  17    3.98    1.50
  -6   5 -17    1.96    1.53
   1  -6 -17    4.08    2.17
  -1   6  17    6.55    2.24
   6  -1 -14   18.55    4.19
   5   1 -14   13.55    3.57
  -5  -1  14    5.93    1.99
  -5   6 -14   17.02    4.52
  -1  -5 -14   17.31    3.60
   6  -5  14   18.81    4.46
   5  -6  14   23.96    5.29
   1  -6 -14   18.26    4.10
  -6   5 -14   20.35    4.81
  -1   6  14   18.75    4.19
   1   5  14   16.46    3.28
   5   1 -11   11.57    3.08
  -5  -1  11    3.21    1.73
   6  -5  11   16.30    4.22
   5  -6  11    7.17    1.82
  -1  -5 -11    5.66    1.12
   1  -6 -11    7.04    1.37
  -1   6  11   13.26    3.36
   1   5  11   15.20    2.98
  -6   5 -11    9.88    2.88
   6  -1 -11   11.51    3.06
  -5   6 -11    5.71    2.16
   1  -6  -8  289.09   16.82
   1   5   8  265.18   12.97
   6  -5   8  278.81   16.92
  -5   6  -8  276.47   17.82
  -1   6   8  288.73   16.39
   5  -6   8  286.27   18.50
  -1  -5  -8  275.44   14.11
  -6   5  -8  286.37   17.09
   5   1  -8  264.74   13.21
   6  -1  -8  284.17   14.83
   5   1  -5    1.80    1.37
  -5  -1   5   -0.76    0.65
  -6   1   5    0.55    0.90
   5  -6   5   -3.34    3.17
   1  -6  -5   -3.19    3.08
  -1  -5  -5   -6.48    3.00
   6  -5   5   -5.60    3.49
  -6   5  -5   -4.83    2.96
   1   5   5   -4.31    2.56
  -5   6  -5   -2.53    2.31
   6  -1  -5   -0.64    1.61
  -1   6   5   -0.38    2.31
   1  -6  -2  242.56   16.09
  -1  -5  -2  245.94   13.93
  -6   5  -2  237.82   15.87
   1   5   2  230.60   12.11
  -1   6   2  222.82   14.19
   6  -1  -2  233.18   11.79
   5  -6   2  234.08   16.22
   6  -5   2  223.21   15.09
  -5   6  -2  228.04   15.79
  -6   1   2  236.09   12.70
   5   1  -2  202.29    9.41
  -6   1  -1    7.61    1.52
   1   5  -1    4.96    1.53
  -1  -5   1    5.83    1.47
   1  -6   1    3.82    2.06
   5  -6  -1    5.47    1.72
   6  -1   1    7.57    1.93
  -5   6   1    3.59    1.64
   5   1   1    5.17    1.39
   6  -5  -1    6.58    1.88
  -6   5   1    4.76    1.56
  -1   6  -1    7.21    1.73
  -5  -1  -4   37.58    2.67
  -5   6   4   61.80    8.25
   1   5  -4   63.22    6.85
   6  -5  -4   63.12    8.19
   1  -6   4   54.60    7.06
  -1   6  -4   48.79    6.40
   6  -1   4   47.58    4.51
  -6   5   4   57.33    7.97
   5  -6  -4   51.47    6.60
  -6   1  -4   48.97    4.85
  -5  -1  -7   94.05    5.20
   5  -6  -7  131.12   12.01
   6  -1   7  111.38    6.57
   1   5  -7  130.96   10.45
  -1   6  -7  131.84   11.48
   1  -6   7  135.03   12.09
   6  -5  -7  132.73   11.80
  -5   6   7  120.52   11.20
  -6   1  -7  120.49    7.33
  -6   5   7  157.39   13.65
  -5  -1 -10  553.52   14.99
  -6   1 -10  636.38   20.12
   1   5 -10  568.58   19.29
   1   5 -10  625.77   23.35
   1  -6  10  658.87   27.84
   5  -6 -10  635.15   27.38
  -1   6 -10  610.07   25.39
   6  -5 -10  574.88   25.36
   6  -1  10  582.33   15.78
  -5   6  10  651.30   28.34
  -6   1 -10  572.18   15.92
  -6   5  10  631.43   27.98
  -5  -1 -13 1003.08   23.30
  -6   1 -13 1010.91   26.39
   1   5 -13  961.48   25.48
   6  -1  13  950.30   19.91
   1   5 -13 1040.67   32.15
  -1   6 -13 1032.29   34.21
   1  -6  13 1018.84   35.38
   6  -5 -13  986.03   34.50
   5  -6 -13 1044.02   35.86
  -6   1 -13  871.34   19.30
  -6   5  13 1026.92   36.06
  -5   6  13 1078.84   37.05
  -6   5  16    2.05    3.87
  -6   1 -16   22.47    4.22
   1   5 -16   22.19    4.58
  -5  -1 -16   15.74    3.23
  -1   6 -16   16.12    4.30
   1   5 -16   19.05    4.84
  -6   1 -16   12.11    2.14
   5  -6 -16   15.95    4.65
   6  -5 -16   11.35    2.96
  -5   6  16   25.18    6.32
  -5  -1 -19   87.51    8.15
  -1   6 -19   91.04    9.92
  -6   1 -19   94.40    9.73
   1   5 -19   72.95    8.52
   1   5 -19   80.32    9.57
  -1   6 -19   77.11    9.53
  -6   1 -19   74.44    6.19
   5  -6 -19   80.51   10.34
   6  -5 -19   85.14   10.71
  -6   5  19   92.67   11.35
  -5   6  19   88.03   10.74
  -5   6  22   14.60    5.04
  -6   5  22   26.76    7.21
  -1   6 -22   13.53    3.62
  -5  -1 -22   18.51    4.15
   5   1  22   13.03    3.12
  -6   1 -22   14.43    3.84
   1   5 -22   11.33    3.83
   1   5 -22   12.81    3.89
  -1   6 -22   14.20    4.25
  -6   1 -22   11.63    2.52
   5  -6 -22   13.20    4.52
   6  -5 -22   41.42    8.83
  -5   6  25    0.88    2.25
  -6   5  25    4.44    2.96
  -5  -1 -25    0.24    0.62
  -5  -1 -25    0.49    1.22
  -6   1 -25    1.51    1.99
   1   5 -25    0.51    1.55
   5   1  25    0.97    1.70
  -1   6 -25    1.87    1.77
  -5  -1 -25    0.93    0.78
   1   5 -25    0.24    1.84
  -1   6 -25    3.73    3.25
  -6   1 -25   -0.75    1.21
   5  -6 -25    4.64    4.13
   6  -5 -25    2.29    2.75
  -5  -1 -28  306.11   18.33
   1   5 -28  229.95   17.15
   5   1  28  308.37   17.28
  -6   1 -28  289.48   19.41
  -1   6 -28  274.74   19.25
  -5  -1 -28  249.66    9.60
  -6   1 -28  263.95   13.07
  -1   6 -28  272.82   20.36
   1   5 -28  271.83   20.14
   6  -5 -28  286.89   21.29
  -6   5  28  288.78   21.56
  -5   6  28  289.71   21.39
  -5  -1 -28  244.00   10.03
   5  -6 -28  285.43   21.33
  -5  -1 -31   81.34    9.76
   1   5 -31   62.12    9.44
  -6   1 -31   82.77   10.51
  -1   6 -31   76.15   10.64
   5   1  31  102.40   10.33
  -1   6 -31   86.59   11.97
  -5  -1 -31   69.55    5.47
  -6   1 -31   82.78    7.70
   1   5 -31   86.06   11.73
   6  -5 -31  101.88   13.17
  -6   5  31   91.67   12.50
  -5   6  31   89.25   11.93
  -5  -1 -31   73.01    6.09
   5  -6 -31   94.39   12.50
  -5  -1 -34   60.38    8.75
  -6   5  34   61.96   10.58
  -1   6 -34   39.00    7.98
  -6   1 -34   52.63    8.45
   1   5 -34   41.94    8.26
   5   1  34   69.18    9.00
  -5  -1 -34   52.63    5.55
  -1   6 -34   57.39   10.02
  -6   1 -34   56.42    6.55
   5  -6 -34   68.62   11.07
  -5  -1 -34   44.40    4.99
  -6   5  34   60.70   10.52
  -5   6  34   64.04   10.38
   6  -5 -34   67.84   11.10
  -6   5  37   -7.10    5.05
  -5   6  37   -3.35    3.58
  -5   6  37   -8.26    5.31
  -5  -1 -37    1.40    1.76
  -6   5  37   -5.38    3.48
  -5  -1 -37   -4.86    3.25
  -1   6 -37    2.02    1.58
   5   1  37   -5.75    3.68
  -6   1 -37    3.46    3.03
   1   5 -37  -12.49    6.17
  -5  -1 -37    1.43    1.25
  -1   6 -37    0.24    2.60
  -6   1 -37    0.71    2.00
   6  -5 -37   -3.77    3.78
   5  -6 -37    6.57    4.02
  -6   5  40  204.48   18.04
  -5  -1 -40  248.65   19.94
  -6   1 -40  230.65   19.93
   1   5 -40  202.62   18.87
  -5   6  40  229.57   21.24
  -6   5  40  236.79   21.48
  -1   6 -40  174.83   18.54
   5   1  40  270.80   19.61
  -6   1 -40  240.76   15.71
  -1   6 -40  201.98   19.75
  -5   6  40  242.94   21.55
  -5  -1 -40  205.58   13.23
  -6   1 -43  132.29   15.61
   1   5 -43  107.63   14.37
  -5  -1 -43  147.59   15.73
  -5   6  43  120.07   15.75
  -6   5  43  128.60   16.06
   6  -1  43  106.70   13.43
  -1  -5  43  128.28   14.16
   5   1  43  141.26   14.61
  -1   6 -43  103.31   14.61
  -1   6 -43  128.59   16.23
  -6   1 -43  122.03   11.54
  -5   6  43  103.67   12.50
  -5  -1 -43  115.16   10.56
  -5   6  46   -1.94    3.15
  -6   5  46   -3.58    4.52
  -5  -1 -46    0.90    2.86
  -5  -1 -46    0.91    3.15
  -1   6 -46    2.81    3.25
  -6   1 -46    1.24    1.91
  -1  -5  46   -1.41    4.17
  -6   1 -46    4.71    3.07
   1   5 -46   -0.78    1.88
   5   1  46   -2.58    3.87
   6  -1  46    0.88    3.08
  -5  -1 -49   51.98    7.73
  -5  -1 -49   60.88   10.88
  -6   5  49   61.38   12.19
  -5   6  49   69.38   12.79
   6  -1  49   56.81   10.43
  -1  -5  49   46.42    8.28
   5   1  49   58.80    9.57
  -6   1 -49   60.66    8.88
  -1   6 -49   54.67   11.62
  -6   5  52  124.47   17.88
  -5   6  52  117.35   17.41
   6  -1  52  114.00   15.34
  -1  -5  52  132.32   15.91
   5   1  52  130.43   15.41
  -1   6 -52  107.06   16.45
  -6   1 -52  112.76   12.67
  -5  -1 -52  105.55   11.96
  -5  -1 -55   -4.25    3.98
  -6   5  55    0.59    2.57
  -5   6  55   -0.65    3.00
  -1   6 -55   -0.36    3.19
  -6   1 -55   -0.08    2.75
   5   1  55   -4.84    5.11
   6  -1  55    7.73    5.41
  -1  -5  55   -5.34    4.96
  -5   6  58   54.63   12.16
  -5  -1 -58   37.85    7.45
  -1   6 -58   44.04   10.87
  -6   1 -58   40.72    7.77
  -6   5  58   48.06   11.79
   6  -1  58   50.23   10.51
   5   1  58   49.21   10.60
  -1  -5  58   45.04   10.67
  -5  -1 -61   -8.90    5.49
  -1   6 -61   -4.36    4.09
  -6   1 -61    0.95    3.20
  -5   6  61  -11.89    6.84
  -6   5  61  -10.92    8.04
   6  -1  61    1.88    2.37
   5   1  61   -8.18    5.12
  -1  -5  61  -11.15    7.01
  -1   6 -64   40.56   10.56
  -6   1 -64   36.04    7.86
  -6   5  64   40.04   11.32
  -5   6  64   41.34   11.43
   6  -1  64   43.31   10.32
  -1  -5  64   46.21   11.43
   5   1  64   45.15   10.75
  -6   1 -67   -0.14    3.25
  -1   6 -67   -0.23    3.38
  -5   6  67   -3.91    4.72
   6  -1  67   -2.20    4.29
  -1  -5  67   -7.75    6.28
  -6   5  67   -5.27    5.24
   5   1  67   -2.64    4.72
  -6   1 -70   21.68    6.80
  -1   6 -70   13.93    7.61
  -5   6  70   25.73    9.63
  -6   5  70   18.86    9.42
  -1  -5  70   53.03   19.28
   6  -1  70   20.30    7.72
   5   1  70   25.14    8.87
  -1   6 -73    5.22    5.44
  -6   1 -73    9.70    5.19
  -5   6  73    6.70    6.84
  -6   5  73    3.13    3.46
   6  -1  73    1.35    3.37
   5   1  73    7.98    6.18
  -1  -5  73    3.40    3.63
  -1   6 -76   15.55    7.75
  -6   1 -76    4.44    4.89
  -5   6  76    3.04    4.83
  -6   5  76    5.28    5.19
   6  -1  76   -0.06    3.70
   5   1  76   17.49    7.44
  -1  -5  76   11.64    6.85
  -6   1 -79    7.27    4.74
  -1  -5  79    0.09    5.72
   6  -1  79   12.35    5.12
   5   1  79    6.41    5.82
  -6   6 -81    0.47    4.21
  -6   0  81    5.31    4.97
  -6   6 -78    7.58    5.67
  -6   0  78   -0.39    4.37
   0   6  78   -1.00    3.44
  -6   6 -75    5.77    4.12
  -6   0  75   -0.93    3.32
   0   6  75    6.54    6.22
  -6   6 -72    2.41    4.60
  -6   0  72   -8.00    6.16
  -6   6 -69   -0.32   15.63
  -6   0  69   -1.58    4.30
   0   6  69   -2.11    4.59
  -6   6 -66   14.04    7.60
  -6   0  66    5.91    3.50
   0   6  66    1.05    3.21
  -6   6 -63    9.01    5.38
   0   6  63   -3.54    3.20
  -6   0  63   -3.46    4.14
  -6   6 -60   58.03   12.11
   0   6  60   69.66   13.24
  -6   0  60   57.54   11.93
  -6   6 -57    0.40    2.94
   0   6  57   -4.11    4.48
  -6   0  57   -3.76    5.84
  -6   0  54  153.41   19.25
   0   6  54  197.51   21.76
  -6   6 -54  195.26   21.44
   0   6  51   -2.49    2.80
  -6   0  51  -10.76    6.03
  -6   6 -51   -0.01    3.20
   0  -6 -51    1.66    3.22
   0   6  48   88.28   13.29
  -6   0  48   71.31   12.21
  -6   6 -48   77.37   11.94
   0  -6 -48   76.62   11.80
   0   6  45    1.67    2.04
  -6   0  45    4.59    4.58
  -6   6 -45    3.48    3.49
   0  -6 -45   -3.20    3.32
   0   6  42   13.74    4.61
  -6   0  42   10.56    4.43
  -6   6 -42   12.41    5.01
   0  -6 -42   13.93    4.53
   0   6  39   -1.22    2.01
   6   0 -39    2.80    4.06
  -6   0  39    0.48    2.30
  -6   6 -39    1.35    3.05
   0  -6 -39    1.57    2.31
  -6   0  36  132.78   14.34
   0   6  36  154.63   16.15
   0  -6 -36  165.02   15.11
  -6   6 -36  146.11   15.86
   6   0 -36  130.76   15.02
   0   6  36  147.07   13.03
   6   0 -33    0.64    2.31
   0   6  33   -0.69    1.93
   0   6  33   -3.82    2.31
  -6   0  33    1.05    1.92
  -6   6 -33    4.97    3.73
  -6   6 -33   -4.67    3.50
   0  -6 -33   -0.78    1.84
   6   0 -30   21.94    5.49
   0   6  30   28.68    5.87
   0   6  30   29.01    6.52
  -6   6 -30   26.06    6.32
  -6   0  30   16.15    4.87
  -6   6 -30   29.83    7.00
   0  -6 -30   22.41    5.25
   0   6  27   -0.28    1.84
   6   0 -27   -0.06    1.94
   0   6  27   -1.77    1.72
  -6   0  27   -0.15    1.56
  -6   6 -27    0.25    1.86
   6  -6  27    2.94    3.08
  -6   6 -27    2.44    2.89
   0  -6 -27    2.50    2.28
   6   0 -24   -1.11    2.82
   0   6  24    1.70    1.42
   0   6  24    1.83    1.20
  -6   0  24    0.93    1.92
   6  -6  24    1.01    2.33
  -6   6 -24    4.55    3.43
   0  -6 -24    1.82    3.03
   6   0 -21   -0.64    1.28
  -6   0  21    0.18    1.25
   6  -6  21   -2.03    2.90
  -6   6 -21   -4.51    3.03
   0  -6 -21   -2.64    1.82
   0   6  21   -0.72    1.70
  -6   0  18   65.36    7.24
   6  -6  18   90.46   10.97
  -6   6 -18   85.49   10.39
   0  -6 -18   90.29    9.20
   0   6  18   90.43    9.21
   6   0 -18   81.84    9.16
   6   0 -15    1.45    2.05
  -6   0  15   -1.57    1.41
   0  -6 -15   -3.66    2.82
   6  -6  15   -4.95    3.30
   0   6  15   -4.42    2.36
  -6   6 -15   -4.43    2.64
  -6   0  12  138.02    9.17
   0  -6 -12  166.43   12.58
   6  -6  12  168.52   14.49
  -6   6 -12  171.43   14.56
   0   6  12  164.86   11.96
   6   0 -12  155.98   11.27
   6   0  -9   -2.17    1.51
  -6   0   9   -1.75    1.61
   0  -6  -9   -6.17    2.83
   6  -6   9   -3.37    2.93
  -6   6  -9   -3.91    2.39
   0   6   9   -4.89    2.91
   6  -6   6   71.27    8.89
   0  -6  -6   77.10    8.69
   0   6   6   77.97    7.96
  -6   6  -6   66.92    8.38
   6   0  -6   57.04    5.82
   6  -6   3   -0.96    2.75
   0  -6  -3   -3.83    2.46
   0   6   3   -2.21    2.09
  -6   6  -3   -7.90    4.26
   6   0  -3   -5.61    2.78
   0  -6   0  612.58   24.85
   6   0   0  526.95   15.42
  -6   6   0  612.16   27.19
   6  -6   0  585.17   26.27
   0   6   0  569.54   21.86
   0   6  -3   -4.91    2.89
   0  -6   3   -9.18    3.98
  -6   6   3   -7.62    2.97
   6   0   3   -2.88    1.55
   6  -6  -3   -9.54    4.35
  -6   0  -6  157.20    8.18
   6   0   6  137.82    6.25
   6  -6  -6  158.81   14.03
   0  -6   6  164.98   13.51
   0   6  -6  155.84   12.22
  -6   6   6  162.48   14.43
  -6   0  -9    0.05    1.44
   6   0   9   -0.03    1.09
   6  -6  -9    0.30    2.45
  -6   6   9    1.85    3.49
  -6   0 -12  881.29   24.27
   0   6 -12  959.13   33.41
   6  -6 -12  906.83   34.24
  -6   6  12  956.66   36.28
  -6   0 -15    0.94    2.76
   0   6 -15    1.87    2.70
   0   6 -15   -3.57    2.85
   6  -6 -15   -2.78    1.50
  -6   6  15   -0.80    1.92
  -6   0 -18  193.74   12.81
   0   6 -18  192.62   13.54
   0   6 -18  213.58   16.48
   6  -6 -18  212.03   17.49
  -6   6  18  218.06   17.65
  -6   6  21   -2.88    2.51
   0   6 -21   -1.47    1.82
  -6   0 -21    0.59    2.37
   0   6 -21    2.03    2.08
  -6   0 -21   -1.73    1.10
   6  -6 -21   -0.29    1.74
  -6   0 -24  621.08   25.87
   0   6 -24  560.43   26.35
   0   6 -24  571.54   28.43
  -6   0 -24  468.97   12.99
   6  -6 -24  631.71   31.44
  -6   6  24  621.97   31.54
  -6   6  27   -3.28    3.37
  -6   0 -27   -0.12    1.92
   0   6 -27   -6.86    3.59
  -6   0 -27    0.77    0.82
   0   6 -27   -1.16    2.08
   6  -6 -27   -0.04    1.98
  -6   6  30   -0.85    2.05
  -6   0 -30   -0.93    2.48
   0   6 -30    0.81    1.39
   0   6 -30    3.21    3.31
  -6   0 -30    2.00    1.32
   6  -6 -30    3.24    4.11
  -6   6  33   -0.87    2.22
  -6   0 -33    1.01    2.70
   0   6 -33   -1.17    1.52
   0   6 -33   -0.45    2.54
  -6   0 -33    1.78    1.47
   6  -6 -33   -0.37    2.27
  -6   6  36  116.26   14.97
  -6   0 -36  113.03   13.22
   0   6 -36   92.36   12.61
   6   0  36  112.59   12.10
   0   6 -36   92.66   12.90
  -6   0 -36   92.19    7.88
  -6   6  36  115.84   14.96
  -6   6  39   -5.87    5.14
  -6   6  39   -3.86    3.68
   0   6 -39    0.13    2.16
  -6   0 -39    0.09    1.24
  -6   0 -39   -0.48    2.63
   6   0  39    1.26    1.49
   0   6 -39   -1.53    2.49
  -6   6  42   24.73    7.63
  -6   6  42   14.71    5.31
   0   6 -42   11.78    4.59
  -6   0 -42   17.50    4.14
  -6   0 -42   18.33    5.45
   6   0  42   15.36    4.55
   0   6 -42   10.27    5.07
  -6   6  45   -3.07    3.08
  -6   6  45   -3.37    3.24
  -6   0 -45   -0.60    2.20
   0   6 -45   -7.53    5.24
   6   0  45   -1.10    2.34
  -6   0 -45   -0.14    1.93
  -6   6  48   50.71   11.41
  -6   0 -48   48.22    7.29
   0   6 -48   45.56   10.58
  -6   0 -48   48.76    9.45
   6   0  48   52.75   10.17
  -6   0 -51   -2.92    2.07
   0   6 -51   -0.39    3.63
   6   0  51    1.37    4.46
  -6   6  54  131.88   18.67
  -6   0 -54  110.87   12.22
   0   6 -54  107.61   16.62
   6   0  54  127.37   15.98
  -6   6  57    0.35    4.11
  -6   0 -57    0.22    2.34
   0   6 -57    3.04    3.19
   6   0  57   -1.99    3.89
  -6   6  60   79.14   15.66
   6   0  60   71.26   12.48
  -6   0 -60   58.45    9.36
   0   6 -60   52.85   11.62
  -6   6  63  -12.12    8.28
   6   0  63   -4.57    4.51
  -6   0 -63   -1.68    2.07
   0   6 -63   -0.99    3.17
  -6   6  66    8.01    6.22
   6   0  66    6.36    4.10
  -6   0 -66    3.04    3.89
   0   6 -66    0.95    3.21
  -6   6  69   -6.42   14.30
   6   0  69    6.58    4.74
   0   6 -69   -2.22    3.44
  -6   0 -69   -0.43    3.89
  -6   6  72   16.20    8.09
   6   0  72   33.35    9.49
   0   6 -72   23.27   10.16
  -6   0 -72   23.51    7.18
   6   0  75   -0.47    3.11
   0   6 -75    0.12    3.79
   6   0  78   -1.52    4.49
  -7   4 -83    1.74    5.38
  -4  -3  80   38.66   12.91
   3   4  80   37.03   11.65
  -7   4 -80    9.16   10.28
  -4  -3  77    4.32    5.81
   3   4  77   -2.78    4.75
  -7   3  77    9.91    6.89
  -7   4 -77    0.25    3.01
  -3   7  74   18.34    8.50
  -4  -3  74   20.11    9.34
  -7   3  74   15.34    6.78
   3   4  74   14.94    8.32
  -4   7 -74   17.13    8.67
  -7   4 -74    6.37    7.71
  -3   7  71    1.59    4.82
  -4  -3  71    2.73    5.19
   3   4  71    9.94    5.74
  -7   3  71    7.57    4.31
  -4   7 -71    8.52    6.42
  -7   4 -71   -1.10    3.23
  -4  -3  68   19.88    8.39
  -3   7  68   18.43    8.80
   3   4  68   23.44    9.06
  -7   3  68    9.65    5.88
  -4   7 -68   17.31    7.54
  -7   4 -68    3.27    5.62
  -4  -3  65    3.24    3.97
   3   4  65    0.01    2.52
  -7   3  65    7.97    6.01
  -3   7  65    2.97    4.74
  -7   4 -65   -0.86    3.43
  -4   7 -65    3.15    5.18
  -3   7  62   11.45    6.78
  -4  -3  62   15.37    6.41
   3   4  62   12.48    7.52
  -7   3  62    9.59    6.35
  -4   7 -62   20.46    7.67
  -7   4 -62    3.41    4.82
  -3   7  59   -1.84    3.51
   3   4  59   -8.06    5.23
  -7   3  59   -3.15    4.46
  -4  -3  59   -4.55    4.35
  -4   7 -59   -2.72    2.60
  -7   4 -59    0.30    3.18
  -3  -4 -59   -0.60    2.59
  -3   7  56   10.64    5.12
   3   4  56    6.32    3.81
  -4  -3  56    4.79    3.58
  -7   3  56   13.12    6.76
  -4   7 -56    5.82    3.42
  -7   4 -56    2.23    2.42
  -3  -4 -56    8.61    4.27
  -3   7  53   -0.22    2.80
   3   4  53    1.05    2.40
  -4  -3  53   -9.78    5.71
  -7   3  53    0.98    2.93
  -7   4 -53   -0.72    2.25
  -4   7 -53   -5.90    4.90
  -3  -4 -53    0.20    2.33
  -3   7  50   36.14    9.47
   4   3 -50   19.90    6.39
  -7   3  50   30.29    8.93
  -4  -3  50   19.83    6.11
   3   4  50   32.05    8.47
  -7   4 -50   23.98    6.47
  -4   7 -50   22.28    7.15
  -3  -4 -50   26.66    6.20
   4   3 -47    0.12    3.19
  -7   3  47   -0.80    3.21
  -3   7  47   -8.76    6.28
  -3   7  47    0.30    1.60
  -4  -3  47    3.31    2.98
   3   4  47    2.30    2.42
  -7   4 -47    5.62    3.69
  -4   7 -47   -8.94    6.53
  -3  -4 -47    3.92    1.68
   4   3 -44   69.94   11.20
  -7   3  44   85.63   13.82
   3   4  44   98.27   12.78
  -3   7  44   90.20   13.69
  -4  -3  44   82.55   12.24
  -7   4 -44   92.65   11.94
  -4   7 -44   81.09   12.88
  -3   7  44   90.40   12.55
  -3  -4 -44   93.98   10.41
  -7   3  41   11.47    4.69
  -3   7  41   15.45    5.45
   4   3 -41   17.38    5.43
  -3   7  41   13.41    4.98
  -4  -3  41   13.07    4.89
   3   4  41   15.69    5.68
  -7   4 -41   17.78    5.22
  -4   7 -41   10.23    4.87
   3  -7 -41   20.78    6.86
  -3  -4 -41   16.07    4.24
  -3   7  38   12.57    4.69
   4   3 -38    3.12    2.32
  -3   7  38   12.52    5.15
  -7   3  38    6.31    2.79
  -4  -3  38    8.53    3.52
  -7   4 -38    5.27    4.05
   3   4  38   12.53    4.56
  -4   7 -38    9.25    4.00
  -7   4 -38    6.65    3.57
  -3  -4 -38    6.63    2.53
   3  -7 -38   11.65    5.85
  -7   3  35   -0.44    2.62
   4   3 -35    1.61    1.73
  -3   7  35   -1.00    1.81
  -3   7  35   -3.53    2.98
   7  -3 -35   -0.86    3.15
  -4  -3  35    0.62    2.00
  -4   7 -35    9.29    4.92
   3   4  35    0.92    2.04
  -7   4 -35   -2.00    2.29
  -4   7 -35    1.82    1.77
  -7   4 -35   -3.00    2.31
   3  -7 -35   -2.73    4.45
  -3  -4 -35    1.83    1.77
  -7   3  32  233.23   19.45
   3   4  32  254.71   18.09
   4   3 -32  229.01   17.24
  -4  -3  32  240.03   16.69
  -7   4 -32  243.22   19.89
  -4   7 -32  210.96   18.03
  -4   7 -32  241.43   20.70
   3  -7 -32  262.52   20.83
  -7   4 -32  238.35   17.08
  -3  -4 -32  219.95   12.36
  -3   7  32  249.94   19.48
   7  -3 -32  250.34   20.45
  -3   7  29    8.81    3.21
   4   3 -29    8.14    3.08
  -7   3  29    4.20    2.47
  -4  -3  29    7.13    2.25
   3   4  29   14.92    3.88
  -7   4 -29    8.70    3.23
  -4   7 -29   10.49    4.72
  -4   7 -29    9.50    4.29
  -7   4 -29    5.72    2.39
  -3  -4 -29    7.07    2.08
   3  -7 -29   11.63    3.97
   7  -3 -29   11.54    4.50
   3   4  26  224.70   15.34
  -7   3  26  207.66   17.17
   4   3 -26  191.97   13.64
  -4   7 -26  184.97   16.64
  -4  -3  26  215.74   13.68
  -7   4 -26  216.64   16.60
  -3  -4 -26  166.98    8.92
  -4   7 -26  213.58   18.42
   3  -7 -26  224.36   18.21
  -7   4 -26  206.49   15.28
   7  -3 -26  206.44   17.18
  -3   7  26  220.59   17.30
  -7   3  23   29.43    5.70
   4   3 -23   32.31    5.17
   3   4  23   40.89    6.04
  -7   4 -23   42.88    7.19
  -4  -3  23   35.04    4.80
   4  -7  23   34.16    7.49
   7  -4  23   33.15    5.86
  -3  -4 -23   26.30    3.30
  -4   7 -23   37.72    7.91
   3  -7 -23   35.94    6.99
  -3   7  23   35.02    6.74
  -7   4 -23   34.55    5.79
   7  -3 -23   38.21    7.07
   3   4  20  135.83   10.26
   4   3 -20   92.47    7.47
  -4  -3  20  124.49    8.76
  -7   4 -20  104.76   11.49
   4  -7  20  150.48   15.28
  -7   4 -20  140.11   12.07
  -3  -4 -20  127.92    7.24
   7  -4  20  135.80   11.91
  -4   7 -20  138.72   14.12
   3  -7 -20  153.34   14.38
   7  -3 -20  152.20   14.17
  -3   7  20  145.28   13.87
  -7   3  20  145.22   14.32
   3   4  17   -0.84    1.45
   4   3 -17    1.24    1.26
  -7   3  17    2.88    2.08
   3   4  17    2.32    1.76
   4  -7  17    2.08    2.33
  -3  -4 -17   -0.87    1.35
  -4   7 -17    0.10    2.22
   7  -4  17   -0.66    2.20
  -3   7  17    3.19    2.66
   3  -7 -17   -3.08    2.42
   7  -3 -17    4.04    2.99
  -7   4 -17   -1.13    2.15
   3   4  14   33.53    4.48
  -3  -4 -14   25.40    2.67
  -4   7 -14   33.95    6.62
   4  -7  14   40.68    7.64
  -7   4 -14   39.73    6.25
   7  -4  14   32.04    5.30
  -7   3  14   45.34    7.94
  -3   7  14   36.33    6.63
   3   4  14   28.79    3.05
   7  -3 -14   38.68    6.64
   3  -7 -14   38.67    7.20
   3   4  11   80.50    6.12
   4  -7  11   93.91   11.63
   7  -4  11   76.07    8.44
  -7   4 -11   75.71    8.54
  -4   7 -11   80.44   10.01
   3  -7 -11   81.19    9.80
  -3   7  11   76.90    9.55
  -7   3  11   88.52    9.98
   7  -3 -11   82.87    9.22
   3   4  11   63.61    4.79
   3   4   8    7.93    1.74
  -7   3   8   13.87    3.81
   4  -7   8   12.74    3.73
   3  -7  -8   15.45    4.40
   7  -4   8    9.46    3.00
  -4   7  -8   10.73    3.47
   7  -3  -8   16.42    4.07
   3   4   8    7.79    1.63
  -7   4  -8    9.35    2.59
  -3   7   8   12.66    3.57
  -7   3   5   16.25    4.20
   3   4   5    1.70    0.76
   4  -7   5   13.70    4.26
   3  -7  -5   14.36    3.90
   4   3  -5    9.58    2.54
   7  -4   5    9.51    3.01
  -7   4  -5   11.86    3.07
  -3   7   5   12.58    3.57
   7  -3  -5    9.53    3.14
  -4   7  -5    8.16    2.91
   3   4   5    7.09    1.54
   3  -7  -2   45.28    7.44
   4   3  -2   28.37    3.47
   4  -7   2   46.49    7.72
   3   4   2   31.78    3.62
  -3   7   2   39.86    6.74
  -4   7  -2   43.57    7.25
   7  -3  -2   41.60    5.84
  -7   3   2   41.69    6.28
   7  -4   2   35.59    5.45
  -7   4  -2   40.39    6.48
   3   4  -1   26.53    1.87
   4   3   1   33.75    3.15
   7  -4  -1   47.75    6.62
   7  -3   1   42.56    5.56
   3  -7   1   48.25    7.45
   4  -7  -1   48.41    7.61
   3   4  -1   48.97    5.04
  -4   7   1   40.74    6.56
  -7   4   1   56.96    7.81
  -3   7  -1   44.97    6.97
  -7   3  -1   45.99    6.34
   3   4  -4   38.99    2.68
   3   4  -4   65.69    6.35
   3  -7   4   59.41    8.64
   4   3   4   44.09    3.13
  -3   7  -4   61.56    8.40
  -4   7   4   63.74    8.69
   4  -7  -4   64.43    8.79
   7  -4  -4   68.88    8.22
   7  -3   4   59.04    6.58
  -7   4   4   73.45    9.13
  -7   3  -4   81.14    8.68
   3   4  -7   -0.60    1.03
   3  -7   7   -1.91    1.94
   3   4  -7    2.90    1.97
   4  -7  -7   -0.89    2.11
   7  -3   7    1.46    0.98
  -7   4   7   -2.80    2.87
  -4   7   7   -2.59    3.17
  -7   3  -7   -1.24    1.87
  -3   7  -7   -1.31    2.06
   7  -4  -7   -0.11    1.30
  -7   4  10    9.17    3.30
   3   4 -10    6.19    1.57
  -3   7 -10    1.94    1.54
   3   4 -10    7.45    2.99
   3  -7  10    6.17    3.20
   7  -3  10    7.62    2.28
  -4   7  10    4.84    1.49
  -7   3 -10    6.28    2.11
   4  -7 -10    6.89    2.78
   7  -4 -10    4.45    1.70
  -7   4  13   -1.88    3.05
   3   4 -13    0.04    1.02
   4   3  13    1.26    1.18
   7  -3  13   -0.72    1.48
   3  -7  13   -1.78    2.95
   3   4 -13    2.11    1.64
  -3   7 -13    1.84    1.74
  -4   7  13    1.02    1.69
   4  -7 -13   -1.97    2.02
  -7   3 -13   -4.24    2.74
   7  -4 -13    2.22    1.48
   3   4 -16  157.19   10.02
   4   3  16  235.72   11.54
   3  -7  16  221.40   18.30
   4  -7 -16  217.55   17.40
   7  -3  16  205.70   12.91
  -3   7 -16  206.09   16.70
  -7   3 -16  193.04   13.22
  -4   7  16  226.33   17.50
  -7   4  16  222.81   17.45
   7  -4 -16  208.08   16.11
  -7   4  19   44.22    8.02
   4   3  19   46.32    5.89
   3   4 -19   24.75    4.07
  -7   3 -19   37.02    5.90
   3  -7  19   40.88    8.21
   7  -3  19   30.63    4.67
  -3   7 -19   44.64    7.97
   4  -7 -19   41.58    7.65
  -7   3 -19   29.19    4.67
   7  -4 -19   35.76    6.78
  -4   7  19   38.47    6.99
   3   4 -22  166.54   12.37
  -7   3 -22  204.33   14.91
   4   3  22  222.70   13.85
   7  -3  22  181.14   12.80
  -3   7 -22  193.60   17.01
  -7   3 -22  177.08   12.53
   4  -7 -22  199.29   17.31
   7  -4 -22  195.03   16.85
  -7   4  22  208.68   17.74
  -4   7  22  190.89   16.37
  -4   7  25   42.29    7.44
   3   4 -25   41.09    6.27
   4   3  25   59.67    7.52
  -3   7 -25   52.57    8.44
  -7   3 -25   55.89    8.24
  -4  -3 -25   26.13    2.10
  -7   3 -25   49.40    6.68
  -3   7 -25   54.61    9.26
   7  -4 -25   53.80    9.31
   4  -7 -25   48.05    8.40
  -7   4  25   59.73    9.99
   3   4 -28   64.66    8.78
  -3   7 -28   77.25   10.35
  -7   3 -28   81.86   10.87
   4   3  28   88.75    9.36
   4  -7 -28   87.98   11.86
  -3   7 -28   75.74   10.88
  -7   3 -28   77.40    8.70
  -4  -3 -28   62.75    4.37
  -7   4  28   86.10   12.19
   7  -4 -28   84.88   11.68
  -4   7  28   87.73   11.62
  -4  -3 -31    8.51    2.94
  -4   7  31   10.38    3.75
  -7   4  31    0.89    2.90
  -7   4  31    8.83    3.81
  -3  -4  31    8.48    2.65
   4   3  31   11.75    3.21
   3   4 -31    0.56    2.68
  -3   7 -31    5.65    2.88
  -7   3 -31   15.65    4.40
  -3   7 -31    8.16    3.60
  -7   3 -31    6.45    2.51
   7  -4 -31    7.41    3.18
   4  -7 -31    8.21    3.71
  -4  -3 -31    7.18    2.21
   3   4 -34  346.71   21.88
  -4  -3 -34  407.32   23.03
  -7   4  34  390.84   26.22
   4   3  34  395.13   22.02
  -3  -4  34  406.52   22.33
  -7   3 -34  368.32   26.04
  -3   7 -34  348.48   24.15
  -3   7 -34  387.40   26.45
  -7   3 -34  382.48   20.52
   4  -7 -34  416.44   27.37
  -4  -3 -34  318.79   13.61
   7  -4 -34  391.02   26.44
  -4   7  34  404.39   26.11
  -4   7  37    4.43    2.95
  -4  -3 -37   -4.15    3.30
  -4   7  37   -5.74    4.70
  -7   4  37   -0.03    2.10
   3   4 -37    1.70    1.97
  -3   7 -37    0.80    3.17
   4   3  37    0.35    2.50
  -7   3 -37   -1.84    1.81
  -3  -4  37   -2.73    2.15
  -7   3 -37    1.36    1.92
  -3   7 -37    1.08    2.46
   4  -7 -37    1.44    2.19
  -4  -3 -37    1.50    1.31
  -4   7  40    3.86    3.38
  -4  -3 -40    1.20    2.13
  -4   7  40   -1.62    2.27
  -7   4  40   -4.90    4.48
   3   4 -40    1.50    2.90
  -7   3 -40    0.94    2.70
  -3  -4  40   -0.06    1.97
   4   3  40   -0.98    2.48
  -7   3 -40    1.74    2.46
  -3   7 -40   -0.76    2.99
  -4  -3 -40    0.81    2.02
  -4  -3 -43    1.51    3.45
   3   4 -43   -3.73    2.67
  -7   4  43    4.24    4.90
  -4   7  43    4.50    3.20
  -4   7  43    1.54    2.27
   4   3  43   -0.60    2.80
  -3  -4  43    1.56    2.02
  -7   3 -43   -1.18    1.91
  -3   7 -43   -8.84    5.39
  -4  -3 -43    0.54    1.61
  -4  -3 -46  186.50   18.28
  -4   7  46  174.40   19.45
  -7   4  46  169.81   19.71
   3   4 -46  131.21   15.36
   4   3  46  205.38   20.26
  -3  -4  46  185.99   17.24
  -3   7 -46  157.88   18.44
  -7   3 -46  168.53   15.56
  -4   7  46  145.07   14.77
  -4  -3 -46  156.08   12.71
  -4   7  49   14.42    5.79
  -4  -3 -49   28.39    7.77
   3   4 -49   16.99    6.26
  -7   4  49   20.82    7.31
   4   3  49   25.70    7.92
  -3  -4  49   22.68    6.33
  -7   3 -49   16.15    5.07
  -3   7 -49   29.72    8.67
  -4  -3 -49   18.46    4.41
  -7   4  52    0.56    3.13
  -4   7  52    3.00    3.28
   4   3  52   -1.98    4.97
  -3  -4  52   -3.10    3.59
  -7   3 -52   -0.22    2.52
  -3   7 -52    2.74    2.87
  -4  -3 -52    0.75    1.96
  -4   7  55    1.11    2.57
  -7   4  55    8.61    5.20
   4   3  55    3.03    4.11
  -3  -4  55   -2.08    3.21
  -3   7 -55    6.23    5.27
  -7   3 -55    1.50    3.56
  -4  -3 -55    2.96    2.27
  -4   7  58   36.87    9.88
  -4  -3 -58   42.96    8.69
  -7   4  58   42.88   11.17
   4   3  58   48.33   11.18
  -3  -4  58   40.85    8.94
  -7   3 -58   28.88    9.47
  -3   7 -58   28.81    9.11
  -4   7  61    1.67    4.42
  -7   4  61    1.44    2.92
   4   3  61   -5.49    5.70
  -3  -4  61  -10.60    5.81
  -7   3 -61   -1.97    2.97
  -3   7 -61    3.27    3.33
  -3  -4  64   21.22    7.51
  -4   7  64   25.53   10.04
  -7   4  64   24.03    8.99
   4   3  64   25.46    8.95
  -3   7 -64   27.74   10.02
  -7   3 -64   25.78    7.40
  -3  -4  67   -1.51    2.55
  -4   7  67    4.59    4.48
  -7   4  67   -1.68    3.32
   4   3  67   -1.44    4.41
  -7   3 -67    2.05    3.87
  -3   7 -67   -8.23    5.67
  -3  -4  70   11.51    5.82
  -4   7  70    6.86    3.90
  -7   4  70   11.32    5.92
   4   3  70    5.13    4.46
  -3   7 -70    6.39    2.89
  -7   3 -70   14.49    5.74
  -7   4  73    3.65    3.96
  -3  -4  73   -0.09    4.64
  -4   7  73    0.59    5.01
   4   3  73    2.70    4.60
  -3   7 -73    8.95    6.49
  -7   3 -73   12.98    6.22
   4   3  76   33.75   10.43
  -3  -4  76   25.33   10.06
  -7   4  76   29.84   11.08
  -7   3 -76   25.73    8.45
  -3   7 -76   26.13   10.34
   4   3  79   -0.03    4.07
  -3  -4  79    1.89    3.27
  -7   3 -79   10.77    5.10
  -7   3 -82   15.58    7.89
  -7   5 -84    3.79    6.95
  -5  -2  81    6.09    6.11
  -7   5 -81   -0.76    3.36
  -5  -2  78   31.19   10.44
   2   5  78   23.07    9.10
  -7   2  78   13.16    9.06
  -7   5 -78    3.93    6.01
  -5  -2  75    3.33    4.69
   2   5  75    4.96    6.64
  -2   7  75    4.14    6.78
  -7   2  75    2.40    5.08
  -5   7 -75    0.82    5.20
  -7   5 -75   -0.40    3.28
   2   5  72    1.70    5.14
  -2   7  72    6.35    5.27
  -7   2  72   14.79    8.15
  -5  -2  72    9.45    6.30
  -5   7 -72    4.20    3.93
  -7   5 -72    3.76    8.16
   2   5  69    7.91    6.21
  -2   7  69    3.28    5.18
  -7   2  69   -2.20    2.82
  -5  -2  69    7.55    4.88
  -5   7 -69    8.65    6.17
  -7   5 -69   -0.66    3.39
  -2   7  66   15.96    8.20
  -7   2  66    8.13    5.28
  -5  -2  66    9.05    5.30
   2   5  66    1.94    3.23
  -5   7 -66    0.61    4.38
  -7   5 -66    0.82    2.78
  -2   7  63    4.73    5.65
  -7   2  63    7.21    4.85
  -5  -2  63    6.86    4.74
   2   5  63    4.42    4.13
  -5   7 -63   -0.25    3.46
  -7   5 -63   -0.90    4.08
  -2   7  60   44.41   11.06
  -7   2  60   28.58    9.69
  -5  -2  60   35.33   10.33
   2   5  60   45.96   10.37
  -7   5 -60    6.28    7.04
  -5   7 -60   35.85    9.79
  -2   7  57   44.36   11.01
  -7   2  57   29.96    9.20
  -5  -2  57   35.95    9.83
   2   5  57   48.40   11.31
  -7   5 -57    8.54    6.37
  -5   7 -57   37.25   10.46
  -2  -5 -57   40.65    9.04
  -2   7  54  111.63   16.83
   2   5  54  121.30   16.77
  -7   2  54   80.46   14.64
  -5  -2  54  117.73   16.38
  -5   7 -54  103.14   15.92
  -7   5 -54   66.95   13.33
  -2  -5 -54  111.75   13.83
  -2   7  51   71.26   12.94
   2   5  51   74.01   12.70
  -7   2  51   55.98   11.94
  -5  -2  51   78.13   13.19
  -5   7 -51   73.63   13.54
  -7   5 -51   62.58   10.95
  -2  -5 -51   68.48   10.04
   5   2 -48   22.36    6.64
  -2   7  48   31.42    8.22
  -7   2  48   35.00    8.78
  -5  -2  48   32.49    8.02
   2   5  48   22.12    6.02
  -7   5 -48   26.35    7.25
  -5   7 -48   34.56    9.43
  -2  -5 -48   29.36    6.42
   5   2 -45    1.38    2.55
  -2   7  45    1.32    1.69
  -2   7  45   -2.74    3.42
  -7   2  45   -9.03    5.59
  -5  -2  45    2.38    1.81
   2   5  45   -1.94    3.20
  -7   5 -45    3.55    2.94
  -5   7 -45   -2.23    3.40
  -2  -5 -45    2.53    1.94
   5   2 -42   17.10    5.66
  -2   7  42   31.54    8.78
  -2   7  42   26.97    6.62
  -7   2  42   20.38    6.69
  -5  -2  42   16.64    5.28
   2   5  42   27.20    6.95
  -7   5 -42   23.23    6.25
  -5   7 -42   22.54    6.99
  -2  -5 -42   17.03    4.64
   2  -7 -42   29.04    7.96
   5   2 -39   -1.95    1.90
  -2   7  39   -0.27    2.32
  -2   7  39    2.47    2.94
  -7   2  39    2.35    3.01
   2   5  39    1.75    2.40
  -5  -2  39    1.38    1.96
  -5   7 -39   -0.96    3.08
  -7   5 -39    0.23    1.81
   2  -7 -39    2.35    3.02
  -2  -5 -39    1.99    1.86
   7  -2 -36   54.84    9.89
  -7   2  36   55.84   10.07
   5   2 -36   46.03    7.84
   2   5  36   64.87    9.92
  -2   7  36   61.98   10.74
  -5  -2  36   56.56    9.04
  -7   5 -36   60.39   10.71
   2  -7 -36   62.26   10.27
  -5   7 -36   60.70   10.66
  -7   5 -36   65.47    9.96
  -2  -5 -36   58.06    7.62
  -2   7  36   66.92   10.24
  -2   7  33    7.47    2.99
   7  -2 -33   11.55    5.20
  -2   7  33    7.21    4.04
  -7   2  33   10.00    4.00
   2   5  33   14.56    4.52
  -5  -2  33    9.89    3.81
  -7   5 -33   12.06    5.05
  -7   5 -33    8.75    3.55
  -5   7 -33   13.33    5.87
  -2  -5 -33    8.92    2.81
   2  -7 -33    8.73    4.13
   2   5  30  320.19   19.78
  -2   7  30  305.43   22.00
  -7   2  30  339.83   23.83
  -5  -2  30  308.01   18.24
  -5   7 -30  288.87   21.67
  -7   5 -30  296.01   21.35
  -5   7 -30  293.44   22.23
   2  -7 -30  310.10   21.62
  -2  -5 -30  296.49   15.83
  -7   5 -30  289.74   20.06
   7  -2 -30  292.48   21.23
  -2   7  30  317.22   21.04
  -2   7  27    7.49    3.35
   7  -2 -27    5.52    2.71
   2   5  27    6.63    2.28
  -7   2  27    5.52    2.81
   2   5  27    8.53    3.69
  -5  -2  27    7.47    3.02
  -7   5 -27    5.71    2.73
  -5   7 -27    4.29    2.61
  -5   7 -27    5.20    2.97
   7  -5  27    7.29    3.69
   5  -7  27   10.61    4.63
  -7   5 -27    0.98    2.10
  -2  -5 -27    6.89    2.73
   2  -7 -27    2.62    1.99
   2   5  24   37.68    6.28
  -7   2  24   38.18    6.88
   7  -2 -24   32.81    6.81
  -5  -2  24   34.94    5.71
  -7   5 -24   35.77    6.52
   2  -7 -24   44.39    7.94
   7  -5  24   39.42    7.26
   5  -7  24   42.22    8.43
  -7   5 -24   28.58    5.70
  -5   7 -24   37.11    7.51
   2   5  24   39.56    5.09
  -2   7  24   31.25    6.27
  -2  -5 -24   27.79    4.40
  -7   2  21   32.71    6.33
   2   5  21   38.62    5.76
  -5  -2  21   39.25    5.50
   7  -5  21   43.50    7.32
   5  -7  21   51.31    9.07
   2  -7 -21   46.70    7.89
  -2  -5 -21   37.10    4.79
  -5   7 -21   42.32    7.83
  -7   5 -21   44.43    7.12
   7  -2 -21   38.08    6.89
   2   5  21   35.73    4.54
  -2   7  21   41.91    6.79
   2   5  18   35.23    5.43
  -5  -2  18   25.85    3.95
  -5   7 -18   30.47    6.68
   5  -7  18   37.09    7.50
   7  -5  18   28.78    5.78
  -2  -5 -18   28.56    4.17
   2  -7 -18   35.21    6.61
  -7   5 -18   30.28    5.91
  -2   7  18   37.12    6.82
   2   5  18   33.20    4.40
   7  -2 -18   27.99    5.80
  -7   2  15   23.92    4.85
   2   5  15   33.91    5.05
  -5  -2  15   12.57    1.77
  -2  -5 -15   29.55    4.11
  -5   7 -15   32.17    6.38
   7  -5  15   29.38    5.65
   5  -7  15   34.22    6.77
   7  -2 -15   37.58    6.68
  -7   5 -15   30.98    5.91
   2   5  15   25.72    3.75
   2  -7 -15   35.01    6.59
  -2   7  15   34.80    6.47
   2   5  12   15.88    3.06
  -7   2  12   17.92    4.63
  -5  -2  12   24.33    2.77
   5  -7  12   24.66    5.72
   7  -5  12   15.48    4.36
   2  -7 -12   18.84    4.57
  -2  -5 -12   19.14    3.42
  -5   7 -12   19.55    5.11
   2   5  12   15.61    3.05
  -2   7  12   17.69    4.26
   7  -2 -12   20.42    4.90
  -7   5 -12   22.54    5.06
  -7   2   9    3.19    2.31
   7  -5   9   -6.39    3.40
   5  -7   9   -3.33    3.85
  -2  -5  -9    0.56    1.00
   2  -7  -9   -0.28    2.61
   7  -2  -9   -0.93    1.66
  -7   5  -9   -3.85    3.16
   2   5   9   -2.99    1.95
  -2   7   9   -5.19    3.46
  -5   7  -9   -5.42    3.72
   5  -7   6   97.89   11.49
   7  -5   6   83.64    9.43
  -2   7   6   88.63    9.94
  -7   5  -6   98.31   10.61
   2  -7  -6   98.82   11.00
  -5   7  -6   91.96   11.01
   2   5   6   82.08    6.89
   7  -2  -6   91.90    8.90
  -2  -5  -6   87.07    7.73
  -7   2   6  101.55   10.18
   5   2  -6   51.36    4.65
   5   2  -3    6.24    2.04
  -7   2   3    1.34    1.87
   5  -7   3   -1.41    3.28
   2  -7  -3    1.04    3.11
   7  -5   3    2.33    1.97
   7  -2  -3    3.91    1.58
  -7   5  -3   -0.88    2.29
  -5   7  -3    0.35    2.50
  -2   7   3    1.25    2.44
   2   5   3    3.09    0.88
   7  -5   0   62.97    7.70
   2  -7   0   71.86    9.36
  -5   7   0   67.72    8.87
  -2   7   0   61.63    7.92
   5  -7   0   77.85    9.79
   7  -2   0   73.95    7.13
   2   5   0   66.70    6.46
  -7   5   0   77.86    9.64
   5   2   0   49.29    4.09
  -7   2   0   77.18    8.07
  -7   2  -3   11.96    3.01
   2  -7   3   31.74    6.96
   5  -7  -3   28.41    6.12
   5   2   3    8.01    1.02
   2   5  -3   26.95    4.20
  -2   7  -3   26.70    5.71
   5   2   3    3.74    1.29
   7  -5  -3   18.01    4.27
  -5   7   3   26.60    6.05
  -7   5   3   21.60    5.38
   7  -2   3   12.59    2.62
   2   5  -6  582.40   17.20
   2   5  -6  621.55   22.89
   7  -5  -6  590.76   25.86
   7  -2   6  572.46   18.95
  -5   7   6  618.55   28.36
   2  -7   6  654.93   29.67
  -2   7  -6  579.71   25.71
   5  -7  -6  612.03   28.22
  -7   5   6  676.43   29.54
  -7   2  -6  617.34   21.77
   2   5  -9   10.71    1.84
   2   5  -9    4.89    1.80
  -2   7  -9   13.56    4.24
   2  -7   9   12.04    3.70
   7  -2   9   -2.74    2.30
  -7   2  -9    1.77    2.60
   5  -7  -9   15.29    5.27
  -5   7   9   17.76    4.90
   7  -5  -9   16.52    4.52
  -7   5   9   16.00    4.88
   2   5 -12    8.69    2.07
   7  -2  12    8.92    2.32
  -2   7 -12   10.20    3.09
   2   5 -12   16.69    4.08
   2  -7  12   10.79    3.46
   5  -7 -12   12.17    4.30
  -5   7  12   15.71    4.74
  -7   2 -12    8.44    2.26
  -7   5  12    5.48    1.96
   7  -5 -12   15.10    4.58
  -7   5  15    9.37    3.67
  -5  -2 -15    6.52    1.64
   2   5 -15    8.74    2.86
  -7   2 -15   10.96    3.30
   2  -7  15   11.29    3.91
  -2   7 -15   10.83    4.10
   2   5 -15   11.88    3.72
   7  -2  15    3.44    1.20
  -5   7  15   14.29    4.61
   5  -7 -15   10.74    3.96
   7  -5 -15   11.70    4.11
  -7   2 -15    7.78    2.41
  -5  -2 -18   84.55    7.08
   2   5 -18   76.10    8.62
  -7   2 -18  112.48   10.59
  -7   2 -18   94.02    8.21
  -2   7 -18  111.48   12.56
   2   5 -18  101.32   10.79
   7  -2  18  100.42    8.10
   7  -5 -18  116.39   12.85
   5  -7 -18  113.17   12.80
   2  -7  18  110.42   13.11
  -7   5  18  119.31   13.51
  -5   7  18  116.07   13.37
  -7   5  21    1.23    2.40
  -5  -2 -21    4.94    1.97
   5   2  21    4.73    1.44
  -7   2 -21    4.48    2.89
  -2   7 -21    4.17    3.32
   2   5 -21    3.14    1.90
   2   5 -21   -2.86    3.13
  -2   7 -21    3.06    2.30
  -7   2 -21    2.36    1.46
  -5   7  21    4.23    3.19
   5  -7 -21    5.13    3.52
   7  -5 -21    5.98    3.79
  -7   5  24    0.11    2.63
  -5   7  24    3.21    2.50
  -5  -2 -24    6.07    2.38
   2   5 -24    3.84    2.47
   5   2  24    3.36    1.87
  -2   7 -24    1.95    1.38
  -7   2 -24    3.62    1.76
  -2   7 -24    3.34    2.40
   2   5 -24    6.61    3.62
   7  -5 -24    3.51    2.39
  -7   2 -24    0.75    1.35
   5  -7 -24    6.12    3.18
   2   5 -27   84.94   10.29
  -5  -2 -27  116.26   11.55
  -7   2 -27  105.89   11.83
   5   2  27  116.49   10.19
  -2   7 -27  107.65   12.24
   5  -7 -27  103.32   13.30
  -2   7 -27   90.97   11.79
   2   5 -27   97.10   12.05
  -7   2 -27  100.22    8.65
  -5   7  27   98.89   12.62
   7  -5 -27  101.10   13.00
  -7   5  27  111.87   14.00
   2   5 -30  206.52   16.34
  -5  -2 -30  288.09   19.10
  -7   2 -30  257.77   19.26
   5   2  30  276.90   17.07
  -2   7 -30  245.61   19.32
  -5  -2 -30  179.17    6.81
  -2   7 -30  248.55   20.90
   5  -7 -30  266.22   21.56
  -7   2 -30  241.25   14.25
  -5  -2 -30  154.65    6.40
   7  -5 -30  264.21   21.57
  -5   7  30  258.19   21.16
  -7   5  30  268.65   22.00
  -7   5  33   -3.35    3.31
  -5  -2 -33   -6.25    4.44
  -5   7  33   -0.30    2.44
  -7   5  33    0.07    2.72
  -2   7 -33    1.36    3.07
  -7   2 -33    1.59    2.26
   5   2  33   -2.68    3.11
   2   5 -33   -6.53    4.18
  -5  -2 -33    1.97    1.26
  -7   2 -33   -2.94    2.26
  -2   7 -33   -1.35    1.84
  -5  -2 -33    1.74    1.07
   7  -5 -33    1.76    3.19
   5  -7 -33    2.45    2.26
  -7   5  36  100.62   13.80
  -5  -2 -36  123.84   13.93
   2   5 -36   85.63   11.38
  -7   2 -36  105.34   13.57
  -2   7 -36   96.47   13.30
   5   2  36  123.54   12.43
  -7   2 -36  110.45   10.42
  -2   7 -36   78.98   11.89
  -5   7  36  110.72   14.00
  -5  -2 -36   80.65    6.17
  -7   5  36   82.98   11.11
  -7   5  39    9.38    4.24
  -5   7  39    9.66    4.47
  -5  -2 -39   16.76    5.64
  -5   7  39   11.56    4.63
  -7   5  39    6.47    3.73
   5   2  39   16.14    4.81
   2   5 -39    6.74    3.72
  -2   7 -39    3.58    2.15
  -7   2 -39    9.32    5.02
  -7   2 -39   11.12    3.26
  -2   7 -39    9.34    4.23
  -5  -2 -39   12.03    3.01
  -5  -2 -42    2.49    1.50
  -5  -2 -42    3.76    3.12
  -5   7  42    1.95    1.96
  -5   7  42    2.98    2.65
  -7   5  42    1.08    2.15
  -7   2 -42    6.53    3.26
  -2   7 -42    3.97    3.84
   5   2  42    8.58    4.35
   2   5 -42   -2.40    4.06
  -7   2 -42    5.25    2.56
  -5  -2 -45   -0.90    5.08
  -5  -2 -45   15.25    3.26
  -7   5  45   13.80    5.30
  -5   7  45   19.21    6.65
  -5   7  45   14.90    5.48
  -7   2 -45   10.53    3.57
  -2   7 -45   16.11    6.89
   5   2  45    9.30    2.12
  -2  -5  45   -0.73    4.38
   2   5 -45    8.63    3.22
  -5  -2 -48   13.63    5.04
  -5   7  48    9.37    4.31
  -5  -2 -48    7.87    3.19
  -7   5  48    9.32    5.14
  -5   7  48    7.40    3.95
  -2   7 -48   -0.73    3.58
  -7   2 -48    7.48    2.88
   5   2  48    9.03    4.13
  -2  -5  48    7.36    3.57
  -5  -2 -51   43.08    6.73
  -5   7  51   63.70   13.23
  -7   5  51   45.53   10.92
  -2   7 -51   56.82   12.09
  -7   2 -51   49.44    9.05
   5   2  51   57.15   11.04
  -2  -5  51   52.97   10.21
  -5  -2 -54   43.58    7.22
  -7   5  54   49.90   11.77
  -5   7  54   59.27   13.26
  -7   2 -54   49.16    9.97
  -2   7 -54   54.24   11.95
   5   2  54   58.28   10.67
  -2  -5  54   54.36   10.58
  -5  -2 -57   -1.51    2.44
  -5   7  57    1.60    4.83
  -7   5  57    5.94    4.83
  -2   7 -57    4.97    4.70
  -7   2 -57    1.73    3.79
   5   2  57    0.07    3.05
  -2  -5  57   -6.12    4.68
  -7   5  60   90.12   16.61
  -5   7  60   90.08   16.40
  -7   2 -60  100.34   13.29
  -2   7 -60   93.93   16.41
  -2  -5  60  100.70   15.99
   5   2  60  103.36   15.82
  -7   2 -63    3.28    2.23
  -2   7 -63    3.37    5.10
  -7   5  63   -9.21    7.51
   5   2  63    0.83    3.46
  -5   7  63    5.26    4.24
  -2  -5  63   -4.56    5.63
  -2   7 -66   26.78    8.93
  -7   2 -66   34.80    8.75
  -5   7  66   35.62   11.14
  -7   5  66   34.43   11.55
   5   2  66   30.86    8.84
  -2  -5  66   31.76   10.41
  -2   7 -69    3.09    3.23
  -7   2 -69    8.80    4.73
  -7   5  69   14.36    7.62
   5   2  69   12.68    8.26
  -2  -5  69    4.91    3.81
  -5   7  69   -2.32    4.00
  -2   7 -72   15.15    7.35
  -7   2 -72    2.82    3.64
  -5   7  72   10.35    9.00
  -7   5  72    4.25    6.62
   5   2  72    3.35    3.15
  -2  -5  72    5.24    4.68
  -2   7 -75    4.97    5.24
  -7   2 -75    5.54    2.49
  -7   5  75    4.38    7.85
   5   2  75    9.17    7.68
  -2  -5  75    2.89    4.54
  -2  -5  78   19.65    9.08
   5   2  78   30.37    9.32
  -2  -5  81    3.70    5.94
   5   2  81    4.00    5.59
  -7   6 -79   -2.67    6.28
  -7   1  79    0.38    5.72
  -6  -1  79    4.07    4.06
  -7   6 -76    1.13    5.31
  -6   7 -76    1.52    3.73
  -7   1  76    1.49    3.53
  -1   7  76    3.07    5.25
  -6  -1  76   -0.76    4.84
   1   6  76    3.63    3.59
  -7   6 -73    2.47    6.34
  -6   7 -73    0.54    3.44
  -1   7  73    6.36    5.20
  -6  -1  73    1.71    4.81
   1   6  73   -3.30    3.94
  -7   1  73    4.43    5.91
  -7   6 -70   -1.54    5.56
  -6   7 -70    5.91    3.27
  -1   7  70    1.76    3.47
  -6  -1  70    2.20    5.14
   1   6  70    0.34    2.97
  -7   1  70    2.96    3.41
  -7   6 -67    2.42    2.76
  -6   7 -67   -2.68    2.69
  -1   7  67   -0.46    3.57
  -6  -1  67    0.09    4.02
   1   6  67   -2.57    4.17
  -7   1  67    4.43    5.82
  -7   6 -64    1.08    4.81
  -6   7 -64    3.81    4.63
  -1   7  64   21.69    8.67
  -6  -1  64    1.69    4.41
   1   6  64    6.64    3.27
  -7   1  64   18.85    9.09
  -6   7 -61   17.86    7.47
  -7   6 -61    3.78    5.72
  -1   7  61   17.28    8.28
  -6  -1  61   17.00    7.57
   1   6  61   16.13    6.72
  -7   1  61   19.84    8.60
  -1   7  58  114.57   17.47
   1   6  58  121.54   17.20
  -7   1  58  116.46   17.85
  -6  -1  58   80.60   13.97
  -7   6 -58   91.92   14.53
  -6   7 -58  102.71   16.85
  -6  -1  55    5.78    4.59
   1   6  55    3.34    3.72
  -7   1  55    1.25    3.43
  -1   7  55    4.99    3.15
  -7   6 -55    4.98    4.30
  -6   7 -55    6.72    3.49
  -1  -6 -55    4.61    3.98
  -1   7  52  104.94   15.50
  -7   1  52   84.06   14.11
   1   6  52  109.96   15.65
  -6  -1  52   68.21   11.73
  -6   7 -52   85.14   14.09
  -7   6 -52  100.80   14.57
  -1  -6 -52  106.90   13.85
  -1   7  49   23.79    7.17
  -6  -1  49   13.98    5.70
   1   6  49   16.46    5.93
  -7   1  49   13.47    5.18
  -6   7 -49   19.18    6.35
  -7   6 -49   11.64    4.71
  -1  -6 -49   20.84    5.61
  -1   7  46   66.76   12.17
   1   6  46   72.86   12.12
  -7   1  46   59.11   11.34
  -6  -1  46   48.22    9.51
  -7   6 -46   55.98   10.61
  -6   7 -46   70.15   12.20
  -1  -6 -46   70.20   10.44
   1  -7 -46   72.46   12.04
  -1   7  43   -0.06    2.20
  -1   7  43    1.59    2.50
   1   6  43    7.24    4.89
  -7   1  43    0.49    3.17
  -6  -1  43    2.86    3.22
  -6   7 -43    2.00    2.78
  -7   6 -43   -1.51    3.50
   1  -7 -43    1.25    3.91
  -1  -6 -43    6.31    3.37
   1   6  40   55.45    9.98
  -1   7  40   56.46   10.67
  -7   1  40   48.83    9.62
  -6  -1  40   40.11    8.14
  -6   7 -40   50.55    9.97
  -7   6 -40   52.93    9.85
   1  -7 -40   49.30    9.34
  -1   7  40   55.27    9.11
  -1  -6 -40   46.06    7.60
   7  -1 -37    6.15    4.28
  -1   7  37    2.92    2.59
  -1   7  37    5.88    3.07
   6   1 -37    3.76    2.38
   1   6  37    2.97    2.50
  -7   1  37    2.32    2.87
  -6  -1  37    2.38    2.29
  -6   7 -37    0.60    2.18
  -7   6 -37    7.60    3.73
   1  -7 -37    7.35    3.14
  -1  -6 -37    0.09    1.85
   7  -1 -34   26.54    6.68
  -1   7  34   36.83    7.34
   6   1 -34   19.03    5.71
   1   6  34   22.37    4.20
  -1   7  34   29.50    7.06
   1   6  34   25.29    6.18
  -7   1  34   19.64    5.82
  -6  -1  34   23.17    5.86
  -7   6 -34   23.04    6.41
  -6   7 -34   32.71    7.91
  -1  -6 -34   23.17    5.01
   1  -7 -34   30.05    6.81
   1   6  31    5.62    2.82
  -1   7  31    7.45    3.70
  -7   1  31    0.51    1.88
   7  -1 -31    6.23    3.67
   1   6  31    5.50    2.71
  -1   7  31    6.49    3.29
   6   1 -31    4.82    3.27
  -7   6 -31    8.72    3.78
  -6  -1  31    3.32    2.70
  -6   7 -31   10.17    4.66
  -7   6 -31    4.12    2.53
  -1  -6 -31    9.46    3.63
   1  -7 -31    1.28    1.88
  -1   7  28   36.91    6.68
   7  -1 -28   32.33    7.16
  -1   7  28   40.56    7.75
  -7   1  28   29.83    6.78
   6   1 -28   28.10    6.49
   1   6  28   38.95    7.21
  -7   6 -28   37.20    7.58
  -6  -1  28   34.68    6.42
  -6   7 -28   35.22    7.23
   6  -7  28   37.63    8.03
  -7   6 -28   33.58    6.90
   7  -6  28   42.02    8.06
  -6   7 -28   38.00    8.07
   1   6  28   39.73    6.12
  -1  -6 -28   32.97    5.86
   1  -7 -28   38.26    7.51
  -1   7  25   19.27    4.78
   7  -1 -25   10.68    4.22
   1   6  25   24.21    5.83
   1   6  25   11.26    3.21
   6   1 -25   13.39    4.74
  -7   1  25   20.41    5.36
  -7   6 -25    7.79    3.48
  -6  -1  25   16.19    4.18
   6  -7  25   21.07    6.04
   7  -6  25   17.67    5.32
  -7   6 -25    7.23    3.08
  -6   7 -25   14.01    4.83
   1  -7 -25   19.74    5.52
  -1  -6 -25   10.00    3.21
  -7   1  22    0.97    1.82
   7  -1 -22    3.32    2.86
   6   1 -22   -0.33    1.51
   1   6  22    8.75    4.16
   1   6  22    7.42    3.50
  -6  -1  22    2.12    1.90
  -6   7 -22   -2.26    3.16
  -1  -6 -22   11.87    3.69
   7  -6  22   -1.70    2.63
   6  -7  22   -2.16    2.80
  -7   6 -22   -1.07    2.11
   1  -7 -22   -0.48    2.11
  -1   7  22    1.63    2.28
   7  -1 -19   10.37    3.70
   6   1 -19    7.07    3.26
  -7   1  19    8.32    2.92
   1   6  19   11.08    3.76
  -6  -1  19    7.88    2.60
  -6   7 -19    8.38    3.29
   6  -7  19   17.75    5.15
   7  -6  19   11.62    4.01
  -1  -6 -19    9.42    3.44
  -1   7  19    7.54    2.95
   1  -7 -19   13.05    4.23
   1   6  19   13.87    3.53
  -7   6 -19    7.77    2.97
  -7   1  16   31.21    5.33
   6   1 -16   30.12    5.54
  -6  -1  16   12.68    2.81
   7  -6  16   37.97    7.33
  -1  -6 -16   34.39    5.46
   1  -7 -16   34.89    6.55
   6  -7  16   39.03    7.53
  -6   7 -16   32.82    6.66
  -7   6 -16   41.40    7.40
  -1   7  16   34.21    6.34
   7  -1 -16   28.84    5.70
   1   6  16   37.44    5.61
   6   1 -13    8.07    3.04
  -6  -1  13    2.95    1.62
   6  -7  13   -0.05    2.33
   7  -6  13    0.93    1.39
  -1  -6 -13    0.90    1.43
   1  -7 -13    0.46    2.30
  -6   7 -13    0.95    1.50
  -1   7  13    3.19    1.88
  -7   6 -13    2.08    1.97
   1   6  13    3.30    1.60
   7  -1 -13    3.55    2.03
   6   1 -10   19.37    3.76
  -6  -1  10    4.85    1.62
  -1  -6 -10   23.71    4.46
   1  -7 -10   31.95    6.19
   6  -7  10   28.81    6.70
   7  -6  10   29.25    6.13
  -6   7 -10   32.05    6.59
  -7   6 -10   20.36    4.86
   7  -1 -10   36.37    5.87
   1   6  10   23.48    4.12
  -1   7  10   19.62    4.17
   6   1  -7    3.85    1.75
  -6  -1   7   -3.02    1.39
   7  -6   7  -10.13    5.05
   1  -7  -7  -11.99    4.81
   6  -7   7    3.77    3.25
  -1  -6  -7  -12.91    4.49
   1   6   7   -1.50    1.18
  -6   7  -7    2.68    2.36
  -7   6  -7   -7.28    3.82
  -1   7   7   -1.21    1.95
   7  -1  -7   -4.39    2.93
   1  -7  -4  360.86   21.19
  -7   6  -4  363.42   21.77
   7  -1  -4  341.45   15.71
  -1  -6  -4  368.85   18.79
   6  -7   4  366.24   22.14
   1   6   4  340.46   16.34
  -1   7   4  345.61   18.58
  -6   7  -4  366.72   22.08
   7  -6   4  349.29   20.80
   6   1  -4  314.92   13.01
  -7   1   1   -5.26    1.84
   7  -6   1   -3.48    2.49
   1  -7  -1   -3.75    2.39
  -1  -6  -1   -4.74    2.75
   6  -7   1  -18.39    6.48
   6   1  -1    1.49    1.15
  -7   6  -1    0.10    2.11
  -1   7   1   -9.74    4.31
   1   6   1   -6.49    2.96
   7  -1  -1   -2.17    1.96
  -6   7  -1  -14.96    5.59
  -1  -6   2  389.04   20.10
   7  -6  -2  341.08   20.40
  -1   7  -2  358.62   19.53
   7  -1   2  344.83   13.56
   1  -7   2  372.90   21.58
   1   6  -2  347.93   17.08
  -6   7   2  370.87   22.58
   6  -7  -2  360.07   22.01
  -7   6   2  365.30   22.08
  -7   1  -2  357.71   15.76
  -7   1  -5   15.93    2.38
  -6  -1  -5    8.51    2.64
  -1   7  -5   32.74    5.96
   7  -1   5   13.86    2.10
   6   1   5    4.81    1.03
   1   6  -5   14.24    2.96
   1  -7   5   16.52    3.51
  -7   6   5   16.77    4.98
   7  -6  -5   10.44    2.62
  -6   7   5   28.48    6.72
   6  -7  -5   27.66    6.25
  -6  -1  -8  151.29    6.93
  -7   1  -8  212.82   11.56
   1  -7   8  215.67   16.97
   1   6  -8  219.19   14.73
   6  -7  -8  204.73   16.91
   7  -1   8  178.55    8.99
   7  -6  -8  193.50   15.75
  -1   7  -8  192.00   14.76
  -7   6   8  215.90   17.51
  -7   1  -8  188.07    9.97
  -6   7   8  210.78   17.38
  -7   1 -11   -6.80    2.58
  -6  -1 -11    0.32    1.65
  -7   1 -11   -0.45    2.27
   1   6 -11   -0.27    1.63
   1  -7  11   -5.77    3.98
  -1   7 -11   -1.59    2.68
   1   6 -11   -1.49    2.45
   7  -1  11   -1.37    1.54
   7  -6 -11   -0.64    1.39
  -7   6  11   -6.27    3.98
  -6   7  11   -2.88    3.01
   6  -7 -11   -4.39    3.38
  -6  -1 -14  147.97    9.35
  -7   1 -14  136.50   10.27
   1   6 -14  137.10   10.65
   7  -1  14  121.10    7.07
   1   6 -14  138.21   12.31
   7  -6 -14  142.11   14.12
   6  -7 -14  155.64   15.06
  -1   7 -14  162.04   14.51
  -6   7  14  160.87   15.76
  -7   1 -14  116.98    6.93
  -7   6  14  151.24   15.07
  -6  -1 -17  137.24    9.81
  -7   1 -17  130.67   10.83
   1   6 -17  130.07   11.03
   1   6 -17  147.24   13.69
  -1   7 -17  142.59   14.12
   6  -7 -17  148.32   15.05
   7  -6 -17  141.72   14.69
  -7   6  17  152.21   15.36
  -7   1 -17  129.60    7.99
  -6   7  17  146.04   15.30
  -7   6  20    7.20    3.65
  -1   7 -20   -0.45    2.49
  -6  -1 -20    8.98    2.56
  -7   1 -20    3.99    2.07
   1   6 -20    2.32    1.91
  -1   7 -20    3.02    1.83
   1   6 -20   15.78    4.91
  -6   7  20    7.75    3.03
   6  -7 -20    1.72    1.96
   7  -6 -20    4.34    2.28
  -7   1 -20    1.93    1.05
  -7   6  23   21.33    5.93
  -6   7  23   19.91    5.56
  -7   1 -23   13.69    4.29
  -6  -1 -23   21.20    4.67
  -1   7 -23   14.77    4.49
   1   6 -23   13.26    4.18
  -1   7 -23   18.18    5.08
   1   6 -23   21.37    5.25
   7  -6 -23   19.71    5.77
  -7   1 -23   11.44    2.27
   6  -7 -23   20.95    6.01
  -6   7  26   32.04    7.66
  -7   6  26   27.89    7.07
  -7   1 -26   28.96    6.15
  -6  -1 -26   26.83    5.06
   1   6 -26   13.27    3.89
  -1   7 -26   32.61    6.50
  -1   7 -26   32.49    7.51
   1   6 -26   30.58    7.05
   7  -6 -26   27.59    6.27
  -7   1 -26   19.70    3.45
   6  -7 -26   26.67    6.83
  -6   7  29    7.98    3.73
  -7   6  29    9.26    4.51
  -6  -1 -29    4.08    1.79
   1   6 -29    4.82    2.70
  -1   7 -29    7.20    3.69
  -7   1 -29    6.10    2.46
   1   6 -29    7.46    4.18
  -1   7 -29    6.50    3.74
   7  -6 -29   11.64    4.90
  -7   1 -29    4.95    2.16
   6  -7 -29   12.65    5.17
  -6  -1 -32   61.57    8.55
  -7   1 -32   69.51    9.88
   6   1  32   73.78    8.84
  -1   7 -32   62.06    9.90
   1   6 -32   44.76    8.32
   1   6 -32   76.42   11.84
  -6  -1 -32   35.88    2.88
  -7   1 -32   65.99    6.58
  -1   7 -32   59.63    9.85
  -7   6  32   78.56   12.13
  -6   7  32   74.68   11.71
  -6  -1 -32   39.12    3.22
  -6  -1 -35    3.87    1.38
  -6  -1 -35    7.93    3.39
  -6   7  35   10.19    3.95
  -7   6  35    5.31    3.76
  -6  -1 -35    5.61    1.56
  -7   1 -35    8.36    2.48
   1   6 -35    5.17    3.40
  -1   7 -35   10.71    4.25
   6   1  35    9.51    3.08
  -7   1 -35   13.43    4.99
  -1   7 -35    2.86    2.27
   1   6 -35    5.82    3.55
  -6   7  38   28.44    7.29
  -6  -1 -38   34.56    6.80
  -6  -1 -38   31.46    4.28
  -7   6  38   34.27    7.90
  -6   7  38   43.00    9.27
  -7   6  38   45.38    9.84
  -1   7 -38   22.97    6.62
  -7   1 -38   34.58    7.45
   1   6 -38   32.36    7.74
   6   1  38   45.00    7.92
  -7   1 -38   35.26    5.68
   1   6 -38   35.42    8.78
  -1   7 -38   33.57    8.27
  -6  -1 -38   27.46    3.63
  -7   1 -41  151.33   16.99
  -6  -1 -41  140.17   14.97
  -6   7  41  158.66   18.74
  -7   6  41  154.16   18.38
   1   6 -41  115.71   15.03
   6   1  41  177.55   16.34
   1   6 -41  141.27   17.63
  -6  -1 -41  144.71   10.27
  -7   1 -41  141.50   11.59
  -1   7 -41  142.77   17.60
  -7   6  41  118.51   13.98
  -6   7  41  165.88   19.12
  -6  -1 -41  141.98   10.60
  -6  -1 -44    2.66    2.48
  -6   7  44   -5.33    3.11
  -6   7  44    1.00    3.08
  -7   6  44    4.07    3.61
  -7   6  44   -0.63    3.09
  -6  -1 -44    2.34    2.74
  -7   1 -44    3.61    3.56
   6   1  44    3.40    2.87
   1   6 -44    2.85    4.10
  -7   1 -44    3.14    2.48
   1   6 -44    0.00    2.37
  -6  -1 -44    4.12    2.07
  -1   7 -44    4.28    3.77
  -7   6  47   63.55   12.42
  -6  -1 -47   63.24   10.20
  -6   7  47   49.44    9.33
  -6   7  47   67.46   12.88
   6   1  47   68.55    9.72
  -6  -1 -47   55.91    6.69
   1   6 -47   58.07   11.79
  -7   1 -47   55.30    7.88
  -1   7 -47   63.91   12.33
  -6  -1 -47   56.39    7.13
  -6   7  50  100.57   15.84
  -7   6  50  106.13   16.98
   6   1  50  111.14   13.59
  -6  -1 -50   85.64    9.21
  -7   1 -50   97.30   11.05
   1   6 -50   80.70   13.45
  -1   7 -50   88.99   15.09
  -6  -1 -50   91.24   10.18
  -6  -1 -53   -3.22    3.21
  -6   7  53   -2.39    4.49
  -7   6  53   -4.79    4.94
  -6  -1 -53    5.29    2.80
  -1   7 -53   -2.61    4.52
   1   6 -53   -2.86    2.58
  -7   1 -53   -0.56    2.09
   6   1  53   -0.06    2.80
  -7   6  56  125.59   19.42
  -6   7  56  140.62   20.58
   1   6 -56   99.18   16.08
  -6  -1 -56  111.24   12.03
  -1   7 -56  103.59   16.58
  -7   1 -56  128.56   13.93
   6   1  56  134.25   16.21
  -7   6  59   -1.03    4.34
  -6   7  59    5.94    5.29
   1   6 -59   -6.06    4.10
  -6  -1 -59   -7.43    4.00
  -7   1 -59   -0.18    3.15
  -1   7 -59    6.93    6.60
   6   1  59   -3.89    4.40
  -7   6  62   35.74   10.75
  -6   7  62   43.53   12.36
  -6  -1 -62   37.93    7.73
  -1   7 -62   23.83    7.54
  -7   1 -62   38.50    8.23
   1   6 -62   22.88    8.78
   6   1  62   38.63    9.02
   1   6 -65   -2.47    4.47
  -1   7 -65    5.93    6.12
  -6  -1 -65    6.45    4.05
  -7   1 -65    4.56    4.86
  -6   7  65   -1.79    3.21
   6   1  65   -1.13    3.00
  -7   6  65    0.43    5.43
   1   6 -68   24.82    9.51
  -1   7 -68   20.56    8.32
  -7   1 -68   23.54    6.40
  -6   7  68   20.04    9.23
  -7   6  68   29.03   10.56
   6   1  68   30.78    9.24
  -1   7 -71   14.75    8.27
   1   6 -71   11.10    7.69
  -6   7  71    3.43    4.71
  -7   6  71    6.70    5.98
   6   1  71    5.35    2.66
  -7   6  74   -3.12    3.45
   6   1  74   -0.14    4.28
   6   1  77   17.47    7.36
   6   1  80    9.84    7.95
  -7   0  80   -3.96    5.59
  -7   7 -77    5.33    5.19
  -7   0  77   -3.69    5.96
  -7   7 -74    1.24    3.17
  -7   0  74    8.23    7.04
   0   7  74    4.69    6.37
  -7   7 -71    6.44    3.79
  -7   0  71    4.29    4.02
   0   7  71   -6.90    5.25
  -7   7 -68   -2.91    4.75
  -7   0  68   13.09    6.69
   0   7  68    5.10    2.81
  -7   7 -65   -0.25   10.34
  -7   0  65    1.45    4.32
   0   7  65    6.02    3.25
  -7   7 -62   23.21   12.18
   0   7  62   47.94   12.01
  -7   0  62   35.72   10.17
  -7   7 -59   -0.11    3.17
   0   7  59   -9.06    5.23
  -7   0  59   -1.37    4.84
  -7   7 -56   43.49   10.50
   0   7  56   39.16    9.17
  -7   0  56   11.99    3.40
  -7   7 -53   -0.14    2.33
   0   7  53    0.73    2.66
  -7   0  53   -0.03    2.79
   0   7  50  172.33   19.98
  -7   0  50  143.79   18.68
   0  -7 -50  174.49   18.08
  -7   7 -50  144.71   18.91
   0   7  47   -2.16    4.22
  -7   0  47   -4.62    3.18
  -7   7 -47   -0.10    2.86
   0  -7 -47   -2.90    2.13
   0   7  44  141.65   16.88
  -7   0  44  124.38   15.36
   0  -7 -44  139.56   15.21
  -7   7 -44  141.27   17.13
   0   7  41    4.41    3.76
   0   7  41    4.22    2.81
  -7   0  41    1.89    2.90
  -7   7 -41  -13.00    6.36
   0  -7 -41   -0.67    1.83
   0   7  38   20.00    6.11
   0   7  38   20.78    5.42
  -7   0  38   16.75    5.43
  -7   7 -38   23.38    7.04
   0  -7 -38   21.34    5.96
   7   0 -35    0.86    2.57
   0   7  35   -1.24    2.05
   0   7  35    1.18    3.12
  -7   0  35    0.42    2.19
  -7   7 -35    2.55    3.89
   0  -7 -35    0.18    2.35
   0   7  32   40.49    8.06
   7   0 -32   39.47    8.23
  -7   0  32   23.91    5.96
   0  -7 -32   42.88    7.75
  -7   7 -32   37.84    8.04
   0   7  32   46.25    7.50
   0   7  29    1.21    1.45
   7   0 -29    5.00    3.36
   0   7  29   -1.05    2.28
  -7   0  29    1.16    1.98
   7  -7  29    4.51    3.57
  -7   7 -29   -1.25    2.68
   0  -7 -29   -1.04    1.63
   7   0 -26    5.48    3.91
   0   7  26    0.67    1.72
   0   7  26    0.67    1.60
  -7   0  26    1.05    1.85
  -7   7 -26    2.47    2.04
   7  -7  26    4.81    3.79
   0  -7 -26    0.81    1.86
   7   0 -23    3.16    2.43
   0   7  23   -0.83    1.49
  -7   0  23    4.11    2.72
   7  -7  23   -3.02    2.48
  -7   7 -23    0.24    1.97
   0   7  23    0.16    1.27
   0  -7 -23    3.41    2.39
  -7   0  20    4.41    2.36
   7   0 -20    0.72    1.80
   0  -7 -20    1.94    2.28
   7  -7  20    5.10    3.37
   0   7  20    3.91    2.42
  -7   7 -20   -0.35    2.24
  -7   0  17    1.08    1.82
   7   0 -17    0.91    1.50
   0  -7 -17    0.40    1.46
   7  -7  17    1.63    1.94
   0   7  17   -6.01    3.49
  -7   7 -17   -5.28    3.99
  -7   0  14  150.55   10.92
   7  -7  14  145.75   14.37
   0  -7 -14  165.50   13.58
  -7   7 -14  168.15   15.93
   0   7  14  157.97   12.80
   7   0 -14  150.87   12.04
  -7   0  11   -4.27    0.96
   7  -7  11   -5.03    3.74
   0  -7 -11  -11.37    4.59
   0   7  11   -7.05    3.23
  -7   7 -11    0.66    2.60
   7   0 -11   -0.82    2.01
  -7   0   8  195.74    9.91
   7  -7   8  338.81   22.16
   0   7   8  318.63   17.81
   0  -7  -8  329.13   19.17
  -7   7  -8  312.08   20.94
   7   0  -8  294.62   15.17
   7  -7   5   -9.95    4.55
   0  -7  -5   -7.70    3.54
   0   7   5   -5.37    3.00
  -7   7  -5  -18.82    5.82
   7   0  -5    0.93    1.06
   0  -7  -2  243.42   16.89
  -7   7  -2  224.76   17.83
   0   7   2  214.28   14.60
   7  -7   2  220.86   17.43
   7   0  -2  186.90   10.17
   0  -7   1  -12.20    4.56
   7  -7  -1   -4.37    2.36
   0   7  -1   -4.51    2.82
  -7   7   1   -1.26    1.81
   7   0   1   -0.93    1.10
  -7   0  -4  333.13   11.96
   0  -7   4  407.09   22.88
   0   7  -4  369.60   19.79
   7  -7  -4  370.05   22.74
  -7   7   4  395.13   24.32
  -7   0  -7   -3.81    1.22
   0   7  -7   -6.02    3.11
   0  -7   7  -11.63    4.38
   7   0   7   -2.72    1.24
   7  -7  -7   -7.64    3.36
  -7   7   7   -6.33    3.36
  -7   0 -10  113.21    8.29
   7   0  10   63.68    3.38
   7  -7 -10  123.37   13.55
   0   7 -10  112.54   11.30
  -7   7  10  127.53   13.97
  -7   0 -13   -1.34    1.80
   0   7 -13   -3.35    3.33
  -7   7  13   -1.72    1.91
   7  -7 -13   -2.43    3.30
   0   7 -16   20.79    4.62
  -7   0 -16   18.32    3.95
   0   7 -16   15.60    4.68
   7  -7 -16   24.08    6.32
  -7   7  16   23.31    6.42
  -7   0 -19    0.04    1.39
   0   7 -19    2.96    2.21
   0   7 -19   -3.90    2.69
  -7   7  19   -0.09    2.65
   7  -7 -19   -3.91    2.58
  -7   7  22   48.08    9.17
  -7   0 -22   36.97    6.37
   0   7 -22   37.03    6.72
   0   7 -22   32.56    6.89
   7  -7 -22   37.90    8.33
  -7   7  25   -1.57    1.87
   0   7 -25    2.41    2.21
  -7   0 -25   -1.10    1.43
   0   7 -25   -5.85    3.89
  -7   0 -25    0.54    0.83
  -7   7  28   -0.84    1.85
  -7   0 -28    2.16    1.84
   0   7 -28    1.90    3.24
   0   7 -28   -9.01    5.00
  -7   0 -28    1.39    1.02
  -7   7  31   -0.74    2.47
  -7   0 -31   -1.35    1.42
   0   7 -31   -1.86    2.56
   0   7 -31   -4.24    3.44
  -7   0 -31   -0.26    0.93
  -7   7  34   21.35    6.85
   0   7 -34   14.90    5.05
  -7   0 -34   15.19    2.60
  -7   0 -34   22.88    5.40
   0   7 -34   13.16    4.75
  -7   7  37    0.43    3.53
  -7   0 -37   -0.68    1.80
   0   7 -37    2.93    2.26
   0   7 -37    0.86    2.04
  -7   0 -37   -2.23    2.85
  -7   7  40    5.08    3.95
  -7   7  40    8.75    5.29
   0   7 -40    2.51    2.11
  -7   0 -40    5.77    2.14
  -7   0 -40   10.26    4.73
   0   7 -40   13.04    5.68
  -7   7  43   -6.16    5.01
  -7   7  43   -5.26    4.29
  -7   0 -43   -8.30    4.95
  -7   0 -43    0.90    2.44
   0   7 -43   -5.33    4.34
  -7   0 -46  270.07   23.23
  -7   7  46  287.85   26.81
  -7   0 -46  227.36   14.47
   0   7 -46  212.97   22.61
  -7   7  46  215.63   20.00
  -7   7  49   -0.94    3.41
  -7   0 -49    4.04    1.78
   0   7 -49   -3.90    3.69
  -7   7  52   76.52   14.24
  -7   0 -52   69.23    9.08
   0   7 -52   55.99   12.04
  -7   7  55   -1.30    4.34
   0   7 -55    2.37    3.27
  -7   0 -55   -5.87    3.63
   7   0  55   -3.32    4.37
  -7   7  58   99.71   18.00
  -7   0 -58   87.36   11.19
   0   7 -58   73.19   14.65
   7   0  58   87.23   13.60
  -7   7  61    1.17    3.67
   0   7 -61    0.62    3.17
  -7   0 -61   -2.64    2.03
   7   0  61   -0.46    2.17
  -7   7  64   13.09    7.42
   7   0  64   14.90    6.06
   0   7 -64    8.96    5.23
  -7   7  67   -3.95    4.26
   7   0  67    0.80    4.12
   0   7 -67    9.71    6.47
  -7   7  70    2.68    4.69
   7   0  70    3.92    4.95
   0   7 -70    8.00    6.11
   7   0  73    0.21    3.04
   7   0  76   -4.39    3.62
   7   0  79   -6.07    5.56
   8  -4   0  219.66   15.00
   4   4   0  234.46   10.99
   4  -8   0  273.30   20.22
  -4   8   0  249.38   18.39
  -8   4   0  263.92   17.90
   4  -8  -3   99.86   12.44
  -4   8  -3   91.85   11.43
  -4   8   3   84.28   10.66
   8  -4  -3   59.87    7.48
   4   4   3   69.06    5.12
   4   4  -3   64.55    5.80
   4  -8   3   91.72   12.04
   8  -4   3   70.89    8.32
  -8   4  -3   95.63   10.91
  -8   4   3   61.17    8.24
  -8   4   6   -1.37    3.30
   8  -4   6    1.05    1.20
   4  -8   6   -5.79    4.76
   4   4  -6    6.48    2.60
   4  -8  -6   -4.46    3.85
  -4   8  -6   -1.24    2.68
   4   4   6    1.25    0.75
   8  -4  -6    5.31    2.59
  -8   4  -6    1.36    1.92
  -4   8   6   -4.56    4.21
  -8   4   9   11.03    4.03
   8  -4   9    7.43    2.83
   4  -8  -9   10.29    3.91
   4   4  -9   11.25    3.04
   4  -8   9    9.05    2.49
  -8   4  -9    9.47    3.28
  -4   8   9    9.86    2.87
  -4   8  -9    9.25    3.72
   8  -4  -9    8.67    3.58
   4   4   9    4.60    0.88
  -8   4  12   20.01    5.29
   4   4 -12    5.64    1.07
   4   4  12   17.40    2.31
   4   4 -12   21.82    4.77
   8  -4  12   19.68    4.31
   4  -8  12   26.01    6.16
   4  -8 -12   26.66    6.27
  -8   4 -12   26.63    5.44
  -4   8  12   20.22    5.29
  -4   8 -12   24.63    5.99
   8  -4 -12   23.78    5.70
  -8   4  15    3.76    2.83
   4   4 -15    1.70    1.35
   4   4  15    4.67    1.89
   8  -4  15   -0.59    1.58
   4   4 -15    0.22    1.83
  -4   8 -15   -6.38    3.41
   4  -8  15   -1.49    4.15
   4  -8 -15   -4.41    4.27
   8  -4 -15   -0.77    1.86
  -4   8  15    1.35    2.46
  -8   4 -15   -6.51    3.55
   4   4  18  212.65   11.42
   4   4 -18  190.72   10.66
   4  -8  18  241.36   20.48
   8  -4  18  212.32   14.73
  -4   8 -18  217.86   18.55
   4  -8 -18  236.19   19.39
  -8   4 -18  221.13   15.49
  -8   4  18  267.67   20.70
  -4   8  18  240.30   19.36
   8  -4 -18  224.92   17.70
  -8   4  21   20.90    5.96
   4   4 -21   16.52    3.49
  -8   4 -21   18.54    3.91
   4   4  21   26.31    4.32
   4  -8  21   19.49    5.88
   8  -4  21   11.60    2.83
  -4   8 -21   21.02    6.16
  -8   4 -21   18.81    4.44
   4  -8 -21   19.79    5.20
   8  -4 -21   19.77    5.27
  -4   8  21   20.59    5.59
   4   4 -24  218.34   13.73
   4   4  24  255.90   15.05
  -8   4 -24  260.13   18.57
   8  -4  24  233.85   16.16
  -8   4 -24  243.06   16.65
   4  -8 -24  263.71   20.87
  -4   8 -24  247.79   20.26
   4  -8  24  248.78   21.37
  -8   4  24  288.14   22.41
   8  -4 -24  261.76   20.49
  -4   8  24  250.79   19.89
  -4   8  27    2.28    2.01
   4   4 -27    3.90    2.21
  -8   4  27    3.80    2.70
   4   4  27    8.32    2.95
  -4   8 -27    5.19    4.00
  -8   4 -27    3.74    2.21
  -4   8 -27    2.06    2.44
  -4  -4 -27    2.37    1.01
   8  -4 -27    9.85    4.50
   4  -8 -27    5.77    3.22
  -8   4 -27    2.09    2.10
  -8   4  30  113.81   13.07
  -8   4  30  130.93   14.98
   4   4 -30  105.67   10.98
   4   4  30  126.90   11.93
  -4   8 -30  113.55   13.82
  -8   4 -30  128.29   14.12
  -4   8 -30  118.43   14.76
   4  -8 -30  131.68   15.51
  -4  -4 -30   90.50    5.74
  -8   4 -30  126.58   12.34
  -4   8  30  127.80   14.48
   8  -4 -30  132.00   15.53
  -4   8  33    9.29    4.17
  -8   4  33   11.33    4.85
   4   4 -33   -0.48    2.56
  -4  -4  33   10.99    3.61
  -8   4 -33   11.51    5.10
   4   4  33    9.56    3.69
  -8   4 -33   13.97    4.16
  -4   8 -33    8.84    4.29
  -4  -4 -33    5.67    1.58
  -4   8  36   -0.91    2.10
  -4   8  36    1.17    2.40
   4   4 -36   -3.05    2.87
  -8   4  36    2.02    2.26
   4   4  36    1.82    2.45
  -4  -4  36    6.30    3.44
  -8   4 -36    2.64    3.17
  -8   4 -36    2.30    2.53
  -4   8 -36   -0.39    2.43
  -4  -4 -36    1.73    1.32
  -8   4  39   26.33    7.59
  -4   8  39   19.43    5.68
  -4   8  39   29.76    7.23
   4   4 -39   25.11    6.49
   4   4  39   31.27    7.05
  -4  -4  39   29.68    6.52
  -4   8 -39   32.14    9.05
  -8   4 -39   21.00    5.16
  -4  -4 -39   16.74    3.24
  -4   8  42  200.54   21.48
  -8   4  42  221.31   23.24
   4   4 -42  174.61   17.08
  -4  -4  42  222.85   18.08
   4   4  42  215.69   19.23
  -4   8 -42  186.87   20.13
  -8   4 -42  192.84   16.75
  -4  -4 -42  198.15   13.09
  -4   8  42  208.88   20.39
   4   4 -45   -1.81    3.41
  -4   8  45    3.24    3.90
  -4   8  45    1.14    2.11
  -8   4  45   -3.11    5.30
  -4  -4  45   -2.25    3.47
   4   4  45    4.90    2.20
  -4   8 -45   -4.97    5.08
  -8   4 -45    0.51    2.29
  -4  -4 -45    4.48    2.12
  -4   8  48    7.02    4.10
   4   4 -48   10.50    4.64
  -8   4  48   10.65    6.17
  -4   8  48   12.77    5.05
  -4  -4  48   11.29    4.25
   4   4  48    9.74    3.57
  -4   8 -48   15.45    5.47
  -8   4 -48    9.86    5.98
  -4  -4 -48   16.07    3.87
  -4   8  51    0.04    4.51
  -4   8  51   -1.78    2.89
  -8   4  51    1.39    3.30
  -4  -4  51   -0.44    2.80
   4   4  51    1.21    2.76
  -8   4 -51    0.97    3.40
  -4   8 -51   -2.37    4.12
  -4  -4 -51   -0.22    2.42
  -4   8  54   10.69    5.98
  -8   4 -54    5.17    2.86
  -4   8 -54   10.89    6.07
  -8   4  54   12.91    7.22
   4   4  54   14.31    6.88
  -4  -4  54   11.49    4.89
  -4   8  57    2.34    3.81
  -8   4 -57    2.62    3.54
  -4   8 -57    6.72    5.11
  -8   4  57    0.02    3.14
   4   4  57   -2.42    4.02
  -4  -4  57   -1.30    3.58
  -4   8  60    1.33    5.77
  -8   4 -60    1.61    3.60
  -4   8 -60    5.70    4.95
  -4  -4  60   -3.98    4.45
  -8   4  60   -4.88    4.54
   4   4  60    3.92    4.97
  -8   4 -63    6.47    5.85
  -4   8 -63   11.61    7.22
  -4   8  63   14.66    7.87
  -4  -4  63   -5.17    4.86
  -8   4  63   12.80    6.84
   4   4  63    8.70    5.22
  -8   4 -66   18.34    7.74
  -4   8 -66   32.25   10.43
  -4   8  66   37.04   11.51
  -4  -4  66   22.17    7.81
  -8   4  66   33.84   11.71
   4   4  66   23.68    8.73
  -8   4 -69   -0.50    3.22
  -4   8 -69    0.07    5.31
  -4  -4  69    1.39    2.57
  -4   8  69   -4.70    3.83
  -8   4  69    1.62    4.38
   4   4  69   -4.03    4.48
  -8   4 -72    2.25    2.72
  -4   8 -72   10.80    7.32
  -4  -4  72   14.97    6.42
  -8   4  72   22.06    9.62
  -4   8  72   18.15    9.60
   4   4  72   11.07    5.71
  -8   4 -75    3.23    5.90
  -4  -4  75   -7.86    6.75
   4   4  75  -12.21    5.90
  -8   4 -78    4.20    6.28
  -4  -4  78   16.71    7.74
   4   4  78   17.35    8.73
  -4  -4  81   12.82    9.42
  -8   5 -82    2.62    5.68
  -8   5 -79    3.35    4.15
   3   5  79   -7.98    5.46
  -5  -3  79   -1.02    3.12
  -8   5 -76    4.76    6.33
   3   5  76   24.99   10.29
  -5  -3  76   28.11    9.88
  -8   3  76   30.19   12.13
  -8   5 -73    1.24    2.45
  -5   8 -73    6.89    7.66
  -3   8  73   -2.63    3.36
   3   5  73   -2.37    2.75
  -5  -3  73   -2.23    3.76
  -8   3  73   -5.49    6.22
  -8   5 -70    2.95    5.27
  -5   8 -70   14.32    7.34
  -3   8  70   12.01    8.27
   3   5  70    5.04    5.61
  -5  -3  70   12.21    7.30
  -8   3  70    7.32    6.20
  -8   5 -67    1.19    3.69
  -5   8 -67    7.96    7.72
  -3   8  67    5.56    4.27
   3   5  67    0.70    5.73
  -5  -3  67   -0.98    2.70
  -8   3  67    5.86    5.67
  -8   5 -64   13.72    7.22
  -5   8 -64   26.94    9.40
  -3   8  64   37.55   10.99
   3   5  64   31.52    9.10
  -5  -3  64   30.83   10.12
  -8   3  64   20.36    8.29
  -5   8 -61    5.48    4.50
  -8   5 -61    2.20    5.12
  -3   8  61    3.49    4.87
   3   5  61    5.22    5.11
  -5  -3  61   12.78    6.29
  -8   3  61    5.10    5.00
  -3   8  58    3.39    2.38
  -8   5 -58    5.49    5.17
  -5   8 -58   14.40    7.08
   3   5  58    3.36    4.37
  -5  -3  58   -1.84    4.27
  -8   3  58   -0.65    2.50
  -3   8  55    1.95    3.56
  -8   3  55   -0.26    2.58
  -5  -3  55   -4.87    3.71
   3   5  55    0.64    4.43
  -8   5 -55   -0.96    2.37
  -5   8 -55   -1.45    2.59
  -3   8  52   40.83   10.02
  -8   3  52   34.85   10.20
  -5  -3  52   25.96    6.73
   3   5  52   44.08    9.93
  -5   8 -52   32.37    8.61
  -8   5 -52   19.74    8.12
  -3  -5 -52   27.80    5.91
   5   3 -49   13.23    5.02
  -3   8  49    6.65    3.77
  -3   8  49    7.50    3.83
  -5  -3  49    5.89    2.51
  -8   3  49    5.65    3.96
   3   5  49    9.60    4.45
  -5   8 -49    3.61    4.01
  -8   5 -49    7.83    4.98
  -3  -5 -49   10.19    4.14
   5   3 -46   35.30    7.95
  -8   3  46   39.71    9.62
  -3   8  46   51.26   11.10
  -3   8  46   49.75   10.07
  -5  -3  46   39.09    8.26
   3   5  46   50.17    9.91
  -5   8 -46   50.39   11.29
  -3  -5 -46   51.63    9.68
  -8   5 -46   29.72    9.57
  -3   8  43    2.96    2.47
  -8   3  43    1.19    2.24
  -3   8  43    0.59    3.17
   5   3 -43   -2.75    3.68
  -5  -3  43    2.80    3.12
   3   5  43    3.41    2.58
  -8   5 -43    1.50    1.98
  -5   8 -43    1.84    2.97
  -3  -5 -43    6.94    3.12
   5   3 -40   22.86    5.53
  -3   8  40   48.90    9.54
  -3   8  40   39.32    9.21
  -8   3  40   37.65    9.50
  -5  -3  40   40.27    7.91
   3   5  40   37.05    7.31
  -8   5 -40   36.04    7.70
  -5   8 -40   38.53    9.61
  -3  -5 -40   30.02    5.18
  -3   8  37   -1.35    2.72
  -3   8  37    4.81    4.29
   5   3 -37    4.18    2.99
  -8   3  37    1.51    2.50
  -5  -3  37    0.74    1.77
   3   5  37    0.13    2.15
  -5   8 -37   -1.18    1.99
  -8   5 -37    1.82    2.91
  -3  -5 -37   -1.07    1.26
  -3   8  34   27.57    7.32
  -3   8  34   28.53    7.13
   5   3 -34   20.87    5.23
  -8   3  34   18.10    5.69
  -5  -3  34   25.52    5.57
   3   5  34   28.54    6.53
  -8   5 -34   24.50    6.15
  -5   8 -34   28.28    8.01
  -3  -5 -34   20.60    4.21
   3  -8 -34   26.08    6.88
  -3   8  31   -0.75    2.64
   5   3 -31   -0.33    1.66
  -8   3  31   -5.41    3.49
  -5  -3  31   -1.54    2.28
   3   5  31    3.48    2.94
  -8   5 -31    3.10    1.57
  -8   5 -31    1.63    2.42
  -5   8 -31    2.88    2.50
   8  -3 -31    0.21    3.00
   3  -8 -31   -1.33    1.99
  -3  -5 -31   -0.37    1.34
  -8   3  28  104.06   12.74
   3   5  28  102.27   10.92
  -8   5 -28  134.39   17.60
  -5  -3  28  111.16    9.99
  -5   8 -28  109.55   13.85
  -3  -5 -28   86.53    7.28
   3  -8 -28  120.77   14.06
  -8   5 -28  100.44   11.40
   8  -5  28  100.20   11.37
   8  -3 -28   99.83   13.03
  -3   8  28  109.94   13.18
  -8   3  25    0.20    2.33
   3   5  25    1.85    2.69
  -8   5 -25   -6.97    2.84
  -5  -3  25   -0.72    1.52
   8  -5  25   -9.33    4.11
  -5   8 -25   -2.55    2.91
  -3  -5 -25   -1.81    2.03
   8  -3 -25    2.43    2.61
   3  -8 -25   -3.58    2.55
  -8   5 -25   -4.83    3.76
  -3   8  25   -7.54    4.26
  -8   3  22  267.58   18.56
   3   5  22  298.50   17.14
  -8   5 -22  238.75   18.32
  -5  -3  22  295.86   13.62
   5  -8  22  310.39   23.88
   8  -5  22  273.77   18.73
  -3  -5 -22  231.09   11.40
  -8   5 -22  274.33   18.93
   3  -8 -22  313.88   22.09
  -5   8 -22  266.51   21.16
   3   5  22  211.96   10.76
  -3   8  22  313.64   21.68
   8  -3 -22  319.44   21.96
   3   5  19   -1.79    1.58
  -8   3  19    1.54    2.32
   3   5  19   -0.97    1.15
   5  -8  19   -3.16    2.85
  -3  -5 -19   -1.59    2.27
   8  -5  19   -7.51    4.17
  -5   8 -19   -5.96    3.34
  -3   8  19   -5.07    3.84
  -8   5 -19   -7.55    3.33
   3  -8 -19   -4.73    4.11
   8  -3 -19    5.28    4.09
  -8   3  16   22.24    5.76
   3   5  16   20.77    4.28
   8  -5  16   16.82    4.47
  -3  -5 -16   12.40    2.11
   5  -8  16   23.98    6.26
  -5   8 -16   16.46    4.84
   3   5  16   17.55    3.14
  -8   5 -16   16.84    4.25
   8  -3 -16   17.44    4.59
  -3   8  16   19.26    5.25
   3  -8 -16   21.91    5.40
   3   5  13    5.22    1.80
  -8   3  13    9.32    3.55
   8  -5  13    3.72    2.60
   3  -8 -13    9.89    3.90
   5  -8  13    6.63    2.82
  -5   8 -13    4.55    2.52
   8  -3 -13    8.02    3.14
  -3   8  13    4.85    2.81
   3   5  13    4.61    1.51
  -8   5 -13    3.95    2.32
  -8   3  10   22.88    5.72
   3   5  10    6.78    1.47
   5  -8  10   20.58    5.44
   3  -8 -10   16.77    4.60
   8  -5  10   19.04    4.68
  -3   8  10   19.34    4.63
   8  -3 -10   18.36    4.40
  -5   8 -10   16.80    4.79
   3   5  10    9.40    2.20
  -8   5 -10   19.62    5.12
  -8   3   7   27.99    5.64
   3   5   7   25.84    2.86
   5  -8   7   39.56    7.85
   3  -8  -7   37.70    7.23
   8  -5   7   29.10    5.39
   8  -3  -7   23.94    4.88
   3   5   7   24.56    3.24
  -5   8  -7   28.31    6.37
  -3   8   7   28.61    5.76
  -8   5  -7   31.84    6.15
  -8   3   4   45.00    7.07
   3   5   4   15.07    1.57
   5   3  -4   31.43    4.28
   5  -8   4   49.96    8.81
   8  -5   4   34.73    6.31
   3  -8  -4   39.20    7.31
   3   5   4   31.68    3.84
   8  -3  -4   36.13    5.74
  -8   5  -4   35.05    6.20
  -3   8   4   37.09    6.85
  -5   8  -4   45.07    7.85
  -8   3   1   21.48    5.37
   5  -8   1   16.41    5.14
   3   5   1    6.33    1.42
   3  -8  -1   14.08    3.60
   5   3  -1   16.68    2.73
   8  -5   1   10.01    3.09
  -3   8   1   20.97    5.48
  -5   8  -1   15.24    4.04
  -8   5  -1   17.55    4.90
   8  -3  -1    2.91    1.83
   3   5  -2  156.04    6.72
   5   3   2  176.51    7.27
   8  -3   2  186.81   12.56
   3   5  -2  194.73   11.62
  -3   8  -2  209.74   16.86
   5  -8  -2  216.83   18.20
  -5   8   2  210.03   17.59
   3  -8   2  218.73   18.07
   8  -5  -2  196.66   15.35
  -8   5   2  242.49   18.32
  -8   3  -2  219.38   15.45
   3   5  -5    0.02    1.31
   3  -8   5   -6.58    4.57
   8  -3   5    5.84    2.37
   3   5  -5    6.29    2.46
   5  -8  -5   -4.87    4.27
  -8   3  -5   -3.27    2.10
  -8   5   5    3.32    3.34
   8  -5  -5   -3.36    2.90
  -3   8  -5   -4.30    3.70
  -5   8   5   -4.20    3.53
   3   5  -8    6.79    3.07
   3   5  -8   16.59    4.12
   8  -3   8   15.44    4.06
   5  -8  -8    9.98    3.66
   3  -8   8    6.64    3.21
  -8   3  -8   12.82    3.88
  -5   8   8    7.34    2.81
   8  -5  -8    9.97    3.77
  -3   8  -8   10.06    3.48
  -8   5   8    7.96    3.42
  -8   5  11   20.33    5.40
   3   5 -11    8.40    2.05
  -3   8 -11   18.34    4.85
   8  -3  11    7.39    1.67
   3  -8  11   15.13    4.67
   3   5 -11   27.00    5.53
  -5   8  11   10.44    3.27
   5  -8 -11   12.65    4.44
  -8   3 -11    6.84    2.33
   8  -5 -11   17.15    4.43
   3   5 -14   99.94    8.58
  -8   3 -14  130.83   10.95
   3  -8  14  158.85   16.20
   8  -3  14  123.55    9.80
   5  -8 -14  146.14   15.30
  -3   8 -14  134.54   13.96
   3   5 -14  140.28   12.35
   8  -5 -14  133.06   13.35
  -5   8  14  151.33   15.46
  -8   5  14  154.71   15.40
  -8   5  17   -0.12    2.95
  -8   3 -17   -1.81    2.48
   3   5 -17    2.06    1.31
   3  -8  17   -2.25    3.06
   3   5 -17   -3.97    2.74
   8  -3  17   -6.26    2.73
  -3   8 -17   -2.63    3.11
   5  -8 -17   -4.74    4.64
   8  -5 -17   -3.40    3.74
  -8   3 -17   -6.74    3.15
  -5   8  17   -1.72    2.42
   3   5 -20   51.34    6.37
  -8   3 -20   87.67    9.78
   5   3  20   97.35    7.43
   3  -8  20   88.71   12.57
   3   5 -20   79.13   10.28
   8  -3  20   86.45    8.55
   8  -5 -20   80.42   11.19
  -8   3 -20   79.45    8.48
  -3   8 -20   87.73   11.64
   5  -8 -20   81.28   11.56
  -5   8  20   90.89   12.59
  -8   5  20   93.39   12.47
  -8   5  23    2.90    2.53
   3   5 -23    4.24    2.27
   5   3  23    1.55    1.06
  -8   3 -23   -2.22    2.47
  -3   8 -23    0.33    2.52
   3   5 -23    1.59    2.15
  -3   8 -23   -0.27    1.96
   8  -5 -23    5.43    3.79
  -8   3 -23    2.60    1.92
   5  -8 -23   -0.81    2.70
  -5   8  23   -0.04    3.03
   3   5 -26   50.01    7.16
  -3   8 -26   70.35   11.09
   5   3  26   79.84    8.10
  -8   3 -26   73.80   10.04
   3   5 -26   81.55   11.15
   5  -8 -26   81.65   11.96
  -3   8 -26   83.46   12.29
  -8   3 -26   73.98    8.26
  -8   5  26   88.53   12.64
   8  -5 -26   83.78   12.10
  -5   8  26   83.46   12.05
  -5   8  29   48.60    8.98
  -8   5  29   56.93   10.65
   3   5 -29   31.46    6.00
  -3   8 -29   49.63    9.07
   5   3  29   51.08    6.84
  -8   3 -29   48.03    8.38
  -3   8 -29   51.20   10.24
  -8   3 -29   40.95    6.07
   3   5 -32   89.49   11.00
  -8   3 -32  105.93   13.31
   5   3  32  109.40   11.04
  -3   8 -32  103.04   13.33
  -3   8 -32  100.82   13.91
  -8   3 -32   97.52   10.06
  -5   8  32  106.94   14.10
  -8   5  32  103.42   14.09
  -5   8  35   61.08   10.72
  -8   5  35   45.45    8.54
  -5  -3 -35   54.17    8.35
  -8   5  35   60.75   10.90
  -8   3 -35   54.87   10.14
   5   3  35   63.61    8.90
   3   5 -35   43.98    8.07
  -3   8 -35   50.90    9.94
  -8   3 -35   56.77    7.80
  -5  -3 -35   30.47    2.83
  -5  -3 -38   13.89    4.54
  -5   8  38   15.51    5.53
  -8   5  38   18.28    6.19
  -5   8  38   10.83    4.77
   3   5 -38    4.72    3.15
  -8   3 -38   16.63    6.09
   5   3  38   15.92    4.58
  -3   8 -38   17.39    6.23
  -8   3 -38   16.29    4.34
  -5  -3 -38   10.09    2.16
  -5  -3 -41    8.86    3.79
  -5   8  41    4.40    3.29
  -5   8  41    7.01    2.93
  -8   5  41    4.69    3.04
   3   5 -41  -11.82    6.11
   5   3  41    8.83    2.45
  -3   8 -41   13.25    5.60
  -8   3 -41   10.95    3.84
  -5  -3 -41    5.60    2.00
  -8   5  44   49.15   10.46
  -5   8  44   65.45   12.02
  -5  -3 -44   63.13   10.30
  -5   8  44   63.38   12.60
   3   5 -44   43.37    8.50
   5   3  44   66.09   10.45
  -8   3 -44   48.72    7.94
  -3   8 -44   58.77   11.47
  -5  -3 -44   37.30    4.71
   3   5 -47    1.04    3.02
  -5  -3 -47   -1.10    3.88
  -5   8  47    3.96    3.47
  -5   8  47    2.02    2.72
  -8   5  47   -2.02    4.34
  -3  -5  47    0.74    1.99
   5   3  47   -0.63    2.99
  -8   3 -47   -4.09    3.57
  -3   8 -47   -7.46    5.53
  -5  -3 -47    0.01    1.50
  -5   8  50   12.58    6.88
  -5   8  50    7.76    3.92
  -8   5  50   16.01    7.10
  -3  -5  50   13.61    5.01
   5   3  50   10.13    3.77
  -8   3 -50    4.26    2.66
  -3   8 -50    6.97    4.61
  -5  -3 -50   10.17    3.55
  -5   8  53    3.12    4.00
  -8   5  53   -2.16    4.89
  -8   3 -53   -1.10    3.12
  -3   8 -53    6.87    4.92
  -3  -5  53    3.55    3.68
   5   3  53    3.67    2.06
  -5   8  56   21.39    7.97
  -8   5  56    7.60    4.72
  -8   3 -56    3.26    3.25
  -3   8 -56    4.96    2.99
   5   3  56   16.22    5.94
  -3  -5  56   15.67    6.62
  -5   8  59    0.53    3.69
  -8   3 -59    4.24    4.10
  -3   8 -59    1.75    4.81
  -8   5  59    1.31    3.12
   5   3  59    0.83    2.54
  -3  -5  59   -1.17    3.18
  -5   8  62   50.88   13.12
  -8   5  62   52.18   13.13
   5   3  62   48.53   11.38
  -3  -5  62   50.22   11.29
  -8   3 -62   33.29    9.07
  -3   8 -62   36.72   11.12
  -5   8  65   25.21    8.99
  -8   5  65   11.27    5.38
   5   3  65   25.29    8.47
  -3  -5  65   14.41    6.09
  -8   3 -65   13.53    7.21
  -3   8 -65   23.68    8.98
  -5   8  68    4.59    4.05
  -8   5  68   10.55    7.07
   5   3  68    9.67    5.39
  -3  -5  68    6.55    5.64
  -8   3 -68    5.66    4.08
  -3   8 -68   22.56   10.32
  -5   8  71    9.84    7.22
  -8   5  71   17.64    8.95
   5   3  71    3.03    4.36
  -3  -5  71    5.75    5.63
  -8   3 -71    6.06    5.04
  -3   8 -71   15.86    7.73
  -8   5  74   33.61   11.89
   5   3  74   45.07   12.74
  -3  -5  74   50.31   13.60
  -3  -5  77   -2.38    4.70
   5   3  77    2.30    7.40
   5   3  80    7.30    4.93
  -3  -5  80   16.47    8.10
  -6  -2  80   12.29    9.69
  -8   6 -80   -2.14    7.94
  -6  -2  77   -3.39    5.70
   2   6  77    3.18    5.22
  -8   2  77    2.03    5.33
  -8   6 -77   -0.74    3.68
  -6  -2  74   13.86    7.89
   2   6  74   22.49    9.75
  -2   8  74   17.96    8.74
  -8   2  74   16.50    7.96
  -8   6 -74    3.47    7.06
   2   6  71   10.12    6.73
  -2   8  71    4.13    5.76
  -8   2  71    6.41    6.58
  -6  -2  71    4.63    5.48
  -8   6 -71    1.19    5.39
  -6   8 -71   -0.09    4.21
  -2   8  68   16.51    8.76
  -8   2  68    1.20    3.67
  -6  -2  68    2.17    4.11
   2   6  68    3.56    4.68
  -6   8 -68    1.80    2.93
  -8   6 -68    0.24    4.11
  -2   8  65   18.07    8.15
  -8   2  65   15.94    7.51
  -6  -2  65   14.24    7.87
   2   6  65   13.10    6.67
  -6   8 -65    6.50    5.02
  -8   6 -65    3.17    5.76
  -2   8  62   20.03    7.79
  -8   2  62   17.58    7.19
  -6  -2  62   18.04    8.04
   2   6  62   21.48    7.54
  -6   8 -62   24.21    8.46
  -8   6 -62    7.22    9.43
  -2   8  59   -0.86    4.13
  -8   2  59    6.67    5.19
   2   6  59    1.60    2.85
  -6  -2  59    1.05    2.60
  -6   8 -59    0.93    2.88
  -8   6 -59    0.80    3.95
  -2   8  56   56.75   12.18
  -8   2  56   54.13   12.42
  -6  -2  56   65.86   13.23
   2   6  56   68.50   12.87
  -6   8 -56   44.56   11.25
  -8   6 -56   18.02    9.86
  -2   8  53   11.20    6.31
  -8   2  53    7.55    4.81
   2   6  53   16.92    7.38
  -6  -2  53   15.50    6.73
  -6   8 -53   11.87    5.04
  -8   6 -53    1.56    4.41
  -2  -6 -53   18.68    5.42
  -2   8  50  108.42   16.78
  -8   2  50  100.09   16.14
   2   6  50  108.86   14.72
  -6  -2  50   96.73   14.33
  -2  -6 -50  103.85   12.51
  -8   6 -50   49.89   14.36
  -6   8 -50   92.92   15.59
  -2   8  47   28.10    6.44
  -2   8  47   27.28    8.48
  -8   2  47   30.48    8.93
   2   6  47   39.34    8.88
  -6  -2  47   34.09    8.75
  -6   8 -47   25.07    8.01
  -8   6 -47   34.20    8.43
  -2  -6 -47   26.61    5.88
  -2   8  44   22.13    7.18
  -2   8  44   23.01    6.75
  -8   2  44   15.91    6.44
   2   6  44   17.49    5.51
  -6  -2  44   16.23    5.37
  -8   6 -44   22.22    6.32
  -6   8 -44   17.44    6.29
  -2  -6 -44   18.50    5.08
  -2   8  41    8.49    4.43
  -2   8  41    5.09    2.58
  -8   2  41   -2.05    3.28
   2   6  41    8.17    4.10
  -6  -2  41    2.56    1.68
  -8   6 -41    6.68    3.61
  -6   8 -41    6.30    4.44
  -2  -6 -41   11.07    3.92
  -2   8  38   18.42    6.51
  -2   8  38   16.45    5.97
  -8   2  38    9.72    4.74
   2   6  38   17.31    5.36
  -6  -2  38   14.02    4.75
  -8   6 -38   10.69    4.58
  -6   8 -38   17.09    5.86
  -2  -6 -38   18.73    4.79
   2  -8 -38   16.32    6.65
  -2   8  35    6.65    3.41
  -8   2  35   -2.13    3.21
  -2   8  35    5.80    2.96
   6   2 -35   10.20    4.03
   2   6  35    9.97    4.72
  -6  -2  35    8.80    3.58
  -6   8 -35    2.82    2.47
  -8   6 -35    3.88    2.77
  -2  -6 -35    6.29    2.78
   2  -8 -35    7.45    4.45
   8  -2 -32   24.51    6.90
  -2   8  32   29.33    6.82
  -2   8  32   32.72    7.95
  -8   2  32   19.61    5.77
   6   2 -32   21.47    5.55
   2   6  32   23.92    5.81
  -6  -2  32   20.30    5.37
  -8   6 -32   17.43    5.37
  -6   8 -32   25.83    7.30
   2  -8 -32   26.02    7.04
  -2  -6 -32   20.97    4.41
  -2   8  29    9.43    3.39
  -8   2  29    6.13    2.96
   2   6  29    8.01    2.84
   6   2 -29   11.42    4.10
   2   6  29    9.34    4.00
  -6  -2  29    7.86    3.55
   8  -6  29    3.54    2.58
  -8   6 -29   10.14    4.54
  -2  -6 -29    8.45    2.75
  -6   8 -29    8.77    4.38
   2  -8 -29    7.10    4.43
   8  -2 -29    0.76    2.70
   2   6  26   83.25    9.98
  -8   2  26   71.52   10.22
  -6  -2  26   78.36    8.78
  -8   6 -26   85.07   11.46
  -2  -6 -26   68.11    7.51
   8  -6  26   81.47   11.07
  -6   8 -26   85.00   12.04
   2  -8 -26   86.06   11.47
  -8   6 -26   81.77   10.90
   8  -2 -26   71.82   10.67
  -2   8  26   87.57   11.27
   6   2 -26   59.16    8.29
   2   6  26   84.09    8.47
   2   6  23   -0.41    1.05
   2   6  23   -0.97    1.46
  -8   2  23   -1.07    2.47
   6   2 -23    0.97    2.00
  -6  -2  23    0.20    1.59
  -2  -6 -23   -3.30    2.76
   6  -8  23    4.57    4.38
   8  -6  23   -3.31    1.97
  -6   8 -23   -0.45    1.61
  -8   6 -23    0.72    2.32
   8  -2 -23   -1.06    2.08
  -2   8  23   -0.16    1.70
   2  -8 -23   -0.80    2.24
  -8   2  20    8.99    3.78
   2   6  20    9.97    3.42
   2   6  20    9.70    2.58
   6   2 -20    6.29    2.64
  -6  -2  20    3.09    1.61
  -2  -6 -20    8.63    2.82
   6  -8  20   11.94    5.17
  -6   8 -20    5.25    3.16
   8  -6  20   15.84    5.08
   2  -8 -20   13.09    5.12
   8  -2 -20   14.52    4.51
  -2   8  20   10.11    3.77
  -8   6 -20   14.28    4.54
   6   2 -17   10.09    3.09
   2   6  17    9.00    2.37
  -6  -2  17    6.01    1.56
  -2  -6 -17   12.13    2.83
   6  -8  17   16.40    5.32
   2  -8 -17   11.54    3.54
   8  -6  17   20.79    5.47
   8  -2 -17   19.25    4.78
  -8   6 -17   20.74    5.38
  -6   8 -17    9.89    4.18
   2   6  17    8.78    2.29
  -2   8  17    9.80    3.48
   2   6  14   92.65    8.38
  -6  -2  14   88.39    5.11
  -2  -6 -14  106.86    9.55
  -6   8 -14  102.99   12.36
   6  -8  14  113.94   14.00
   8  -6  14  101.08   11.67
   2  -8 -14  100.34   11.67
  -8   6 -14  100.66   11.74
  -2   8  14  101.69   11.55
   2   6  14   99.33    8.52
   6   2 -14   77.92    8.45
   8  -2 -14  101.56   10.94
   2   6  11   -1.13    1.17
   6   2 -11    3.71    2.19
   6  -8  11   -2.36    2.99
   2  -8 -11   -1.36    3.56
  -2  -6 -11   -4.15    2.31
   8  -6  11   -0.77    2.66
   8  -2 -11    1.29    1.79
  -6   8 -11   -7.12    4.03
  -2   8  11   -0.56    2.12
  -8   6 -11   -6.03    3.80
   2   6  11   -3.82    2.36
  -2  -6  -8  113.02    9.85
  -8   6  -8  117.31   12.59
   6  -8   8  127.66   14.66
   2   6   8  100.25    8.35
   2  -8  -8  124.26   13.34
   8  -6   8  113.54   12.11
  -6   8  -8  107.14   12.66
  -2   8   8  113.74   11.98
   8  -2  -8  112.72   10.44
  -8   2   8  108.40   10.70
   6   2  -8  108.65    8.93
   6   2  -5    5.35    2.10
  -8   2   5    2.19    1.59
   2  -8  -5   -2.43    3.74
   6  -8   5    7.76    3.11
   8  -6   5   -8.20    4.28
  -2   8   5   -3.07    2.98
  -8   6  -5    1.37    2.49
   2   6   5   -2.95    2.32
  -6   8  -5   -2.29    3.09
   8  -2  -5    3.35    1.51
   2   6   2   73.84    7.46
   6  -8   2   56.91    8.56
  -6   8  -2   60.28    8.88
  -2   8   2   69.02    9.07
   2  -8  -2   72.07    9.78
   8  -6   2   73.17    9.44
   8  -2  -2   69.65    7.31
  -8   6  -2   58.47    8.55
  -8   2   2   83.26    9.44
   6   2  -2   57.53    5.16
  -8   2  -1   23.06    4.61
   2  -8   1   37.23    7.44
   2   6  -1   19.48    3.64
   6  -8  -1   18.86    4.52
   8  -6  -1   26.94    5.61
  -2   8  -1   21.17    4.39
   8  -2   1   13.22    2.52
  -8   6   1   23.76    5.86
   6   2   1    6.39    2.00
  -6   8   1   26.31    6.09
  -2   8  -4  197.57   16.06
   8  -6  -4  196.55   16.05
   2  -8   4  225.54   18.29
  -6   8   4  210.85   18.11
   2   6  -4  187.36   12.77
   6  -8  -4  200.25   17.45
   8  -2   4  178.37   11.04
  -8   6   4  231.61   18.47
  -8   2  -4  196.66   12.97
  -8   2  -7    5.16    2.21
   2   6  -7   15.06    2.61
   8  -2   7    8.93    1.79
   2  -8   7   10.27    3.40
   2   6  -7   23.72    4.67
  -2   8  -7   23.91    5.86
   6  -8  -7   28.27    6.95
  -8   6   7   15.56    5.20
   8  -6  -7   16.17    4.92
  -6   8   7   22.95    6.10
   2   6 -10  206.75   11.95
   2  -8  10  233.57   19.26
   6  -8 -10  249.00   19.69
   2   6 -10  241.79   16.25
   8  -2  10  218.94   12.18
   8  -6 -10  239.35   18.23
  -2   8 -10  234.51   17.90
  -6   8  10  248.89   20.11
  -8   6  10  251.19   19.59
  -8   2 -10  240.88   13.79
   2   6 -13    0.90    1.77
  -8   2 -13   -3.41    3.06
  -2   8 -13   -0.35    2.70
   2   6 -13    0.72    2.13
   2  -8  13    2.51    1.75
   8  -2  13  -11.02    3.60
   6  -8 -13   -4.17    3.83
  -8   6  13   -0.79    1.80
  -8   2 -13   -6.83    2.94
   8  -6 -13    4.21    2.79
  -6   8  13   -0.60    3.06
   2   6 -16   39.68    6.31
  -8   2 -16   56.47    7.13
   8  -2  16   40.46    4.81
   2   6 -16   53.02    7.98
   2  -8  16   51.98    9.17
  -2   8 -16   42.39    7.84
   8  -6 -16   58.11    9.66
  -8   2 -16   48.73    6.07
   6  -8 -16   49.92    9.45
  -8   6  16   60.15    9.79
  -6   8  16   59.84   10.27
  -8   6  19   32.20    7.62
  -6  -2 -19   17.81    2.85
   2   6 -19   21.04    4.74
  -8   2 -19   28.07    5.46
  -2   8 -19   23.15    6.06
   8  -2  19   17.69    3.43
   2   6 -19   25.16    5.57
  -8   2 -19   15.66    2.90
   6  -8 -19   22.91    6.27
   8  -6 -19   23.85    6.24
  -6   8  19   28.05    7.05
  -8   6  22   -1.51    2.80
  -6  -2 -22   -0.26    1.61
   2   6 -22    1.58    1.51
  -2   8 -22    2.61    1.83
  -8   2 -22    2.07    2.23
   2   6 -22   -1.27    2.28
  -2   8 -22   -3.10    2.72
   6  -8 -22    1.30    2.52
   8  -6 -22   -2.65    3.59
  -6   8  22    1.49    2.73
  -8   2 -22   -2.17    1.86
  -6   8  25   43.85    8.96
  -8   6  25   39.55    8.66
  -6  -2 -25   31.26    4.66
  -8   2 -25   42.06    7.78
  -2   8 -25   43.37    7.93
   2   6 -25   28.33    6.22
   2   6 -25   43.20    8.61
  -2   8 -25   39.80    8.51
  -8   2 -25   30.60    4.58
  -6   8  28   49.46    9.70
  -8   6  28   54.45   10.17
  -6  -2 -28   42.44    6.23
  -8   2 -28   52.42    9.20
   2   6 -28   38.59    7.50
  -2   8 -28   44.08    8.59
  -2   8 -28   45.36    9.20
  -8   2 -28   44.29    6.22
   2   6 -28   44.38    8.69
  -6   8  31    1.02    2.04
  -8   6  31    0.58    2.76
  -6  -2 -31   -0.29    1.79
  -8   2 -31    2.33    2.96
  -2   8 -31    4.33    3.25
   2   6 -31   -5.28    3.51
   6   2  31    1.43    2.30
   2   6 -31    4.47    3.73
  -2   8 -31   -1.54    2.31
  -8   2 -31    1.64    1.15
  -6   8  34   43.71    9.39
  -8   6  34   49.63   10.56
  -6  -2 -34   37.15    6.36
  -8   2 -34   40.47    8.21
  -2   8 -34   36.56    8.11
   2   6 -34   25.98    5.98
   6   2  34   51.50    7.47
  -2   8 -34   30.15    7.67
   2   6 -34   36.13    8.72
  -8   2 -34   34.23    5.40
  -6  -2 -37   14.63    4.46
  -8   6  37   17.92    6.48
  -6   8  37   20.48    6.83
  -8   6  37   21.45    7.36
   6   2  37   26.32    5.82
   2   6 -37    8.40    3.50
  -8   2 -37   21.65    6.41
   2   6 -37   13.96    5.41
  -6  -2 -37    5.63    0.97
  -2   8 -37   16.33    5.33
  -8   2 -37   14.05    3.74
  -6  -2 -37    8.15    1.27
  -6   8  40   45.66   10.49
  -8   6  40   35.17    8.97
  -6  -2 -40   39.83    7.66
  -6   8  40   53.80   11.01
  -8   6  40   37.71    8.45
   6   2  40   45.44    7.71
   2   6 -40   27.84    6.75
  -8   2 -40   37.60    8.80
   2   6 -40   37.38    8.90
  -6  -2 -40   19.13    2.22
  -8   2 -40   39.53    6.17
  -2   8 -40   51.50   10.74
  -6  -2 -40   19.77    2.77
  -6   8  43   13.26    5.45
  -6   8  43   12.31    4.94
  -8   6  43   12.77    5.94
  -6  -2 -43    5.24    2.24
   2   6 -43   -0.18    3.22
   6   2  43    5.89    2.37
   2   6 -43    5.63    2.45
  -8   2 -43   10.92    3.40
  -6  -2 -43   10.88    2.54
  -2   8 -43    3.86    2.68
  -6  -2 -43    7.74    1.96
  -6   8  46   15.58    6.88
  -6   8  46   17.93    6.90
  -8   6  46   17.01    6.70
  -6  -2 -46   16.70    5.61
   2   6 -46    4.04    2.63
   6   2  46   16.06    4.12
   2   6 -46    1.29    4.02
  -6  -2 -46   13.46    2.92
  -2   8 -46    0.48    4.80
  -8   2 -46   12.14    3.48
  -6  -2 -46    8.46    2.13
  -8   6  49   -0.26    2.88
  -6   8  49    2.42    2.76
  -6   8  49   -1.60    3.37
  -6  -2 -49    4.68    3.06
   6   2  49   -1.14    4.49
  -6  -2 -49    0.86    2.56
   2   6 -49   -8.99    5.81
  -8   2 -49    2.63    2.72
  -2   8 -49    4.68    4.87
  -6  -2 -49    4.48    2.50
  -6   8  52   35.52   10.21
  -8   6  52   33.82    9.18
  -6   8  52   31.90    8.08
   2   6 -52   16.83    6.71
  -6  -2 -52   21.67    3.97
  -8   2 -52   17.61    4.48
  -2   8 -52   18.04    7.24
   6   2  52   43.99    8.81
  -8   6  55  -10.72    6.74
  -6   8  55    3.71    5.63
   2   6 -55   -5.04    5.43
  -6  -2 -55    2.21    2.05
  -8   2 -55    2.64    3.08
  -2   8 -55   -2.05    3.73
   6   2  55   -5.18    5.19
  -6   8  58   59.10   13.92
  -8   6  58   48.17   12.64
  -8   2 -58   37.44    8.77
  -2   8 -58   42.27   11.20
   6   2  58   60.92   11.29
  -8   6  61    3.77    3.77
  -6   8  61    0.03    4.10
  -8   2 -61    0.96    3.21
  -2   8 -61   13.43    5.78
   6   2  61    0.68    3.95
  -6   8  64   49.38   13.28
  -8   6  64   39.09   11.94
   6   2  64   50.29   11.23
  -8   2 -64   22.79    6.88
  -2   8 -64   38.48   11.31
  -6   8  67    6.15    6.29
   6   2  67    7.98    2.89
  -8   6  67   13.28    7.74
  -2   8 -67    4.96    4.04
  -6   8  70    8.87    7.86
   6   2  70   12.61    6.47
  -8   6  70    8.42    6.87
   2   6 -70    4.20    6.43
  -2   8 -70   11.16    7.40
   6   2  73    6.96    6.71
   6   2  76   14.59    7.36
   6   2  79   -4.18    3.73
  -8   1  78    4.93    5.83
  -7  -1  78   13.45    8.24
  -8   1  75   -1.75    4.52
  -7  -1  75    7.58    7.22
   1   7  75   -0.67    3.85
  -8   7 -75    2.33    5.23
  -1   8  72   15.25    8.80
  -7  -1  72   -3.42    5.11
  -8   1  72    4.95    5.61
   1   7  72    0.88    5.41
  -7   8 -72    4.10    4.94
  -8   7 -72   -1.34    3.26
  -1   8  69    8.57    6.38
  -7  -1  69   -2.79    4.19
   1   7  69    4.13    3.81
  -8   1  69    2.10    3.25
  -7   8 -69   -1.09    3.16
  -8   7 -69    1.43    4.28
  -1   8  66   26.65    9.32
  -7  -1  66   24.90    8.70
   1   7  66   13.00    5.00
  -8   1  66   18.08    7.90
  -7   8 -66   16.89    8.92
  -8   7 -66    6.12    8.43
  -1   8  63   13.89    7.59
  -7  -1  63   -2.51    4.28
   1   7  63    4.85    5.12
  -8   1  63    5.71    5.87
  -7   8 -63    2.06    6.21
  -8   7 -63    0.69    4.96
  -1   8  60   28.52    9.32
  -7  -1  60   28.96    9.33
   1   7  60   37.12   10.03
  -8   1  60   33.79   10.71
  -7   8 -60   29.17    9.95
  -8   7 -60    7.64    9.06
  -1   8  57    1.19    3.42
  -7  -1  57    7.12    4.46
   1   7  57    7.67    4.72
  -8   1  57   -1.74    2.51
  -7   8 -57    4.75    4.71
  -8   7 -57    1.25    2.97
  -1   8  54   61.34   12.77
  -7  -1  54   62.62   12.48
   1   7  54   57.58   11.79
  -8   1  54   62.90   12.86
  -7   8 -54   41.54   10.52
  -8   7 -54   21.19   11.13
  -1   8  51   -0.01    3.07
  -7  -1  51   -0.06    2.04
   1   7  51   -0.82    3.23
  -8   1  51    5.34    4.63
  -7   8 -51    5.31    3.92
  -8   7 -51   -1.55    3.88
  -1  -7 -51    7.32    4.00
  -1   8  48   56.92   11.46
  -7  -1  48   34.03    7.98
   1   7  48   49.62   10.15
  -8   1  48   48.94   10.37
  -8   7 -48   66.57   12.27
  -7   8 -48   58.54   12.18
  -1  -7 -48   53.24    9.24
  -1   8  45    7.59    3.85
  -1   8  45    3.95    2.42
  -7  -1  45    9.79    4.79
   1   7  45   10.62    5.23
  -8   1  45    6.55    4.08
  -8   7 -45    7.97    5.47
  -7   8 -45    3.66    3.14
  -1  -7 -45    2.92    2.35
   1   7  42   80.11   12.83
  -1   8  42   89.38   14.01
  -8   1  42   52.39   10.49
  -7  -1  42   61.71   10.45
   1  -8 -42   72.50   11.57
  -7   8 -42   71.28   12.57
  -8   7 -42   75.95   12.65
  -1  -7 -42   69.88    9.94
  -1   8  42   73.47   10.79
  -1   8  39   -0.09    3.43
  -1   8  39   -5.65    3.83
  -8   1  39   -1.44    3.49
   1   7  39    1.99    3.62
  -7  -1  39    4.66    3.46
  -7   8 -39    2.15    4.24
  -8   7 -39    5.17    4.21
  -1  -7 -39    0.63    2.15
   1  -8 -39   -4.69    3.66
  -1   8  36   17.58    6.17
   1   7  36   11.81    3.82
   1   7  36   11.10    4.03
  -1   8  36   24.29    6.72
  -8   1  36    9.81    4.54
  -7  -1  36    8.48    3.54
  -8   7 -36   15.52    5.06
  -7   8 -36    6.69    4.51
  -1  -7 -36   14.98    4.39
   1  -8 -36   19.70    6.07
  -1   8  33   -2.05    2.77
   8  -1 -33   -2.88    2.42
   7   1 -33    0.87    2.47
   1   7  33   -0.68    1.91
   1   7  33    0.14    2.24
  -1   8  33    0.96    1.71
  -8   1  33   -4.80    3.83
  -7  -1  33    1.94    2.23
  -7   8 -33   -1.57    2.97
  -8   7 -33   -3.39    3.03
   1  -8 -33    3.13    3.29
  -1  -7 -33    2.18    1.71
   8  -1 -30    3.20    2.94
   1   7  30    0.94    2.56
  -1   8  30    2.73    2.68
  -1   8  30    2.23    3.04
   7   1 -30   -0.98    2.44
  -8   1  30    0.42    1.67
   1   7  30   -1.14    2.22
  -7  -1  30   -1.64    1.69
  -7   8 -30   -0.43    1.83
  -8   7 -30   -1.17    2.47
   1  -8 -30    0.53    2.24
  -1  -7 -30    2.21    2.03
  -1   8  27   -2.81    2.37
   8  -1 -27   -2.81    3.03
  -1   8  27   -0.32    1.70
   1   7  27    0.21    2.45
   7   1 -27   -2.08    1.84
   1   7  27   -0.99    1.96
  -8   1  27    1.99    2.26
  -7  -1  27   -1.57    1.39
  -1  -7 -27    2.89    2.08
   8  -7  27   -4.36    3.38
  -7   8 -27   -1.35    2.68
  -8   7 -27   -2.14    3.17
   1  -8 -27    1.11    2.02
   8  -1 -24   -0.34    1.87
   1   7  24    4.24    2.75
   7   1 -24   -3.41    3.22
  -8   1  24    2.22    1.90
   1   7  24    1.22    1.41
  -7  -1  24    2.43    2.40
   8  -7  24    2.36    2.47
  -1  -7 -24    2.32    1.91
   1  -8 -24    4.69    3.06
  -8   7 -24    1.63    3.07
  -1   8  24    0.02    1.89
  -7   8 -24   -2.64    2.44
  -8   1  21    2.09    1.83
   7   1 -21    6.62    3.63
   1   7  21    5.11    2.63
  -7  -1  21    3.78    2.10
  -1  -7 -21    4.16    2.76
   1  -8 -21    3.58    1.95
   8  -7  21    1.29    2.27
   8  -1 -21    4.64    2.54
   1   7  21    1.03    1.30
  -8   7 -21    4.03    2.46
  -7   8 -21    6.18    3.04
  -1   8  21    4.18    2.95
  -7  -1  18   58.46    6.47
   1   7  18   60.56    8.24
  -8   1  18   43.41    6.83
   7  -8  18   65.87   10.91
   8  -7  18   62.48   10.14
  -7   8 -18   62.79   10.22
  -1  -7 -18   53.50    7.61
  -8   7 -18   60.34    9.64
   1  -8 -18   54.62    8.61
  -1   8  18   61.37    9.03
   8  -1 -18   41.89    7.31
   7   1 -18   49.11    7.75
   1   7  18   59.04    7.70
  -8   1  15    0.74    1.90
   7   1 -15    1.66    1.80
  -7  -1  15   -0.18    0.89
   7  -8  15   -0.18    2.49
   8  -7  15   -1.79    2.80
  -1  -7 -15   -4.56    3.35
   1  -8 -15   -0.79    1.91
  -8   7 -15    3.34    1.76
  -1   8  15   -5.58    3.65
  -7   8 -15   -0.22    1.75
   8  -1 -15    4.04    2.72
   1   7  15   -5.18    3.39
  -7  -1  12   93.39    6.51
  -8   7 -12  122.66   13.54
  -1  -7 -12  134.94   11.98
   7  -8  12  114.46   13.56
   8  -7  12  129.02   14.37
   1   7  12  124.15   10.75
  -1   8  12  125.77   12.50
   1  -8 -12  133.44   13.63
  -7   8 -12  125.10   14.18
   7   1 -12  100.15    9.41
   8  -1 -12  125.52   11.65
   7   1  -9    6.59    2.57
  -7  -1   9    0.58    0.77
   1  -8  -9    2.76    2.04
   7  -8   9   -2.94    4.19
  -1  -7  -9   -2.50    2.30
   8  -7   9    1.65    2.15
  -7   8  -9   -3.60    2.87
   8  -1  -9    2.09    1.54
  -8   7  -9   -3.95    3.32
   1   7   9    0.83    1.94
  -1   8   9   -2.80    3.28
   8  -1  -6   42.22    6.00
   1  -8  -6   42.68    7.45
  -1   8   6   43.66    7.00
   8  -7   6   31.09    5.99
   7  -8   6   55.11    9.52
  -1  -7  -6   44.23    7.02
   1   7   6   46.40    6.33
  -7   8  -6   30.57    6.11
  -8   7  -6   45.16    8.36
   7   1  -6   29.86    4.24
   7  -8   3    5.55    2.20
  -1  -7  -3   11.13    3.50
   1  -8  -3   17.37    5.52
   8  -7   3    1.14    3.54
  -8   7  -3   14.92    4.99
   1   7   3   -0.64    3.28
  -1   8   3   16.14    4.48
   8  -1  -3    5.25    1.07
  -7   8  -3    8.56    2.69
   7   1  -3   13.65    2.98
  -1  -7   0  311.54   19.45
   1   7   0  286.08   16.65
   1  -8   0  312.99   21.36
  -1   8   0  284.22   18.65
  -7   8   0  310.37   22.29
   8  -1   0  275.02   13.28
   7  -8   0  306.21   22.09
   8  -7   0  290.08   20.72
   7   1   0  226.44    9.47
  -8   7   0  305.42   21.89
   7  -8  -3   -9.76    3.43
   1   7  -3   -3.94    2.05
   1  -8   3  -21.39    5.99
   8  -1   3   -4.51    2.14
  -1   8  -3  -10.53    4.17
   8  -7  -3   -3.16    1.98
   7   1   3    2.02    0.98
  -7   8   3    5.07    5.53
  -8   7   3  -15.10    5.16
   1  -8   6  191.97   16.86
   8  -7  -6  192.98   17.04
   8  -1   6  139.47    8.35
   1   7  -6  179.28   13.78
  -1   8  -6  188.59   15.47
   7  -8  -6  194.40   17.57
  -8   7   6  202.22   18.19
  -7   8   6  201.22   18.45
  -8   1  -9   -3.01    1.46
  -7  -1  -9   -1.80    1.13
  -8   1  -9   -6.44    2.95
   1   7  -9   -4.85    3.05
   1  -8   9   -6.02    4.01
   8  -1   9   -0.18    1.38
  -1   8  -9    2.12    2.33
   7  -8  -9    1.64    3.49
   8  -7  -9   -3.16    3.55
  -8   7   9    1.08    1.86
  -7   8   9   -6.73    4.09
  -8   1 -12   10.60    2.10
  -7  -1 -12   10.31    2.23
  -8   1 -12   11.72    1.80
   1   7 -12   14.66    3.76
   1  -8  12   15.51    4.64
   8  -1  12    8.46    1.85
   1   7 -12   12.40    3.88
  -1   8 -12   12.69    4.29
  -7   8  12   13.54    4.64
  -8   7  12   10.88    4.42
   7  -8 -12   15.68    5.30
   8  -7 -12   12.94    4.45
  -8   1 -15    5.96    1.42
  -7  -1 -15   16.03    2.97
   1   7 -15   15.30    3.26
  -8   1 -15   13.63    2.56
  -1   8 -15   16.29    5.10
   1   7 -15   14.37    4.43
   7  -8 -15   23.80    6.10
  -8   7  15   15.11    4.95
   8  -7 -15   19.51    5.92
  -7   8  15   19.11    6.14
  -7  -1 -18   89.60    7.93
  -8   1 -18   92.48    9.73
  -1   8 -18   72.40   10.80
   1   7 -18   84.80    9.64
   8  -7 -18   95.08   12.82
  -1   8 -18  102.15   12.65
   1   7 -18   88.67   11.13
  -7   8  18  102.02   13.68
  -8   1 -18   82.09    6.10
  -8   7  18  104.67   14.00
  -8   7  21    8.71    4.71
  -7  -1 -21    6.43    3.03
  -8   1 -21    7.04    2.77
  -1   8 -21    3.63    3.56
   1   7 -21    0.15    1.43
   1   7 -21    3.57    2.63
  -1   8 -21    7.71    4.19
  -7   8  21    0.41    2.32
  -8   1 -21    1.45    1.15
  -7   8  24   -2.67    3.12
  -8   7  24    3.23    3.78
  -7  -1 -24    2.13    2.13
  -8   1 -24    1.15    1.99
   1   7 -24    0.50    2.29
  -1   8 -24   -0.54    2.19
  -1   8 -24    4.82    3.16
   1   7 -24   -4.58    4.45
  -8   1 -24    1.60    1.44
  -7   8  27   14.18    5.70
  -7  -1 -27    7.16    2.70
  -8   7  27    8.08    4.27
   1   7 -27    8.91    3.73
  -1   8 -27   10.88    4.49
  -8   1 -27    3.21    2.16
  -1   8 -27   10.53    4.75
   1   7 -27    4.30    1.84
  -8   1 -27    7.15    2.16
  -8   7  30    6.59    3.98
  -7   8  30    4.07    3.37
  -7  -1 -30    6.78    2.92
  -1   8 -30    4.90    2.83
   1   7 -30    3.26    1.65
  -8   1 -30    3.54    2.39
  -1   8 -30    2.80    3.48
   1   7 -30    5.52    3.42
  -8   1 -30    6.35    1.74
  -7   8  33   38.89    9.11
  -8   7  33   35.81    8.87
  -7  -1 -33   35.12    6.71
  -8   1 -33   32.80    7.20
  -1   8 -33   34.02    7.60
   1   7 -33   21.68    5.81
  -1   8 -33   32.15    8.22
   1   7 -33   24.57    6.84
  -8   1 -33   24.02    4.58
  -7  -1 -36    8.35    3.74
  -7   8  36    4.34    3.70
  -8   7  36    0.78    2.36
  -8   1 -36    5.16    3.89
  -1   8 -36    3.71    3.29
   1   7 -36    7.05    3.76
   1   7 -36    6.03    4.03
  -1   8 -36    4.85    3.96
  -8   1 -36    3.83    1.81
  -8   7  39   40.19    9.70
  -7   8  39   56.62   11.78
  -8   7  39   52.74   11.55
  -7  -1 -39   39.22    7.56
  -8   1 -39   42.53    8.96
   1   7 -39   39.84    9.58
   1   7 -39   38.53    9.30
  -8   1 -39   38.26    5.51
  -7  -1 -39   18.80    2.36
  -1   8 -39   43.93    9.92
  -7  -1 -39   18.31    2.36
   1   7 -42   68.64   12.27
  -7  -1 -42   82.36   11.92
  -7   8  42   87.98   14.59
  -8   7  42   81.41   13.72
  -8   1 -42   74.68   11.76
   1   7 -42   77.42   13.18
  -8   1 -42   67.40    7.33
  -1   8 -42   46.19    9.71
  -7  -1 -42   42.30    3.74
  -7  -1 -42   62.31    5.66
  -8   7  42  100.42   15.68
  -7   8  42   85.59   14.04
  -7  -1 -45    2.77    2.61
  -7  -1 -45    2.72    1.82
  -8   7  45   -1.24    3.83
  -7   8  45   12.56    6.19
  -7   8  45    3.14    2.44
  -8   7  45    7.71    4.21
  -8   1 -45    7.97    2.47
   1   7 -45    5.31    3.39
  -7  -1 -45    5.11    2.05
  -1   8 -45    0.53    2.91
  -7  -1 -48   40.30    8.43
  -7   8  48   60.61   12.82
  -7   8  48   59.34   11.57
  -8   7  48   48.29   11.59
  -7  -1 -48   39.26    4.77
  -8   1 -48   46.06    6.84
   1   7 -48   27.40    6.36
  -1   8 -48   38.00    9.80
  -8   7  51    1.39    3.59
  -7   8  51    3.23    2.89
  -7   8  51   -2.18    3.19
  -7  -1 -51   -0.23    1.80
   1   7 -51    7.27    5.54
  -1   8 -51    1.55    3.94
  -8   1 -51    1.56    1.42
   7   1  51   -1.92    3.58
  -7   8  54   69.91   14.32
  -8   7  54   80.34   15.54
  -8   1 -54   41.10    8.75
   1   7 -54   55.13   11.93
  -1   8 -54   75.32   14.42
   7   1  54   91.59   13.55
  -7   8  57    8.36    5.05
  -8   7  57    5.46    4.20
   1   7 -57    7.80    5.74
  -8   1 -57    4.93    3.71
  -1   8 -57    5.61    4.45
   7   1  57    3.28    3.38
  -7   8  60   19.30    7.69
  -8   7  60   11.50    6.01
   1   7 -60   12.64    7.62
  -1   8 -60   23.33    9.02
   7   1  60   16.82    6.72
  -8   7  63   -3.13    4.78
  -7   8  63    2.66    2.93
   1   7 -63    6.28    6.03
  -1   8 -63    9.32    6.81
   7   1  63   -6.52    5.70
  -7   8  66   32.51   10.49
  -8   7  66   24.25    9.77
   1   7 -66   29.19   10.30
  -1   8 -66   37.89   11.11
   7   1  66   33.13    7.40
   1   7 -69   -0.04    5.82
  -1   8 -69    5.63    6.87
  -7   8  69    1.66    3.67
  -8   7  69   -0.74    3.57
   7   1  69   -1.04    4.77
   7   1  72    1.82    4.86
   7   1  75   -1.72    3.81
   7   1  78    4.59    5.73
  -8   0  76    5.60    4.51
  -8   8 -73    0.66    4.39
  -8   0  73    0.32    2.91
   0   8  73   -2.55    4.32
  -8   8 -70    0.94    6.89
  -8   0  70    3.56    2.99
   0   8  70    9.95    7.39
  -8   8 -67    4.20    7.34
  -8   0  67   10.03    7.49
   0   8  67    1.39    5.44
  -8   8 -64   11.77   11.86
  -8   0  64   29.14   10.20
   0   8  64   44.71   11.85
  -8   8 -61    1.97    3.25
  -8   0  61    4.06    4.09
   0   8  61   -1.43    3.49
  -8   8 -58   21.37   17.63
   0   8  58    4.76    3.23
  -8   0  58    6.33    4.49
  -8   8 -55   -3.85    5.13
   0   8  55   -0.66    2.88
  -8   0  55   -5.34    4.21
  -8   8 -52    4.29    5.68
   0   8  52   -0.38    3.09
  -8   0  52  -21.77   41.46
  -8   8 -49   -8.66    5.02
   0   8  49   -7.19    5.45
  -8   0  49    3.86    4.68
   0   8  46  115.13   16.10
  -8   0  46  127.17   16.77
  -8   8 -46  108.21   15.78
   0  -8 -46  114.03   14.69
   0   8  43   -1.73    2.34
   0   8  43   -1.10    1.78
  -8   0  43    1.29    2.30
  -8   8 -43   -0.06    2.83
   0  -8 -43   -3.23    4.05
   0   8  40   41.09    9.33
   0   8  40   44.92    8.23
  -8   0  40   42.82    8.81
  -8   8 -40   35.74    9.12
   0  -8 -40   34.95    7.69
   0   8  37   -2.96    3.71
   0   8  37   -2.95    3.71
  -8   0  37    2.99    3.02
  -8   8 -37   -2.85    2.85
   0  -8 -37    5.06    3.20
   0   8  34    3.57    2.12
   0   8  34    0.05    2.25
  -8   0  34   -1.82    2.01
  -8   8 -34    1.67    3.24
   0  -8 -34   -2.00    1.83
   8   0 -31    0.69    1.73
   0   8  31   -1.32    2.12
   0   8  31   -3.24    3.01
  -8   0  31    1.77    2.47
  -8   8 -31   -1.45    2.06
   0  -8 -31    1.67    1.88
   0   8  28    3.01    1.92
   8   0 -28   -0.52    2.39
   0   8  28    0.00    2.52
  -8   0  28    3.74    3.04
   0  -8 -28    1.91    2.86
  -8   8 -28   -1.64    3.05
   0   8  25   -2.25    3.30
   8   0 -25    2.15    3.23
   0   8  25    0.43    2.64
  -8   0  25    0.01    1.92
   0  -8 -25   -3.97    3.27
  -8   8 -25   -1.06    2.86
  -8   0  22   83.52    9.69
  -8   8 -22   83.67   12.51
   0  -8 -22   81.31   10.44
   8   0 -22   83.69   10.78
   0   8  22   76.85    9.76
   8   0 -19    1.86    2.37
  -8   0  19    0.21    1.28
   0  -8 -19   -4.67    3.49
   0   8  19   -0.95    1.90
  -8   8 -19   -1.59    1.78
  -8   0  16    4.00    2.23
   0  -8 -16   10.62    3.25
  -8   8 -16    3.20    3.06
   8   0 -16    7.64    3.37
   0   8  16    9.36    3.56
  -8   0  13    0.25    1.65
   0  -8 -13   -5.22    3.40
   8  -8  13   -2.95    3.26
   8   0 -13    2.72    2.00
   0   8  13   -0.63    1.61
  -8   8 -13   -7.05    3.90
  -8   0  10   45.00    5.71
   0  -8 -10   56.63    8.60
   8  -8  10   71.45   11.39
   0   8  10   47.80    7.11
   8   0 -10   53.12    7.11
  -8   8 -10   45.93    8.48
  -8   0   7    2.06    3.97
   0  -8  -7  -15.90    4.62
   8  -8   7    1.13    3.34
   8   0  -7   -1.05    2.10
   0   8   7   -9.55    3.99
  -8   8  -7   -8.43    4.71
   0  -8  -4  213.71   17.05
  -8   8  -4  231.86   19.85
   8   0  -4  207.11   12.00
   8  -8   4  208.50   18.28
   0   8   4  218.32   15.76
   0  -8  -1  -18.01    5.18
   0   8   1   -9.15    3.76
   8   0  -1    0.22    1.27
  -8   8  -1    5.75    5.09
  -8   0  -2  157.59    8.24
   0  -8   2  176.40   16.00
   8   0   2  139.24    7.90
   0   8  -2  174.03   14.42
   8  -8  -2  168.35   16.58
  -8   8   2  189.24   18.33
  -8   0  -5   -2.88    2.85
   0  -8   5  -12.26    5.48
   8   0   5    2.18    1.19
   0   8  -5   -4.20    2.82
  -8   8   5   -4.63    2.25
   8  -8  -5   -1.08    2.52
  -8   0  -8    5.19    1.65
   8   0   8    0.96    0.92
   0   8  -8    1.66    2.00
  -8   8   8   -3.90    4.00
  -8   0 -11   -4.36    2.57
   0   8 -11    1.09    1.97
  -8   8  11   -2.74    3.10
  -8   0 -14   45.55    5.54
   0   8 -14   39.12    7.25
   0   8 -14   51.10    8.67
  -8   8  14   70.44   11.55
   0   8 -17   -5.70    2.92
  -8   0 -17   -1.68    1.40
   0   8 -17   -1.77    2.64
  -8   8  17   -2.45    3.03
  -8   8  20   33.85    8.08
   0   8 -20   30.68    7.32
  -8   0 -20   28.42    5.26
   0   8 -20   37.80    6.98
  -8   8  23   -1.14    2.62
   0   8 -23    1.38    2.59
   0   8 -23   -1.22    2.34
  -8   0 -23    1.03    1.95
  -8   8  26   20.53    6.72
   0   8 -26    8.03    4.15
  -8   0 -26    6.31    3.54
   0   8 -26    4.96    3.03
  -8   8  29   -3.13    2.81
   0   8 -29   -3.85    3.90
  -8   0 -29   -0.76    1.85
   0   8 -29    0.04    1.92
  -8   8  32    5.29    3.86
  -8   0 -32    2.34    2.16
   0   8 -32    3.85    2.58
   0   8 -32    3.60    2.05
  -8   0 -35    0.50    0.96
  -8   8  35   -1.11    2.70
  -8   0 -35   -1.86    3.47
   0   8 -35   -5.81    4.44
   0   8 -35  -13.99    6.41
  -8   0 -35    0.18    0.86
  -8   0 -38    3.86    1.36
  -8   8  38   10.16    4.63
   0   8 -38   -1.79    3.17
  -8   0 -38    7.66    2.00
   0   8 -38   -2.85    5.17
  -8   0 -38    2.92    0.83
  -8   8  41  -10.71    6.41
  -8   0 -41    2.02    1.74
  -8   8  41   -5.18    4.09
  -8   0 -41   -2.18    3.05
   0   8 -41   -6.50    4.80
  -8   0 -41    0.89    1.18
  -8   0 -44   95.55   13.26
  -8   8  44  111.91   16.98
   0   8 -44   97.19   15.50
  -8   0 -44   79.34    6.71
  -8   8  44  116.53   17.37
  -8   8  47   -5.54    5.60
  -8   8  47    1.55    2.14
   0   8 -47   -1.23    3.00
  -8   0 -47   -0.08    1.40
  -8   8  50  115.48   16.15
  -8   8  50  142.79   19.97
   0   8 -50  118.90   18.05
  -8   8  53   13.13    7.75
   0   8 -53    2.81    4.27
  -8   8  56   -8.95    7.44
   0   8 -56   -2.53    4.11
  -8   8  59   -6.71    9.80
   0   8 -59   -2.42    4.00
  -8   8  62   44.93   13.01
   0   8 -62   32.50   11.09
  -8   8  65    8.08    6.26
   0   8 -65    1.28    3.01
  -5  -4  80   15.01    8.75
  -5  -4  77    3.44    3.99
   4   5  77   -4.57    4.80
  -9   5 -74    1.35    3.77
  -5  -4  74   -2.06    5.35
   4   5  74    4.95    4.41
  -9   5 -71    8.34    6.50
  -5  -4  71    0.57    4.17
  -9   4  71    2.65    4.63
   4   5  71    8.92    4.42
  -5   9 -68   39.38   12.26
  -9   5 -68   24.14   10.65
  -4   9  68   55.39   14.36
  -5  -4  68   49.86   12.17
  -9   4  68   39.70   13.93
   4   5  68   51.71   12.88
  -5   9 -65    5.35    6.45
  -9   5 -65    3.46    5.02
  -4   9  65    0.47    4.64
  -5  -4  65   -1.50    3.87
  -9   4  65    3.49    5.49
   4   5  65   -1.68    3.71
  -4   9  62   -3.72    3.24
  -5   9 -62   -5.20    3.76
  -9   5 -62   -2.33    4.65
  -5  -4  62   -1.55    2.65
  -9   4  62    4.89    4.89
   4   5  62    2.42    3.15
  -4   9  59    9.34    5.15
  -5   9 -59   11.50    6.49
  -9   5 -59    0.91    3.44
  -9   4  59    0.90    3.31
  -5  -4  59   12.05    4.85
   4   5  59    9.06    4.93
  -4   9  56    7.50    4.47
  -9   5 -56    1.68    2.36
  -5   9 -56    8.62    6.52
  -9   4  56    6.53    6.36
  -5  -4  56    8.38    4.34
   4   5  56    5.20    3.34
  -4   9  53    7.96    6.13
  -4   9  53    5.69    3.49
  -9   5 -53   11.09    5.43
  -5   9 -53   14.54    6.25
  -9   4  53    9.45    5.22
  -5  -4  53    8.38    4.04
   4   5  53    9.96    6.21
   5   4 -50    8.42    4.72
  -4   9  50   10.42    5.97
  -9   4  50   12.60    6.46
  -4   9  50    9.15    4.39
  -5   9 -50    7.64    5.00
  -9   5 -50   11.10    5.62
  -5  -4  50   15.34    5.29
   4   5  50   11.12    4.86
  -9   4  47   -2.79    3.60
   5   4 -47   -0.49    2.44
  -4   9  47    1.62    3.50
  -4   9  47    3.91    3.80
   4   5  47   10.52    4.69
  -5  -4  47    7.42    4.22
  -5   9 -47    3.43    3.29
  -9   5 -47    2.34    4.55
  -4   9  44   39.15    9.34
   5   4 -44   19.35    5.91
  -4   9  44   28.36    8.53
  -9   4  44   26.28    7.78
   4   5  44   36.32    8.21
  -5  -4  44   31.11    6.87
  -9   5 -44   18.47    6.81
  -5   9 -44   29.68    8.96
  -4  -5 -44   26.29    5.10
  -9   4  41    2.44    2.99
  -4   9  41    6.42    3.32
  -4   9  41   11.82    5.36
   5   4 -41   -1.46    3.46
   4   5  41    7.56    4.80
  -5  -4  41    5.74    2.70
  -5   9 -41   12.30    5.77
  -9   5 -41    5.63    4.57
  -4  -5 -41    5.08    2.14
   5   4 -38   39.60    7.12
  -4   9  38   65.87   12.22
  -9   4  38   57.41   11.17
   4   5  38   64.56    9.80
  -5  -4  38   66.78    9.06
  -4  -5 -38   48.56    5.33
  -5   9 -38   60.79   12.01
  -9   5 -38   54.37   10.76
  -4   9  38   74.62   12.12
  -4   9  35    1.14    3.00
   5   4 -35    9.06    4.22
  -9   4  35    7.42    4.29
  -5  -4  35    2.65    1.85
   4   5  35    3.92    3.16
  -4  -5 -35    2.82    1.47
  -5   9 -35   -5.71    4.60
  -9   5 -35    9.55    3.87
  -4   9  32    4.11    2.87
   5   4 -32    3.38    2.05
  -9   4  32    4.45    3.00
   4   5  32    5.22    3.00
  -5   9 -32    0.41    2.68
  -4  -5 -32    5.49    1.81
  -9   5 -32    5.35    2.74
  -4   9  29   -0.33    2.11
   4   5  29   -2.98    1.49
  -9   5 -29    1.43    2.63
  -5   9 -29   -1.39    2.52
  -4  -5 -29    1.16    1.02
  -9   5 -29   -0.05    2.35
   4   5  26   80.97    9.21
  -9   5 -26   89.62   11.52
   9  -5  26   78.66   10.45
  -9   5 -26   87.49   10.86
  -5   9 -26   74.36   12.13
  -9   4  26   69.51   10.12
   9  -4 -26   83.31   12.09
  -4   9  26   77.34   11.43
  -9   4  23    2.24    2.48
   4   5  23    5.40    2.45
  -9   5 -23    1.79    3.58
  -5   9 -23   -0.63    3.02
   9  -5  23   -3.68    3.33
   4  -9 -23    0.47    2.58
  -9   5 -23   -5.54    3.02
   9  -4 -23    0.85    2.00
  -4   9  23   -1.24    2.52
   4   5  20  136.45   10.25
   4  -9 -20  142.66   15.88
  -9   5 -20  129.40   13.09
   9  -5  20  120.78   12.27
  -5   9 -20  140.01   15.76
   9  -4 -20  126.21   13.86
  -9   4  20  168.35   17.47
  -4   9  20  161.85   16.52
  -9   4  17   16.65    5.02
   4   5  17   11.93    2.32
   9  -5  17   15.64    4.35
   9  -4 -17   15.07    4.60
  -5   9 -17   21.30    6.19
   4  -9 -17   21.36    6.33
  -9   5 -17    8.72    3.83
  -4   9  17   17.68    5.30
   4   5  14   26.74    3.14
   5   4 -14   49.59    7.39
  -5   9 -14   57.42    9.87
   9  -5  14   44.27    7.14
   9  -4 -14   58.67    8.83
   4  -9 -14   61.80   10.05
  -9   5 -14   55.22    8.42
  -4   9  14   55.68    9.48
  -9   4  14   68.78   10.43
   4   5  14   26.45    2.53
  -9   4  11   13.36    4.43
   4   5  11    3.53    1.02
   4  -9 -11    8.13    3.86
   5   4 -11   11.33    3.05
   9  -5  11    3.53    2.14
  -4   9  11   10.07    3.67
  -5   9 -11   12.11    4.53
   4   5  11    2.75    1.02
   9  -4 -11    9.82    3.59
  -9   5 -11   12.15    4.35
  -9   4   8   21.85    5.86
   5  -9   8   23.24    6.29
   9  -5   8   20.47    5.34
   5   4  -8   15.61    3.58
   4  -9  -8   18.09    5.28
  -4   9   8   18.57    4.98
  -5   9  -8   22.76    6.07
  -9   5  -8   17.75    5.03
   9  -4  -8   21.72    5.24
   4   5   8   17.45    2.56
  -9   4   5   -2.70    2.80
   4  -9  -5   -1.28    2.74
   9  -5   5   -4.44    3.82
   5  -9   5   -3.50    4.27
   5   4  -5    2.15    1.60
   9  -4  -5   -1.06    2.20
   4   5   5   -1.57    1.25
  -5   9  -5   -4.13    3.53
  -4   9   5   -6.35    4.09
  -9   5  -5   -3.00    2.75
  -9   4   2   38.78    7.17
   5   4  -2   22.90    3.31
   5  -9   2   37.38    8.22
   4  -9  -2   33.23    7.03
   4   5   2   25.74    3.71
   9  -5   2   34.17    6.40
   9  -4  -2   26.34    5.39
  -9   5  -2   44.16    8.28
  -5   9  -2   26.34    6.00
  -4   9   2   33.39    7.47
   5   4   1    1.09    1.18
   4   5  -1    1.16    0.92
   4  -9   1   -3.07    3.42
   5  -9  -1   -0.04    1.78
  -9   4  -1   -2.35    2.95
   9  -4   1   -3.33    2.51
  -9   5   1   -7.42    3.65
  -4   9  -1    3.60    1.84
  -5   9   1   -3.63    3.52
   9  -5  -1   -4.20    3.02
   9  -4   4   30.34    5.60
   4  -9   4   31.04    7.39
   4   5  -4   32.79    4.97
   5  -9  -4   34.57    7.38
   5   4   4   13.55    1.61
   9  -5  -4   31.51    6.48
  -9   4  -4   27.72    5.85
  -4   9  -4   33.70    7.07
  -9   5   4   33.73    7.01
  -5   9   4   31.29    7.24
  -9   5   7   12.54    4.51
   4   5  -7    7.84    2.32
   9  -4   7    5.20    2.12
   5  -9  -7    7.23    2.75
   4  -9   7   17.27    5.56
  -5   9   7   13.22    4.72
  -9   4  -7   13.78    4.29
   9  -5  -7   10.15    3.30
  -4   9  -7    7.50    3.80
   4   5 -10    4.93    1.18
  -9   5  10   20.44    5.40
   4  -9  10   18.51    5.92
   9  -4  10   12.31    3.30
   4   5 -10   22.39    4.75
   5  -9 -10   20.83    5.82
  -4   9 -10   12.25    4.45
   9  -5 -10   15.66    4.31
  -5   9  10   12.79    4.11
  -9   4 -10   10.37    2.96
   4   5 -13   38.52    3.68
   4   5 -13   60.57    8.04
   4  -9  13   72.70   11.76
   9  -4  13   59.08    7.66
   9  -5 -13   65.89    9.64
   5  -9 -13   85.63   12.52
  -4   9 -13   78.36   11.46
  -9   4 -13   63.22    8.51
  -9   5  13   75.62   11.06
  -5   9  13   81.11   11.89
  -9   5  16   36.17    7.73
   4   5 -16   15.50    2.40
   4   5 -16   28.40    5.88
  -4   9 -16   39.19    7.97
   9  -4  16   29.93    5.78
  -9   4 -16   23.48    5.11
   5  -9 -16   30.73    7.81
   9  -5 -16   28.95    6.58
  -5   9  16   34.07    7.85
  -9   5  19    9.56    4.42
   4   5 -19    1.72    1.08
  -9   4 -19    2.19    1.57
   5   4  19    7.12    2.02
   4   5 -19    4.20    3.02
   9  -4  19    1.88    1.56
  -4   9 -19    0.95    2.37
   9  -5 -19   -2.92    3.19
  -5   9  19    4.43    2.72
  -9   4 -19    1.67    2.13
   4   5 -22   28.65    4.07
  -9   4 -22   69.60    9.91
   5   4  22   55.65    6.19
   9  -4  22   48.34    7.25
   4   5 -22   49.31    8.85
  -9   4 -22   47.32    7.42
  -4   9 -22   49.71    9.32
   9  -5 -22   51.65    9.49
  -5   9  22   53.66    9.95
  -9   5  22   66.53   11.06
   4   5 -25   -0.93    1.70
  -9   5  25    0.01    1.98
   5   4  25    0.73    1.91
  -9   4 -25    1.56    2.37
   9  -4  25    0.84    1.55
   4   5 -25    2.97    3.61
  -4   9 -25   -0.22    2.88
  -9   4 -25   -1.32    1.67
  -5   9  25    0.23    2.49
   4   5 -28  104.83   10.23
   5   4  28  147.40   11.76
  -9   4 -28  142.46   14.83
  -4   9 -28  144.76   16.83
  -9   4 -28  149.41   13.59
  -9   5  28  164.97   18.57
  -5   9  28  155.51   17.19
  -9   5  31    3.59    3.62
  -5   9  31    7.31    5.06
   4   5 -31    4.03    2.30
  -9   4 -31   10.14    4.60
   5   4  31    3.84    2.22
  -4   9 -31    3.77    2.91
  -9   4 -31    3.84    2.50
   4   5 -34    2.03    2.21
  -5   9  34    3.28    2.04
  -9   5  34   -6.56    4.37
  -9   5  34    1.41    2.06
   5   4  34    2.45    2.81
  -4   9 -34   -2.32    3.29
  -9   4 -34    1.78    1.90
  -5   9  37   16.98    6.20
  -9   5  37    4.35    2.71
   4   5 -37    5.10    2.50
   5   4  37   12.10    3.65
  -4   9 -37    8.00    4.11
  -9   4 -37   18.86    5.24
  -5   9  40  188.70   21.44
  -9   5  40  188.19   20.91
   4   5 -40  124.23   14.11
   5   4  40  206.16   18.36
  -4   9 -40  191.76   21.83
  -5  -4 -40  118.13    6.44
  -9   4 -40  199.12   16.69
  -5   9  40  202.81   20.86
  -9   5  43    4.59    3.93
  -5   9  43   12.63    6.80
  -5   9  43   10.23    4.94
   4   5 -43   -4.11    4.22
   5   4  43    7.86    3.96
  -4   9 -43   12.05    6.20
  -9   4 -43    8.21    4.32
  -5  -4 -43    8.58    2.16
  -9   5  46    4.28    3.68
  -5   9  46   18.01    7.06
   4   5 -46    3.99    4.26
  -5   9  46   13.55    6.53
  -9   4 -46    5.13    4.46
  -4   9 -46   15.33    6.34
   5   4  46   13.09    4.55
   4   5 -49   -2.31    4.22
  -5   9  49   -1.90    3.85
  -9   5  49    3.39    3.64
  -5   9  49    3.79    2.96
  -4   9 -49  -10.38    5.61
  -9   4 -49   -0.70    2.37
   5   4  49    4.50    2.35
  -5   9  52   22.58    7.83
  -9   5  52   17.92    7.97
  -5   9  52   14.84    5.53
  -4   9 -52   23.92    8.21
  -9   4 -52    8.85    5.32
   5   4  52   19.72    6.34
  -4  -5  52   10.13    4.10
  -9   5  55    7.54    4.42
  -5   9  55    1.78    3.94
  -4   9 -55    2.48    3.35
  -9   4 -55    3.73    4.19
  -4  -5  55    9.28    5.76
   5   4  55    3.27    4.34
  -9   5  58    8.74    6.41
  -5   9  58   -2.13    4.11
  -4   9 -58    5.16    5.52
  -9   4 -58    2.28    2.62
  -4  -5  58    6.32    4.63
   5   4  58    7.11    3.88
  -5   9  61    6.37    6.21
  -4   9 -61   13.80    7.04
  -9   4 -61    4.21    3.71
  -9   5  61    6.36    4.79
  -4  -5  61    9.52    5.73
   5   4  61    1.09    4.16
  -5   9  64    8.47    5.80
  -4   9 -64   30.31    9.62
  -9   4 -64   12.38    6.29
   5   4  64    8.92    5.45
  -9   5  64    2.34    5.59
  -4  -5  64   13.95    6.50
  -9   4 -67    1.34    4.71
  -4   9 -67    3.30    3.90
  -5   9  67    6.35    6.18
   5   4  67   -2.53    4.21
  -4  -5  67   -7.55    6.26
  -9   5  67    3.42    4.78
   5   4  70   31.68    9.48
  -9   5  70   29.45   12.07
  -4  -5  70   36.29   11.10
   5   4  73   17.19    8.17
  -4  -5  73   10.49    8.02
   5   4  76   10.55    7.39
  -4  -5  76    9.10    6.47
  -4  -5  79   24.29   12.88
   5   4  79   11.54    7.30
  -9   6 -78    0.92    4.84
   3   6  78   15.56    8.08
  -6  -3  78    7.26    4.44
  -9   6 -75   -0.30    4.47
   3   6  75    0.44    3.70
  -6  -3  75    3.24    5.41
  -9   6 -72   -0.26    5.13
   3   6  72   26.58    9.53
  -9   3  72   36.39   13.18
  -6  -3  72   34.57   12.13
  -6   9 -69    3.85    4.39
  -9   6 -69    0.48    2.61
  -3   9  69    4.20    5.66
   3   6  69   -1.24    2.65
  -9   3  69    2.48    3.75
  -6  -3  69    4.76    2.77
  -6   9 -66   11.80    8.38
  -9   6 -66    1.95    5.39
  -3   9  66    9.42    6.19
   3   6  66    3.65    5.70
  -9   3  66    7.67    6.82
  -6  -3  66   15.67    7.34
  -6   9 -63   -0.64    3.85
  -9   6 -63   -1.41    3.39
  -3   9  63    2.12    3.21
   3   6  63    0.77    4.00
  -9   3  63   11.97    8.42
  -6  -3  63   -2.65    3.48
  -3   9  60   24.25    9.11
  -6   9 -60   14.44    7.52
  -9   6 -60    7.78    6.03
   3   6  60   25.30    7.70
  -9   3  60   15.33    7.76
  -6  -3  60    6.59    5.22
  -3   9  57   -0.82    2.92
  -9   6 -57    1.77    3.82
  -6   9 -57    4.25    4.58
  -9   3  57   -4.84    5.14
  -6  -3  57    1.18    2.91
   3   6  57   -3.64    2.38
  -3   9  54   29.07    9.71
  -9   6 -54   10.15    6.67
  -6   9 -54   25.59    9.10
  -9   3  54   18.01    8.20
  -6  -3  54   11.59    4.64
   3   6  54   24.97    7.77
  -3   9  51    0.10    2.39
  -3   9  51   -2.54    3.98
  -9   6 -51    3.01    2.96
  -6   9 -51    3.18    4.30
  -9   3  51   -4.35    3.97
  -6  -3  51    1.29    2.14
   3   6  51   -2.21    3.77
  -3   9  48   51.20   11.85
  -3   9  48   40.49    9.65
  -9   3  48   31.60    9.11
  -6  -3  48   38.73    8.11
   3   6  48   42.66    8.98
  -6   9 -48   35.57   10.24
  -9   6 -48   26.00    7.95
  -3   9  45   16.54    6.08
  -9   3  45    7.71    5.48
  -3   9  45   11.13    5.12
  -6  -3  45   10.33    4.75
   3   6  45   16.32    5.54
  -9   6 -45   14.07    7.49
  -6   9 -45    7.97    4.21
  -3  -6 -45   16.04    4.62
  -3   9  42    1.77    2.40
  -3   9  42    0.19    2.27
  -9   3  42    4.56    4.14
  -6  -3  42    1.55    2.23
   3   6  42   -2.48    3.66
  -9   6 -42    3.73    2.52
  -6   9 -42   -0.14    2.61
  -3  -6 -42    3.54    2.50
  -3   9  39    8.54    4.29
  -3   9  39   18.09    6.63
  -9   3  39   12.23    5.31
  -6  -3  39   16.26    5.33
   3   6  39   21.10    6.10
  -6   9 -39    8.70    4.58
  -9   6 -39    7.18    3.77
  -3  -6 -39   10.18    3.17
   3   6  36   67.72   10.50
  -3   9  36   64.39   11.88
  -9   3  36   60.74   11.63
  -6  -3  36   67.78    9.43
  -6   9 -36   63.18   11.92
  -3  -6 -36   50.65    6.97
  -9   6 -36   60.91   10.34
  -3   9  36   59.74   10.50
  -9   3  33    3.46    3.82
  -3   9  33   -1.22    2.61
  -6  -3  33    2.97    1.56
   3   6  33    2.40    2.85
  -6   9 -33    3.33    3.13
  -3  -6 -33    1.29    1.95
  -9   6 -33   -2.15    1.70
  -3   9  30   -3.85    3.41
  -9   3  30   -1.30    2.61
   3   6  30    3.29    2.83
  -6  -3  30    1.57    1.09
   9  -6  30   -4.51    2.84
  -3  -6 -30    2.03    1.55
  -6   9 -30   -1.17    2.80
  -9   6 -30   -1.12    2.11
  -9   3  27    8.49    4.17
   3   6  27    9.50    3.85
  -6  -3  27    4.99    1.87
  -3  -6 -27   -1.98    1.74
   9  -6  27    2.09    3.03
  -6   9 -27    0.93    2.80
   9  -3 -27   12.15    5.14
  -3   9  27    0.27    2.96
  -9   6 -27    3.30    3.10
   3  -9 -27    5.46    4.14
   3   6  24  103.56   10.96
  -9   3  24   89.62   11.83
   9  -6  24   92.44   11.72
   3  -9 -24  103.33   13.67
  -9   6 -24   97.67   12.24
  -3  -6 -24   75.25    7.13
  -6   9 -24   98.24   13.88
   3   6  24   78.96    6.77
   9  -3 -24   95.23   12.62
  -3   9  24   98.24   12.56
   3   6  21   10.44    2.00
   3   6  21   28.32    5.49
  -3  -6 -21    8.94    1.85
   9  -6  21   15.42    4.77
   3  -9 -21   29.22    7.27
  -6   9 -21   30.15    7.75
  -3   9  21   29.66    7.18
  -9   6 -21   28.77    7.03
   9  -3 -21   21.23    5.54
   3   6  18  130.72   10.81
  -6   9 -18  124.19   14.83
  -3  -6 -18   97.30    7.88
  -9   6 -18  122.34   13.50
   9  -6  18  124.78   13.60
   3  -9 -18  137.05   15.18
   9  -3 -18  124.55   13.29
  -3   9  18  139.96   15.04
   3   6  18   96.94    8.06
   3   6  15   -0.30    1.29
  -9   3  15   -1.59    1.21
   9  -6  15  -11.57    4.62
   3  -9 -15   -9.63    5.44
  -6   9 -15   -8.96    4.47
   9  -3 -15   -5.26    3.38
  -3   9  15  -11.06    5.22
   3   6  15   -1.85    1.22
  -9   6 -15  -12.44    4.95
   3   6  12   51.10    5.35
   9  -3 -12   79.94    9.84
  -9   6 -12   76.00   10.55
   9  -6  12   70.72   10.59
  -6   9 -12   68.35   10.81
   3  -9 -12   71.22   10.80
  -9   3  12   79.06   10.76
   3   6  12   59.54    5.75
  -3   9  12   67.75    9.95
   3   6   9    0.28    1.30
  -9   3   9    3.94    2.53
   6   3  -9    3.79    2.03
   3  -9  -9    2.99    1.81
   9  -6   9    1.25    1.68
  -6   9  -9   -0.93    1.81
  -3   9   9   -2.82    3.15
  -9   6  -9    2.45    2.80
   9  -3  -9    4.72    2.56
   3   6   9   -1.82    2.01
  -9   3   6   31.45    7.04
   3   6   6    6.91    1.09
   6   3  -6   15.58    3.12
   9  -6   6   16.97    4.37
   3  -9  -6   14.86    4.39
  -6   9  -6   20.40    5.66
   3   6   6   20.82    3.82
   9  -3  -6   20.86    4.68
  -3   9   6   16.64    4.66
  -9   6  -6   15.64    4.06
  -9   3   3   47.95    7.58
  -3   9   3   52.62    8.57
   3   6   3   41.61    5.15
   6  -9   3   65.23   10.85
   6   3  -3   32.00    3.66
   3  -9  -3   42.87    8.18
   9  -3  -3   42.80    6.34
   9  -6   3   43.73    7.63
  -6   9  -3   43.32    7.88
   6   3  -3   50.55    5.30
  -9   6  -3   47.77    8.33
   6   3   0    3.36    2.07
  -9   3   0   40.21    6.41
   6   3   0   30.64    3.25
   6  -9   0   42.41    8.75
   3  -9   0   41.60    7.80
   3   6   0   43.80    5.65
  -3   9   0   57.40    9.19
   9  -6   0   46.48    8.22
  -9   6   0   60.47    9.96
  -6   9   0   43.71    8.40
   9  -3   0   32.32    5.22
   3   6  -3   41.43    3.90
   9  -6  -3   63.89    8.97
   3  -9   3   69.18   10.69
   6   3   3   27.73    2.09
  -6   9   3   63.85   10.09
  -3   9  -3   59.84    9.25
   3   6  -3   51.69    6.29
   6  -9  -3   57.00    9.70
   9  -3   3   58.92    7.03
  -9   3  -3   63.25    8.27
  -9   6   3   77.80   11.04
  -9   3  -6   32.49    5.75
   3   6  -6   14.88    2.27
   3  -9   6   30.07    7.47
   9  -3   6   17.63    3.55
   3   6  -6   32.64    5.50
  -3   9  -6   21.88    5.60
   9  -6  -6   23.04    5.29
  -9   6   6   20.87    5.41
  -6   9   6   38.27    8.16
   3   6  -9   13.52    2.32
   3   6  -9   20.77    4.89
   3  -9   9   27.55    7.06
   9  -3   9   19.67    4.22
  -3   9  -9   28.78    6.79
  -6   9   9   23.41    6.31
  -9   6   9   29.60    7.14
  -9   3  -9    7.27    2.25
   9  -6  -9   27.73    6.54
   3   6 -12   64.15    6.18
   3  -9  12  109.02   14.26
   3   6 -12   98.25   10.32
   9  -3  12   90.86    8.75
   9  -6 -12  104.57   12.64
  -3   9 -12  114.51   13.56
  -6   9  12  111.23   14.28
  -9   3 -12   99.02   10.09
  -9   6  12  123.70   14.46
  -9   6  15   10.12    5.25
  -9   3 -15    1.65    2.89
   3   6 -15   -3.16    2.39
  -3   9 -15    4.14    3.68
   3  -9  15   -3.96    3.61
   9  -3  15   -4.48    2.59
   3   6 -15   -2.22    2.67
   9  -6 -15    4.68    3.30
  -6   9  15   -1.02    2.68
  -9   3 -15    4.67    2.92
  -9   6  18    1.14    2.17
  -9   3 -18   -0.63    1.94
   3   6 -18    0.20    1.33
  -3   9 -18    0.43    2.42
   9  -3  18    4.16    2.19
   3   6 -18    3.34    2.81
  -9   3 -18    1.94    2.23
  -6   9  18    1.52    2.63
   9  -6 -18    1.71    1.87
  -9   6  21   -3.28    3.17
   3   6 -21    0.41    1.83
  -9   3 -21    2.82    2.94
   9  -3  21   -0.24    1.15
  -3   9 -21    7.03    3.31
   3   6 -21   -0.87    2.67
  -6   9  21    2.29    3.00
  -9   3 -21    5.39    3.14
  -3   9 -24   50.24    9.58
   3   6 -24   40.13    6.50
  -9   3 -24   62.12    9.01
   3   6 -24   54.29    9.54
  -3   9 -24   62.88   10.77
  -9   3 -24   50.58    7.36
  -6   9  24   61.06   10.90
  -9   6  24   67.26   11.56
  -6   9  27    8.94    4.66
  -9   6  27   18.63    6.66
   3   6 -27    7.03    3.08
  -9   3 -27   12.30    4.57
   3   6 -27    7.63    3.61
  -3   9 -27   13.97    5.32
  -9   3 -27   11.87    3.05
  -6   9  30    4.35    3.19
  -9   6  30    4.94    3.87
   3   6 -30    6.87    3.65
   6   3  30    6.46    2.85
  -9   3 -30    2.74    3.18
   3   6 -30    1.94    3.00
  -3   9 -30    4.18    2.63
  -9   3 -30   -2.02    2.12
  -6   9  33    5.98    3.91
  -9   6  33    8.68    4.99
   6   3  33    8.95    3.14
   3   6 -33    2.24    2.22
  -9   3 -33    6.61    4.15
   3   6 -33    3.01    3.17
  -3   9 -33    3.30    2.52
  -9   3 -33    4.15    1.67
   3   6 -36   90.57   12.13
  -9   6  36  108.30   15.57
  -9   3 -36  115.23   14.43
   6   3  36  142.72   13.23
   3   6 -36  112.68   15.21
  -9   3 -36  106.75   10.72
  -3   9 -36  126.18   17.26
  -6   9  36  125.76   16.56
  -9   6  36  114.21   15.76
  -6   9  39   70.75   12.53
  -9   6  39   54.94   10.24
  -9   6  39   75.95   13.55
   3   6 -39   26.60    5.83
   6   3  39   68.62    8.91
   3   6 -39   55.96   11.28
  -3   9 -39   60.45   11.84
  -9   3 -39   47.90    7.14
  -6   9  42   31.19    9.47
  -6  -3 -42   24.08    5.63
  -6   9  42   29.76    8.29
  -9   6  42   25.83    8.64
   3   6 -42   17.75    6.89
  -3   9 -42   13.08    5.74
  -9   3 -42   25.93    5.92
   3   6 -42   21.95    6.74
   6   3  42   36.07    7.50
  -6   9  45   -1.67    3.63
  -6   9  45    1.57    2.95
  -6  -3 -45   -7.24    5.45
  -9   6  45   -3.28    3.40
  -3   9 -45   -9.68    5.68
   3   6 -45   -1.93    2.95
  -6  -3 -45    1.69    1.16
  -9   3 -45    0.24    2.34
   3   6 -45   -3.68    3.48
   6   3  45   -1.55    3.56
  -9   6  48   21.74    7.92
  -6  -3 -48   31.08    7.93
  -6   9  48   31.48    9.04
  -6   9  48   25.00    8.06
  -9   3 -48   10.10    4.59
  -3   9 -48   18.62    7.25
   3   6 -48   26.72    8.97
   6   3  48   32.17    7.26
  -9   6  51    5.40    5.13
  -6   9  51    4.39    3.09
  -6   9  51    7.96    5.09
  -3   9 -51    7.15    4.31
   3   6 -51    1.80    2.55
  -9   3 -51    6.49    4.30
   6   3  51    1.04    2.38
  -6   9  54   -0.46    4.00
  -6   9  54    5.49    4.93
  -9   6  54    4.09    4.48
  -3   9 -54    4.52    4.50
  -9   3 -54    0.04    2.98
   6   3  54    3.08    5.14
  -6   9  57   11.30    6.72
  -9   6  57   -4.77    4.64
  -9   3 -57    8.84    5.16
  -3   9 -57    9.24    6.22
   6   3  57    5.72    4.17
  -9   6  60   45.64   12.71
  -6   9  60   60.46   14.71
  -9   3 -60   27.07    8.42
  -3   9 -60   55.92   13.58
   6   3  60   71.60   13.09
  -6   9  63   17.67    8.71
  -3   9 -63    4.20    5.92
  -9   6  63    2.48    4.76
   6   3  63   11.61    5.17
  -6   9  66   -0.14    4.68
  -3   9 -66   -1.65    2.91
  -9   6  66   -3.61    3.38
   6   3  66    4.11    4.04
  -9   6  69    4.39    5.07
   6   3  69   -6.36    5.61
   6   3  72   31.13    9.40
   6   3  75    2.96    2.85
   6   3  78  -16.44    7.69
  -9   7 -76    1.67    6.92
   2   7  76   13.17    6.58
  -7  -2  76    9.57    8.56
  -9   7 -73   -0.56    3.51
  -7  -2  73   -4.55    4.39
  -9   2  73    4.47    5.80
  -9   7 -70    6.66    8.34
  -7  -2  70    8.19    5.61
  -2   9  70   28.16   12.23
  -9   2  70   21.15   10.03
   2   7  70   14.98    6.34
  -7   9 -67    6.87    7.32
  -9   7 -67    1.75    5.44
  -2   9  67    2.03    6.03
  -9   2  67    2.61    5.12
   2   7  67    3.49    4.38
  -7  -2  67    0.61    2.77
  -7   9 -64    6.04    6.34
  -9   7 -64    4.04    6.77
  -2   9  64   10.21    6.30
  -9   2  64    7.54    6.38
   2   7  64   10.57    5.86
  -7  -2  64   10.27    6.63
  -9   7 -61   -1.13    4.28
  -7   9 -61    7.01    5.81
  -2   9  61   -4.35    5.10
  -9   2  61    0.35    4.50
   2   7  61    4.03    5.70
  -7  -2  61    2.74    3.30
  -9   7 -58   17.29    8.88
  -7   9 -58   20.49    8.19
  -2   9  58   30.88    9.70
  -9   2  58   18.79    8.49
   2   7  58   37.18    9.88
  -7  -2  58   14.74    6.88
  -2   9  55    1.46    3.75
  -9   7 -55    2.78    2.87
  -7   9 -55    0.29    4.28
  -9   2  55    5.75    4.69
   2   7  55    0.14    2.23
  -7  -2  55    8.09    6.13
  -2   9  52   32.24    8.98
  -9   7 -52   14.13    9.66
  -7   9 -52   29.52    9.34
  -9   2  52   20.84    7.76
   2   7  52   35.93    8.93
  -7  -2  52   32.69    8.98
  -2   9  49   -6.80    5.62
  -2   9  49    3.57    2.93
  -9   7 -49   -4.16    3.64
  -7   9 -49    0.86    2.45
  -9   2  49    0.93    2.50
   2   7  49    0.86    2.25
  -7  -2  49    5.56    3.00
  -2   9  46   45.75   10.87
  -2   9  46   38.81    8.75
  -9   2  46   37.45    9.45
   2   7  46   25.42    6.92
  -7  -2  46   23.95    6.70
  -9   7 -46   10.99    7.47
  -7   9 -46   29.19    8.44
  -2   9  43    3.71    2.85
  -2   9  43    8.54    3.65
  -9   2  43    0.08    2.14
   2   7  43   10.06    4.75
  -7  -2  43    7.28    4.30
  -7   9 -43    7.21    4.66
  -9   7 -43    1.21    3.48
  -2  -7 -43    7.33    3.23
  -2   9  40   36.37    8.32
  -2   9  40   37.83    8.94
  -9   2  40   16.17    6.13
   2   7  40   31.05    7.93
  -7  -2  40   23.99    6.37
  -9   7 -40   21.99    5.83
  -7   9 -40   32.60    9.06
  -2  -7 -40   19.66    4.58
  -9   2  37   -0.71    2.14
  -2   9  37   -6.50    3.19
  -2   9  37   -1.07    3.24
   2   7  37   -2.03    3.32
  -7  -2  37   -1.38    2.02
  -9   7 -37   -3.61    4.07
  -7   9 -37   -0.11    3.96
  -2  -7 -37    0.69    2.51
  -2   9  34    3.23    2.64
  -2   9  34    1.84    1.85
   7   2 -34    0.25    2.50
  -9   2  34    5.27    3.94
   2   7  34    5.17    3.37
  -7  -2  34   -4.72    3.24
  -7   9 -34   -0.75    1.95
  -2  -7 -34    0.72    1.99
  -9   7 -34    4.97    3.06
  -2   9  31    7.74    3.88
   2   7  31    7.66    2.58
  -2   9  31    6.76    4.06
   7   2 -31    4.60    4.11
  -9   2  31    5.95    3.89
   2   7  31    8.79    4.21
  -7  -2  31    6.85    3.28
  -2  -7 -31    5.56    2.86
  -7   9 -31    3.81    3.87
   2  -9 -31   13.30    5.13
  -9   7 -31   11.65    4.91
  -2   9  28   43.29    8.40
   2   7  28   42.02    7.41
   7   2 -28   28.77    6.97
  -9   2  28   32.62    8.18
  -7  -2  28   30.89    5.64
  -2  -7 -28   31.55    5.84
  -7   9 -28   39.84    8.91
   2  -9 -28   36.88    8.10
  -9   7 -28   41.57    8.68
   9  -2 -28   27.20    7.06
   2   7  28   38.26    6.28
   2   7  25   -2.46    2.44
   2   7  25    5.58    3.64
   7   2 -25    7.18    3.51
  -9   2  25    0.11    2.07
  -7  -2  25    4.47    2.28
   9  -7  25   -0.68    2.52
  -2  -7 -25   -0.11    1.48
   2  -9 -25    6.72    4.09
  -7   9 -25    6.56    3.92
  -9   7 -25    3.63    2.43
  -2   9  25    0.75    1.89
   9  -2 -25    3.90    3.21
   7   2 -22   47.36    7.67
  -9   2  22   53.48    8.91
   2   7  22   70.18    9.19
  -7  -2  22   33.26    4.21
  -7   9 -22   59.48   10.44
   9  -7  22   63.37   10.32
  -2  -7 -22   47.74    6.82
  -9   7 -22   70.45   10.83
   2  -9 -22   65.78   10.51
   9  -2 -22   64.60   10.10
  -2   9  22   70.68   10.73
   2   7  22   59.73    7.36
   2   7  19    4.88    2.43
  -9   2  19    8.19    3.86
   7   2 -19    6.45    3.13
  -7  -2  19    6.98    1.97
   2  -9 -19   -3.81    3.86
   9  -7  19    7.15    3.79
  -2  -7 -19    1.67    1.70
   9  -2 -19   10.40    4.05
  -7   9 -19   -2.05    3.76
  -2   9  19    9.25    4.24
  -9   7 -19    1.39    2.67
   2   7  19   -0.26    2.01
   2   7  16   40.00    5.78
   9  -7  16   35.07    7.36
   2  -9 -16   49.01    8.80
  -2  -7 -16   35.75    5.52
  -7   9 -16   38.90    8.70
  -9   7 -16   46.35    8.45
   2   7  16   43.66    6.03
  -2   9  16   40.70    7.36
   9  -2 -16   36.16    6.92
   7   2 -16   42.86    7.11
   7   2 -13    8.17    3.05
   2   7  13    3.12    2.55
   2  -9 -13    4.55    3.30
   9  -7  13   -4.40    3.77
  -2  -7 -13    1.17    2.66
   9  -2 -13    5.39    2.72
  -7   9 -13    5.67    3.43
   2   7  13   -0.90    2.33
  -2   9  13   -0.64    1.68
  -9   7 -13   -0.96    2.26
  -2  -7 -10   89.53    9.52
  -9   7 -10   92.34   12.40
   2  -9 -10   90.40   12.09
   9  -7  10   87.70   11.72
  -2   9  10   93.21   11.46
   9  -2 -10   99.65   10.48
   2   7  10   82.08    8.49
  -7   9 -10   90.88   12.70
   7   2 -10   57.88    6.58
   7   2  -7   24.85    4.31
   9  -7   7   24.15    6.04
   2  -9  -7   15.89    4.07
  -9   7  -7   34.55    8.26
  -7   9  -7   37.06    8.26
   2   7   7   12.91    2.22
   9  -2  -7   22.96    4.57
  -2   9   7   24.62    5.41
   2  -9  -4   45.56    8.13
   2   7   4   49.20    6.47
   9  -7   4   38.93    7.87
   9  -2  -4   43.96    6.22
  -9   7  -4   54.97    9.54
  -9   2   4   39.56    6.03
   7   2  -4   25.96    3.64
  -2   9   4   43.91    7.40
  -7   9  -4   45.58    8.88
  -9   2   1   -1.24    2.53
   9  -7   1   -4.25    4.00
   2  -9  -1   -8.41    5.53
   9  -2  -1   -0.04    1.66
   2   7   1   -2.01    2.70
  -9   7  -1   -4.88    3.74
   7   2  -1    0.57    0.90
  -7   9  -1   -6.00    4.18
  -2   9   1   -3.83    3.42
  -9   2  -2    8.06    2.97
   7   2   2    3.33    1.03
   2   7  -2    9.32    3.33
   2  -9   2    8.10    3.04
  -7   9   2   11.16    4.09
  -2   9  -2    2.46    2.36
   7   2   2    2.01    0.88
   9  -2   2    8.05    2.64
   9  -7  -2   11.81    4.65
  -9   7   2    5.61    2.39
  -9   2  -5   10.00    3.56
   9  -2   5    0.01    2.39
   2   7  -5    3.37    1.57
   2  -9   5    5.60    3.60
  -9   7   5   12.17    4.75
  -2   9  -5   10.54    4.06
   9  -7  -5    5.12    2.11
  -7   9   5    9.10    3.21
   2   7  -8   78.51    7.48
   2  -9   8  107.48   14.08
   9  -7  -8   97.53   12.60
   9  -2   8   80.58    7.75
   2   7  -8   93.04   10.30
  -2   9  -8   96.91   11.94
  -7   9   8  105.14   14.02
  -9   2  -8  100.30    9.21
  -9   7   8  111.33   14.36
  -9   2 -11   -6.47    1.54
   2   7 -11   -1.97    2.03
  -9   2 -11   -5.62    3.29
   9  -2  11   -1.23    1.77
   2  -9  11   -1.69    1.96
  -2   9 -11   -0.17    2.59
   2   7 -11   -0.86    1.49
   9  -7 -11   -0.17    2.44
  -7   9  11    0.13    1.88
  -9   7  11   -3.00    2.69
   2   7 -14   49.80    6.69
  -9   2 -14   62.33    7.82
   2  -9  14   77.79   12.31
   9  -2  14   56.93    6.10
   2   7 -14   69.38    9.59
  -2   9 -14   60.17    9.79
  -7   9  14   76.14   12.15
  -9   2 -14   76.63    7.84
  -9   7  14   81.39   12.24
  -9   7  17   -0.62    2.33
  -9   2 -17    3.58    2.49
   2   7 -17   -1.13    2.86
   2   7 -17    0.62    1.87
   9  -2  17   -7.20    2.69
  -2   9 -17   -0.44    2.29
  -7   9  17    7.46    4.80
  -9   2 -17    3.90    2.38
  -9   7  20    1.51    2.88
   2   7 -20    1.34    1.40
  -9   2 -20    1.42    1.82
   2   7 -20    1.60    2.46
  -2   9 -20   -2.54    2.89
  -9   2 -20    3.11    1.99
  -7   9  20    4.00    3.94
  -9   7  23   -0.08    2.58
  -7  -2 -23    1.08    1.57
   2   7 -23   -1.37    2.41
  -2   9 -23    0.12    2.10
  -9   2 -23   -0.95    1.88
  -2   9 -23    1.70    2.26
   2   7 -23   -4.99    3.79
  -7   9  23   -0.79    3.15
  -9   2 -23    0.35    1.21
  -7   9  26    0.47    2.99
  -9   7  26    2.09    3.56
  -7  -2 -26   -0.12    1.23
  -2   9 -26   -1.15    2.35
  -9   2 -26    4.33    2.88
   2   7 -26    0.34    1.74
   2   7 -26    0.41    2.13
  -2   9 -26   -3.98    2.55
  -9   2 -26    0.86    1.56
  -7   9  29   10.84    5.39
  -9   7  29   -1.74    2.98
  -7  -2 -29    2.52    2.31
  -9   2 -29   -1.13    1.99
   2   7 -29    9.01    3.88
  -2   9 -29   -2.71    2.06
  -2   9 -29    5.85    3.67
   2   7 -29    9.00    4.51
  -9   2 -29    2.14    2.12
  -9   7  32   60.29   12.08
  -7  -2 -32   47.13    6.99
  -9   2 -32   37.00    7.84
   2   7 -32   38.36    7.67
  -2   9 -32   52.60   10.83
   2   7 -32   47.48    9.69
  -7   9  32   65.98   12.63
  -9   2 -32   34.35    5.28
  -7   9  35   -2.29    2.81
  -9   7  35   -2.79    3.68
  -7  -2 -35   -6.87    3.29
   2   7 -35   -6.25    4.19
  -9   2 -35   -3.48    3.35
  -2   9 -35    3.61    3.28
   2   7 -35    1.69    2.26
  -9   2 -35   -1.71    1.25
  -9   7  38   65.55   13.11
  -7  -2 -38   48.55    7.74
   2   7 -38   30.62    6.96
  -9   2 -38   38.11    8.57
  -2   9 -38   40.96    9.52
  -9   2 -38   46.76    6.53
   2   7 -38   54.45   10.94
  -7   9  38   70.09   13.03
  -9   7  41    9.16    5.70
  -7   9  41    2.37    3.27
  -9   7  41    3.41    3.54
  -7  -2 -41    6.39    4.05
   2   7 -41   -1.21    2.87
  -2   9 -41   -6.11    5.38
   2   7 -41    1.98    2.28
  -9   2 -41    6.61    2.93
  -7   9  44   33.02    9.23
  -9   7  44   42.24   10.90
  -7   9  44   36.73    9.84
  -9   7  44   27.30    7.40
  -7  -2 -44   34.95    7.57
   2   7 -44   21.14    6.34
  -2   9 -44   34.53    9.18
   2   7 -44   21.78    7.09
  -9   2 -44   27.50    5.17
  -7   9  47   10.30    6.30
  -7   9  47    4.54    5.24
  -9   7  47    5.03    4.68
  -7  -2 -47    5.57    4.22
  -2   9 -47    0.96    3.64
   2   7 -47   -2.45    4.02
  -9   2 -47    9.55    3.97
   7   2  47    6.04    4.05
  -9   7  50   16.79    7.08
  -7   9  50    5.70    3.94
  -7   9  50    9.61    5.03
  -9   2 -50    5.42    1.51
   2   7 -50    9.32    4.41
  -2   9 -50    4.75    3.56
   7   2  50    9.51    3.52
  -9   7  53   -0.03    3.22
  -7   9  53    0.82    2.33
  -7   9  53   -0.76    2.87
   2   7 -53    1.84    2.68
  -9   2 -53    0.51    1.73
  -2   9 -53    2.91    3.40
   7   2  53    1.32    3.65
  -7   9  56   41.69   11.99
  -9   7  56   29.96   10.62
   2   7 -56   25.47    8.96
  -2   9 -56   34.35   10.42
   7   2  56   30.82    7.61
  -9   7  59  -10.89    6.91
  -7   9  59   10.53    6.70
   2   7 -59   -8.17    6.78
  -2   9 -59   -1.01    3.48
   7   2  59   -2.45    5.73
  -7   9  62   14.37    7.50
  -9   7  62    3.11    3.60
   2   7 -62   13.46    7.14
  -2   9 -62   -1.13    4.13
   7   2  62    6.83    3.79
  -7   9  65    5.72    6.56
  -9   7  65    4.37    4.35
   2   7 -65    0.58    3.35
  -2   9 -65    7.39    6.16
   7   2  65    1.31    3.29
   2   7 -68   19.77    9.75
  -9   7  68   29.77   10.13
   7   2  68   26.66    9.55
   7   2  71   -9.36    6.60
   7   2  74    5.19    6.60
   7   2  77    3.89    8.52
  -9   1  74    6.65    5.65
  -8  -1  74   -4.38    5.24
   1   8  74    2.52    5.10
  -9   8 -71    1.28    7.25
  -9   1  71    0.92    4.71
  -1   9  71    7.19    6.46
  -8  -1  71   -3.54    4.55
   1   8  71   -0.44    3.18
  -9   8 -68    6.95   10.72
  -8   9 -68    9.72   11.18
  -1   9  68   27.10   11.48
  -8  -1  68   15.57    9.11
   1   8  68   25.59    9.87
  -9   1  68   11.25    6.68
  -9   8 -65    1.83    5.60
  -8   9 -65   -0.78    5.72
  -1   9  65    4.16    6.50
  -8  -1  65    1.01    3.10
   1   8  65    9.11    6.15
  -9   1  65    4.05    5.34
  -9   8 -62    3.02    5.64
  -8   9 -62    4.52    8.41
  -1   9  62    2.77    3.03
  -8  -1  62   22.94    8.62
   1   8  62    6.35    4.62
  -9   1  62    0.19    3.55
  -9   8 -59    6.90    6.14
  -8   9 -59    0.49    3.98
  -1   9  59   -2.54    6.06
  -8  -1  59    9.59    6.65
   1   8  59   -3.39    5.07
  -9   1  59   -0.08    3.70
  -8   9 -56    2.25    5.77
  -9   8 -56    5.68    5.83
  -1   9  56   17.05    8.14
  -8  -1  56   13.28    6.54
   1   8  56   10.50    6.19
  -9   1  56   13.62    7.11
  -8   9 -53   -0.06    3.68
  -9   8 -53    1.99    4.42
  -1   9  53    7.36    5.07
  -8  -1  53    8.83    4.42
   1   8  53   -0.30    3.46
  -9   1  53    0.87    3.21
  -1   9  50   17.45    7.41
  -8   9 -50    9.37    5.45
  -9   8 -50    4.78    5.44
  -8  -1  50   15.97    6.41
   1   8  50    5.88    4.25
  -9   1  50   24.44    7.99
  -1   9  47    2.12    2.28
  -1   9  47    3.36    4.51
  -8  -1  47    3.63    2.64
   1   8  47    1.83    2.25
  -9   1  47    3.88    3.47
  -9   8 -47    3.32    4.87
  -8   9 -47    3.40    2.55
  -1   9  44   36.32    7.99
  -1   9  44   37.52    9.70
  -8  -1  44   34.09    8.19
   1   8  44   42.83    9.97
  -9   1  44   33.46    8.87
  -9   8 -44   28.92    9.39
  -8   9 -44   31.59    8.87
  -1  -8 -44   35.03    7.08
  -1   9  41   -0.18    3.92
  -1   9  41   -4.65    3.00
  -8  -1  41    1.58    1.77
   1   8  41   -6.28    4.62
  -9   1  41    1.64    2.11
  -8   9 -41   -1.09    2.42
  -9   8 -41  -14.82    6.43
  -1  -8 -41   -4.06    2.96
  -1   9  38   13.19    5.61
   1   8  38   11.96    4.53
  -1   9  38   18.11    5.72
   1   8  38   14.42    4.03
  -9   1  38   15.91    5.66
  -8  -1  38    9.13    3.89
  -9   8 -38   10.62    4.91
  -8   9 -38   13.46    6.00
  -1  -8 -38   11.46    3.59
   1  -9 -38   16.19    5.85
  -1   9  35    2.58    1.73
   1   8  35    8.32    3.40
  -1   9  35    5.80    3.55
   1   8  35    5.67    3.68
  -9   1  35    2.05    1.85
  -8  -1  35    9.08    4.14
  -8   9 -35    2.30    2.96
  -1  -8 -35    5.95    3.16
   1  -9 -35    8.61    3.46
  -9   8 -35   -0.07    3.15
   1   8  32   26.79    6.78
  -1   9  32   17.43    5.12
   8   1 -32   20.46    6.17
   1   8  32   22.67    5.62
  -1   9  32   18.25    6.03
  -9   1  32   21.74    6.28
  -8  -1  32   19.02    5.33
  -1  -8 -32   18.44    5.15
  -8   9 -32   14.18    5.62
  -9   8 -32   20.68    6.59
   1  -9 -32   18.08    5.53
  -1   9  29    3.28    2.77
   1   8  29   -0.10    1.92
  -1   9  29    2.34    3.95
   8   1 -29    4.94    3.96
   1   8  29    4.89    3.25
  -9   1  29   -0.04    1.94
  -8  -1  29    3.09    2.36
   1  -9 -29    3.95    2.85
  -1  -8 -29    0.15    1.80
  -9   8 -29    8.63    3.86
   9  -1 -29    3.52    3.96
  -8   9 -29    2.45    2.32
   1   8  26   21.87    6.00
   1   8  26   27.99    5.62
  -9   1  26   18.55    5.00
   8   1 -26   22.47    6.48
  -8  -1  26   16.13    4.28
  -1  -8 -26   23.05    5.92
   1  -9 -26   29.07    7.03
  -8   9 -26   21.35    6.67
  -1   9  26   23.84    6.43
  -9   8 -26   25.30    6.89
   9  -1 -26   22.70    6.23
  -9   1  23    3.96    2.30
   8   1 -23    3.74    2.92
   1   8  23    2.35    1.50
  -8  -1  23    4.48    2.29
  -1  -8 -23    1.07    1.68
   1  -9 -23    2.86    2.28
   1   8  23   -1.57    2.39
  -8   9 -23   -2.49    3.35
  -9   8 -23    1.10    1.90
  -1   9  23   -0.88    2.79
   9  -1 -23    2.60    2.76
   8   1 -20   19.49    5.40
   1   8  20   21.82    5.41
  -9   1  20   22.46    5.36
  -8  -1  20   14.83    3.63
   1  -9 -20   34.46    7.73
  -1  -8 -20   18.75    4.44
   1   8  20   19.60    4.55
  -8   9 -20   31.19    7.97
  -9   8 -20   34.29    7.92
  -1   9  20   31.61    7.00
   9  -1 -20   19.26    5.47
   8   1 -17   25.97    5.69
  -9   1  17   13.12    3.37
  -8  -1  17   10.35    2.68
  -1  -8 -17   17.76    4.58
   1  -9 -17   25.34    6.65
   9  -1 -17   30.89    6.60
  -8   9 -17   26.70    7.39
  -9   8 -17   20.78    5.86
   1   8  17   20.96    5.14
  -1   9  17   26.16    6.23
  -9   1  14   33.23    5.66
  -8  -1  14   15.76    2.77
  -1  -8 -14   56.73    8.82
   1  -9 -14   46.87    8.49
  -8   9 -14   61.93   10.89
   1   8  14   43.20    6.83
  -1   9  14   51.12    8.04
  -9   8 -14   46.19    9.18
   9  -1 -14   38.25    6.81
   8   1 -14   49.50    7.36
  -9   1  11    6.13    3.10
  -8  -1  11    2.69    1.23
   1  -9 -11    1.34    2.22
  -1  -8 -11    1.69    1.70
  -1   9  11    6.79    2.57
   9  -1 -11   10.02    3.36
   1   8  11    5.42    2.81
   8   1 -11    7.73    2.64
  -8   9 -11    6.53    3.34
  -9   8 -11    2.31    2.57
  -1  -8  -8   55.01    8.37
   1  -9  -8   59.69    9.57
   9  -1  -8   51.05    7.08
  -1   9   8   51.79    8.31
   8   1  -8   43.81    5.96
  -8   9  -8   50.18    9.44
   1   8   8   45.21    6.78
  -9   8  -8   55.91    9.76
  -1  -8  -5   -1.01    2.85
   1  -9  -5    7.84    3.99
  -9   8  -5    6.56    4.02
   8   1  -5    7.83    2.39
   1   8   5   -3.34    2.60
  -1   9   5   -4.01    3.03
   9  -1  -5    4.99    2.26
  -8   9  -5   -3.88    3.16
  -1  -8  -2   33.20    6.48
   1  -9  -2   28.57    6.66
  -9   8  -2   30.12    7.29
   1   8   2   29.87    5.75
   9  -1  -2   21.11    4.07
  -1   9   2   28.20    5.94
   8   1  -2   24.74    3.71
  -8   9  -2   29.15    7.08
   1  -9   1   -8.02    4.68
   9  -1   1   -0.40    1.38
  -8   9   1   -6.96    4.03
  -1   9  -1   -5.56    3.20
  -9   8   1  -10.24    5.67
   1   8  -1   -5.45    3.49
   8   1   1    2.77    1.18
  -1   9  -4   51.07    8.71
   1  -9   4   51.94    9.67
   9  -1   4   43.40    5.18
   1   8  -4   54.87    8.02
  -8   9   4   55.41   10.28
  -9   8   4   60.15   10.58
  -9   1  -7    0.36    1.02
   1  -9   7   -6.03    4.11
   1   8  -7    0.27    1.98
   9  -1   7    1.29    1.16
  -1   9  -7    5.96    3.20
  -9   8   7    4.84    3.35
  -8   9   7    4.54    3.24
  -8  -1 -10   11.60    1.60
  -9   1 -10   26.89    4.04
   1   8 -10   21.96    4.96
   1  -9  10   31.86    7.75
  -1   9 -10   30.01    6.68
   9  -1  10   16.82    2.99
   1   8 -10   25.48    6.14
  -9   8  10   32.53    7.79
  -8   9  10   31.61    8.09
  -8  -1 -13    3.14    1.49
   1   8 -13   -0.44    1.62
  -9   1 -13    4.86    2.23
   9  -1  13    3.21    1.45
   1   8 -13    6.11    3.02
  -1   9 -13    5.61    3.06
  -8   9  13    9.62    4.62
  -9   8  13    8.18    4.26
  -8  -1 -16    1.79    1.55
  -9   1 -16    4.24    2.52
   1   8 -16    4.02    2.32
  -1   9 -16    2.84    2.76
   1   8 -16    8.68    3.65
  -9   8  16    4.95    2.90
  -8   9  16   11.21    4.57
  -9   8  19   31.92    8.65
  -8  -1 -19   18.67    3.30
   1   8 -19   22.09    5.04
  -9   1 -19   18.60    4.11
  -1   9 -19   19.56    5.97
  -1   9 -19   26.53    6.80
   1   8 -19   29.08    6.78
  -8   9  19   27.81    7.38
  -9   1 -22   24.39    2.94
  -8  -1 -22   35.75    5.01
  -1   9 -22   40.78    8.21
   1   8 -22   35.61    6.89
  -9   1 -22   35.73    6.10
  -1   9 -22   50.69   10.14
   1   8 -22   47.41    9.39
  -9   8  22   58.32   11.62
  -8   9  22   47.75   10.39
  -8   9  25   19.11    7.00
  -9   8  25   19.51    7.48
  -8  -1 -25    8.66    2.72
   1   8 -25    9.74    4.38
  -1   9 -25   11.25    5.12
  -9   1 -25    8.27    3.97
   1   8 -25    9.66    4.34
  -1   9 -25   23.47    7.49
  -9   1 -25    4.71    1.76
  -9   8  28   24.13    7.00
  -8  -1 -28   19.78    3.91
  -8   9  28   29.97    8.57
   1   8 -28   17.75    4.99
  -1   9 -28   27.18    7.07
  -9   1 -28   17.91    6.07
   1   8 -28    9.45    3.03
  -1   9 -28   30.93    8.04
  -9   1 -28   10.59    1.98
  -8   9  31   19.14    7.57
  -9   8  31   -1.43    4.20
  -8  -1 -31   11.20    3.54
  -1   9 -31   10.84    5.32
   1   8 -31    7.85    4.72
  -9   1 -31   18.10    5.81
  -1   9 -31   14.57    5.94
   1   8 -31   -0.58    3.12
  -9   1 -31    8.85    2.10
  -8   9  34    4.24    3.65
  -8  -1 -34    0.63    2.73
  -9   8  34  -14.35    7.50
  -9   1 -34   -1.27    2.41
   1   8 -34    2.12    3.32
  -1   9 -34    0.22    2.12
   1   8 -34  -13.85    6.56
  -9   1 -34    0.91    1.26
  -8  -1 -37    8.37    3.78
  -8   9  37   10.61    5.35
  -9   8  37    9.95    5.02
  -9   1 -37    2.98    3.17
   1   8 -37    5.22    3.99
  -1   9 -37    6.04    3.66
   1   8 -37    8.69    4.92
  -9   1 -37    6.18    2.58
  -9   1 -40   73.97   12.10
  -8  -1 -40   83.21   11.68
   1   8 -40   64.30   12.24
   1   8 -40   79.77   14.21
  -1   9 -40   84.95   14.21
  -9   1 -40   47.52    5.24
  -9   8  40  114.44   17.43
  -8   9  40  114.94   17.14
  -8   9  43    5.75    4.90
  -9   8  43   -2.27    2.97
  -8   9  43    6.13    5.25
  -9   8  43   11.34    7.00
  -8  -1 -43    6.55    4.08
  -9   1 -43    5.34    4.72
  -1   9 -43    3.12    2.56
   1   8 -43    1.39    2.99
  -9   1 -43    2.96    2.13
  -8   9  46   32.94    9.31
  -9   8  46   27.76    9.08
  -8   9  46   32.38    9.26
  -9   8  46   37.14    9.34
  -8  -1 -46   38.82    9.09
   1   8 -46   29.60    9.14
  -1   9 -46   30.13    8.77
  -8   9  49    1.89    3.09
  -8   9  49    5.67    3.62
  -9   8  49   -1.38    4.09
  -9   8  49    1.56    4.89
   1   8 -49   -2.63    3.12
  -1   9 -49   -4.49    3.71
  -8   9  52   21.26    7.19
  -8   9  52   26.76    9.19
  -9   8  52   22.81    8.56
   1   8 -52   15.42    6.45
  -1   9 -52   25.59    9.82
  -8   9  55    1.15    4.87
  -9   8  55    8.07    6.51
   1   8 -55    3.37    5.58
  -1   9 -55   -0.54    2.87
  -8   9  58   11.62    7.47
  -9   8  58    1.64    3.30
   1   8 -58    6.29    5.64
  -1   9 -58    9.71    6.07
  -9   8  61   -6.65    7.38
  -8   9  61    3.21    4.49
   1   8 -61    0.36    4.40
  -1   9 -61    4.45    3.66
  -8   9  64   26.73   11.20
  -9   8  64   33.18   11.33
   1   8 -64    8.97    3.99
  -1   9 -64   34.80   11.85
  -9   0  72   20.47    9.96
  -9   0  69    6.76    4.62
   0   9  69   -2.50    2.96
  -9   9 -66    6.61    8.72
  -9   0  66    5.91    5.47
   0   9  66    7.91    7.60
  -9   9 -63   -0.31    5.10
  -9   0  63    3.62    6.57
   0   9  63   -7.09    6.16
  -9   9 -60    3.93    8.55
  -9   0  60   11.08    6.51
   0   9  60    9.65    3.54
  -9   9 -57    0.18    2.76
  -9   0  57    3.35    4.74
   0   9  57    0.72    2.74
  -9   9 -54    0.46    3.32
   0   9  54    4.25    3.72
  -9   0  54   -0.73    3.69
  -9   9 -51   -1.49    4.19
   0   9  51    0.20    4.09
  -9   0  51    3.65    3.09
  -9   9 -48    1.97    5.15
   0   9  48   -4.33    4.62
  -9   0  48   10.87    6.00
   0   9  45   -1.14    4.79
  -9   9 -45   -0.97    2.32
  -9   0  45    2.27    2.96
   0   9  42   26.77    6.34
   0   9  42   36.74    9.64
  -9   0  42   34.14    8.97
  -9   9 -42   27.90    8.94
   0   9  39   -4.57    4.57
   0   9  39    0.30    1.79
  -9   0  39   -5.60    4.35
  -9   9 -39   -7.55    4.98
   0  -9 -39   -1.03    2.51
  -9   0  36   80.66   11.61
   0   9  36   85.12   13.34
   0  -9 -36   87.27   12.34
  -9   9 -36   70.35   12.60
   0   9  36   82.54   11.58
   0   9  33    1.14    3.01
   0   9  33    1.54    1.55
  -9   0  33    4.37    3.09
   0  -9 -33   -6.51    2.92
  -9   9 -33   -2.71    2.08
   0   9  30   12.78    4.64
   9   0 -30   18.06    5.84
   0   9  30    9.48    3.94
  -9   0  30   10.86    4.14
   0  -9 -30   16.41    5.43
  -9   9 -30   14.91    6.00
   9   0 -27   -7.68    4.16
   0   9  27    1.49    2.04
   0   9  27    0.55    2.11
  -9   0  27    6.37    3.83
   0  -9 -27    0.02    2.48
  -9   9 -27   -0.88    2.18
   0   9  24   14.04    5.07
  -9   0  24    7.69    3.76
   0  -9 -24    5.62    3.15
  -9   9 -24    4.91    3.35
   9   0 -24    9.55    4.13
   0   9  24   -1.47    2.60
  -9   0  21    3.69    2.82
   0  -9 -21   -8.07    4.37
  -9   9 -21    8.45    4.67
   9   0 -21    2.74    1.72
   0   9  21    2.92    3.43
  -9   0  18  130.13   11.04
   0  -9 -18  135.93   14.74
  -9   9 -18  132.20   16.28
   0   9  18  152.06   14.61
   9   0 -18  105.77   11.60
  -9   0  15    1.99    2.34
   9   0 -15    4.60    1.80
  -9   9 -15   -0.41    3.28
   0   9  15   -0.99    2.19
  -9   0  12    3.22    2.52
   0  -9 -12    0.72    3.37
   0   9  12    3.99    2.11
  -9   9 -12    1.30    2.03
   9   0 -12    5.68    3.22
  -9   0   9    5.89    2.87
   0  -9  -9  -11.19    4.84
   9   0  -9   -1.68    2.17
  -9   9  -9   -3.91    2.94
   0   9   9   -5.93    2.87
  -9   0   6   59.75    6.37
   0  -9  -6   83.60   11.25
   9   0  -6   78.86    8.02
   0   9   6   90.37   10.81
  -9   9  -6   88.76   13.47
  -9   0   3    7.04    4.09
   0  -9  -3   -8.60    4.34
  -9   9  -3    3.38    5.00
   0   9   3   -4.47    2.90
   9   0  -3   -0.05    1.02
  -9   0   0   67.67    5.18
   0  -9   0   85.01   12.18
   9   0   0   64.33    5.96
   0   9   0   90.24   10.97
  -9   9   0  107.39   14.87
  -9   0  -3   -5.26    4.15
   9   0   3    1.37    1.51
   0  -9   3  -12.36    5.28
   0   9  -3   -1.39    1.66
  -9   9   3   -1.02    2.37
  -9   0  -6    0.67    0.93
   9   0   6    0.54    1.06
   0   9  -6   -3.57    2.77
  -9   9   6   -8.77    4.79
  -9   0  -9   -1.28    1.84
   0   9  -9   -5.14    3.58
  -9   9   9   -0.52    2.59
  -9   0 -12   20.54    3.65
   0   9 -12   26.34    6.32
  -9   9  12   25.26    7.37
   0   9 -15   -5.43    1.53
  -9   0 -15    1.19    1.72
   0   9 -15   -2.93    2.42
  -9   9  15   -3.91    3.95
   0   9 -18   10.35    4.31
  -9   0 -18    4.96    1.92
   0   9 -18   10.77    4.66
  -9   9  18    9.55    4.83
  -9   9  21   10.08    5.87
  -9   0 -21   -2.20    1.90
   0   9 -21   -6.74    4.22
   0   9 -21    1.31    2.77
  -9   0 -24  167.16   13.55
   0   9 -24  171.30   16.50
   0   9 -24  195.41   19.29
  -9   9  24  228.51   22.97
  -9   9  27    8.83    6.51
   0   9 -27    2.41    2.76
  -9   0 -27    0.26    4.62
   0   9 -27  -10.93    4.73
  -9   9  30    7.12    4.04
   0   9 -30    5.78    3.44
  -9   0 -30    3.39    1.96
   0   9 -30    4.92    2.93
  -9   9  33    2.38    3.43
   0   9 -33   -0.21    2.47
  -9   0 -33    1.58    1.52
  -9   9  36   61.42   12.17
   0   9 -36   57.40   12.06
  -9   0 -36   45.24    7.95
  -9   9  39    3.49    3.61
   0   9 -39   -5.60    4.77
  -9   0 -39   -3.76    4.52
  -9   9  42   -0.28    3.21
   0   9 -42    3.49    3.43
  -9   0 -42   -4.78    4.34
  -9   9  45    1.11    3.85
  -9   9  45   -0.51    3.11
   0   9 -45   -2.92    3.79
  -9   9  48   64.75   14.17
  -9   9  48   72.10   14.30
   0   9 -48   73.70   14.92
  -9   9  51    5.24    5.58
  -9   9  51   -0.97    2.05
   0   9 -51    6.40    5.33
  -9   9  54   -1.26    2.61
   0   9 -54   11.17    7.28
  -9   9  57    6.44    5.46
   0   9 -57    7.50    6.01
  -9   9  60   51.29   14.39
   0   9 -60   30.48   10.40
   0   9 -63    3.18    5.28
   5   5   0    1.04    0.91
  10  -5   0   -5.27    3.50
 -10   5   0   -3.72    3.15
  -5  10   0  -14.16    6.34
   5   5   3   32.78    3.56
   5   5  -3   38.98    5.09
  10  -5   3   30.75    5.97
  10  -5  -3   46.61    7.50
 -10   5  -3   38.23    7.78
  -5  10  -3   47.02    8.99
  -5  10   3   38.05    8.30
 -10   5   3   59.51    9.64
   5   5  -6   45.60    5.97
  10  -5   6   38.95    6.72
  -5  10  -6   53.22   10.15
   5   5   6   34.09    3.12
  -5  10   6   58.53   10.32
 -10   5   6   58.93    9.99
  10  -5  -6   44.35    7.74
 -10   5  -6   46.50    8.39
 -10   5   9   22.02    6.07
  10  -5   9   18.48    4.60
   5   5  -9   18.73    4.03
  -5  10   9   28.39    7.50
  -5  10  -9   25.19    6.78
  10  -5  -9   30.47    6.62
 -10   5  -9   27.05    6.46
 -10   5  12   14.11    5.13
  10  -5  12   12.26    3.87
   5   5 -12    9.62    3.37
  -5  10 -12    8.68    4.01
  -5  10  12   10.29    4.06
  10  -5 -12    9.96    4.04
 -10   5 -12    8.83    3.17
 -10   5  15   15.77    6.05
  10  -5  15    2.08    1.43
   5   5 -15    6.32    3.14
  -5  10 -15    6.49    4.51
 -10   5 -15    2.78    1.84
  10  -5 -15    6.49    3.46
  -5  10  15    5.29    2.56
 -10   5 -18   78.52   11.03
   5   5 -18   59.91    9.00
  10  -5  18   66.94    9.46
  -5  10 -18   70.99   11.70
  10  -5 -18   66.74   10.55
 -10   5  18   92.80   13.53
  -5  10  18   79.50   12.74
 -10   5  21   26.72    7.87
 -10   5 -21   26.36    6.96
   5   5  21   22.66    3.70
  -5  10 -21   33.30    8.32
   5   5 -21   28.14    6.27
  10  -5  21   19.79    4.52
  -5  10  21   34.09    8.46
 -10   5 -21   32.10    7.21
 -10   5  24   40.76    9.74
   5   5  24   25.90    3.91
 -10   5 -24   28.87    6.92
  -5  10 -24   28.53    7.31
   5   5 -24   26.96    6.84
  10  -5  24   23.74    5.53
  -5  10  24   25.19    7.33
 -10   5 -24   21.58    5.44
   5   5 -27    1.81    1.85
 -10   5  27    6.83    4.42
   5   5  27    5.91    2.57
   5   5 -27   -3.34    3.03
  10  -5  27    5.70    2.99
  -5  10 -27   -0.40    2.12
  -5  10  27    0.47    2.46
 -10   5 -27    0.59    2.03
  -5  10  30   20.02    6.61
   5   5 -30    9.49    2.80
 -10   5  30   10.65    4.63
   5   5  30   18.06    4.32
  -5  10 -30   15.76    6.16
 -10   5 -30   19.23    5.82
  -5  10  33   29.15    7.82
 -10   5  33   22.75    6.89
   5   5 -33   18.95    4.48
   5   5  33   27.97    5.51
  -5  10 -33   26.28    8.05
 -10   5 -33   22.32    5.67
  -5  10  36   64.82   11.96
 -10   5  36   60.20   11.76
   5   5 -36   29.03    5.81
   5   5  36   54.05    8.17
  -5  10 -36   60.52   12.09
 -10   5 -36   56.53    9.17
  -5  10  39    6.67    2.97
   5   5 -39    2.21    2.33
 -10   5  39    7.03    4.69
   5   5  39    8.93    3.61
  -5  10 -39    1.87    2.92
 -10   5 -39    5.19    2.79
 -10   5  42   26.16    7.73
  -5  10  42   38.23    9.88
  -5  10  42   29.35    7.65
   5   5 -42   19.49    5.57
   5   5  42   39.33    8.44
  -5  10 -42   43.17   10.93
 -10   5 -42   29.31    6.81
 -10   5  45   -3.90    4.10
  -5  10  45    3.81    3.31
  -5  10  45    5.54    5.28
   5   5 -45    3.75    3.27
   5   5  45    1.25    2.11
  -5  10 -45    2.93    2.99
 -10   5 -45    2.13    3.10
  -5  10  48    7.22    4.62
  -5  10  48    3.64    4.69
 -10   5  48   -1.60    3.89
 -10   5 -48    4.27    4.54
  -5  10 -48    0.89    3.51
   5   5  48    4.98    3.39
 -10   5  51    1.44    3.33
  -5  10  51    8.62    4.99
  -5  10  51   -4.32    4.89
 -10   5 -51    2.50    3.26
  -5  10 -51    8.77    5.95
   5   5  51    5.61    3.60
  -5  10  54   13.51    5.41
 -10   5  54   11.67    5.64
  -5  10  54    9.29    4.90
  -5  10 -54   23.63    9.69
 -10   5 -54    6.05    4.46
   5   5  54   12.50    4.75
 -10   5  57    3.51    2.97
  -5  10  57    3.77    3.16
 -10   5 -57   -0.18    3.08
  -5  10 -57    6.10    4.87
   5   5  57   -1.60    3.55
  -5  10  60    2.73    3.61
  -5  10 -60   -3.09    5.08
 -10   5 -60    2.30    2.91
 -10   5  60   10.84    7.52
   5   5  60   11.88    6.70
  -5  10  63   -3.92    6.32
  -5  10 -63    3.23    3.58
 -10   5 -63    3.83    3.31
 -10   5  63    7.15    5.39
   5   5  63   -2.27    3.09
   5   5  66   20.06    8.31
 -10   5  66   25.90   10.65
   5   5  69    5.47    3.76
 -10   5  69   20.39    9.52
   5   5  72    3.10    5.60
   5   5  75    5.77    6.27
   4   6  73    0.27    4.98
 -10   6 -70    5.13    4.52
 -10   4  70   10.22    8.10
   4   6  70    7.01    5.76
 -10   6 -67    2.30    4.37
 -10   4  67   -5.21    6.34
   4   6  67    7.45    5.43
  -6  -4  67   -5.16    4.88
  -4  10  64   21.66    8.89
  -6  10 -64   15.71    7.32
 -10   6 -64    8.29    7.03
 -10   4  64   22.29    9.97
   4   6  64   26.38    8.69
  -6  -4  64   25.35    8.90
  -4  10  61   -5.73    4.12
  -6  10 -61    0.76    5.80
 -10   6 -61    0.70    4.09
 -10   4  61   -0.92    4.08
   4   6  61    0.35    3.75
  -6  -4  61    0.47    3.29
  -4  10  58    8.39    6.45
 -10   6 -58    2.34    4.23
  -6  10 -58    9.36    6.72
 -10   4  58    7.16    6.04
   4   6  58    3.22    5.19
  -6  -4  58    1.61    3.09
  -4  10  55   -0.11    2.71
  -4  10  55   -1.29    3.25
 -10   6 -55    0.64    3.73
  -6  10 -55    0.56    2.81
 -10   4  55   -2.15    3.78
   4   6  55    0.56    2.98
  -6  -4  55    4.65    3.76
  -4  10  52    7.44    4.18
  -4  10  52    0.98    2.68
  -6  10 -52   11.30    6.51
 -10   6 -52    3.31    4.96
 -10   4  52    7.60    5.51
   4   6  52    5.46    3.52
  -6  -4  52    8.06    3.58
  -4  10  49    1.48    3.34
  -4  10  49   -1.66    2.60
 -10   4  49    4.82    4.59
 -10   6 -49    5.52    5.19
  -6  10 -49    3.81    3.57
   4   6  49    0.70    2.56
  -6  -4  49    4.90    4.48
  -4  10  46   24.93    7.56
 -10   4  46   15.66    7.15
  -4  10  46   16.67    6.96
   4   6  46   22.23    6.80
  -6  -4  46   16.15    5.66
  -6  10 -46   22.12    7.87
  -4  10  43   -1.30    2.15
  -4  10  43   -1.95    2.17
 -10   4  43   -7.33    5.19
   4   6  43    2.60    3.54
  -6  -4  43    8.14    4.25
  -6  10 -43    7.89    6.00
 -10   6 -43    4.96    3.41
  -4  10  40   -0.66    2.67
  -4  10  40   -2.34    3.31
 -10   4  40   -8.41    6.38
   4   6  40    2.04    3.18
  -6  10 -40   -2.45    2.13
 -10   6 -40    4.49    3.56
 -10   4  37   20.09    6.85
  -4  10  37   25.16    8.35
  -4  10  37   18.85    6.33
   4   6  37   25.54    6.46
  -6  10 -37   26.16    8.28
 -10   6 -37   23.34    6.56
   4   6  34   62.27    9.95
 -10   4  34   52.58   10.86
  -4  -6 -34   43.79    4.43
  -6  10 -34   60.12   11.88
 -10   6 -34   59.82    9.88
  -4  10  34   69.84   12.13
  -4  10  31    4.78    3.24
 -10   4  31    6.14    3.37
   4   6  31    1.16    2.64
  -4  -6 -31    1.34    1.68
  -6  10 -31    6.79    4.09
 -10   6 -31   -1.74    2.53
 -10   4  28    3.42    3.28
   4   6  28    4.35    2.92
  -6  10 -28   -1.02    1.97
  10  -6  28    9.89    4.64
 -10   6 -28    3.03    2.02
  -4  10  28    3.53    3.43
   4   6  25   20.28    4.75
  10  -6  25    7.05    2.90
  -6  10 -25   21.79    7.23
 -10   6 -25   11.52    4.27
  -4  10  25   13.56    4.57
   4   6  22   88.89    9.03
  10  -6  22   82.44   11.27
 -10   6 -22   90.38   12.18
  -6  10 -22   95.96   14.11
  10  -4 -22   78.16   11.63
  -4  10  22  103.89   14.40
 -10   4  22   78.47   10.99
 -10   4  19    3.68    3.99
   4   6  19    5.04    2.04
  10  -6  19    2.50    2.03
  -6  10 -19    3.81    4.06
  10  -4 -19   13.59    5.05
  -4  10  19    7.13    3.67
 -10   6 -19    0.29    1.99
   4   6  16   29.28    2.81
   4   6  16   51.85    5.73
 -10   6 -16   63.00   10.13
  10  -6  16   54.97    8.76
  10  -4 -16   55.46    9.26
  -6  10 -16   57.59   10.60
 -10   4  16   67.77   11.22
  -4  10  16   57.25   10.13
 -10   4  13    8.17    3.49
   4   6  13    3.64    1.75
   6   4 -13    9.13    3.47
  10  -6  13   -1.91    3.82
 -10   6 -13   -0.05    2.75
  -4  10  13   -0.81    3.70
  -6  10 -13    2.70    2.58
   4   6  13    2.96    1.49
  10  -4 -13    4.16    2.57
   4   6  10   29.34    3.02
  -4  10  10   65.36   10.70
   6   4 -10   46.15    6.40
  10  -4 -10   51.97    8.22
  10  -6  10   54.03    9.04
  -6  10 -10   64.91   11.15
 -10   4  10   73.20   11.16
 -10   6 -10   59.79    9.78
   4   6  10   36.31    3.82
 -10   4   7    7.36    4.55
  10  -6   7    1.65    1.78
   6   4  -7    9.34    2.80
  10  -4  -7    8.44    3.78
  -6  10  -7   10.81    4.41
   4   6   7    2.53    0.91
 -10   6  -7   -1.72    2.64
  -4  10   7    5.58    3.59
 -10   4   4   37.23    7.44
   4   6   4   30.28    4.28
   6   4  -4   20.82    3.26
  10  -6   4   32.59    6.83
 -10   6  -4   39.60    8.05
  10  -4  -4   25.65    5.62
  -6  10  -4   39.31    8.75
  -4  10   4   32.49    7.60
 -10   4   1    4.81    2.95
   6   4  -1    6.09    1.73
  10  -6   1    1.57    1.74
   6   4  -1    7.20    2.10
  10  -4  -1    4.81    1.91
   4   6   1    4.01    1.79
  -4  10   1    0.38    2.25
 -10   6  -1    7.01    3.73
  -6  10  -1    6.04    3.42
 -10   4  -2    4.54    3.57
   6   4   2    3.01    1.49
  10  -4   2   -1.94    2.83
   6   4   2    1.54    0.92
   4   6  -2   -1.11    1.20
 -10   6   2   -1.58    2.90
  -4  10  -2    1.50    2.10
  10  -6  -2   -2.24    2.40
  -6  10   2    1.13    1.87
 -10   4  -5   31.64    6.72
   4   6  -5   31.19    5.27
  10  -4   5   24.50    4.61
  -6  10   5   38.52    8.50
  10  -6  -5   29.05    6.44
 -10   6   5   38.54    8.14
  -4  10  -5   30.03    7.20
 -10   6   8   44.57    8.87
  10  -4   8   24.60    5.23
   4   6  -8   35.68    6.13
  -4  10  -8   34.25    8.04
  -6  10   8   41.55    8.99
  10  -6  -8   37.34    7.62
 -10   4  -8   32.61    6.67
   4   6 -11    2.89    1.61
 -10   6  11   -3.94    2.93
   4   6 -11    0.43    2.04
  10  -4  11   -3.10    2.73
  -4  10 -11   -8.79    4.74
  10  -6 -11   -0.72    2.15
  -6  10  11   -7.97    5.39
 -10   4 -11   -8.73    4.06
 -10   6  14   47.14    9.68
   4   6 -14   11.68    1.88
   4   6 -14   28.51    5.63
  10  -4  14   21.78    4.70
 -10   4 -14   41.92    7.86
  -4  10 -14   36.44    8.63
  -6  10  14   35.20    8.25
   4   6 -17    6.38    1.75
 -10   6  17   21.52    6.76
 -10   4 -17   17.57    5.97
  10  -4  17   20.28    4.79
   4   6 -17   10.69    3.62
  -4  10 -17   27.28    6.90
  -6  10  17   15.40    5.35
 -10   4 -17   19.99    5.43
 -10   6  20   -0.37    2.06
   4   6 -20    4.41    2.01
 -10   4 -20    1.11    2.32
  10  -4  20    3.32    2.21
  -4  10 -20    1.37    3.39
   4   6 -20    2.88    1.62
 -10   4 -20    1.10    2.43
  -6  10  20    5.14    3.51
   4   6 -23    2.32    1.95
 -10   4 -23    3.87    3.03
  10  -4  23   -2.76    2.42
  -4  10 -23   -3.26    3.23
   4   6 -23    0.56    2.43
  -6  10  23    1.04    2.91
 -10   4 -23    3.16    2.90
 -10   6  26   47.81   10.15
   4   6 -26   23.78    4.55
 -10   4 -26   45.39    8.66
   4   6 -26   49.50    9.25
  -4  10 -26   43.11    9.68
  -6  10  26   56.38   11.09
 -10   4 -26   38.67    7.16
  -6  10  29   -2.45    3.67
 -10   6  29   -4.19    3.91
   4   6 -29    1.05    2.40
 -10   4 -29    2.77    2.99
   6   4  29    2.44    1.76
   4   6 -29   -3.05    3.36
  -4  10 -29    5.01    3.81
 -10   4 -29   -3.65    1.81
  -6  10  32   45.33    9.64
   4   6 -32   31.45    5.98
 -10   6  32   55.24   11.70
  -4  10 -32   53.18   11.44
   4   6 -32   52.52   10.13
 -10   4 -32   46.77    8.14
   6   4  32   62.39    7.65
 -10   6  35   58.61   11.68
  -6  10  35   61.20   11.69
   4   6 -35   34.52    6.36
 -10   6  35   49.27    9.77
   4   6 -35   48.12    9.99
  -4  10 -35   71.91   13.33
 -10   4 -35   54.30    9.03
   6   4  35   61.35    7.64
   4   6 -38   32.98    6.86
  -6  10  38   65.44   12.77
 -10   6  38   52.82   10.48
 -10   6  38   69.07   13.27
   6   4  38   78.84    9.81
   4   6 -38   50.90   10.32
 -10   4 -38   60.77    9.19
  -4  10 -38   74.18   13.60
   4   6 -41    3.96    3.02
  -6  10  41   -1.71    4.66
 -10   6  41    0.34    2.57
   6   4  41    2.37    2.10
   4   6 -41   -4.22    4.86
  -4  10 -41   -0.42    3.36
 -10   4 -41    7.86    4.10
  -6  10  44   14.04    7.01
  -6  10  44   14.76    6.88
 -10   6  44    9.12    5.48
   4   6 -44    5.12    4.43
   6   4  44   15.85    5.37
   4   6 -44   16.39    6.92
  -4  10 -44    5.38    3.43
 -10   4 -44   10.09    4.45
 -10   6  47   -1.61    3.73
  -6  10  47   -1.14    3.02
  -6  10  47    4.23    4.32
   6   4  47   -1.81    2.94
   4   6 -47   -3.09    2.40
  -4  10 -47    3.33    4.15
 -10   4 -47    1.56    2.25
 -10   6  50   18.17    7.35
  -6  10  50   22.22    8.08
  -6  10  50   15.22    6.75
 -10   4 -50   11.43    7.01
   4   6 -50   24.20    8.80
  -4  10 -50   25.16    9.39
   6   4  50   24.72    7.06
  -6  10  53    9.21    5.11
 -10   6  53    4.00    3.89
  -6  10  53   11.44    6.82
  -4  10 -53    0.28    2.85
 -10   4 -53    2.19    3.54
   6   4  53    9.51    5.16
  -6  10  56   13.65    7.46
 -10   6  56   19.43    7.26
  -6  10  56   10.59    5.16
  -4  10 -56    5.97    5.76
 -10   4 -56    2.03    2.89
   6   4  56   17.29    6.87
 -10   6  59    9.13    7.17
  -6  10  59    2.70    3.78
  -4  10 -59    7.24    4.40
   6   4  59    0.03    2.59
  -6  10  62    3.20    4.65
  -4  10 -62    5.88    6.10
 -10   6  62   14.97    7.40
   6   4  62   10.34    6.33
 -10   6  65    6.47    4.85
   6   4  65   -1.36    3.43
 -10   6  68   11.80    8.27
   6   4  68   18.69    8.81
   6   4  71   12.05    5.48
 -10   7 -74    6.09    8.65
   3   7  74   29.17   11.36
 -10   7 -71   -0.66    4.34
   3   7  71    1.71    4.09
 -10   3  71    1.35    4.16
 -10   7 -68    3.37    5.91
   3   7  68   11.48    6.80
 -10   3  68   10.68    7.74
 -10   7 -65    2.76    3.63
  -3  10  65    8.10    4.95
   3   7  65   -0.27    3.51
 -10   3  65   -6.31    4.76
  -7  -3  65    7.90    5.43
 -10   7 -62    3.14    5.17
  -7  10 -62   21.98    9.04
  -3  10  62   13.38    7.14
   3   7  62   12.95    5.70
 -10   3  62   10.85    5.45
  -7  -3  62    7.84    5.23
  -3  10  59    6.50    4.49
  -7  10 -59    3.01    2.69
 -10   7 -59   -0.75    2.86
 -10   3  59   -3.17    4.97
  -7  -3  59    5.58    4.33
   3   7  59   -1.64    3.56
  -3  10  56   12.29    7.07
 -10   7 -56    7.87    6.53
  -7  10 -56   13.11    6.57
 -10   3  56   12.66    6.94
  -7  -3  56   20.73    6.94
   3   7  56   10.55    6.26
  -3  10  53    1.74    2.96
  -3  10  53   -2.59    6.13
  -7  10 -53    1.64    3.90
 -10   7 -53    1.84    2.49
 -10   3  53    4.64    3.98
  -7  -3  53    0.99    2.31
   3   7  53    6.32    5.66
  -3  10  50   20.01    7.54
  -3  10  50   17.95    6.76
  -7  10 -50   14.73    6.44
 -10   7 -50    8.18    6.16
 -10   3  50   18.14    8.24
  -7  -3  50   28.03    8.04
   3   7  50   34.67    8.68
  -3  10  47   -3.80    3.89
  -3  10  47    0.29    2.79
 -10   3  47   -0.16    3.50
  -7  -3  47    5.18    3.51
   3   7  47    2.36    3.40
 -10   7 -47    3.47    4.17
  -7  10 -47   -9.05    5.14
 -10   3  44    5.91    4.21
  -3  10  44    6.17    3.12
  -3  10  44   -0.25    2.56
  -7  -3  44    3.15    2.89
   3   7  44    3.82    2.82
  -7  10 -44    6.43    4.43
 -10   7 -44    1.66    2.50
 -10   3  41    0.21    2.48
  -3  10  41    1.36    3.07
  -3  10  41   -2.17    3.49
  -7  -3  41    6.31    3.64
   3   7  41    0.61    2.76
  -7  10 -41    5.84    3.93
 -10   7 -41    4.25    4.20
 -10   3  38    3.38    3.56
  -3  10  38    9.16    4.55
  -3  10  38    6.79    3.64
   3   7  38    3.68    4.07
  -7  -3  38    5.52    2.28
  -7  10 -38    5.81    3.75
 -10   7 -38    3.62    2.13
  -3  10  35    3.95    4.22
  -3  10  35   -0.98    2.37
 -10   3  35   -7.27    3.12
   3   7  35    4.16    3.69
  -7  -3  35    0.22    1.31
  -7  10 -35   -3.27    3.98
  -3  -7 -35   -1.25    1.36
 -10   7 -35    2.72    2.65
  -3  10  32   42.20    9.29
 -10   3  32   43.79    9.74
   7   3 -32   24.06    6.25
   3   7  32   42.81    8.29
  -7  -3  32   37.69    5.35
  -3  -7 -32   29.65    4.73
  -7  10 -32   40.07    9.41
 -10   7 -32   39.00    8.87
  -3  10  29   24.30    6.91
   7   3 -29   21.43    5.83
 -10   3  29   20.17    6.55
   3   7  29   26.60    6.32
  -7  10 -29   27.02    7.79
  -3  -7 -29   16.83    3.64
 -10   7 -29   22.46    6.96
   3   7  26   11.82    3.03
 -10   3  26   19.11    6.04
   7   3 -26    9.52    3.81
   3   7  26   13.21    4.35
  -3  -7 -26   13.27    3.61
  -3  10  26   20.39    6.02
  -7  10 -26   18.01    6.25
 -10   7 -26   21.04    6.45
 -10   3  23    3.61    3.18
   3   7  23   -5.31    2.44
   7   3 -23   -3.40    2.42
   3   7  23    2.34    2.44
  -3  -7 -23   -4.21    1.79
  -7  10 -23   -1.52    3.12
 -10   7 -23   -4.75    3.35
  10  -3 -23   -1.68    2.57
  -3  10  23    4.32    4.29
   7   3 -20   30.72    6.11
   3   7  20   35.39    4.78
   3   7  20   38.13    6.22
  -3  -7 -20   38.33    5.49
  10  -7  20   52.91    9.48
  -7  10 -20   41.54    9.12
  -3  10  20   54.58   10.23
  10  -3 -20   34.91    7.41
 -10   7 -20   36.89    7.86
   3   7  17   -6.54    2.70
   7   3 -17    2.92    3.33
  10  -7  17   -4.92    3.43
  10  -3 -17    5.35    3.36
   3   7  17   -7.61    2.95
 -10   7 -17   -3.93    2.69
  -3  10  17   -7.78    4.70
  -7  10 -17   -2.45    2.68
   3   7  14   86.65    7.74
  10  -7  14  104.00   13.20
  -7  10 -14  121.24   15.85
 -10   7 -14  135.97   15.84
  10  -3 -14  111.66   12.24
  -3  10  14  123.13   14.76
   3   7  14  115.85    9.25
   7   3 -14   96.08    9.98
   3   7  11   -1.40    1.23
   7   3 -11   10.06    3.76
 -10   3  11    7.44    3.75
  10  -7  11   -2.44    3.26
 -10   7 -11    7.39    5.96
  -3  10  11    6.48    3.82
   3   7  11   -1.91    1.60
  -7  10 -11    8.50    4.73
  10  -3 -11    0.82    2.00
   7   3  -8   23.28    4.19
 -10   3   8   28.11    6.51
   3   7   8   15.42    2.78
  10  -7   8   29.74    6.99
 -10   7  -8   31.15    7.52
  -7  10  -8   35.57    8.31
  10  -3  -8   29.56    5.97
   3   7   8   21.07    3.95
  -3  10   8   27.26    6.62
   7   3  -5   10.30    2.11
   3   7   5    2.78    1.57
 -10   3   5   24.89    5.95
   7   3  -5   14.17    2.95
  10  -7   5   13.48    4.22
  10  -3  -5   20.67    4.82
   3   7   5   12.03    2.86
 -10   7  -5   10.70    4.66
  -7  10  -5   19.75    6.49
  -3  10   5   19.46    5.63
 -10   3   2    2.48    2.94
  10  -7   2   -5.50    3.95
   7   3  -2    3.58    1.54
   3   7   2   -1.12    1.80
   7   3  -2    2.31    1.49
  10  -3  -2   -2.97    2.56
  -3  10   2   -5.83    4.45
  -7  10  -2   -9.25    5.14
 -10   7  -2   -8.40    4.26
 -10   3  -1   39.81    7.46
   3   7  -1   27.78    3.46
   7   3   1   15.41    1.66
  10  -7  -1   41.66    8.39
   3   7  -1   33.36    5.45
  10  -3   1   31.35    5.80
 -10   7   1   38.02    8.77
  -3  10  -1   34.01    7.68
  -7  10   1   40.26    8.89
   7   3   1    7.69    1.38
 -10   3  -4   20.28    5.27
   3   7  -4   20.96    3.69
  10  -3   4   18.51    4.21
   3   7  -4   22.74    5.01
  -3  10  -4   29.13    7.30
  -7  10   4   35.64    8.56
 -10   7   4   24.40    7.02
 -10   3  -7   -7.56    3.34
   3   7  -7   -6.35    2.32
  10  -3   7   -3.26    2.58
   3   7  -7    0.47    1.32
  -7  10   7    0.51    2.93
  -3  10  -7   -6.40    4.48
 -10   7   7   -8.93    5.43
 -10   3 -10   37.46    6.58
   3   7 -10   29.91    4.27
  10  -3  10   29.99    5.31
   3   7 -10   40.40    6.90
  -3  10 -10   36.23    8.08
 -10   7  10   46.23    9.57
  -7  10  10   43.93    9.40
 -10   7  13   -4.51    2.46
 -10   3 -13   -0.41    2.49
   3   7 -13   -3.73    1.88
   3   7 -13   -1.02    2.70
  10  -3  13   -5.21    2.94
  -3  10 -13   -3.60    2.81
  -7  10  13   -1.36    3.50
 -10   3 -13    6.69    3.17
 -10   7  16    2.52    3.51
 -10   3 -16    2.29    1.78
   3   7 -16    6.00    2.87
  -3  10 -16    5.81    3.66
   3   7 -16    3.41    2.33
  10  -3  16    3.54    2.64
 -10   3 -16    3.95    2.54
  -7  10  16    4.93    3.71
 -10   7  19    2.23    2.32
   3   7 -19   -1.47    1.89
 -10   3 -19   -0.35    2.08
   3   7 -19   -1.44    1.61
  10  -3  19    4.34    2.26
  -3  10 -19   -1.72    3.23
 -10   3 -19    1.21    2.04
  -7  10  19   -3.20    3.14
 -10   7  22   18.94    6.12
 -10   3 -22   26.61    6.23
   3   7 -22   13.25    3.95
  -3  10 -22   21.69    6.76
   3   7 -22    3.23    2.00
  -7  10  22   23.42    7.23
 -10   3 -22   17.95    4.70
 -10   7  25    6.24    3.58
   3   7 -25    1.29    1.81
 -10   3 -25   11.31    4.49
  -3  10 -25    8.00    4.41
   3   7 -25    8.78    3.58
 -10   3 -25    3.64    2.46
  -7  10  25    8.80    5.04
  -7  10  28   31.80    8.88
 -10   7  28   30.33    8.66
   3   7 -28   20.59    5.02
 -10   3 -28   26.34    7.22
  -3  10 -28   28.89    7.89
   3   7 -28   21.50    6.74
 -10   3 -28   22.13    4.74
  -7  10  31    3.42    3.92
 -10   7  31   -2.50    4.93
   3   7 -31    5.46    3.68
 -10   3 -31    5.84    4.43
  -3  10 -31   13.63    6.09
   3   7 -31    0.39    2.39
 -10   3 -31    3.50    3.65
   3   7 -34   67.27   10.33
 -10   3 -34   99.85   13.28
   3   7 -34  101.05   14.71
 -10   3 -34   81.41    9.26
  -3  10 -34  106.87   16.27
  -7  10  34  116.98   16.95
 -10   7  34  127.86   18.25
  -7  10  37   20.10    7.24
 -10   7  37   17.56    7.25
   3   7 -37    6.21    4.12
   3   7 -37   14.85    6.14
  -3  10 -37   16.43    6.95
 -10   3 -37   13.77    3.63
 -10   7  40   15.66    6.67
  -7  10  40   10.62    5.19
 -10   7  40    9.05    5.08
   3   7 -40    5.66    3.83
   3   7 -40    7.78    3.39
  -3  10 -40    8.51    4.96
 -10   3 -40   12.14    4.23
  -7  10  43    1.93    3.14
  -7  10  43    0.09    3.33
 -10   7  43    2.19    3.74
 -10   7  43    4.69    4.59
   3   7 -43   -0.12    4.13
   3   7 -43   -7.03    5.58
  -3  10 -43   -3.32    3.96
 -10   3 -43    2.75    2.04
  -7  10  46   22.89    9.03
  -7  10  46   34.84   10.24
 -10   7  46   22.34    8.54
   7   3  46   26.42    6.57
   3   7 -46    9.83    4.59
  -3  10 -46   29.51    9.75
 -10   3 -46   18.92    4.80
  -7  10  49    4.64    5.88
  -7  10  49    2.36    3.75
 -10   7  49    1.70    2.68
   7   3  49    2.68    4.09
  -3  10 -49   -0.06    2.86
   3   7 -49   -3.98    4.40
 -10   3 -49   -0.75    2.67
 -10   7  52    5.74    3.50
  -7  10  52    4.78    4.45
  -7  10  52    5.95    5.21
  -3  10 -52    0.33    4.07
   3   7 -52    6.87    4.65
   7   3  52    8.90    5.45
  -7  10  55   14.88    8.41
 -10   7  55   10.91    6.32
  -7  10  55   13.43    6.57
  -3  10 -55    2.99    4.33
   3   7 -55   -0.29    3.79
   7   3  55   -1.78    3.00
 -10   7  58   15.89    8.28
  -7  10  58   16.72    7.57
  -3  10 -58   16.36    8.27
   3   7 -58   15.57    8.22
   7   3  58   18.87    6.69
  -7  10  61    8.00    7.53
 -10   7  61    2.94    5.30
  -3  10 -61    7.83    5.27
   3   7 -61    7.66    6.86
   7   3  61   -0.51    3.59
 -10   7  64    5.87    6.04
   3   7 -64    5.14    5.95
   7   3  64    2.63    3.19
   7   3  67    3.41    4.76
   7   3  70    6.09    6.44
 -10   8 -72    2.92    7.16
   2   8  72   15.40    7.08
 -10   2  72   11.29    9.15
 -10   8 -69    1.96    5.00
 -10   2  69    1.57    3.60
   2   8  69   -0.63    4.62
 -10   8 -66    5.45    7.71
  -2  10  66   17.66    9.50
 -10   2  66   10.35    7.95
   2   8  66    6.60    3.61
  -8  10 -63    0.28    3.57
 -10   8 -63    0.12    4.83
  -2  10  63    3.39    4.87
 -10   2  63   15.88    8.47
   2   8  63   -1.86    3.82
 -10   8 -60    1.06    3.09
  -8  10 -60    6.40    7.78
  -2  10  60   11.59    6.72
 -10   2  60   12.10    7.05
   2   8  60    7.07    5.97
  -8  -2  60    9.33    5.28
  -2  10  57    0.25    4.90
  -8  10 -57    3.43    6.43
 -10   8 -57    3.90    4.21
 -10   2  57   10.55    6.89
   2   8  57    2.04    2.63
  -8  -2  57    2.06    3.81
  -2  10  54   10.82    6.52
  -8  10 -54    1.40    4.81
 -10   8 -54    6.57    7.26
 -10   2  54    8.17    5.84
   2   8  54   24.23    7.80
  -8  -2  54    9.19    4.56
  -2  10  51   -2.61    4.01
  -2  10  51    2.08    3.39
 -10   8 -51   -1.11    4.28
  -8  10 -51    1.94    4.22
 -10   2  51    7.22    4.38
   2   8  51   -0.92    3.06
  -8  -2  51    1.98    2.90
  -2  10  48   -2.34    3.31
  -2  10  48    1.07    2.72
 -10   8 -48   -2.10    3.30
  -8  10 -48   -2.65    2.83
 -10   2  48    3.87    5.04
   2   8  48    4.66    2.48
  -8  -2  48    2.07    3.33
  -2  10  45    0.87    3.01
  -2  10  45    0.95    2.70
 -10   2  45    5.57    4.54
   2   8  45    3.83    4.01
  -8  -2  45    2.07    3.53
  -8  10 -45    0.46    2.72
 -10   8 -45   -3.31    3.63
  -2  10  42   26.81    8.09
  -2  10  42   23.58    7.22
 -10   2  42   22.97    7.72
   2   8  42   24.93    7.33
  -8  -2  42   22.94    6.09
  -8  10 -42   15.12    6.46
 -10   8 -42   16.12    6.43
  -2  10  39    2.45    2.62
  -2  10  39    0.39    2.37
 -10   2  39    4.14    4.11
   2   8  39    4.46    3.16
  -8  -2  39    6.58    3.62
  -8  10 -39    2.38    3.41
 -10   8 -39   -0.22    2.23
  -2  10  36   25.61    6.85
  -2  10  36   38.06    9.43
 -10   2  36   21.07    6.80
   2   8  36   35.61    8.58
  -8  -2  36   15.97    4.92
  -8  10 -36   27.34    8.06
 -10   8 -36   27.75    7.89
 -10   2  33    2.70    3.11
  -2  10  33    1.20    2.76
  -2  10  33    0.46    2.58
   2   8  33    0.85    2.46
   2   8  33   -0.59    2.34
  -8  -2  33    2.24    2.63
  -2  -8 -33    7.28    3.48
  -8  10 -33    8.39    4.80
 -10   8 -33    2.52    2.94
  -2  10  30   20.50    6.27
 -10   2  30   15.88    5.97
   8   2 -30   14.26    5.36
   2   8  30   17.19    4.61
   2   8  30   16.50    5.30
  -8  -2  30   11.65    3.39
  -2  -8 -30   13.90    3.83
  -8  10 -30   11.79    5.65
 -10   8 -30   18.06    6.61
   2   8  27    0.21    1.59
   8   2 -27    3.04    4.11
 -10   2  27   -0.20    2.08
   2   8  27    1.75    2.42
  -8  -2  27    3.54    2.07
  -2  -8 -27    1.75    1.98
  -8  10 -27    4.07    3.62
 -10   8 -27    6.10    4.56
  -2  10  27   -0.95    2.07
 -10   2  24   31.25    7.49
   2   8  24   27.73    5.29
   8   2 -24   28.24    6.44
   2   8  24   29.85    6.65
  -8  -2  24   33.67    4.77
  -2  -8 -24   33.34    7.90
  10  -2 -24   35.65    7.95
  -8  10 -24   40.86    9.70
  -2  10  24   31.93    7.13
 -10   8 -24   36.60    8.55
   8   2 -21    0.49    2.24
   2   8  21   -2.92    1.42
 -10   2  21   -3.67    2.72
  -2  -8 -21   -5.14    2.11
  -8  10 -21   -0.03    2.60
  -2  10  21   -2.98    3.64
 -10   8 -21   -4.83    3.01
  10  -2 -21    3.63    3.27
   2   8  21   -2.70    2.41
   8   2 -18   17.60    4.85
 -10   2  18   17.61    5.75
   2   8  18   10.13    2.67
   2 -10 -18   26.13    7.68
  -2  -8 -18   15.32    3.93
  -8  10 -18   21.92    6.77
  10  -2 -18   19.73    5.32
 -10   8 -18   16.10    5.84
   2   8  18   19.19    4.36
  -2  10  18   12.04    3.98
   8   2 -15   26.39    5.55
   2   8  15   24.36    4.65
  -2  -8 -15   28.60    5.40
   2 -10 -15   32.36    7.59
  10  -2 -15   33.48    6.65
  -8  10 -15   48.13   10.16
  -2  10  15   30.27    7.13
 -10   8 -15   36.34    8.40
   2   8  15   29.95    5.47
   8   2 -12   43.39    6.38
   2   8  12   35.39    5.63
  -2  -8 -12   36.92    6.58
   2 -10 -12   44.63    9.83
  10  -2 -12   52.94    8.20
   2   8  12   34.06    5.49
  -2  10  12   52.17    8.98
  -8  10 -12   48.95   10.25
 -10   8 -12   58.65   10.74
   2 -10  -9    7.10    2.52
  -2  10   9    9.60    3.75
 -10   8  -9    8.66    4.70
  -8  10  -9   10.58    4.67
   8   2  -9    9.85    2.97
  10  -2  -9   13.50    3.80
   2   8   9    8.64    2.77
   2 -10  -6    4.85    2.30
   8   2  -6    6.19    2.36
 -10   8  -6   -3.81    4.60
  10  -2  -6    6.43    2.95
   2   8   6    9.14    2.90
  -8  10  -6   -0.94    3.80
  -2  10   6    1.31    1.93
   2 -10  -3   27.92    8.52
   8   2  -3    9.23    1.92
  10  -2  -3   13.85    3.73
   2   8   3   18.72    4.48
 -10   8  -3   21.58    6.48
  -2  10   3   19.20    5.61
  -8  10  -3   21.47    6.10
  -8  10   0   36.45    8.36
   2   8   0   18.60    4.63
  10  -2   0   13.33    3.27
   8   2   0    5.75    1.50
  -2  10   0   15.36    5.15
 -10   8   0   16.37    6.23
  10  -2   3    3.60    2.37
   2   8  -3    2.22    1.60
  -8  10   3    8.98    5.10
  -2  10  -3    4.45    2.16
 -10   8   3    1.81    2.05
 -10   2  -6    9.35    3.08
   2   8  -6    9.39    2.70
  10  -2   6    7.46    2.51
   2   8  -6   10.00    3.46
  -2  10  -6    9.48    4.59
  -8  10   6   18.44    6.37
 -10   8   6   13.96    5.72
 -10   2  -9    4.89    3.00
 -10   2  -9    1.89    1.25
   2   8  -9   -1.38    2.09
   2   8  -9    3.63    2.12
  10  -2   9    3.76    2.00
  -2  10  -9   11.27    4.29
 -10   8   9    3.67    3.27
  -8  10   9    1.27    2.82
 -10   2 -12    3.32    2.08
 -10   2 -12    5.03    2.10
   2   8 -12    1.87    1.73
   2   8 -12    7.92    3.52
  10  -2  12    0.91    1.09
  -8  10  12    5.77    4.71
 -10   8  12    6.19    4.29
  -2  10 -12    9.31    3.96
 -10   8  15   17.24    6.69
 -10   2 -15   -1.17    1.20
 -10   2 -15    2.81    3.90
   2   8 -15   12.02    3.38
  -2  10 -15    5.60    2.50
  10  -2  15    7.86    2.62
   2   8 -15   14.57    5.10
  -8  10  15   11.71    6.18
   2   8 -18   99.54   11.54
 -10   2 -18  107.02   11.63
   2   8 -18  112.96   13.38
  -2  10 -18  115.47   14.96
 -10   8  18  152.59   18.53
 -10   2 -18   80.27    7.39
  -8  10  18  143.23   18.08
 -10   2 -21    2.15    2.04
 -10   8  21   19.14    7.31
   2   8 -21   16.77    5.06
  -2  10 -21   19.73   10.32
 -10   2 -21    9.62    4.41
   2   8 -21   17.06    4.98
  -2  10 -21   20.81    6.72
  -8  10  21   19.07    7.11
 -10   8  24    0.20    2.83
 -10   2 -24    4.52    1.60
   2   8 -24    2.75    2.82
   2   8 -24    3.41    2.53
  -2  10 -24    1.96    2.90
  -8  10  24    3.80    3.64
 -10   2 -24    4.34    2.12
  -8  10  27    6.97    4.43
 -10   8  27   -3.70    3.81
 -10   2 -27   -0.70    2.34
   2   8 -27    4.42    2.97
   2   8 -27    2.69    2.29
  -2  10 -27    6.54    3.61
 -10   2 -27    3.92    2.47
  -8  -2 -30   34.39    5.63
 -10   8  30   56.26   12.03
   2   8 -30   32.69    7.55
 -10   2 -30   47.65    9.29
  -2  10 -30   65.65   12.43
   2   8 -30   40.68    8.71
  -8  10  30   69.82   12.96
 -10   2 -30   46.25    6.14
  -8  10  33    4.28    4.24
  -8  -2 -33    3.62    2.78
 -10   8  33   -8.00    6.16
   2   8 -33   -1.84    3.73
 -10   2 -33   -2.40    3.37
  -2  10 -33   -7.88    4.12
   2   8 -33  -11.38    6.16
 -10   2 -33    2.68    2.39
  -8  10  36   27.62    8.68
 -10   8  36   31.10    9.27
   2   8 -36   21.27    6.42
 -10   2 -36   22.17    6.51
  -2  10 -36   20.08    7.06
   2   8 -36   31.12    8.52
 -10   2 -36   19.96    3.96
  -8  10  39   -4.46    5.27
 -10   8  39    4.41    4.06
   2   8 -39   -0.48    2.26
  -2  10 -39   -2.76    2.87
   2   8 -39    1.05    3.41
 -10   2 -39    2.72    2.47
 -10   8  42   32.90    9.68
  -8  10  42   40.61   10.53
 -10   8  42   49.88   12.19
  -2  10 -42   36.46    9.70
   2   8 -42   35.79    9.80
  -8  10  45    6.43    5.66
 -10   8  45    6.55    5.08
  -8  10  45    9.15    5.35
 -10   8  45    7.85    4.86
  -2  10 -45   22.57    8.41
   2   8 -45    0.61    3.58
  -8  10  48    0.54    2.72
  -8  10  48    5.03    5.80
 -10   8  48    4.99    3.36
 -10   8  48  -10.61    5.88
  -2  10 -48    4.15    3.98
   2   8 -48   -1.74    2.88
  -8  10  51    3.79    4.09
  -8  10  51   -1.25    3.42
 -10   8  51    0.45    3.92
  -2  10 -51    6.97    3.95
   2   8 -51    7.42    5.32
 -10   8  54   27.62   10.65
  -8  10  54   19.21    7.76
  -8  10  54   24.76    9.82
  -2  10 -54   28.96    9.56
   2   8 -54   21.06    8.40
  -8  10  57    2.61    5.51
 -10   8  57   -3.90    4.30
  -8  10  57    4.69    5.21
  -2  10 -57    7.39    4.73
   2   8 -57    1.54    3.87
  -8  10  60    3.95    4.89
 -10   8  60    0.76    4.09
  -2  10 -60    4.48    4.78
   2   8 -60    6.25    5.70
 -10   8  63   -6.29    7.00
   2   8 -63    7.76    5.83
   1   9  70   -0.17    3.81
 -10   9 -67    1.97    2.83
  -1  10  67    3.79    6.35
   1   9  67    8.00    8.09
 -10   9 -64    6.11    8.60
  -1  10  64   13.77    9.52
   1   9  64   14.72    8.21
 -10   1  64   13.59    9.08
 -10   9 -61    0.79    3.05
  -9  10 -61   -1.03    5.12
  -1  10  61   -3.63    5.65
   1   9  61    2.80    4.36
 -10   1  61   -0.85    3.17
 -10   9 -58    2.33    2.82
  -9  10 -58   -2.55    3.91
  -1  10  58   -2.30    4.81
   1   9  58   -0.65    4.77
 -10   1  58    3.09    5.11
  -9  10 -55   -1.57    4.33
 -10   9 -55    0.91    3.86
  -1  10  55   -8.55    5.60
   1   9  55    1.32    4.87
  -9  -1  55   -1.34    3.42
 -10   1  55    2.46    4.72
  -1  10  52    7.90    3.60
  -9  10 -52   -0.40    2.77
 -10   9 -52    5.25    6.11
   1   9  52   -5.72    4.79
  -9  -1  52    2.97    3.33
 -10   1  52    7.47    5.84
  -1  10  49   10.82    4.58
   1   9  49    3.29    2.73
  -9  -1  49    5.92    4.77
 -10   1  49    3.92    2.67
 -10   9 -49    1.51    4.05
  -9  10 -49    5.45    5.16
  -1  10  46    5.45    4.19
  -1  10  46    4.87    3.42
   1   9  46    7.53    5.05
  -9  -1  46    2.77    3.46
 -10   1  46    2.66    3.07
  -9  10 -46    4.25    5.24
 -10   9 -46    4.10    4.17
  -1  10  43   16.09    6.36
  -1  10  43   15.77    7.49
   1   9  43   -2.43    5.12
  -9  -1  43    9.68    4.46
 -10   1  43   12.55    8.35
  -9  10 -43   19.16    7.70
 -10   9 -43    9.00    4.42
  -1  10  40   39.99   10.15
  -1  10  40   48.71   10.03
   1   9  40   35.06    6.25
   1   9  40   42.97    9.21
  -9  -1  40   40.05    9.00
 -10   1  40   34.85    8.85
  -9  10 -40   52.67   12.24
 -10   9 -40   41.22   10.07
  -9  -1  37    2.81    1.98
 -10   1  37    1.57    2.27
  -1  10  37   -1.70    3.03
   1   9  37    6.26    3.49
   1   9  37   -2.59    2.73
  -1  10  37   -1.14    2.52
  -9  10 -37    1.36    4.08
 -10   9 -37   -4.08    3.57
  -1  10  34   34.23    8.01
   1   9  34   37.20    7.07
   1   9  34   34.55    8.58
  -1  10  34   39.88    8.87
  -9  -1  34   27.83    6.95
 -10   1  34   31.26    8.12
  -1  -9 -34   29.57    7.06
  -9  10 -34   43.63   10.29
 -10   9 -34   35.03    9.40
  -1  10  31    0.57    1.98
   1   9  31   -0.91    1.72
  -1  10  31   -2.21    2.51
   1   9  31    2.20    3.46
  -9  -1  31    3.50    3.22
 -10   1  31    3.76    2.83
  -1  -9 -31    1.42    2.49
  -9  10 -31   -3.09    2.84
 -10   9 -31    1.79    3.03
  -1  10  28   29.32    7.04
   9   1 -28   18.67    6.12
   1   9  28   25.38    5.77
  -1  10  28   20.57    6.64
   1   9  28   30.13    8.02
 -10   1  28   28.28    6.72
  -9  -1  28   18.01    4.51
   1 -10 -28   31.06    7.47
  -1  -9 -28   27.33    6.86
  -9  10 -28   25.22    8.23
 -10   9 -28   27.03    8.04
   1   9  25   -2.52    2.07
   9   1 -25   -2.25    2.25
 -10   1  25    3.41    2.70
   1   9  25    2.63    2.42
  -9  -1  25    2.47    3.03
   1 -10 -25    0.83    2.06
  -1  -9 -25    2.03    2.05
  -9  10 -25   -1.86    3.15
  -1  10  25   -4.06    2.88
 -10   9 -25   -0.28    2.22
  10  -1 -25    1.14    2.76
   9   1 -22   13.04    4.53
   1   9  22   14.13    4.86
 -10   1  22    9.15    3.03
  -9  -1  22   11.83    3.15
  -1  -9 -22   12.36    4.72
   1 -10 -22   12.89    4.36
   1   9  22   12.46    3.87
  10  -1 -22   12.03    4.55
  -9  10 -22   13.75    5.94
 -10   9 -22   12.27    4.70
  -1  10  22   10.22    3.92
   1   9  19   11.68    3.89
 -10   1  19   13.90    4.46
  -9  -1  19    6.96    2.44
   1 -10 -19   13.31    4.36
  -1  -9 -19   20.44    5.92
  -1  10  19   13.96    4.87
  -9  10 -19   16.08    6.15
 -10   9 -19    5.13    3.22
   1   9  19    9.92    3.58
  10  -1 -19   12.62    4.76
   9   1 -19   10.31    3.92
 -10   1  16    4.35    2.27
  -9  -1  16    2.96    1.32
   1 -10 -16   -0.90    3.32
  -1  -9 -16   -1.91    2.96
   9   1 -16    0.14    1.76
  -9  10 -16   -4.29    4.12
  10  -1 -16    1.16    1.98
 -10   9 -16   -4.96    4.33
  -1  10  16   -6.97    4.04
   1   9  16   -2.93    2.41
 -10   1  13   -2.02    2.20
   1 -10 -13    2.63    3.86
  -1  -9 -13    2.65    2.71
  -1  10  13    4.54    3.52
  10  -1 -13    6.14    2.99
   1   9  13   -1.31    2.42
   9   1 -13    3.93    2.64
  -9  10 -13   -3.34    3.45
 -10   9 -13    1.83    3.07
 -10   1  10   16.20    4.33
  -1  -9 -10   31.84    7.05
   1 -10 -10   34.99    8.30
  -1  10  10   42.30    8.21
  -9  10 -10   33.07    8.23
   1   9  10   33.87    6.47
   9   1 -10   26.60    5.10
  10  -1 -10   30.57    5.75
 -10   9 -10   36.10    9.18
  -1  -9  -7   15.63    4.72
   1 -10  -7   22.35    6.75
 -10   9  -7   34.44    9.14
  10  -1  -7   11.14    3.34
   9   1  -7   16.08    3.55
   1   9   7   17.92    4.85
  -1  10   7   18.30    5.38
  -9  10  -7   26.98    7.95
  -1  -9  -4   33.08    6.99
   9   1  -4   28.05    4.41
  10  -1  -4   36.81    5.59
   1 -10  -4   38.21    8.65
  -9  10  -4   46.08    9.89
 -10   9  -4   51.03   10.89
   1   9   4   31.76    6.00
  -1  10   4   35.40    7.51
   1 -10  -1   -9.46    5.46
   9   1  -1    3.41    1.56
  10  -1  -1    1.62    1.75
   1   9   1    2.18    1.83
  -1  10   1   -8.59    4.60
 -10   9  -1   -5.41    3.18
  -9  10  -1    8.75    5.03
 -10   1  -2   -1.91    1.11
   9   1   2    1.39    1.11
   1 -10   2  -10.03    5.65
  10  -1   2    2.09    1.78
   1   9  -2    1.77    2.38
  -1  10  -2   -3.58    2.58
  -9  10   2    5.01    4.05
 -10   9   2   -7.12    4.57
 -10   1  -5   -2.19    2.08
  10  -1   5    0.42    1.00
   1   9  -5   -0.21    1.59
 -10   9   5   -3.75    4.24
  -1  10  -5   -0.57    2.60
  -9  10   5   -2.92    3.45
 -10   1  -8    9.50    1.61
  10  -1   8    7.27    2.41
   1   9  -8    8.23    3.14
 -10   9   8    0.53    3.10
  -9  10   8   12.03    5.31
  -1  10  -8   12.19    5.46
   1   9 -11    2.53    2.76
 -10   1 -11   13.20    4.35
  10  -1  11    3.51    1.58
   1   9 -11   -1.46    2.98
  -1  10 -11   13.11    5.66
  -9  10  11   18.75    6.99
 -10   9  11   -5.38    4.87
 -10   1 -14   59.06    8.07
   1   9 -14   53.47    8.27
   1   9 -14   58.42    9.67
  -1  10 -14   60.74   10.55
 -10   9  14   72.33   12.84
  -9  10  14   66.09   12.39
  -9  -1 -17    5.13    2.35
 -10   1 -17    1.10    1.57
  -1  10 -17    2.48    6.45
   1   9 -17    5.33    3.65
   1   9 -17   -1.16    2.21
  -1  10 -17   -0.84    3.85
 -10   9  17    7.96    5.22
  -9  10  17    0.84    3.14
 -10   9  20   47.56   10.75
  -9  -1 -20   27.82    4.34
  -1  10 -20   24.47    5.97
 -10   1 -20   26.26    5.51
   1   9 -20   34.45    7.04
   1   9 -20   43.01    9.07
  -1  10 -20   32.66    8.04
  -9  10  20   42.82    9.97
  -9  10  23    3.27    3.42
 -10   9  23    0.80    3.38
  -9  -1 -23   -1.83    1.71
  -1  10 -23    0.22    2.31
   1   9 -23   -2.75    2.10
   1   9 -23   -0.58    2.51
 -10   1 -23    2.90    2.65
  -1  10 -23   -5.25    2.84
  -9  10  26   53.51   11.57
 -10   9  26   60.43   12.45
  -9  -1 -26   35.71    5.63
  -1  10 -26   43.57    9.83
   1   9 -26   31.40    7.54
   1   9 -26   32.86    7.93
 -10   1 -26   42.73    8.36
  -9  10  29    4.36    4.11
 -10   9  29   -3.60    3.92
   1   9 -29   -1.88    2.99
  -1  10 -29   -4.42    3.18
   1   9 -29   -0.83    3.27
 -10   1 -29    2.58    3.67
  -9  10  32   21.16    8.02
 -10   9  32   16.58    7.23
   1   9 -32   20.86    7.06
  -1  10 -32    9.24    4.20
   1   9 -32   11.51    5.31
 -10   1 -32   16.21    5.02
  -9  10  35    2.55    2.97
 -10   9  35   -9.89    6.29
   1   9 -35    3.72    2.96
  -1  10 -35    5.56    3.92
 -10   1 -35    0.12    3.29
   1   9 -35    1.89    2.71
  -9  10  38    6.73    3.45
 -10   9  38   -0.08    3.33
   1   9 -38    2.90    3.67
  -1  10 -38    9.19    5.84
  -9  10  41   14.68    7.15
 -10   9  41   19.94    8.55
  -1  10 -41   16.16    7.65
   1   9 -41   11.96    5.94
  -9  10  44    6.91    5.01
 -10   9  44   17.30    7.92
  -9  10  44   19.51    8.68
 -10   9  44   14.71    6.74
  -1  10 -44   13.01    6.48
   1   9 -44   17.29    7.22
  -9  10  47    4.24    4.78
 -10   9  47   -1.56    3.73
  -9  10  47    4.88    4.84
 -10   9  47    6.14    5.89
  -1  10 -47   -4.34    5.07
   1   9 -47    5.37    5.81
  -9  10  50    6.43    4.31
 -10   9  50   18.55    8.59
  -9  10  50   26.49   10.15
 -10   9  50    2.13    3.32
  -1  10 -50   13.32    6.80
   1   9 -50   -0.80    5.03
  -9  10  53    4.31    6.78
  -9  10  53    7.99    4.79
 -10   9  53   16.57    9.20
  -1  10 -53    4.41    5.65
   1   9 -53    1.62    3.15
  -9  10  56    9.79    6.20
 -10   9  56   20.28    8.61
  -9  10  56   11.14    7.52
  -1  10 -56   11.78    6.85
   1   9 -56    7.78    5.19
 -10   9  59    4.59    5.75
  -1  10 -59    2.54    4.94
   1   9 -59   13.81    8.57
   0  10  68   10.32    9.14
   0  10  65    4.08    5.09
   0  10  62    3.82    4.16
 -10  10 -62    5.25    8.02
   0  10  59    0.72    3.49
 -10  10 -59    3.90    3.26
   0  10  56   -0.50    3.27
 -10  10 -56    5.16    6.12
   0  10  53   -7.43    5.62
 -10  10 -53    5.35    4.74
   0  10  50    4.96    4.38
 -10  10 -50    0.47    3.62
   0  10  47    4.35    3.79
 -10   0  47    0.51    3.86
 -10  10 -47    0.95    2.50
 -10   0  44    4.86    4.41
   0  10  44   -0.43    1.72
   0  10  44    3.99    3.41
 -10  10 -44   -2.50    2.52
 -10   0  41    1.71    3.52
   0  10  41    2.51    3.57
   0  10  41    5.84    4.80
 -10  10 -41    2.13    3.75
 -10   0  38   45.37    9.76
   0  10  38   60.82   11.92
 -10  10 -38   55.52   12.62
   0  10  38   56.77   10.05
 -10   0  35    0.38    1.94
   0  10  35    5.43    4.25
   0  10  35   -1.85    3.22
 -10  10 -35   -2.05    2.40
   0  10  32   61.38   10.99
   0  10  32   51.10    9.19
 -10   0  32   66.03   10.68
 -10  10 -32   56.64   12.07
   0  10  29   -3.85    3.63
   0  10  29   -0.45    2.51
 -10   0  29    4.84    3.02
   0 -10 -29    4.77    4.26
 -10  10 -29   -3.42    3.20
   0  10  26   -1.75    1.86
   0  10  26   -3.20    3.40
 -10   0  26   -1.56    1.65
   0 -10 -26   -0.43    2.35
 -10  10 -26   -2.07    3.57
  10   0 -26    0.59    2.02
   0  10  23   -2.82    2.19
 -10   0  23    4.66    2.67
   0 -10 -23   -0.04    2.75
 -10  10 -23   -7.38    5.42
   0  10  23    3.44    2.59
  10   0 -23   -1.95    1.90
 -10   0  20    6.65    3.39
   0 -10 -20   11.04    5.38
  10   0 -20    6.13    3.60
 -10  10 -20    2.38    2.76
   0  10  20   10.50    4.05
 -10   0  17    2.38    2.46
   0 -10 -17   -1.94    2.99
   0  10  17   -8.48    4.23
 -10  10 -17   -1.47    3.91
  10   0 -17    1.37    2.10
 -10   0  14    7.77    3.22
   0 -10 -14   12.37    4.23
  10   0 -14   14.06    4.02
   0  10  14   15.40    4.80
 -10  10 -14   19.78    7.36
 -10   0  11    0.63    2.31
   0 -10 -11   -4.00    3.85
  10   0 -11    4.86    2.80
   0  10  11    2.88    3.60
 -10  10 -11    3.93    5.19
 -10   0   8   19.67    3.20
   0  10   8   50.39    8.85
   0 -10  -8   43.21    8.58
 -10  10  -8   54.43   11.83
  10   0  -8   37.73    5.78
 -10   0   5    5.75    2.07
 -10   0   5   -2.30    2.08
   0 -10  -5   -8.98    5.25
 -10  10  -5    8.04    5.86
  10   0  -5   -0.57    1.33
   0  10   5   -4.19    2.73
 -10   0   2    0.02    0.77
 -10   0   2   -1.91    1.23
   0 -10  -2   -5.19    4.58
  10   0  -2    0.95    1.23
 -10  10  -2   -2.67    2.57
   0  10   2   -4.15    2.94
 -10   0  -1   -1.18    0.94
  10   0   1   -0.27    1.12
   0 -10   1   -2.41    3.58
   0  10  -1   -1.84    2.49
 -10  10   1   -2.39    3.13
 -10   0  -4    5.05    1.09
  10   0   4    8.89    1.90
   0  10  -4    7.93    4.41
 -10  10   4   19.11    7.00
 -10   0  -7   -2.49    1.55
 -10  10   7   -1.16    3.10
   0  10  -7   -7.00    4.15
 -10   0 -10   14.47    2.48
   0  10 -10   30.18    7.32
 -10  10  10   30.40    9.15
 -10   0 -13    3.40    2.38
   0  10 -13   -5.48    3.57
   0  10 -13   -2.99    3.31
 -10   0 -16   12.47    2.95
   0  10 -16   16.21    4.58
   0  10 -16   17.56    5.72
 -10  10  16   12.04    4.77
   0  10 -19   -3.80    2.07
   0  10 -19   -4.30    3.47
 -10  10  19    7.26    5.67
   0  10 -22   80.20   12.00
   0  10 -22   86.43   13.53
 -10  10  22  113.71   16.75
 -10  10  25    0.37    2.25
   0  10 -25  -13.04    6.67
   0  10 -25   -7.39    3.93
 -10  10  28   13.03    7.12
   0  10 -28    1.56    3.42
   0  10 -28   10.82    3.09
 -10  10  31    8.24    5.40
   0  10 -31    9.50    5.45
 -10  10  34   -1.08    4.52
   0  10 -34    1.08    2.80
 -10  10  37   -4.44    3.87
   0  10 -37    4.08    3.74
 -10  10  40    5.04    4.18
   0  10 -40   -1.08    2.80
 -10  10  43    1.27    3.61
   0  10 -43    0.40    3.60
 -10  10  46   38.44   11.04
 -10  10  46   35.14   10.91
   0  10 -46   30.07    9.50
 -10  10  49    8.47    7.24
 -10  10  49    8.55    6.77
   0  10 -49   -0.01    2.89
 -10  10  52   -4.50    4.81
 -10  10  52   -0.59    2.28
   0  10 -52    5.97    5.76
 -10  10  55    4.89    5.70
   0  10 -55    4.97    6.35
 -11   5  65    4.94    7.23
 -11   5  62   29.17   11.66
  -5  11  59   -5.46    5.72
 -11   5  59    3.64    4.81
 -11   6 -59    2.06    2.64
  -5  11  56    0.86    4.71
  -5  11  56    6.93    4.69
 -11   5  56    0.14    3.56
   5   6  56    3.87    4.14
  -6  11 -56   17.92    8.08
 -11   6 -56    6.63    4.59
  -5  11  53   -0.11    3.96
  -5  11  53    3.07    3.93
 -11   5  53    2.68    4.08
   5   6  53    2.83    2.99
  -6  11 -53   -2.48    3.28
 -11   6 -53    0.08    2.72
 -11   5  50    2.94    5.50
  -5  11  50   24.89    8.59
  -5  11  50    8.16    6.39
   5   6  50   21.01    7.39
  -6  11 -50   12.39    6.59
 -11   6 -50   14.86    5.66
  -5  11  47   -0.07    2.43
  -5  11  47    2.15    3.88
 -11   5  47    5.64    4.67
   5   6  47    0.03    3.30
  -6  11 -47   -2.01    4.19
 -11   6 -47    0.33    3.49
  -5  11  44    5.67    4.77
  -5  11  44   10.83    6.38
 -11   5  44   -3.41    4.31
   5   6  44    9.14    3.76
  -6  11 -44    3.70    4.46
 -11   6 -44    6.37    5.44
 -11   5  41    2.40    4.48
  -5  11  41    3.45    2.85
  -5  11  41    1.74    2.21
   5   6  41    3.14    3.51
  -6  11 -41    1.75    2.76
 -11   6 -41    2.05    2.92
  -5  11  38    3.90    4.14
 -11   5  38    3.83    3.71
   5   6  38    9.33    4.43
  -6  11 -38    5.08    4.06
 -11   6 -38    7.29    3.69
  -5  11  35    0.54    4.07
 -11   5  35   -1.45    2.63
   5   6  35    0.61    1.90
  -6  11 -35   -2.96    2.41
 -11   6 -35   -3.11    2.02
 -11   5  32   50.20   10.98
   5   6  32   47.63    7.04
  -6  11 -32   47.70   10.82
  -5  11  32   57.61   11.69
 -11   6 -32   44.60    8.69
  -5  11  29   10.37    4.72
   5   6  29    5.85    2.80
   6   5 -29    2.09    2.28
  11  -6  29   12.15    4.92
  -6  11 -29    9.50    4.43
 -11   6 -29    7.65    4.68
 -11   5  26    5.75    3.65
   5   6  26    3.64    2.13
   6   5 -26    1.79    2.56
  11  -6  26    8.71    4.20
  -5  11  26    5.05    4.16
 -11   6 -26   -0.61    2.20
  -6  11 -26   -4.61    5.13
 -11   5  23    1.96    1.97
   5   6  23    3.12    1.95
   6   5 -23    0.25    2.10
  11  -6  23    1.06    2.06
 -11   6 -23    5.79    3.36
  -5  11  23   -0.01    2.96
  -6  11 -23   -0.66    3.50
 -11   5  20   23.45    7.34
   5   6  20   13.87    2.60
   6   5 -20   20.46    5.95
  11  -6  20   26.64    6.13
  -6  11 -20   28.30    8.02
 -11   6 -20   34.29    8.26
  -5  11  20   31.32    8.09
 -11   5  17    0.23    2.13
   6   5 -17    4.58    3.49
  11  -6  17   -2.58    2.69
  -5  11  17   -3.97    2.58
  -6  11 -17   -5.62    4.71
 -11   6 -17  -11.14    5.24
  11  -6  14   54.78    9.30
  -6  11 -14   70.50   12.42
   6   5 -14   47.66    7.15
 -11   6 -14   56.51   10.19
  -5  11  14   77.61   12.71
 -11   5  14   87.17   13.21
 -11   5  11   18.06    6.80
  11  -6  11   -1.43    3.15
   6   5 -11   11.10    3.68
   5   6  11    4.50    1.20
  -6  11 -11    9.31    5.16
  -5  11  11    9.01    4.32
  11  -5 -11    7.94    3.51
 -11   6 -11    4.82    4.48
 -11   5   8   17.54    6.13
   6   5  -8   16.80    3.86
  11  -6   8    9.63    3.98
  -5  11   8   13.95    5.90
   5   6   8    6.58    1.61
  11  -5  -8   12.31    4.69
 -11   6  -8   11.04    4.81
  -6  11  -8   15.30    5.80
 -11   5   5   45.72    8.73
   5   6   5   33.12    3.73
   6   5  -5   45.61    5.72
  11  -6   5   46.06    8.57
  11  -5  -5   36.18    6.99
  -6  11  -5   45.88    9.60
 -11   6  -5   55.65   10.12
  -5  11   5   52.62   10.31
 -11   5   2   -0.92    2.57
  11  -6   2   -7.42    4.09
   6   5  -2    4.32    2.12
  11  -5  -2   -3.76    3.42
   5   6   2    0.56    1.36
  -6  11  -2   -8.86    5.04
  -5  11   2   -4.28    4.63
 -11   6  -2   -9.48    4.86
 -11   5  -1   24.83    6.80
   5   6  -1   10.38    2.61
  11  -5   1   11.32    4.04
  11  -6  -1   18.70    5.59
   6   5   1    5.05    1.18
 -11   6   1   14.14    5.30
  -5  11  -1   17.77    6.19
  -6  11   1    5.44    3.77
 -11   5  -4   17.27    5.39
 -11   6   4   18.35    6.43
   6   5   4    6.82    1.39
   5   6  -4   11.81    3.14
  11  -5   4   10.52    3.75
  -6  11   4   16.33    6.18
  11  -6  -4   13.18    4.79
   6   5   4    5.79    1.17
  -5  11  -4    6.88    4.85
 -11   6   7   -4.57    4.03
  11  -5   7    0.33    2.07
   5   6  -7    0.59    1.33
 -11   5  -7   -7.64    3.72
  -6  11   7   -0.72    2.20
  -5  11  -7    1.58    3.91
 -11   6  10   43.41    9.62
   5   6 -10   22.26    4.94
  11  -5  10   28.16    6.51
 -11   5 -10   35.70    7.59
  -5  11 -10   37.87    8.95
  -6  11  10   43.60    9.75
 -11   6  13   -2.79    2.25
   5   6 -13    0.04    1.45
  11  -5  13   -8.23    3.66
  -5  11 -13   -2.95    2.53
 -11   5 -13   -1.38    2.13
  -6  11  13    2.79    2.89
 -11   6  16   11.78    5.50
  11  -5  16   13.44    4.77
   5   6 -16    6.02    2.75
  -6  11  16   11.38    5.50
  -5  11 -16    6.77    4.45
 -11   5 -16   14.84    5.46
 -11   6  19   23.41    7.47
 -11   5 -19   18.72    5.97
  11  -5  19   14.10    4.92
   5   6 -19    5.24    2.59
  -5  11 -19   13.78    6.40
  -6  11  19   17.74    6.65
 -11   5 -19    9.45    4.52
 -11   6  22   12.93    5.95
  11  -5  22    5.39    2.30
   5   6 -22   15.22    5.00
 -11   5 -22    7.70    4.09
  -5  11 -22    4.09    3.06
  -6  11  22    4.08    4.12
 -11   6  25    4.37    3.92
  11  -5  25    1.26    2.23
   5   6 -25   -1.45    3.29
  -5  11 -25   -1.25    3.95
 -11   5 -25    3.42    3.47
  -6  11  25   -2.44    3.34
   5   6 -28   10.26    3.11
 -11   6  28   22.88    7.68
  -5  11 -28    5.85    3.59
   5   6 -28   18.61    5.56
  -6  11  28   22.87    7.46
 -11   5 -28   20.39    6.03
  -6  11  31   36.41    9.47
 -11   6  31   16.34    6.10
   6   5  31   28.76    4.54
  -5  11 -31   31.52    8.15
   5   6 -31   15.65    5.54
 -11   5 -31   26.87    6.40
  -6  11  34   46.61   11.04
 -11   6  34   46.44   10.93
 -11   6  34   42.06    9.41
   6   5  34   49.44    6.81
   5   6 -34   42.03    9.35
  -5  11 -34   30.27    9.06
 -11   5 -34   36.21    7.88
  -6  11  37   -1.83    2.33
 -11   6  37    4.76    4.48
   6   5  37    6.54    2.57
   5   6 -37   -4.66    3.76
  -5  11 -37   -3.38    3.15
 -11   5 -37   -0.89    1.66
  -6  11  40   10.16    5.04
 -11   6  40   14.28    6.66
   6   5  40   16.40    5.36
   5   6 -40   13.52    6.79
  -5  11 -40   13.97    6.31
 -11   5 -40   14.50    5.91
  -6  11  43    4.11    4.95
  -6  11  43    2.01    2.38
 -11   6  43   -2.04    3.97
   6   5  43    2.29    3.67
   5   6 -43    3.04    4.38
  -5  11 -43    1.31    3.69
 -11   5 -43    0.23    2.44
 -11   6  46   30.16   10.22
  -6  11  46   27.41    9.50
  -6  11  46   31.86    9.59
   6   5  46   36.03    7.83
  -5  11 -46   18.88    7.84
   5   6 -46   25.82    8.48
 -11   5 -46   25.34    6.90
 -11   6  49    2.50    4.52
  -6  11  49   -0.44    3.44
  -6  11  49   14.93    7.76
   6   5  49    6.41    4.62
   5   6 -49    1.89    4.29
  -5  11 -49   -2.70    3.30
 -11   5 -49    0.33    3.31
  -6  11  52   15.01    7.33
  -6  11  52   10.53    5.95
 -11   6  52    2.64    3.48
   6   5  52    6.97    4.00
   5   6 -52   -1.30    3.72
  -5  11 -52    5.23    5.01
 -11   5 -52    8.01    4.74
  -6  11  55   -1.34    4.62
 -11   6  55   -7.57    6.34
  -6  11  55    1.65    3.14
   5   6 -55    7.74    5.35
  -5  11 -55    5.45    5.90
  -6  11  58    3.44    5.87
 -11   6  58    3.00    6.09
  -6  11  58    7.42    3.70
   5   6 -58    5.15    5.49
  -5  11 -58   18.52    8.59
   5   6 -61   -1.58    4.10
 -11   6  61    0.58    3.41
   5   6 -64   10.16    7.50
 -11   6  64    8.35    7.04
 -11   4  69   12.99    8.40
 -11   4  66    7.48    6.43
 -11   7 -63   -1.02    4.68
 -11   4  63   -0.37    4.21
  -4  11  60   12.33    7.28
 -11   4  60   14.35    7.62
   4   7  60   16.31    7.67
 -11   7 -60    3.12    6.64
  -4  11  57    1.00    4.15
 -11   4  57   -2.03    5.11
   4   7  57    8.82    5.76
  -7  11 -57   -0.42    3.24
 -11   7 -57    0.75    2.66
  -4  11  54   10.93    6.71
  -4  11  54    7.74    4.22
 -11   4  54    6.27    5.39
   4   7  54   17.99    6.53
  -7  11 -54   19.55    8.29
 -11   7 -54    5.92    4.55
  -4  11  51    1.87    3.08
  -4  11  51   -2.21    3.73
 -11   4  51   -3.44    3.29
   4   7  51    1.91    3.80
  -7  11 -51    2.26    2.60
 -11   7 -51   -0.14    2.45
 -11   4  48   -0.80    3.43
  -4  11  48    0.85    3.81
  -4  11  48    6.07    3.64
   4   7  48    2.99    4.00
  -7  11 -48    7.15    4.32
 -11   7 -48    1.51    3.06
  -4  11  45   -2.44    3.72
 -11   4  45   -5.23    5.13
   4   7  45    4.14    3.58
  -7  11 -45    1.20    2.71
 -11   7 -45    4.15    4.26
  -4  11  42   11.88    5.56
  -4  11  42   13.69    6.38
 -11   4  42   10.30    6.59
   4   7  42    7.12    4.67
  -7  11 -42    4.69    5.27
 -11   7 -42    7.32    4.64
  -4  11  39   -1.76    3.43
  -4  11  39   -2.87    3.23
 -11   4  39    0.11    3.38
   4   7  39    2.60    3.98
  -7  11 -39    8.16    6.93
 -11   7 -39   -6.09    4.43
 -11   4  36   -4.77    3.81
  -4  11  36    2.27    3.09
   4   7  36    5.72    4.21
  -7  11 -36   -1.50    3.04
 -11   7 -36   -0.44    2.62
  -4  11  33    6.86    4.14
 -11   4  33    2.80    2.29
   4   7  33    5.11    3.35
  -7  11 -33    8.64    4.64
 -11   7 -33   -4.36    3.83
   4   7  30   25.71    5.40
  -4  11  30   46.38   10.28
 -11   4  30   37.15    9.01
  -7  11 -30   46.16   10.77
 -11   7 -30   32.52    7.46
   4   7  27   -1.10    1.64
 -11   4  27   -0.95    2.48
   7   4 -27   -8.03    3.49
  -7  11 -27   -4.89    4.07
  -4  11  27    1.33    2.34
 -11   7 -27   -1.22    2.43
   4   7  24   17.50    4.46
   7   4 -24    7.92    3.19
  -7  11 -24   15.05    5.57
  -4  11  24   13.18    5.77
 -11   7 -24   19.29    6.64
   4   7  21    8.39    3.34
   7   4 -21    1.11    2.58
  -7  11 -21    2.76    3.07
  -4  11  21    6.70    4.95
 -11   7 -21    1.01    2.53
   4   7  18   32.86    3.85
   7   4 -18   36.18    6.15
   4   7  18   68.76    7.24
  -7  11 -18   79.45   13.66
 -11   7 -18   91.28   13.65
  -4  11  18   85.43   12.97
   7   4 -15   18.83    4.97
 -11   4  15   19.65    5.62
   4   7  15   19.12    3.50
   7   4 -15   25.24    4.96
 -11   7 -15   22.19    7.57
  -7  11 -15   25.45    7.78
   4   7  15   16.44    3.23
  -4  11  15   22.54    6.55
  11  -4 -15   15.46    4.86
   7   4 -12    6.68    2.63
 -11   4  12   16.04    5.32
   4   7  12    5.96    1.91
   7   4 -12   12.68    4.02
   4   7  12   10.54    2.63
  -4  11  12    8.13    3.44
  -7  11 -12   19.27    6.76
 -11   7 -12   10.31    4.64
  11  -4 -12   12.71    4.69
   7   4  -9   16.07    4.14
 -11   4   9   15.15    5.53
   4   7   9    9.21    1.71
   7   4  -9   20.00    4.19
  -4  11   9   17.33    6.24
   4   7   9   13.13    2.29
  11  -4  -9   20.21    5.59
  -7  11  -9   16.49    6.56
 -11   7  -9   14.27    5.66
   7   4  -6    5.03    2.25
 -11   4   6    3.07    3.78
   7   4  -6    2.09    1.68
 -11   7  -6    0.48    1.98
  11  -4  -6   -1.14    1.56
  -7  11  -6   -3.78    3.76
   4   7   6    4.28    2.04
  -4  11   6    0.94    2.60
   7   4  -3    5.52    1.90
 -11   4   3   11.76    5.27
   7   4  -3    8.02    2.28
  11  -4  -3    5.07    3.12
   4   7   3    9.72    2.92
 -11   7  -3   10.77    5.10
  -7  11  -3    1.69    2.68
  -4  11   3    4.39    2.86
 -11   4   0   43.75    8.21
   7   4   0   20.11    2.19
  11  -4   0   50.21    7.92
 -11   7   0   45.16    9.45
   4   7   0   29.44    4.88
  -4  11   0   58.00   10.51
  -7  11   0   41.11    9.61
 -11   4  -3    1.92    2.80
   4   7  -3    3.17    2.28
  11  -4   3    1.53    1.77
  -7  11   3    1.87    3.39
  -4  11  -3    7.66    4.34
 -11   7   3   -0.69    3.01
 -11   4  -6    5.74    3.50
   4   7  -6    5.90    2.86
  11  -4   6    3.05    1.74
  -7  11   6    9.64    5.44
  -4  11  -6   -0.91    2.07
 -11   7   6    5.56    2.71
 -11   4  -9    2.30    2.34
 -11   7   9   -2.05    3.05
   4   7  -9    2.08    0.98
   4   7  -9    2.03    2.17
  11  -4   9    1.80    2.00
  -4  11  -9   -0.02    2.76
  -7  11   9   10.89    5.47
 -11   7  12   10.18    4.74
   4   7 -12    2.88    1.42
  11  -4  12   10.22    3.87
   4   7 -12   10.49    3.68
 -11   4 -12    7.83    3.61
  -4  11 -12    7.97    4.48
  -7  11  12   12.84    5.72
   4   7 -15    2.73    1.75
 -11   7  15    3.18    4.54
 -11   4 -15   -3.86    2.53
   4   7 -15   -1.93    2.62
  11  -4  15   -0.35    1.48
  -4  11 -15    0.30    2.71
  -7  11  15    4.94    3.50
 -11   4 -15   -1.31    2.50
 -11   7  18    8.77    4.97
   4   7 -18    7.85    2.49
 -11   4 -18   12.01    4.20
   4   7 -18    9.54    3.95
  11  -4  18    9.03    3.58
  -4  11 -18    6.41    4.21
  -7  11  18   12.70    6.27
 -11   4 -18    7.38    3.82
 -11   7  21   -4.15    4.32
   4   7 -21    2.24    2.12
 -11   4 -21    0.57    2.17
   4   7 -21   -0.42    1.84
  -4  11 -21    0.37    2.36
  11  -4  21    1.87    1.84
  -7  11  21   -2.08    2.89
 -11   4 -21    2.25    2.16
 -11   7  24    3.35    2.71
   4   7 -24    8.97    2.64
 -11   4 -24   13.65    4.41
  -4  11 -24    6.28    3.66
   4   7 -24    9.96    4.07
 -11   4 -24    7.79    3.18
  -7  11  24   14.60    6.28
 -11   7  27   -0.90    3.37
   4   7 -27    2.50    2.11
 -11   4 -27   -0.10    3.16
  -4  11 -27    2.98    2.89
   4   7 -27    0.29    3.00
 -11   4 -27    2.17    2.55
  -7  11  27    2.86    4.63
  -7  11  30   62.32   12.77
 -11   7  30   52.55   12.13
   4   7 -30   22.35    4.66
  -4  11 -30   40.25   10.25
   4   7 -30   33.68    8.08
 -11   4 -30   32.33    6.93
  -7  11  33   11.07    6.56
 -11   7  33   -0.28    2.70
   4   7 -33   -5.51    4.29
  -4  11 -33    4.51    4.33
 -11   4 -33    6.96    3.68
  -7  11  36   31.01    8.98
 -11   7  36   20.39    7.02
  -4  11 -36   23.81    7.98
   4   7 -36   21.73    7.30
 -11   4 -36   27.99    6.20
 -11   7  39    1.39    3.42
  -7  11  39   -3.11    4.25
 -11   7  39    1.05    3.13
  -4  11 -39    2.54    2.64
   4   7 -39   -1.43    2.57
 -11   4 -39    3.58    3.42
  -7  11  42   14.40    6.36
 -11   7  42   10.84    4.98
  -4  11 -42   16.38    7.14
   4   7 -42   11.06    5.93
 -11   4 -42   11.15    3.61
  -7  11  45    0.97    3.16
  -7  11  45    4.33    4.02
 -11   7  45    1.97    3.42
   4   7 -45    0.64    3.63
  -4  11 -45    7.19    5.94
  -7  11  48   12.41    6.47
  -7  11  48    6.46    3.70
 -11   7  48   11.95   10.06
   4   7 -48   -1.43    2.97
  -4  11 -48    1.77    4.65
   7   4  48   12.09    4.90
 -11   7  51    9.44    6.68
  -7  11  51   -0.31    2.92
  -7  11  51    3.32    4.30
   4   7 -51    0.43    2.77
  -4  11 -51    1.85    5.86
 -11   7  54   14.23    8.06
  -7  11  54   11.30    6.63
  -7  11  54   21.65    8.24
   4   7 -54   14.30    8.47
  -4  11 -54   10.40    5.60
 -11   7  57    7.42    5.26
  -7  11  57    4.37    5.54
  -7  11  57    4.56    3.36
   4   7 -57    3.25    4.62
  -4  11 -57    8.88    5.70
 -11   7  60   -0.55    4.70
   4   7 -60   12.41    7.75
 -11   7  63   -0.78    5.37
   4   7 -63    3.27    4.25
 -11   8 -67   -1.25    3.48
 -11   3  67    3.55    6.66
 -11   8 -64    3.51    6.50
 -11   3  64   17.95    8.02
  -3  11  61    4.23    3.93
 -11   8 -61   -0.13    3.84
   3   8  61    8.09    5.15
 -11   3  61   -0.57    4.13
  -3  11  58   11.26    6.52
 -11   3  58   14.38    8.02
   3   8  58   13.53    7.41
 -11   8 -58    1.25    6.21
  -3  11  55    3.31    3.45
 -11   3  55    3.02    3.16
   3   8  55    5.05    2.93
  -8  11 -55    1.97    5.15
 -11   8 -55   -2.82    3.74
  -3  11  52    4.84    3.92
  -3  11  52    8.68    4.06
 -11   3  52   -2.37    2.87
   3   8  52   -3.31    2.98
  -8  11 -52   -0.10    4.13
 -11   8 -52    3.60    4.70
  -3  11  49    7.71    5.35
  -3  11  49    4.21    4.75
 -11   3  49   -2.47    2.93
   3   8  49    6.32    5.37
  -8  11 -49    4.06    5.60
 -11   8 -49    1.85    3.22
  -3  11  46   13.52    7.06
  -3  11  46   19.10    7.12
 -11   3  46   10.59    6.19
   3   8  46   13.02    6.20
  -8  11 -46   12.80    7.26
 -11   8 -46   16.47    6.88
  -3  11  43    8.20    5.34
  -3  11  43    6.29    4.16
 -11   3  43    9.23    5.56
   3   8  43   -2.61    2.09
  -8  11 -43   10.88    6.80
 -11   8 -43    4.07    4.10
  -3  11  40    6.78    4.35
  -3  11  40    7.46    4.80
 -11   3  40    7.41    5.89
   3   8  40    3.38    3.04
  -8  11 -40   13.99    6.83
 -11   8 -40    5.83    3.71
  -3  11  37    2.83    2.37
  -3  11  37    1.92    4.88
 -11   3  37    1.00    3.48
   3   8  37    7.56    3.74
  -8  11 -37    4.05    4.80
 -11   8 -37    5.26    4.04
   3   8  34   16.46    5.54
  -3  11  34   15.59    6.22
  -3  11  34   19.98    7.25
 -11   3  34   10.57    5.71
  -8  11 -34    9.98    5.53
 -11   8 -34   24.81    7.62
   3   8  31   11.99    5.36
  -3  11  31   11.77    5.12
 -11   3  31    8.49    5.31
  -8  11 -31    5.01    3.30
 -11   8 -31    7.40    5.41
   3   8  28   49.36    8.93
   8   3 -28   45.26    8.88
   3   8  28   39.65    5.39
 -11   3  28   40.65    9.58
  -8  11 -28   51.54   11.71
 -11   8 -28   49.66   10.37
  -3  11  28   62.74   11.31
   3   8  25    1.55    2.46
   3   8  25   -2.06    1.40
   8   3 -25    6.56    4.12
 -11   3  25   -1.63    2.62
  -8  11 -25    1.90    4.27
  -3  11  25    1.05    2.09
 -11   8 -25   -2.55    2.32
   3   8  22   21.26    5.04
   3   8  22   12.49    3.20
 -11   3  22   17.71    5.66
   8   3 -22   18.91    5.85
  -8  11 -22   15.92    5.82
  -3  11  22   17.56    6.45
 -11   8 -22   16.89    6.19
   3   8  19   -1.47    1.47
   3   8  19    0.11    1.92
   8   3 -19    1.67    1.54
  11  -3 -19    1.76    2.65
  -3  11  19   -1.31    2.75
  -8  11 -19   -5.69    4.13
 -11   8 -19   -3.33    2.21
   8   3 -16    7.39    3.22
   3   8  16    6.64    2.63
  -8  11 -16    6.17    4.36
  -3  11  16    0.71    1.95
   3   8  16    3.42    2.18
 -11   8 -16   12.65    5.54
  11  -3 -16    6.14    3.62
   8   3 -13    9.37    3.33
   3   8  13    3.61    2.65
 -11   8 -13    9.44    4.98
  -3  11  13    7.20    3.58
  -8  11 -13    9.31    5.29
  11  -3 -13    6.49    3.20
   3   8  13    4.32    2.13
   3   8  10    8.35    2.45
   8   3 -10   15.41    3.88
  -3  11  10   21.08    6.32
   3   8  10   15.31    3.66
 -11   8 -10   16.69    6.14
  11  -3 -10   18.90    5.11
  -8  11 -10   11.59    5.11
   3   8   7    2.14    1.36
   8   3  -7   13.09    3.17
  11  -3  -7   14.11    4.46
   8   3  -7    9.58    2.63
 -11   8  -7   11.10    5.44
  -8  11  -7   10.40    4.70
   3   8   7   11.19    3.40
  -3  11   7   15.73    5.39
   3   8   4    4.68    2.29
 -11   3   4   13.12    4.07
   8   3  -4   13.82    2.73
  11  -3  -4   10.67    3.70
   3   8   4   11.55    3.37
   8   3  -4   11.85    2.58
  -3  11   4   11.64    4.55
  -8  11  -4   12.95    5.61
 -11   8  -4   17.87    6.34
 -11   3   1   12.41    4.05
   8   3  -1    8.98    1.68
  -8  11  -1   24.32    7.45
  11  -3  -1   12.83    3.75
   3   8   1   14.33    4.13
 -11   8  -1   32.80    9.20
   8   3  -1    7.56    1.45
  -3  11   1   15.69    5.03
 -11   3  -2    5.75    1.99
   3   8  -2    6.23    2.38
  11  -3   2   11.96    4.00
   3   8  -2    9.13    2.91
  -8  11   2   16.86    5.80
  -3  11  -2    1.92    2.41
 -11   8   2   12.59    7.05
 -11   3  -5   -0.75    1.95
   3   8  -5   -0.33    2.05
  11  -3   5   -0.12    1.25
   3   8  -5   -1.42    1.53
 -11   8   5   -4.09    3.44
  -8  11   5   -1.89    3.50
  -3  11  -5   -7.10    3.88
 -11   3  -8    3.64    2.52
   3   8  -8    7.02    2.30
  11  -3   8    2.15    2.30
   3   8  -8    4.84    2.74
  -3  11  -8    5.39    3.48
 -11   8   8    4.92    3.50
  -8  11   8    2.32    3.31
 -11   8  11    4.99    4.55
 -11   3 -11    0.29    1.82
 -11   3 -11   -1.77    2.67
   3   8 -11   -0.40    1.23
  11  -3  11    1.48    2.21
   3   8 -11   -0.22    1.73
  -3  11 -11    0.63    2.57
  -8  11  11    6.38    3.43
 -11   8  14   33.20    8.87
 -11   3 -14   19.05    4.67
   3   8 -14   14.69    3.13
 -11   3 -14   26.39    5.32
   3   8 -14   24.82    6.37
  11  -3  14   20.47    4.32
  -8  11  14   31.20    9.03
  -3  11 -14   31.53    8.28
 -11   3 -17   11.27    3.92
 -11   8  17   26.46    8.27
 -11   3 -17   14.70    5.04
   3   8 -17    6.97    2.68
  11  -3  17    5.70    2.03
   3   8 -17   19.51    6.00
  -3  11 -17   14.74    5.95
  -8  11  17   23.68    8.52
 -11   3 -20    7.24    3.41
 -11   8  20   10.41    5.90
 -11   3 -20    4.78    3.30
   3   8 -20   10.03    3.68
   3   8 -20    7.32    3.82
  -3  11 -20    5.16    3.26
  -8  11  20    4.79    4.46
 -11   8  23    2.31    3.13
   3   8 -23   -0.28    1.94
 -11   3 -23   -4.34    3.05
  -3  11 -23   -4.23    4.25
   3   8 -23    1.63    3.35
  -8  11  23  -13.39    5.82
 -11   3 -23   -2.96    1.96
 -11   8  26   47.31   11.49
  -8  11  26   58.61   12.87
   3   8 -26   24.47    5.30
 -11   3 -26   43.10    8.98
   3   8 -26   29.85    7.26
  -3  11 -26   39.62    9.58
 -11   3 -26   28.31    5.17
  -8  11  29    9.36    6.08
 -11   8  29   11.39    6.35
   3   8 -29   -2.06    2.88
 -11   3 -29    0.79    4.62
   3   8 -29    1.20    2.75
  -3  11 -29   -0.20    3.16
 -11   3 -29    7.31    3.97
  -8  11  32   64.74   13.26
 -11   8  32   75.34   14.58
 -11   3 -32   47.25    9.53
  -3  11 -32   50.22   11.37
   3   8 -32   51.93   10.82
 -11   3 -32   45.50    7.30
  -8  11  35   -3.54    4.64
 -11   8  35   10.63    6.73
  -3  11 -35    0.89    2.88
   3   8 -35    1.99    3.51
  -8  11  38   13.79    6.37
 -11   8  38   12.44    7.19
  -3  11 -38    6.52    4.16
   3   8 -38   10.77    5.93
 -11   8  41    5.11    5.37
  -8  11  41    1.45    3.16
 -11   8  41    4.86    4.45
   3   8 -41    1.80    4.58
  -3  11 -41    8.44    5.40
  -8  11  44    4.85    4.75
 -11   8  44    0.93    3.01
  -8  11  44    0.38    3.07
 -11   8  44   -6.14    4.02
   3   8 -44   -1.54    3.41
  -3  11 -44   10.68    7.46
  -8  11  47    5.60    5.16
  -8  11  47   -1.74    2.81
 -11   8  47   -1.55    4.54
   3   8 -47   10.91    5.97
  -3  11 -47   -0.02    2.95
  -8  11  50   24.79    9.60
  -8  11  50   22.86    8.99
 -11   8  50   15.26    7.92
   3   8 -50   28.79    9.13
  -3  11 -50   22.83    7.85
 -11   8  53    6.46    5.96
  -8  11  53    6.62    6.82
  -8  11  53    3.77    6.09
  -3  11 -53    5.11    5.84
   3   8 -53    2.35    4.93
 -11   8  56    6.46    5.03
  -8  11  56    4.34    5.08
  -8  11  56   -2.69    4.54
  -3  11 -56    4.54    5.48
   3   8 -56   -4.47    4.24
 -11   8  59   -0.41    3.13
   3   8 -59    6.84    7.20
 -11   9 -65    0.56    5.54
  -2  11  62    3.03    5.25
   2   9  62    0.35    5.59
 -11   9 -62    1.23    3.93
  -2  11  59    3.42    4.30
 -11   2  59    1.29    4.02
   2   9  59    7.73    6.58
 -11   9 -59   -3.49    4.38
  -2  11  56    2.07    5.25
 -11   2  56    9.12    6.17
   2   9  56    3.18    4.40
  -9  11 -56    2.64    5.90
 -11   9 -56   -2.87    3.48
  -2  11  53    2.34    3.22
 -11   2  53    2.90    4.97
   2   9  53    3.54    6.05
  -9  11 -53   -1.79    3.95
 -11   9 -53    5.44    2.94
  -2  11  50    6.95    5.63
  -2  11  50   11.85    5.05
 -11   2  50    8.33    5.48
   2   9  50    7.90    4.95
  -9  11 -50    0.51    4.81
 -11   9 -50    6.03    5.03
  -2  11  47    1.52    2.67
  -2  11  47    1.67    4.90
 -11   2  47    3.47    4.67
   2   9  47    7.35    5.07
  -9  11 -47    2.92    5.89
 -11   9 -47    3.72    5.03
  -2  11  44    3.34    5.47
  -2  11  44    7.24    4.66
 -11   2  44    5.72    5.46
   2   9  44    7.52    5.28
  -9  11 -44    5.61    5.37
 -11   9 -44    4.71    4.03
 -11   2  41   13.06    6.26
   2   9  41   16.44    7.14
  -2  11  41   13.13    6.40
  -2  11  41   15.63    6.77
  -9  11 -41   19.36    7.47
 -11   9 -41   17.15    6.96
 -11   2  38   27.74    8.06
   2   9  38   31.17    8.21
  -2  11  38   23.82    7.40
  -2  11  38   23.13    8.02
  -9  11 -38   32.00    9.81
 -11   9 -38   21.30    8.05
 -11   2  35    8.87    4.58
   2   9  35    0.02    3.23
  -2  11  35   -1.16    2.88
  -2  11  35   -0.35    2.74
   2   9  35   -2.11    1.85
  -9  11 -35    0.09    2.88
 -11   9 -35   -3.42    3.73
   2   9  32   41.23    8.97
  -2  11  32   48.37   10.22
  -2  11  32   48.02   10.37
 -11   2  32   38.67    8.43
   2   9  32   40.28    7.08
  -9  11 -32   60.37   13.00
 -11   9 -32   53.17   11.29
  -2  11  29    5.38    4.61
   2   9  29   -0.76    1.86
   9   2 -29    2.50    2.46
   2   9  29    3.44    2.35
 -11   2  29   -1.35    1.92
  -9  11 -29    7.41    5.26
 -11   9 -29    5.50    5.11
   9   2 -26    8.86    4.57
   2   9  26   18.01    4.69
   2   9  26   16.51    5.05
 -11   2  26   26.61    7.59
  -9  11 -26   27.00    8.35
  -2  11  26   22.09    6.31
 -11   9 -26   28.22    8.21
   2   9  23    3.55    1.97
   9   2 -23   -2.83    2.23
 -11   2  23    5.17    3.77
   2   9  23    0.42    2.75
  -2  11  23    0.80    2.29
  -9  11 -23    4.49    4.43
 -11   9 -23    2.85    4.16
   9   2 -20    1.90    2.32
   2   9  20    1.47    2.16
 -11   2  20    1.85    2.28
  -2  -9 -20   -2.05    2.21
   2   9  20    1.29    1.51
  11  -2 -20    0.41    1.80
  -2  11  20   -5.86    4.51
  -9  11 -20   -4.82    3.86
 -11   9 -20   -5.22    4.08
 -11   2  17    2.09    3.25
   2   9  17   -4.49    2.34
  -2  -9 -17    3.35    3.45
   9   2 -17   -0.72    1.66
  11  -2 -17    4.82    3.89
  -9  11 -17   -5.75    5.41
   2   9  17    3.41    3.31
  -2  11  17   -4.04    3.17
 -11   9 -17    3.86    4.03
 -11   2  14   36.36    7.12
   2   9  14   33.39    6.21
  -2  -9 -14   34.82    7.19
 -11   9 -14   57.64   11.70
   9   2 -14   25.13    5.01
  -2  11  14   52.20    9.76
  -9  11 -14   39.89    9.67
   2   9  14   38.53    6.76
  11  -2 -14   42.32    7.66
   2   9  11   -2.35    1.50
 -11   9 -11    4.61    5.63
  -2  11  11   -1.77    2.56
   2   9  11   -5.85    2.35
   9   2 -11    4.81    2.45
  11  -2 -11   -2.20    2.43
  -9  11 -11    3.50    4.73
  -2  11   8    2.41    3.06
 -11   9  -8   10.58    5.60
  11  -2  -8    8.92    3.47
   9   2  -8    4.98    2.55
  -9  11  -8    1.81    2.57
   2   9   8    3.44    2.61
  11  -2  -5   21.12    4.57
 -11   9  -5   21.09    7.14
   2   9   5   19.17    4.85
  -2  11   5   32.82    8.04
   9   2  -5   20.27    3.45
  -9  11  -5   30.51    8.43
  11  -2  -2    2.78    1.58
  -9  11  -2   -1.48    2.73
   9   2  -2    2.67    1.19
   2   9   2   -5.17    3.43
  -2  11   2    2.21    2.65
 -11   9  -2   -2.10    3.38
  11  -2   1    0.00    1.73
 -11   9   1   -7.54    5.68
  -9  11   1    6.37    4.04
   2   9  -1    1.88    2.56
  -2  11  -1   -6.47    3.68
   2   9  -4    3.44    2.12
 -11   2  -4    8.45    2.74
  11  -2   4    5.53    2.63
   2   9  -4    8.96    3.92
  -2  11  -4   -0.14    2.89
  -9  11   4    3.24    3.90
 -11   9   4    1.26    3.04
   2   9  -7    0.50    2.03
 -11   2  -7   -0.52    1.73
  11  -2   7    0.20    1.20
   2   9  -7    1.76    2.73
 -11   9   7   -2.34    4.39
  -2  11  -7    0.19    1.84
  -9  11   7    1.92    2.29
   2   9 -10    3.79    1.43
 -11   2 -10    4.36    1.78
   2   9 -10    8.53    3.46
  11  -2  10    5.67    2.38
  -9  11  10    5.85    4.79
  -2  11 -10    3.23    3.38
 -11   9  10   11.86    5.52
   2   9 -13    1.77    1.85
 -11   2 -13    6.44    2.25
   2   9 -13    8.49    3.94
  11  -2  13    8.12    2.62
  -2  11 -13   11.22    5.23
  -9  11  13   18.39    7.84
 -11   9  13   15.36    6.70
 -11   9  16   38.16    9.93
   2   9 -16   19.93    4.63
 -11   2 -16   21.37    5.78
   2   9 -16   27.32    6.71
  -2  11 -16   32.17    7.91
  -9  11  16   31.39    9.45
 -11   9  19   -4.71    4.80
   2   9 -19   -2.78    2.56
 -11   2 -19    2.19    3.88
   2   9 -19   -1.67    1.91
  -2  11 -19    0.53    2.45
  -9  11  19   -0.25    2.49
 -11   9  22   39.80   10.09
   2   9 -22   19.14    4.97
 -11   2 -22   27.61    6.48
   2   9 -22   31.02    7.38
  -2  11 -22   35.65    8.86
  -9  11  22   50.03   11.65
  -9  11  25    4.46    5.24
 -11   9  25   -4.63    4.15
  -2  11 -25    4.43    4.72
   2   9 -25   -1.97    3.69
 -11   2 -25   -0.10    3.09
   2   9 -25   -0.70    1.92
  -9  11  28   52.00   12.60
 -11   9  28   38.29   10.72
   2   9 -28   21.46    6.65
  -2  11 -28   26.46    8.21
  -9  11  31   -1.12    2.90
 -11   9  31   -3.67    4.21
   2   9 -31    9.08    4.91
  -2  11 -31   -4.45    4.42
  -9  11  34    6.39    4.63
 -11   9  34   11.16    5.65
   2   9 -34    2.46    2.42
  -2  11 -34    1.81    2.29
  -9  11  37    9.86    5.84
 -11   9  37   12.15    6.43
  -2  11 -37    4.45    4.92
   2   9 -37    7.37    5.37
  -9  11  40   15.06    7.20
 -11   9  40   28.48   10.14
   2   9 -40   15.89    7.07
  -2  11 -40   19.00    7.60
 -11   9  43    1.19    4.78
  -9  11  43   -4.50    5.27
 -11   9  43    5.01    5.35
  -2  11 -43   12.20    6.89
   2   9 -43   -4.39    4.37
  -9  11  46    0.25    4.96
 -11   9  46   -4.19    4.72
  -9  11  46    2.06    4.12
 -11   9  46    7.80    6.02
  -2  11 -46    4.47    5.15
   2   9 -46    6.04    6.11
  -9  11  49   -1.28    2.61
  -9  11  49   -2.43    2.85
 -11   9  49    1.47    5.25
 -11   9  49   -0.21    3.19
  -2  11 -49    1.13    5.55
   2   9 -49   -3.07    4.76
  -9  11  52   12.43    8.44
  -9  11  52   11.40    7.67
 -11   9  52    3.91    5.93
  -2  11 -52    0.75    4.21
   2   9 -52   13.56    6.84
 -11   9  55    6.41    6.80
  -2  11 -55    5.61    6.35
   2   9 -55   -5.66    5.35
   2   9 -58   -6.56    5.04
  -1  11  63    7.66    3.40
  -1  11  60    0.20    3.80
   1  10  60    7.78    6.80
 -11  10 -60    5.39    6.09
  -1  11  57   -5.98    5.03
   1  10  57   -2.11    3.15
 -11  10 -57  -13.79    6.98
  -1  11  54    7.53    6.70
   1  10  54    7.55    4.68
 -10  11 -54    2.48    6.20
 -11  10 -54    1.86    5.04
   1  10  51    3.24    3.50
  -1  11  51   -3.70    3.08
 -10  11 -51    5.97    5.08
 -11  10 -51    6.46    5.36
   1  10  48    2.87    3.31
  -1  11  48    1.66    3.95
  -1  11  48    0.83    2.09
 -10  11 -48   -1.76    3.81
 -11  10 -48    7.63    5.54
   1  10  45   -0.71    2.85
  -1  11  45   -2.44    2.37
  -1  11  45    9.55    4.62
 -10  11 -45    5.61    4.10
 -11  10 -45    3.46    3.96
   1  10  42   10.71    5.39
  -1  11  42   13.84    6.50
  -1  11  42   22.48    8.87
 -10  11 -42    9.24    5.08
 -11  10 -42   21.81    8.31
   1  10  39    8.51    5.74
  -1  11  39   -0.24    2.69
  -1  11  39    2.22    3.55
   1  10  39    0.85    2.64
 -10  11 -39    6.40    4.97
 -11  10 -39    6.81    5.58
 -11   1  36   29.39    8.10
  -1  11  36   27.72    7.72
   1  10  36   35.31    7.30
   1  10  36   36.20    9.04
  -1  11  36   39.46   10.04
 -10  11 -36   37.90   11.31
 -11  10 -36   42.02   10.72
 -11   1  33    1.13    2.48
  -1  11  33   -5.00    4.02
   1  10  33   -3.28    3.22
   1  10  33    0.99    3.29
  -1  11  33    0.50    2.32
 -10  11 -33    6.65    6.22
 -11  10 -33   -1.62    3.47
 -11   1  30   10.71    4.28
  -1  11  30   14.17    5.26
   1  10  30   15.16    5.31
  -1  11  30   12.11    5.10
   1  10  30   10.85    5.32
 -10  11 -30   10.76    5.93
 -11  10 -30   10.51    5.17
 -11   1  27   -7.15    3.41
  -1  11  27   -2.48    1.83
   1  10  27    2.45    2.27
  -1  11  27   -3.27    3.76
   1  10  27    2.46    2.14
 -10  11 -27   -5.07    4.82
 -11  10 -27   -0.18    3.29
 -11   1  24    3.69    2.70
   1  10  24   -1.50    2.35
   1  10  24    4.06    2.51
 -10  11 -24   -1.81    3.50
 -11  10 -24    3.08    3.89
  10   1 -24    1.57    2.53
  -1  11  24   -0.29    3.37
 -11   1  21    1.32    2.07
   1  10  21    0.16    2.00
 -10  11 -21    5.63    3.60
  11  -1 -21    6.35    3.78
   1  10  21    1.95    2.50
 -11  10 -21    3.65    3.98
  -1  11  21    5.74    3.82
  10   1 -21    1.31    2.29
   1  10  18   12.30    4.65
 -11   1  18    3.24    2.64
  -1 -10 -18    5.66    3.52
  -1  11  18    1.94    2.95
  11  -1 -18    8.05    3.97
  10   1 -18   10.70    4.57
   1  10  18   15.17    4.91
 -10  11 -18    1.92    3.51
 -11  10 -18    6.91    5.36
 -11   1  15   11.91    4.21
  -1 -10 -15   15.52    5.56
  11  -1 -15   12.61    4.46
  -1  11  15    5.47    2.40
 -10  11 -15   16.34    6.09
  10   1 -15   11.09    4.68
   1  10  15    4.92    1.92
 -11  10 -15   24.18    8.10
 -11   1  12   18.16    5.13
  -1 -10 -12   22.41    6.82
  10   1 -12   15.39    3.96
  -1  11  12   20.49    6.21
   1  10  12   11.56    3.64
 -11  10 -12   38.33   10.80
  11  -1 -12   12.20    3.95
 -10  11 -12   25.62    8.68
 -11   1   9   21.84    5.04
  -1 -10  -9   26.72    6.88
   1  10   9   35.10    7.48
  -1  11   9   38.39    8.64
 -11  10  -9   57.15   12.41
  11  -1  -9   26.14    5.44
 -10  11  -9   50.62   11.53
 -11   1   6   -0.47    1.52
 -10  11  -6    4.52    4.25
  11  -1  -6    6.64    3.02
 -11  10  -6    0.74    2.85
   1  10   6    7.98    4.11
  -1  11   6    7.93    4.50
  11  -1  -3    2.47    1.91
 -10  11  -3    1.76    3.56
 -11  10  -3   -4.74    4.26
   1  10   3    0.38    2.15
  -1  11   3    0.99    2.67
  11  -1   0    9.95    3.01
 -10  11   0   13.35    5.90
   1  10   0    5.85    3.35
  -1  11   0    8.03    4.24
 -11  10   0    7.16    4.75
 -11  10   3   -4.62    3.48
   1  10  -3    0.26    1.79
  -1  11  -3   -4.73    3.52
 -10  11   3   -2.37    3.84
   1  10  -6    2.13    2.38
  -1  11  -6    2.18    2.52
 -11  10   6    4.54    4.00
   1  10  -9   -1.71    2.44
   1  10  -9    2.76    2.93
 -10  11   9    1.70    4.51
  -1  11  -9    1.64    1.98
 -11  10   9   -9.01    4.42
   1  10 -12   16.41    5.17
   1  10 -12   23.55    7.19
  -1  11 -12   23.80    7.11
 -10  11  12    8.66    4.90
 -11  10  12   24.08    8.18
   1  10 -15   -2.83    1.73
  -1  11 -15   -0.41    5.40
   1  10 -15   -5.80    3.35
  -1  11 -15    8.86    5.72
 -10  11  15   -9.69    5.68
 -11  10  15    0.23    4.04
   1  10 -18   57.54    9.23
   1  10 -18   64.97   11.04
  -1  11 -18   81.71   13.80
 -10  11  18   95.96   16.11
 -11  10  18   86.64   15.11
 -11  10  21    1.93    4.23
   1  10 -21  -15.48    5.27
   1  10 -21   -5.79    3.70
  -1  11 -21   -4.27    2.36
 -10  11  21   -2.06    3.56
 -10  11  24    2.41    3.41
 -11  10  24    0.79    2.78
  -1  11 -24    4.63    3.53
   1  10 -24    2.74    2.99
 -10  11  27   -0.66    3.15
  -1  11 -27    0.68    2.45
   1  10 -27   -0.89    2.20
 -10  11  30   12.61    7.30
 -11  10  30   17.80    7.47
  -1  11 -30    6.76    4.65
   1  10 -30    9.73    4.85
 -10  11  33    4.05    3.85
 -11  10  33    2.10    3.27
  -1  11 -33   -3.53    3.70
   1  10 -33    3.81    3.63
 -10  11  36    4.90    5.13
 -11  10  36    6.26    6.04
   1  10 -36    6.81    4.77
  -1  11 -36   -5.46    5.28
 -10  11  39    8.47    6.23
 -11  10  39    8.77    5.16
   1  10 -39   14.97    6.93
  -1  11 -39   -2.86    3.36
 -10  11  42   14.76    7.25
 -11  10  42   14.82    7.62
   1  10 -42    8.53    6.56
  -1  11 -42    4.35    4.02
 -10  11  45    8.41    7.21
 -11  10  45    2.29    4.93
 -10  11  45    4.20    3.79
 -11  10  45    2.04    5.69
   1  10 -45    3.71    4.36
  -1  11 -45    0.42    2.98
 -10  11  48    9.16    5.79
 -11  10  48   -2.35    4.59
 -10  11  48    6.71    3.71
 -11  10  48    4.44    4.19
   1  10 -48    4.28    4.44
  -1  11 -48    9.17    5.33
 -11  10  51   -3.82    4.64
   1  10 -51    6.32    6.36
  -1  11 -51   -2.83    4.98
   1  10 -54   10.63    6.51
   0  11  61   -3.44    4.78
   0  11  58    2.90    5.20
   0  11  55   -3.28    3.27
   0  11  52    2.46    3.78
 -11  11 -52   -0.22    4.06
   0  11  49    0.40    4.34
 -11  11 -49    1.05    3.18
   0  11  46   13.44    6.94
 -11  11 -46   12.45    6.96
   0  11  43   -4.18    3.06
 -11  11 -43    5.00    5.19
   0  11  40    8.77    4.80
   0  11  40   14.96    6.18
 -11  11 -40    1.95    3.89
   0  11  37    5.48    4.17
   0  11  37   -1.36    2.58
 -11  11 -37    4.97    5.35
   0  11  34   11.10    5.06
   0  11  34   19.86    7.23
 -11  11 -34   10.28    5.84
   0  11  31    2.41    3.08
   0  11  31   -5.36    3.76
 -11  11 -31    0.17    2.81
   0  11  28    6.93    4.03
   0  11  28    5.15    4.26
 -11  11 -28    0.05    3.73
   0  11  25    0.63    2.00
   0  11  25    0.20    3.22
 -11  11 -25    0.98    3.98
   0  11  22   10.32    4.58
   0  11  22    2.59    3.62
 -11  11 -22    5.20    4.50
   0  11  19    6.92    3.68
 -11  11 -19    8.09    5.57
 -11  11 -16    6.26    6.45
   0  11  16    4.19    3.80
   0  11  13   -2.51    2.02
 -11  11 -13    9.68    5.65
 -11  11 -10   36.37   10.28
   0  11  10   16.90    5.73
   0  11   7    0.63    1.88
 -11  11  -7    4.79    5.32
 -11  11  -4   -1.10    3.08
   0  11   4   -1.72    1.94
   0  11   1    1.84    2.03
 -11  11  -1   -4.35    5.02
   0  11  -2    6.61    4.59
 -11  11   2   11.38    5.55
 -11  11   5   -2.56    3.19
   0  11  -5   -3.48    3.59
   0  11  -8   11.27    4.48
 -11  11   8   11.25    5.88
   0  11 -11    6.60    3.87
   0  11 -11    1.80    3.06
 -11  11  11   -6.22    5.15
   0  11 -14   30.24    7.51
   0  11 -14   41.83    9.27
 -11  11  14   51.45   12.05
   0  11 -17    4.84    4.82
 -11  11  17    2.28    4.85
 -11  11  20   -4.13    4.42
   0  11 -20    0.68    2.71
 -11  11  23    7.42    5.37
   0  11 -23   -1.45    2.87
 -11  11  26   14.70    7.00
   0  11 -26    5.57    4.61
 -11  11  29    9.88    6.07
   0  11 -29    0.77    2.51
 -11  11  32    8.93   10.17
   0  11 -32    2.84    2.35
 -11  11  35   -2.88    3.79
   0  11 -35   -0.72    2.80
 -11  11  38    1.48    4.85
   0  11 -38    4.21    3.35
 -11  11  41    1.69    4.94
   0  11 -41    5.40    3.56
 -11  11  44    8.92    6.34
   0  11 -44    4.21    4.32
 -11  11  47    7.85    6.55
   0  11 -47   -0.10    3.05
   0  11 -50    9.56    6.22
 -12   6   0    9.47    4.82
   6   6   0    7.27    2.13
  -6  12   0   16.67    6.51
 -12   6  -3    3.88    3.95
 -12   6   3    4.02    3.80
  12  -6   3    0.22    1.76
   6   6  -3   -0.27    1.41
  -6  12   3   -7.56    4.90
   6   6   3    1.91    1.15
  -6  12  -3   -1.19    2.09
 -12   6   6   10.72    4.89
  12  -6   6    3.96    2.58
   6   6  -6    5.93    2.69
  -6  12   6   11.29    4.69
  -6  12  -6    6.48    4.59
 -12   6  -6    5.21    3.35
 -12   6   9    5.45    4.32
  12  -6   9   -3.67    2.82
   6   6  -9    6.08    2.61
  -6  12   9   -1.63    4.59
  -6  12  -9    3.44    3.55
 -12   6  -9   -9.75    3.50
 -12   6  12   37.64    9.35
  12  -6  12   27.85    7.06
   6   6 -12   29.47    5.81
  -6  12 -12   46.79   10.55
  -6  12  12   39.40    9.83
 -12   6 -12   35.64    8.04
 -12   6  15    9.27    5.59
   6   6 -15   -0.61    1.46
  12  -6  15   -5.64    3.36
 -12   6 -15   -2.59    2.19
  -6  12 -15   -3.15    3.71
  -6  12  15    2.88    3.57
 -12   6  18   20.49    7.17
  12  -6  18   13.28    4.70
   6   6 -18   18.24    5.08
  -6  12 -18   23.37    8.96
  -6  12  18   17.47    7.45
 -12   6 -18   18.30    6.33
 -12   6  21   -3.21    2.76
  12  -6  21   -3.41    3.60
   6   6 -21   -6.82    3.76
  -6  12 -21   -2.42    4.03
 -12   6 -21   -1.98    2.99
  -6  12  21   -0.90    3.12
 -12   6  24   13.12    6.00
  12  -6  24   10.96    4.65
   6   6 -24   11.15    4.57
  -6  12 -24    5.06    4.38
 -12   6 -24   11.07    5.31
  -6  12  24   15.44    5.68
 -12   6  27    8.47    4.91
   6   6 -27    5.87    3.74
  -6  12 -27    3.72    4.09
 -12   6 -27    2.86    3.37
  -6  12  27   13.85    6.53
  -6  12  30   -1.07    2.96
 -12   6  30    2.42    3.35
   6   6 -30    7.72    3.77
  -6  12 -30    7.49    4.78
 -12   6 -30    4.76    5.33
  -6  12  33    3.61    4.33
 -12   6  33    5.75    4.25
   6   6 -33    2.44    3.56
  -6  12 -33    7.72    5.43
 -12   6 -33   13.90    8.83
  -6  12  36   26.56    8.82
 -12   6  36   11.53    5.95
  -6  12 -36   17.59    7.64
   6   6 -36    8.62    5.76
 -12   6 -36   15.60    6.24
  -6  12  39    2.76    3.02
 -12   6  39   -2.46    3.33
   6   6 -39    4.76    4.08
  -6  12 -39   -3.75    2.62
 -12   6 -39    3.47    4.23
  -6  12  42   12.35    7.24
  -6  12  42   11.28    6.54
 -12   6  42   13.10    6.80
   6   6 -42    9.05    5.34
  -6  12 -42   13.27    6.66
 -12   6 -42    8.13    4.42
 -12   6  45    1.69    3.51
  -6  12  45   -4.65    4.19
  -6  12  45   -2.86    3.56
   6   6 -45   -3.23    4.81
  -6  12 -45   11.22    7.02
 -12   6 -45    3.65    3.06
  -6  12  48   27.55    9.18
  -6  12  48   17.12    8.15
 -12   6  48   21.48    9.18
   6   6 -48    8.99    5.43
  -6  12 -48    7.97    6.57
 -12   6  51    0.60    4.28
  -6  12  51   -0.11    3.96
  -6  12  51   -0.10    3.62
   6   6 -51   -5.21    4.78
  -6  12 -51   -5.56    5.45
  -6  12  54    8.40    6.38
  -6  12  54    2.04    4.78
 -12   6  54    3.55    6.21
   6   6 -54    5.20    5.13
 -12   6  57    0.14    4.95
  -6  12  57    3.14    4.08
   6   6 -57   -6.67    3.20
   6   6 -60   17.74   10.16
 -12   6  60   10.53    7.27
 -12   5  64   -3.73    5.00
 -12   5  61    2.48    3.46
 -12   5  58    7.85    6.81
  -5  12  58    6.54    4.01
 -12   5  55   12.95    7.06
  -5  12  55   -0.31    5.93
  -5  12  55    3.00    4.42
  -5  12  52   16.99    8.16
 -12   5  52   13.84    6.93
  -5  12  52   12.05    7.29
 -12   7 -52    7.51    3.95
  -5  12  49    5.42    5.17
  -5  12  49    0.55    2.76
 -12   5  49    1.82    2.98
  -7  12 -49   -1.60    3.87
 -12   7 -49    2.23    2.85
 -12   5  46    6.41    6.31
  -5  12  46   11.48    6.29
  -5  12  46   -1.05    3.28
  -7  12 -46   13.48    7.76
 -12   7 -46   12.37    5.97
  -5  12  43    4.18    4.05
  -5  12  43    6.06    5.58
 -12   5  43    8.53    5.73
  -7  12 -43    7.40    6.13
 -12   7 -43    7.43    5.48
  -5  12  40   17.74    7.10
 -12   5  40   14.24    7.21
  -5  12  40    9.17    6.08
  -7  12 -40   12.11    7.08
 -12   7 -40   15.68    6.51
  -5  12  37    0.22    3.19
 -12   5  37    4.61    4.47
  -7  12 -37    6.05    5.96
 -12   7 -37    0.48    3.66
  -5  12  34   -2.97    4.17
 -12   5  34    3.04    3.53
  -7  12 -34   -3.25    2.42
 -12   7 -34    0.61    3.45
  -5  12  31   -3.96    4.41
 -12   5  31    6.81    5.12
   7   5 -31    0.65    2.67
 -12   7 -31    3.46    3.40
  -7  12 -31   -3.54    3.51
 -12   5  28   42.70   10.72
   7   5 -28   38.41    9.62
  -7  12 -28   42.88   10.39
  -5  12  28   45.50   10.56
 -12   7 -28   46.59   10.11
   7   5 -25   13.57    5.78
 -12   7 -25   17.59    7.56
  -7  12 -25   16.68    6.74
  -5  12  25    1.90    2.66
   7   5 -22   10.82    4.59
  -7  12 -22    8.24    4.75
 -12   7 -22   12.22    5.16
  -5  12  22    9.07    4.76
 -12   5  19   -0.08    2.14
   7   5 -19    7.81    3.54
  -7  12 -19    1.52    4.01
  -5  12  19   -0.92    2.11
 -12   7 -19   -0.42    2.09
 -12   5  16   31.41    8.70
   7   5 -16   25.47    5.88
  -7  12 -16   32.63    9.29
 -12   7 -16   28.22    8.08
  -5  12  16   32.25    8.67
   5   7  13    3.82    1.44
 -12   5  13   -0.68    2.46
   7   5 -13    2.22    2.16
   7   5 -13    4.23    3.03
  -7  12 -13    1.34    2.50
  -5  12  13   -0.30    3.16
 -12   7 -13   -6.16    3.28
 -12   5  10   12.31    5.41
   7   5 -10    8.63    3.51
   7   5 -10    7.00    3.23
   5   7  10    4.54    1.43
 -12   7 -10    9.09    4.74
  -5  12  10    8.95    4.15
  -7  12 -10    8.21    5.46
   7   5  -7    2.75    2.54
 -12   5   7    2.28    3.78
   7   5  -7    2.68    2.03
  12  -5  -7   -2.43    3.48
  -5  12   7    0.67    2.26
   5   7   7    3.80    1.98
  -7  12  -7    3.45    2.85
 -12   7  -7   -0.26    3.10
   7   5  -4    8.57    2.85
 -12   5   4   15.51    6.23
   7   5  -4    4.84    1.54
  12  -5  -4   13.00    4.64
 -12   7  -4    9.65    4.61
  -5  12   4   11.31    4.94
   5   7   4   10.24    2.68
  -7  12  -4    7.79    4.89
 -12   5   1    4.18    4.07
  12  -5  -1    0.85    2.29
   7   5  -1    0.44    1.21
   7   5  -1    4.28    1.57
   5   7   1    1.86    1.83
 -12   7  -1    3.60    3.58
  -5  12   1   -2.32    2.08
  -7  12  -1   -1.86    2.37
 -12   7   2   16.35    6.40
 -12   5  -2   13.11    5.17
  12  -5   2   10.13    4.03
  -7  12   2   10.57    5.07
   5   7  -2   12.02    3.14
  -5  12  -2    9.84    5.38
 -12   7   5   -3.43    2.74
 -12   5  -5    4.12    3.74
  12  -5   5   -1.13    1.94
   5   7  -5    3.04    1.89
  -7  12   5   -4.38    4.57
  -5  12  -5   -0.15    2.46
 -12   5  -8   24.61    6.91
 -12   7   8   23.02    7.55
  12  -5   8   12.85    4.58
   5   7  -8   17.22    4.27
  -7  12   8   22.81    8.12
  -5  12  -8   31.38    8.66
 -12   5 -11   19.47    6.52
 -12   7  11   16.36    6.43
   5   7 -11    9.30    3.25
  12  -5  11    9.22    3.48
  -5  12 -11   16.80    6.39
  -7  12  11   21.46    7.56
 -12   7  14   12.04    6.00
   5   7 -14    9.27    4.02
  12  -5  14    6.18    3.99
 -12   5 -14   12.14    5.27
  -5  12 -14   13.18    6.81
  -7  12  14    4.50    3.84
 -12   7  17   -0.05    2.47
   5   7 -17    0.67    2.20
  12  -5  17    0.51    2.02
 -12   5 -17   -2.57    2.43
  -5  12 -17    2.16    3.16
 -12   7  20   14.23    6.72
   5   7 -20    1.00    2.44
  12  -5  20    6.83    3.24
  -5  12 -20   19.46    7.54
 -12   5 -20    8.00    4.16
  -7  12  20    7.28    4.18
 -12   7  23   11.38    6.27
  12  -5  23    3.35    2.89
   5   7 -23    0.91    1.81
 -12   5 -23    6.96    3.65
  -5  12 -23    6.10    4.94
  -7  12  23    7.76    4.92
 -12   7  26    3.96    4.12
   5   7 -26   11.60    4.15
  -5  12 -26   14.00    6.02
  -7  12  26   12.15    5.78
 -12   5 -26    8.73    4.43
  -7  12  29    5.05    5.11
 -12   7  29   -0.53    3.91
  -5  12 -29   11.03    6.64
   5   7 -29    6.56    4.75
 -12   5 -29   -0.74    2.68
  -7  12  32   14.44    6.28
 -12   7  32   13.91    5.86
  -5  12 -32    6.80    5.50
   5   7 -32   11.76    5.51
 -12   5 -32    9.71    4.64
  -7  12  35    4.47    4.92
 -12   7  35   -1.74    2.40
   5   7 -35   -9.31    6.06
  -5  12 -35    8.59    5.44
 -12   5 -35    3.72    3.59
  -7  12  38   10.87    6.58
 -12   7  38   13.58    6.95
  -5  12 -38   13.10    6.65
   5   7 -38   11.34    5.96
 -12   5 -38    7.48    4.22
  -7  12  41    5.94    4.54
 -12   7  41   -3.00    3.47
   5   7 -41   -0.92    3.64
  -5  12 -41    8.87    5.83
  -7  12  44   22.79    8.65
  -7  12  44   30.22    9.55
 -12   7  44   23.00    9.18
   5   7 -44   18.64    6.93
  -5  12 -44   21.86    8.15
  -7  12  47    0.24    3.63
  -7  12  47    3.22    5.61
 -12   7  47    5.96    2.67
   5   7 -47    3.15    5.19
  -5  12 -47   -0.23    4.98
 -12   7  50    1.10    5.32
  -7  12  50    5.42    5.81
  -7  12  50    9.76    7.09
  -5  12 -50   20.09    8.82
   5   7 -50    5.76    5.17
  -7  12  53    5.01    4.77
 -12   7  53    1.35    5.55
  -7  12  53    3.14    5.13
   5   7 -53    6.46    4.67
 -12   7  56    4.09    3.80
   5   7 -56    8.16    6.51
 -12   7  59    3.80    6.45
   5   7 -59    6.74    5.32
 -12   4  62    2.14    5.78
 -12   4  59  -14.36    8.66
 -12   8 -59   -5.42    4.65
 -12   4  56    1.81    4.75
  -4  12  56    6.49    4.89
  -4  12  56   11.97    8.25
 -12   8 -56    6.40    5.58
 -12   4  53   -5.26    4.40
  -4  12  53   -1.25    5.33
  -4  12  53    2.53    4.45
 -12   8 -53    3.51    4.19
  -4  12  50    8.60    6.71
  -4  12  50    4.43    2.97
 -12   4  50   14.38    7.33
  -8  12 -50    8.87    7.10
 -12   8 -50    7.27    4.43
 -12   4  47    5.42    6.08
  -4  12  47   14.79    7.25
  -4  12  47    5.21    4.64
  -8  12 -47   10.03    7.37
 -12   8 -47   11.37    5.62
 -12   4  44    5.54    4.97
  -4  12  44    6.42    5.02
  -4  12  44    7.40    6.12
  -8  12 -44    5.93    6.02
 -12   8 -44    7.39    5.50
  -4  12  41    4.30    4.45
 -12   4  41   10.34    5.63
  -4  12  41   -2.94    2.82
  -8  12 -41   -1.10    2.76
 -12   8 -41    3.01    4.17
  -4  12  38   10.30    6.26
  -4  12  38   -1.59    3.87
 -12   4  38    6.07    4.56
  -8  12 -38    5.40    6.45
 -12   8 -38    5.40    4.36
  -4  12  35    2.30    3.89
 -12   4  35    2.92    3.61
  -8  12 -35    3.88    3.13
 -12   8 -35   -2.87    3.64
  -4  12  32   -3.02    2.77
 -12   4  32    4.24    3.96
  -8  12 -32    8.34    5.36
 -12   8 -32    2.72    3.47
 -12   4  29    3.43    3.57
  -8  12 -29    7.22    6.80
 -12   8 -29    5.24    4.78
  -4  12  29   -3.27    3.02
 -12   4  26   25.45    7.44
  -8  12 -26   30.72    9.85
 -12   8 -26   23.02    7.46
  -4  12  26   31.08    9.04
 -12   4  23    4.55    4.24
 -12   8 -23    2.78    3.97
  -8  12 -23    6.59    5.46
  -4  12  23   -0.21    2.44
   8   4 -20   18.97    6.40
 -12   8 -20   28.05    8.55
  -8  12 -20   18.04    7.58
  -4  12  20   28.98    8.88
   4   8  17   -0.76    1.70
   8   4 -17    1.77    2.67
 -12   8 -17   -4.12    2.69
  -8  12 -17   -3.16    2.43
  -4  12  17    7.41    5.20
   8   4 -14    5.01    3.10
   4   8  14    6.72    2.12
  -8  12 -14   12.01    5.84
 -12   8 -14   -0.62    2.83
  -4  12  14    4.67    3.63
   8   4 -11    2.22    2.58
  12  -4 -11   -2.69    2.51
  -4  12  11   -0.36    3.17
  -8  12 -11   -0.72    2.72
 -12   8 -11   -5.97    3.94
   4   8  11    1.66    1.58
 -12   4   8   -0.09    1.57
   8   4  -8    0.78    1.04
 -12   8  -8    2.58    2.90
  -4  12   8    3.73    2.29
  12  -4  -8    4.64    2.90
   4   8   8    4.75    2.76
  -8  12  -8    9.07    5.80
 -12   4   5    1.98    3.33
   8   4  -5    1.70    1.20
  12  -4  -5   -4.49    2.18
 -12   8  -5   -7.63    3.63
   4   8   5    1.44    1.93
  -8  12  -5   -3.17    3.08
  -4  12   5   -6.60    3.89
 -12   4   2   21.29    6.53
   8   4  -2    9.04    1.44
  12  -4  -2   21.76    5.76
   4   8   2   16.19    3.82
  -4  12   2   11.18    4.89
 -12   8  -2    9.76    4.49
  -8  12  -2   29.64    8.37
 -12   4  -1    6.24    4.42
  12  -4   1   -6.63    4.06
  -8  12   1    9.49    6.65
   4   8  -1    1.45    2.26
 -12   8   1   -1.29    3.43
  -4  12  -1   -1.73    4.86
 -12   4  -4   49.27    9.46
  12  -4   4   28.36    6.05
   4   8  -4   31.56    5.84
  -8  12   4   51.63   11.72
  -4  12  -4   34.64    8.69
 -12   8   4   52.92   11.13
 -12   8   7   14.25    6.37
 -12   4  -7   20.27    6.69
   4   8  -7   13.12    4.23
  12  -4   7   16.00    5.30
  -4  12  -7   24.10    8.08
  -8  12   7   23.55    8.26
 -12   8  10   -1.24    3.28
 -12   4 -10    3.07    3.80
   4   8 -10    0.50    1.49
  12  -4  10    2.42    2.18
  -4  12 -10    9.87    5.06
  -8  12  10   -3.15    3.96
 -12   4 -13    7.60    3.96
 -12   8  13    5.88    4.68
 -12   4 -13    4.72    3.35
   4   8 -13    8.13    3.26
  12  -4  13   -0.26    1.58
  -8  12  13   -2.13    3.93
  -4  12 -13    0.40    2.34
 -12   4 -16    1.28    2.91
 -12   8  16   -1.16    3.40
 -12   4 -16   -1.82    2.34
   4   8 -16   -2.54    3.19
  -4  12 -16    1.13    2.54
  -8  12  16    1.79    3.46
 -12   4 -19    3.51    2.64
 -12   8  19    2.62    3.94
 -12   4 -19   -9.01    4.08
   4   8 -19    0.75    1.90
  -4  12 -19   -0.23    2.32
  -8  12  19    1.23    3.56
 -12   8  22   22.95    8.11
   4   8 -22   16.47    5.74
  -4  12 -22   17.42    7.33
 -12   4 -22    9.85    3.89
  -8  12  22   21.03    8.22
 -12   8  25   14.56    7.46
   4   8 -25    4.32    3.12
 -12   4 -25    1.94    2.61
  -8  12  25    3.22    4.99
  -4  12 -25    7.44    4.60
  -8  12  28   46.11   11.23
 -12   8  28   48.37   12.34
   4   8 -28   16.08    5.77
  -4  12 -28   31.97    9.18
 -12   4 -28   28.93    6.79
  -8  12  31    8.34    5.53
 -12   8  31    1.29    3.27
  -4  12 -31   -7.43    5.52
   4   8 -31   -0.61    3.43
  -8  12  34    0.56    3.66
 -12   8  34    8.64    5.27
  -4  12 -34    4.65    5.38
   4   8 -34    0.75    3.22
  -8  12  37    4.45    4.15
 -12   8  37   -4.75    4.65
   4   8 -37    1.24    3.32
  -4  12 -37    0.15    3.20
 -12   8  40   18.52    7.53
  -8  12  40   17.09    7.48
 -12   8  40    8.68    5.12
  -4  12 -40   21.36    8.83
   4   8 -40    9.25    5.56
  -8  12  43    0.69    3.60
 -12   8  43    2.45    3.12
  -4  12 -43    6.45    5.96
   4   8 -43   -5.84    4.94
  -8  12  46   17.16    8.63
  -8  12  46    4.42    5.16
 -12   8  46    8.91    7.43
  -4  12 -46    0.32    2.83
   4   8 -46   17.54    7.83
  -8  12  49    5.90    5.26
  -8  12  49    4.32    5.29
 -12   8  49    1.52    4.08
  -4  12 -49    4.61    3.28
   4   8 -49    6.67    5.62
 -12   8  52    4.21    4.75
  -8  12  52   11.00    6.78
   4   8 -52   12.19    7.93
 -12   8  55    2.53    5.13
   4   8 -55   -2.35    4.85
   4   8 -58   19.22   10.34
 -12   9 -60    3.11    5.67
  -3  12  57    0.97    3.38
 -12   9 -57    2.35    5.15
  -3  12  54    6.21    4.83
  -3  12  54    7.23    5.04
 -12   9 -54    2.90    3.00
 -12   3  51    3.23    4.58
  -3  12  51    6.29    5.13
  -3  12  51    4.28    4.77
 -12   9 -51   -1.05    2.83
  -3  12  48    5.80    6.75
  -3  12  48    3.61    4.58
 -12   3  48   13.45    7.17
  -9  12 -48    4.56    7.12
 -12   9 -48    5.35    6.03
 -12   3  45    1.38    3.49
  -3  12  45    6.44    5.45
  -3  12  45    2.72    3.34
  -9  12 -45    1.01    3.85
 -12   9 -45   -4.33    4.36
 -12   3  42   -5.03    4.23
  -3  12  42    6.62    5.14
  -3  12  42    4.70    5.15
  -9  12 -42    8.24    5.59
 -12   9 -42   16.19    6.49
  -3  12  39    2.84    3.89
  -3  12  39    7.59    4.48
 -12   3  39    2.13    2.69
  -9  12 -39    2.21    3.34
 -12   9 -39    6.41    5.75
  -3  12  36    8.84    5.00
  -3  12  36    7.07    4.77
 -12   3  36   11.17    5.01
  -9  12 -36   12.83    6.61
 -12   9 -36   12.35    6.53
  -3  12  33   -2.53    3.28
  -3  12  33   -3.07    3.77
 -12   3  33   -4.41    2.80
  -9  12 -33    0.38    3.72
 -12   9 -33   -0.05    2.40
  -3  12  30   10.60    4.48
 -12   3  30   12.84    5.59
  -9  12 -30   11.71    6.99
 -12   9 -30   10.67    6.28
   3   9  27    7.49    4.21
 -12   3  27   13.27    6.34
  -9  12 -27   13.77    8.18
 -12   9 -27   12.94    5.76
  -3  12  27    1.49    2.42
   3   9  24   27.35    5.85
 -12   3  24   22.83    6.79
  -3  12  24   25.14    7.38
  -9  12 -24   27.66    9.49
 -12   9 -24   19.30    7.79
   3   9  21    3.71    2.70
   3   9  21    1.66    2.09
 -12   3  21   -2.56    2.42
 -12   9 -21   -2.58    2.23
  -9  12 -21    0.54    2.26
  -3  12  21   -2.73    3.69
 -12   3  18    6.90    3.54
   3   9  18   10.81    4.00
  -3  12  18   15.79    6.33
 -12   9 -18   16.01    6.77
  -9  12 -18   18.57    7.81
   3   9  18   13.38    4.00
   3   9  15   -0.42    2.31
 -12   9 -15    5.98    3.52
  -9  12 -15   -2.35    3.68
   3   9  15    0.23    2.01
  12  -3 -15   -0.07    2.53
  -3  12  15   -1.29    2.89
   3   9  12    2.75    2.13
  -3  12  12   -2.61    2.41
  12  -3 -12    0.85    2.05
 -12   9 -12   -3.00    3.18
  -9  12 -12    3.20    2.48
   3   9  12    1.59    1.84
   3   9   9    2.28    2.33
   9   3  -9    6.82    2.75
  -3  12   9    7.51    4.59
   3   9   9    5.90    3.19
  12  -3  -9    6.38    2.84
 -12   9  -9    0.28    2.65
  -9  12  -9    5.08    3.06
   3   9   6    7.99    2.47
   9   3  -6   12.21    2.76
  -3  12   6   20.97    6.72
  12  -3  -6   11.22    4.04
   3   9   6   13.99    4.05
  -9  12  -6   20.48    7.29
 -12   9  -6   22.92    7.94
   3   9   3   -1.03    2.51
  12  -3  -3    1.64    2.82
  -9  12  -3   10.43    6.02
 -12   9  -3    4.77    5.28
   3   9   3   -3.59    1.93
  -3  12   3   -7.15    3.31
  12  -3   0   16.85    4.52
  -9  12   0   42.01   10.47
   3   9   0   28.00    5.82
 -12   9   0   26.16    8.77
  -3  12   0   32.55    8.53
 -12   9   3    6.37    5.88
   3   9  -3    8.54    3.84
  -9  12   3    6.12    4.92
  -3  12  -3   -0.73    2.98
 -12   9   6    2.08    3.75
   3   9  -6    1.74    2.49
  -3  12  -6   -4.77    4.51
  -9  12   6   -5.38    4.60
 -12   3  -9    4.19    2.46
   3   9  -9    4.54    3.23
  -3  12  -9    0.32    2.48
 -12   9   9    4.68    5.10
  -9  12   9    0.12    2.64
 -12   9  12   14.46    7.10
 -12   3 -12    8.66    3.67
   3   9 -12   13.46    4.86
  -9  12  12   12.19    5.61
  -3  12 -12   12.40    5.32
 -12   9  15    0.53    2.45
 -12   3 -15    0.18    2.05
   3   9 -15    3.35    3.38
  -3  12 -15   -1.83    4.10
  -9  12  15   -0.62    3.23
 -12   9  18   -1.38    4.22
   3   9 -18    9.95    4.35
  -9  12  18    7.47    5.50
  -3  12 -18    4.98    3.24
 -12   9  21   -2.56    4.71
   3   9 -21   -0.05    3.01
  -3  12 -21    6.21    3.94
  -9  12  21   -4.82    4.08
 -12   9  24   44.45   11.73
   3   9 -24   20.46    6.03
  -3  12 -24   34.75   10.03
  -9  12  24   53.25   12.43
  -9  12  27    3.00    4.96
 -12   9  27    1.91    5.13
   3   9 -27    2.22    3.51
  -3  12 -27    2.67    3.57
  -9  12  30    6.25    5.84
 -12   9  30   13.03    6.22
   3   9 -30    8.36    5.06
  -3  12 -30    3.62    2.66
  -9  12  33   15.71    7.66
 -12   9  33    9.07    6.08
  -3  12 -33   10.95    5.79
   3   9 -33   11.32    5.43
  -9  12  36   36.33   11.18
 -12   9  36   28.36   10.52
   3   9 -36   21.62    7.24
  -3  12 -36   32.35    9.92
  -9  12  39    4.06    4.62
 -12   9  39    8.25    6.46
   3   9 -39    4.05    5.06
  -3  12 -39    5.13    5.10
 -12   9  42   -4.15    6.08
  -9  12  42   -1.66    3.77
 -12   9  42    3.81    4.22
  -3  12 -42    2.43    3.43
   3   9 -42    8.89    6.27
 -12   9  45    0.00    2.82
  -9  12  45   -0.61    3.80
 -12   9  45    2.79    3.72
  -3  12 -45    6.68    5.18
   3   9 -45   -2.47    2.87
  -9  12  48   23.06    9.46
  -9  12  48   14.50    7.81
 -12   9  48   10.31    5.84
  -3  12 -48   22.75    8.86
   3   9 -48   10.25    6.87
 -12   9  51   17.87    9.69
   3   9 -51    3.12    5.99
   3   9 -54    1.82    4.00
  -2  12  58    7.43    6.80
 -12  10 -58   18.92    8.17
  -2  12  55    6.88    6.81
 -12  10 -55    1.24    4.57
  -2  12  52    3.66    4.60
  -2  12  52    3.38    5.86
 -12  10 -52    4.44    6.19
  -2  12  49    2.69    4.91
  -2  12  49    5.92    3.65
 -12  10 -49    4.11    4.27
  -2  12  46    4.79    5.09
  -2  12  46    7.97    3.68
 -10  12 -46    2.06    4.44
 -12  10 -46    1.19    3.83
  -2  12  43   -0.88    2.52
  -2  12  43    3.60    3.43
 -10  12 -43   11.98    7.42
 -12  10 -43    1.78    4.26
  -2  12  40    3.51    3.68
  -2  12  40    9.17    5.15
 -10  12 -40    8.92    6.80
 -12  10 -40    9.71    5.27
  -2  12  37    2.41    3.97
  -2  12  37    1.59    2.63
 -10  12 -37    3.08    4.84
 -12  10 -37   -3.57    4.84
  -2  12  34    1.82    4.18
  -2  12  34    4.76    3.73
 -10  12 -34    9.75    6.90
 -12  10 -34    4.91    5.07
   2  10  31    1.55    4.05
  -2  12  31    5.64    4.81
  -2  12  31    3.88    4.64
 -10  12 -31   -3.66    2.48
 -12  10 -31    1.23    3.32
  -2  12  28   29.36    7.89
   2  10  28   24.99    7.01
 -10  12 -28   31.82   10.28
 -12  10 -28   26.69    9.46
   2  10  25    0.94    2.46
  -2  12  25   -4.45    3.67
 -10  12 -25    6.15    4.81
 -12  10 -25    0.69    2.61
   2  10  22    5.08    3.33
   2  10  22    2.69    2.86
 -10  12 -22    5.09    4.47
 -12  10 -22    4.31    4.16
  -2  12  22    2.15    2.69
   2  10  19    5.26    3.45
 -12   2  19    2.78    2.83
 -12  10 -19    3.78    4.13
  -2  12  19   -2.56    2.09
 -10  12 -19   -2.98    3.16
   2  10  19    1.38    1.96
   2  10  16    9.36    3.96
 -12   2  16    4.74    2.91
 -12  10 -16    4.38    4.91
   2  10  16   11.68    4.62
 -10  12 -16    7.66    6.59
  -2  12  16    5.68    3.87
   2  10  13    6.66    3.75
 -12   2  13    6.46    3.53
 -12  10 -13   12.65    6.24
  -2  12  13    9.05    5.02
 -10  12 -13    6.74    5.17
   2  10  13    7.74    3.63
   2  10  10    5.24    3.30
 -12   2  10    5.84    2.80
  -2  12  10   10.74    5.04
   2  10  10    5.30    3.64
 -12  10 -10    5.14    3.72
 -10  12 -10    6.79    4.40
 -10  12  -7    2.16    4.34
   2  10   7   -1.61    2.13
  -2  12   7   -1.73    2.32
 -12  10  -7   -0.66    2.71
 -10  12  -4   16.53    7.84
   2  10   4    9.62    3.92
  -2  12   4   24.33    7.22
 -12  10  -4   19.46    6.88
 -12  10  -1   -5.17    4.66
 -10  12  -1   -1.82    3.23
   2  10   1    1.38    2.60
  -2  12   1    3.53    2.58
   2  10  -2    3.59    2.51
 -12  10   2    2.14    2.60
 -10  12   2   -1.97    2.89
  -2  12  -2   -3.73    3.36
   2  10  -5   -1.65    1.89
  -2  12  -5   -0.04    2.52
 -10  12   5   -2.77    2.41
 -12  10   5    1.07    2.94
 -10  12   8   22.71    9.15
   2  10  -8   10.95    4.75
  -2  12  -8   10.89    5.32
 -12  10   8   16.47    7.52
   2  10 -11   -0.50    1.73
 -12  10  11    8.68    5.58
  -2  12 -11    4.40    4.82
 -10  12  11   12.03    7.02
 -12  10  14   10.69    6.01
   2  10 -14   18.68    6.51
  -2  12 -14   12.09    5.72
 -10  12  14   22.14    9.30
 -12  10  17    6.46    4.33
   2  10 -17   -3.96    2.83
  -2  12 -17    0.77    3.42
 -10  12  17    5.03    4.93
 -12  10  20    4.61    5.34
   2  10 -20    3.39    3.16
  -2  12 -20   12.99    6.14
 -10  12  20   14.82    6.85
 -12  10  23    4.01    4.05
   2  10 -23    6.13    4.73
  -2  12 -23    2.50    3.02
 -10  12  23    4.93    4.25
 -10  12  26   10.93    6.78
 -12  10  26   10.51    6.48
   2  10 -26    9.46    5.38
  -2  12 -26    6.61    3.05
 -10  12  29    4.53    5.26
 -12  10  29    5.89    4.50
  -2  12 -29    4.25    4.04
   2  10 -29   -6.76    4.18
 -10  12  32   33.05   11.67
 -12  10  32   31.86   10.46
  -2  12 -32   15.39    7.39
   2  10 -32    9.19    4.98
 -10  12  35   -0.85    3.48
 -12  10  35    8.18    6.69
   2  10 -35    4.22    3.19
  -2  12 -35    2.21    2.78
 -10  12  38    5.19    5.17
 -12  10  38   18.66    9.90
   2  10 -38    0.87    3.14
  -2  12 -38    3.29    4.72
 -10  12  41    0.13    3.21
 -12  10  41    9.78    7.40
  -2  12 -41    1.94    3.53
   2  10 -41    5.42    5.97
 -12  10  44   18.32    9.09
 -10  12  44    4.52    5.98
 -12  10  44    4.56    5.11
  -2  12 -44    0.92    3.67
   2  10 -44    4.41    5.46
 -12  10  47    1.57    3.36
   2  10 -47    3.18    4.01
  -2  12 -47   -0.61    3.31
   2  10 -50    6.42    5.95
   2  10 -53    0.73    5.10
  -1  12  56   12.45    7.32
  -1  12  53    0.60    4.02
  -1  12  50   11.36    5.72
 -12  11 -50    5.38    4.92
  -1  12  47    8.18    6.73
 -12  11 -47    4.18    5.81
  -1  12  44    8.80    7.07
 -11  12 -44    6.46    6.18
 -12  11 -44    3.73    5.53
  -1  12  41    3.72    4.59
  -1  12  41   -4.66    4.02
 -11  12 -41    9.88    7.29
 -12  11 -41    6.06    5.78
  -1  12  38    7.29    5.20
  -1  12  38    5.60    4.28
 -11  12 -38    2.42    4.24
 -12  11 -38    3.37    4.53
  -1  12  35    7.57    5.27
  -1  12  35   -0.85    2.40
 -11  12 -35    5.83    3.00
 -12  11 -35    8.34    5.08
  -1  12  32   12.49    5.95
   1  11  32   12.04    5.91
  -1  12  32   10.12    5.37
 -11  12 -32    3.27    4.85
 -12  11 -32    3.20    3.58
  -1  12  29    2.63    2.36
  -1  12  29    1.80    2.42
   1  11  29    1.89    3.49
 -11  12 -29   -1.64    3.94
 -12  11 -29   -2.81    4.40
   1  11  26   13.97    4.99
  -1  12  26    7.52    4.80
   1  11  26   11.57    4.47
 -11  12 -26    6.74    4.73
 -12  11 -26    4.26    3.88
  -1  12  26    6.43    4.11
   1  11  23   -0.61    2.52
   1  11  23    4.59    3.39
 -11  12 -23    7.24    5.02
  -1  12  23    0.89    2.91
 -12  11 -23   11.46   15.24
   1  11  20    7.87    4.10
   1  11  20    5.18    4.01
  -1  12  20   13.95    5.70
 -11  12 -20   14.25    7.45
 -12  11 -20    9.93    5.77
   1  11  17   -7.69   12.07
 -12  11 -17   -1.61    3.56
  -1  12  17   -2.92    1.89
   1  11  17    4.06    4.15
 -11  12 -17    5.18    5.93
 -12  11 -14   19.48    7.54
  -1  12  14   13.76    5.50
   1  11  14    9.88    5.11
 -11  12 -14   16.82    7.93
 -11  12 -11    4.75    4.80
 -12  11 -11    3.99    5.09
  -1  12  11   -4.50    2.68
   1  11  11   -0.63    2.34
  -1  12   8   -2.92    2.71
 -11  12  -8    1.42    4.17
   1  11   8    1.99    3.30
 -12  11  -8    5.67    5.20
 -11  12  -5    1.91    3.34
 -12  11  -5    2.93    2.51
   1  11   5    0.04    2.09
  -1  12   5   -0.05    2.47
 -11  12  -2    5.98    4.51
   1  11   2    7.34    3.59
  -1  12   2    1.28    2.96
 -12  11  -2    7.20    5.39
 -12  11   1   -5.08    4.03
   1  11  -1   -1.74    2.09
  -1  12  -1    6.49    4.06
 -11  12   1   -2.64    3.05
   1  11  -4   24.20    7.12
 -12  11   4   23.42    8.53
  -1  12  -4   19.45    6.77
 -11  12   4   28.24    9.15
 -11  12   7    6.05    4.98
   1  11  -7    8.39    4.63
  -1  12  -7    1.72    3.45
 -12  11   7   -5.06    4.15
   1  11 -10   10.45    5.21
  -1  12 -10    8.85    5.18
 -12  11  10   16.64    6.43
 -11  12  10   16.06    6.27
 -11  12  13   -2.10    3.62
   1  11 -13    7.72    4.54
  -1  12 -13   -1.15    2.16
 -12  11  13    0.13    3.86
 -12  11  16   10.03    5.98
   1  11 -16    3.29    3.65
  -1  12 -16    9.71    4.32
 -11  12  16   11.83    7.11
 -12  11  19   -0.01    3.68
   1  11 -19    0.96    2.22
  -1  12 -19   -0.15    2.68
 -11  12  19    2.80    3.62
 -11  12  22   11.87    6.85
 -12  11  22    5.21    4.12
  -1  12 -22    9.43    5.76
   1  11 -22    4.23    4.67
 -11  12  25    5.79    6.42
 -12  11  25    2.13    5.11
  -1  12 -25    8.47    6.23
   1  11 -25    0.20    3.36
 -11  12  28   14.25    7.09
 -12  11  28   13.49    8.16
   1  11 -28    6.27    4.17
  -1  12 -28    9.12    5.68
 -11  12  31   -0.04    4.47
 -12  11  31    5.18    5.16
  -1  12 -31    5.87    4.16
   1  11 -31   -3.41    3.37
 -11  12  34   13.07    7.87
 -12  11  34   11.06    6.95
   1  11 -34    9.19    6.49
  -1  12 -34    0.99    3.05
 -11  12  37   -4.38    4.11
 -12  11  37    2.62    6.55
  -1  12 -37    7.35    4.85
   1  11 -37   -1.89    3.40
 -12  11  40   19.05    8.47
  -1  12 -40    6.52    4.76
   1  11 -40   11.06    6.84
  -1  12 -43    1.10    3.35
   1  11 -43    3.71    4.14
   1  11 -46    1.59    4.67
  -1  12 -46    3.01    5.46
   1  11 -49    1.56    4.46
 -12  12 -42   10.70    5.61
 -12  12 -39    3.88    5.45
 -12  12 -36   13.18    6.47
 -12  12 -33   -1.78    4.80
   0  12  30    2.15    3.78
 -12  12 -30    8.16    5.51
   0  12  27    0.69    2.15
   0  12  27   -1.64    2.96
 -12  12 -27   -4.37    3.40
   0  12  24    8.88    5.11
   0  12  24    3.94    3.26
 -12  12 -24   18.16    7.97
   0  12  21    7.30    5.66
   0  12  21   -2.94    1.93
 -12  12 -21    5.27    5.27
   0  12  18   22.27    7.56
 -12  12 -18   28.65   10.23
   0  12  15    2.21    2.82
 -12  12 -15    5.65    6.38
 -12  12 -12   -1.88    3.05
   0  12  12    4.72    3.53
   0  12   9   -2.24    2.23
 -12  12  -9   -1.79    3.38
   0  12   6    1.92    2.22
 -12  12  -6   13.45    6.60
 -12  12  -3   -6.63    3.83
   0  12   3    1.33    3.05
   0  12   0   15.41    5.83
 -12  12   0   21.83    9.22
 -12  12   3   -1.24    3.12
   0  12  -3   -3.27    3.22
   0  12  -6    4.86    3.63
 -12  12   6   14.78    7.32
   0  12  -9    1.49    2.18
 -12  12   9    0.91    2.72
   0  12 -12   13.59    5.17
 -12  12  12   15.29    7.73
   0  12 -15    3.38    3.75
 -12  12  15    5.53    6.41
 -12  12  18    7.95    5.47
   0  12 -18    0.64    2.69
 -12  12  21   -3.78    4.32
   0  12 -21    4.60    4.07
 -12  12  24   18.29    7.93
   0  12 -24   13.67    6.58
 -12  12  27    0.49    5.55
   0  12 -27    1.80    4.29
 -12  12  30    9.24    5.29
   0  12 -30   -0.49    3.09
 -12  12  33   -4.83    4.08
   0  12 -33   -4.00    4.14
   0  12 -36   16.73    8.24
   0  12 -39   -0.48    4.43
   0  12 -42  -11.34    6.60
 -13   6  59    2.97    7.11
 -13   6  56   16.45    9.70
   7   6 -56   11.74    8.37
 -13   6  53    0.28    5.64
   7   6 -53   -1.31    3.79
 -13   6  50   10.64    7.87
  -6  13  50    5.95    5.53
   7   6 -50    2.57    5.49
  -6  13  47    4.94    5.87
  -6  13  47   -3.03    3.50
 -13   6  47    1.23    4.69
   7   6 -47    2.29    5.37
  -6  13  44    8.94    6.64
  -6  13  44   -0.99    5.63
 -13   6  44    2.43    6.28
   7   6 -44    6.87    6.12
 -13   6  41    3.15    5.19
  -6  13  41   -6.59    5.44
  -6  13  41    1.36    3.33
   7   6 -41    5.34    5.72
  -7  13 -41   -0.61    3.98
  -6  13  38    7.39    6.00
 -13   6  38   11.98    6.24
   7   6 -38    9.49    5.75
  -7  13 -38    6.90    5.69
 -13   7 -38    4.74    5.27
  -6  13  35    4.56    4.64
 -13   6  35    3.26    4.59
   7   6 -35   -3.05    3.57
 -13   7 -35    3.32    4.25
  -7  13 -35   -1.27    2.87
  -6  13  32    5.81    3.82
 -13   6  32    5.52    5.10
   7   6 -32    4.40    4.83
  -7  13 -32   15.18    6.53
 -13   7 -32    2.42    3.47
 -13   6  29    6.04    5.43
  -6  13  29    3.80    4.82
   7   6 -29    8.17    4.91
  -7  13 -29    9.27    5.41
 -13   7 -29   -0.01    3.35
   7   6 -26    1.41    2.26
  -7  13 -26    9.40    5.05
  -6  13  26    4.91    3.85
 -13   7 -26    1.50    2.64
 -13   6  23    9.20    5.37
   7   6 -23    4.31    3.01
  -6  13  23    5.68    3.93
  -7  13 -23   18.43    7.60
 -13   7 -23   10.95    5.01
 -13   6  20   -0.03    2.59
   7   6 -20    4.33    3.91
  -7  13 -20    0.47    4.55
  -6  13  20    8.97    5.59
 -13   7 -20    3.17    4.50
 -13   6  17    6.42    5.87
   7   6 -17   -1.93    1.97
  -6  13  17   -5.02    4.15
 -13   7 -17    5.85    4.58
  -7  13 -17    4.69    4.61
 -13   6  14   17.12    7.62
   7   6 -14   12.23    4.71
  -7  13 -14    9.38    5.92
 -13   7 -14   21.39    7.63
  -6  13  14   18.27    7.66
 -13   6  11    1.41    3.80
   7   6 -11    0.66    2.04
 -13   7 -11    2.16    3.17
  -6  13  11    3.09    3.56
  -7  13 -11    3.66    4.11
 -13   6   8   16.50    6.74
 -13   7  -8    7.21    4.93
  -6  13   8    5.13    5.06
  -7  13  -8    4.87    4.60
 -13   6   5   -1.37    2.78
  -6  13   5    6.61    5.65
 -13   7  -5    2.75    4.56
  -7  13  -5    3.54    3.01
 -13   7  -2   13.70    6.10
 -13   6   2   18.64    6.75
  -6  13   2    8.69    4.99
  -7  13  -2   11.97    6.90
 -13   7   1   11.90    5.71
 -13   6  -1   -0.50    2.48
  -7  13   1    4.57    5.19
  -6  13  -1    3.66    4.11
 -13   6  -4   11.42    5.10
 -13   7   4   13.43    6.34
  -7  13   4   16.81    7.65
  -6  13  -4    8.61    4.21
 -13   6  -7    0.05    2.87
 -13   7   7    5.49    4.17
   6   7  -7    4.20    2.86
  -7  13   7    1.46    3.26
  -6  13  -7   -1.96    3.01
 -13   6 -10   20.29    7.22
 -13   7  10   20.49    7.87
   6   7 -10   12.96    3.91
  -6  13 -10   19.02    7.65
  -7  13  10   33.51    9.53
 -13   7  13   -0.98    2.83
   6   7 -13    2.55    2.64
 -13   6 -13    7.61    8.87
  -6  13 -13    6.12    4.90
  -7  13  13    1.65    2.83
 -13   7  16   -0.13    2.70
   6   7 -16    4.77    3.08
  -7  13  16    0.29    3.57
  -6  13 -16    1.97    4.26
 -13   6 -16    1.25    8.00
 -13   7  19    0.45    4.22
   6   7 -19    5.01    3.56
  -6  13 -19    5.21    3.33
  -7  13  19    4.33    4.23
 -13   6 -19   -0.72    3.36
 -13   7  22   22.12    9.50
   6   7 -22    1.55    2.30
  -7  13  22   13.16    6.48
  -6  13 -22    9.38    5.97
 -13   6 -22   10.40    5.72
 -13   7  25   -1.42    3.57
   6   7 -25    3.28    4.08
  -7  13  25    2.93    4.04
 -13   6 -25    0.40    1.96
  -6  13 -25    3.57    2.92
 -13   7  28   -2.24    2.91
   6   7 -28   -1.30    3.71
  -6  13 -28    2.45    2.60
  -7  13  28   -3.65    2.78
 -13   6 -28    7.65    4.67
  -7  13  31    0.57    3.41
 -13   7  31    5.67    4.27
   6   7 -31    4.11    3.66
  -6  13 -31   -0.02    2.67
 -13   6 -31   -1.59    1.95
  -7  13  34    9.61    4.92
 -13   7  34   14.08    6.47
   6   7 -34    7.17    5.04
  -6  13 -34   13.05    8.15
  -7  13  37   -0.18    4.41
 -13   7  37    8.07    7.13
   6   7 -37   -2.66    3.93
  -6  13 -37    8.29    5.70
  -7  13  40    3.35    4.16
 -13   7  40    4.79    3.72
   6   7 -40    3.56    5.16
  -6  13 -40    4.48    6.25
  -7  13  43    3.08    5.43
  -7  13  43    3.48    4.58
 -13   7  43    1.80    4.60
  -6  13 -43   -0.46    4.91
   6   7 -43   -3.07    4.79
 -13   7  46    1.93    3.60
  -7  13  46   12.53    7.93
  -7  13  46    7.01    5.97
   6   7 -46   10.40    7.07
 -13   7  49   14.86    7.87
  -7  13  49    2.79    5.69
   6   7 -49    9.30    5.97
 -13   7  52    6.25    6.93
   6   7 -52    2.60    4.99
 -13   7  55   18.41   10.06
   6   7 -55   -8.55    6.20
 -13   5  57    3.04    6.14
 -13   5  54   -1.59    6.05
  -5  13  54   11.62    7.50
 -13   5  51    2.15    3.36
  -5  13  51    2.33    5.08
  -5  13  48   10.03    6.33
 -13   5  48   11.44    7.05
  -5  13  48    5.42    5.68
  -5  13  45    7.17    4.91
 -13   5  45    8.27    7.13
  -5  13  45    4.99    5.65
 -13   8 -45    2.10    2.42
  -5  13  42    1.78    4.73
  -5  13  42    2.91    4.50
 -13   5  42    6.40    5.98
  -8  13 -42   11.41    6.02
 -13   8 -42   13.27    6.79
  -5  13  39    3.52    4.49
  -5  13  39    2.80    3.25
 -13   5  39    9.41    6.43
   8   5 -39   -5.53    4.40
  -8  13 -39   -3.93    2.58
 -13   8 -39   -0.30    2.67
 -13   5  36    5.42    5.02
  -5  13  36   -1.60    3.27
   8   5 -36   -0.63    2.69
  -8  13 -36    4.43    5.71
 -13   8 -36    0.00    3.46
  -5  13  33    4.36    3.02
 -13   5  33    1.66    3.45
   8   5 -33    1.37    2.82
  -8  13 -33   -1.30    2.59
 -13   8 -33    1.72    2.83
  -5  13  30   -0.40    3.02
 -13   5  30    2.52    3.07
   8   5 -30    6.70    4.71
 -13   8 -30    1.38    4.44
  -8  13 -30    7.39    6.24
 -13   5  27    8.02    5.25
   8   5 -27    2.60    4.45
 -13   8 -27    8.17    4.58
  -8  13 -27    1.32    2.79
  -5  13  27   -0.29    2.33
   8   5 -24   11.78    4.96
  -8  13 -24   27.80   10.24
  -5  13  24   20.23    7.94
 -13   8 -24   20.26    7.78
   8   5 -21   -2.86    2.79
  -8  13 -21    5.74    5.46
 -13   8 -21   -0.02    4.01
  -5  13  21   -4.29    3.87
   8   5 -18   11.22    4.71
  -5  13  18   11.93    5.74
  -8  13 -18    5.19    4.86
 -13   8 -18    2.48    3.73
 -13   8 -15   -4.85    4.21
  -8  13 -15   -0.01    2.92
  -5  13  15   -3.73    4.51
 -13   5  12   -3.89    2.66
 -13   8 -12   -3.78    4.49
  -5  13  12   -1.24    3.27
  -8  13 -12   -2.94    5.24
 -13   5   9    3.43    4.38
  -5  13   9    0.63    3.44
 -13   8  -9   -4.39    4.37
  -8  13  -9   -3.63    4.52
 -13   5   6   28.25    8.63
  -5  13   6   25.12    8.57
 -13   8  -6   15.84    6.18
  -8  13  -6   23.17    8.42
 -13   5   3    6.42    5.26
  -5  13   3    4.00    4.53
 -13   8  -3    1.34    2.96
  -8  13  -3    3.29    5.05
 -13   5   0   21.27    8.35
  -8  13   0   18.38    7.59
 -13   8   0   10.30    5.67
  -5  13   0   18.23    7.26
 -13   8   3   14.33    6.50
 -13   5  -3   13.82    7.09
   5   8  -3    5.85    3.06
  -8  13   3    5.96    6.03
  -5  13  -3    8.50    4.83
 -13   8   6   24.36    8.96
 -13   5  -6   30.74    8.11
   5   8  -6   14.23    3.78
  -8  13   6   33.24    9.96
  -5  13  -6   18.91    7.26
 -13   8   9    9.37    6.66
 -13   5  -9    3.60    3.76
   5   8  -9    3.52    2.89
  -5  13  -9   -1.79    4.07
  -8  13   9   -4.10    2.78
 -13   5 -12   -0.12    1.88
 -13   8  12    9.39    6.36
   5   8 -12    1.00    2.46
  -5  13 -12    1.80    2.94
  -8  13  12    3.35    4.69
 -13   5 -15    6.45    4.60
 -13   8  15   -3.27    3.65
   5   8 -15    2.53    2.42
  -8  13  15   -4.12    4.52
  -5  13 -15    6.98    5.33
 -13   5 -18   21.56    6.09
 -13   8  18   12.18    6.28
   5   8 -18   17.91    6.42
  -5  13 -18    7.45    5.71
  -8  13  18   19.22    8.29
 -13   8  21    4.16    4.50
   5   8 -21    4.76    4.10
 -13   5 -21    5.00    3.72
  -8  13  21   -6.96    5.05
  -5  13 -21   -0.23    3.96
 -13   8  24    7.70    5.67
   5   8 -24    2.49    3.05
  -8  13  24    1.70    2.53
  -5  13 -24    2.17    5.57
 -13   8  27   12.40    7.43
   5   8 -27    3.57    3.65
  -5  13 -27   13.86    7.15
  -8  13  27   12.42    6.87
  -8  13  30    9.32    5.75
 -13   8  30    3.16    4.01
   5   8 -30   -3.77    3.43
  -5  13 -30    4.23    4.58
  -8  13  33    3.54    5.16
 -13   8  33   -1.09    3.88
  -5  13 -33    2.92    5.26
   5   8 -33    2.53    2.52
  -8  13  36    4.31    4.97
 -13   8  36    2.10    3.74
   5   8 -36    3.15    4.09
  -5  13 -36    1.94    4.33
  -8  13  39    6.31    4.44
 -13   8  39    2.11    3.32
  -5  13 -39    3.19    4.21
   5   8 -39   -3.12    3.17
  -8  13  42   12.10    7.81
 -13   8  42   12.34    6.68
  -5  13 -42   10.48    5.39
   5   8 -42   12.93    7.54
 -13   8  45   -4.90    4.99
   5   8 -45    3.49    3.99
 -13   8  48   13.69    8.66
   5   8 -48   14.29    7.80
 -13   8  51    8.83    8.05
   5   8 -51   -2.40    3.69
   5   8 -54   11.78    8.14
  -4  13  55    2.92    4.56
  -4  13  52    9.75    7.96
  -4  13  52   10.37    6.61
 -13   9 -52   12.93    8.76
  -4  13  49   -2.40    4.43
  -4  13  49   -2.98    4.75
 -13   9 -49    6.04    6.26
  -4  13  46    7.30    4.56
  -4  13  46   -2.27    4.99
 -13   9 -46    1.03    3.78
  -4  13  43    6.01    5.14
  -4  13  43   -1.33    3.42
 -13   9 -43    1.68    3.21
 -13   4  40    6.45    5.72
  -4  13  40    0.14    3.61
  -4  13  40   -0.81    3.84
  -9  13 -40    7.18    6.70
 -13   9 -40   -0.35    3.20
 -13   4  37   -2.02    3.57
  -4  13  37   -1.79    3.76
  -4  13  37   -8.48    4.94
  -9  13 -37    3.71    5.08
 -13   9 -37   -4.40    4.20
  -4  13  34   13.21    5.91
 -13   4  34   12.06    7.00
  -9  13 -34   20.18    8.87
 -13   9 -34    8.01    5.69
  -4  13  31   -2.50    3.18
 -13   4  31    4.93    5.30
  -9  13 -31    7.18    6.19
 -13   9 -31   -2.74    4.27
 -13   4  28    3.45    3.93
 -13   9 -28    5.79    4.59
  -9  13 -28   14.65    7.57
  -4  13  28    1.98    3.50
 -13   4  25    3.78    4.60
   9   4 -25   13.05    5.21
 -13   9 -25    1.89    4.54
  -9  13 -25   12.61    7.69
  -4  13  25    0.64    3.98
 -13   4  22   26.15    7.50
 -13   9 -22   34.98   10.63
  -9  13 -22   45.98   12.13
  -4  13  22   44.74   10.56
 -13   4  19   -4.21    3.04
  -4  13  19    9.05    5.10
 -13   9 -19   -1.68    3.01
  -9  13 -19    5.53    6.59
  -9  13 -16   -0.81    3.32
 -13   9 -16   -3.76    4.79
  -4  13  16    1.62    3.90
  -4  13  13   -1.65    3.37
  -9  13 -13    3.00    4.22
 -13   9 -13   -2.22    3.51
 -13   9 -10    5.69    4.18
  -4  13  10    8.77    4.84
  -9  13 -10    9.27    5.96
  -4  13   7    2.90    2.95
 -13   9  -7    1.73    3.15
  -9  13  -7    8.76    5.30
  -4  13   4   15.16    6.49
 -13   9  -4    7.15    5.65
  -9  13  -4   22.76    8.30
  -9  13  -1   11.40    6.71
 -13   9  -1    1.59    3.57
   4   9   1    3.83    2.26
  -4  13   1    1.17    2.75
 -13   4  -2   15.32    4.95
  -9  13   2   15.94    7.40
   4   9  -2   16.80    4.58
 -13   9   2   22.43    8.54
  -4  13  -2   20.90    7.77
 -13   9   5   -1.54    2.45
 -13   4  -5   -0.92    3.05
   4   9  -5   -1.49    1.56
  -9  13   5   -1.63    3.55
  -4  13  -5   -0.18    2.44
 -13   9   8    4.81    4.31
 -13   4  -8   11.29    4.89
   4   9  -8    5.67    3.45
  -4  13  -8    1.82    2.83
  -9  13   8    8.23    5.62
 -13   9  11    4.10    4.30
   4   9 -11   -2.75    2.46
  -9  13  11   -5.13    4.18
  -4  13 -11   -3.99    4.02
 -13   9  14   -0.30    3.46
   4   9 -14   -0.47    2.47
  -4  13 -14    4.81    2.74
  -9  13  14   -6.40    5.44
 -13   9  17   -1.00    3.29
   4   9 -17    4.09    3.05
  -4  13 -17   -0.20    2.82
  -9  13  17    4.27    4.49
 -13   9  20    7.45    4.89
   4   9 -20    1.56    3.07
  -4  13 -20    5.00    5.28
  -9  13  20    5.78    5.41
 -13   9  23    4.30    8.53
   4   9 -23    2.40    4.19
  -4  13 -23    6.10    4.87
  -9  13  23   10.25    6.58
 -13   9  26   15.94    8.21
  -9  13  26   15.23    8.01
   4   9 -26   17.55    6.49
  -4  13 -26   13.15    7.47
  -9  13  29   11.76    7.43
 -13   9  29   12.68    7.84
   4   9 -29    6.37    5.17
  -4  13 -29   11.13    6.52
  -9  13  32   13.10    6.98
 -13   9  32   13.53    8.41
  -4  13 -32    9.39    6.40
   4   9 -32    4.74    4.26
  -9  13  35    1.64    6.75
 -13   9  35    3.79    4.21
   4   9 -35    6.15    3.93
  -4  13 -35    6.81    6.05
  -9  13  38    3.11    4.47
 -13   9  38   -2.31    3.02
   4   9 -38   -6.24    4.55
  -4  13 -38   -1.56    3.11
 -13   9  41   10.80    6.75
  -9  13  41   -2.40    3.90
 -13   9  41   -0.28    2.38
   4   9 -41    2.29    3.17
  -4  13 -41    1.89    4.45
 -13   9  44   -2.11    5.71
 -13   9  44    5.31    4.24
   4   9 -44   13.42    6.91
 -13   9  47    4.56    3.61
   4   9 -47    6.51    5.95
   4   9 -50  -13.38    7.12
   4   9 -53   10.06    7.18
  -3  13  53    0.53    3.21
 -13  10 -53   12.15    6.65
  -3  13  50   -0.68    3.23
  -3  13  50    4.71    5.37
 -13  10 -50    1.50    5.41
  -3  13  47   -0.90    3.22
  -3  13  47    2.36    5.27
 -13  10 -47   -2.90    3.93
  -3  13  44   -0.04    4.60
  -3  13  44    3.13    5.66
 -13  10 -44   -2.42    3.74
  -3  13  41   -1.50    3.01
  -3  13  41   -5.18    4.76
 -13  10 -41    1.92    3.99
  -3  13  38   -4.36    3.29
  -3  13  38    4.36    4.71
 -13  10 -38   -0.05    2.71
  -3  13  35   -3.21    3.06
  -3  13  35    2.86    4.58
 -10  13 -35    7.60    6.15
 -13  10 -35    0.19    2.91
  -3  13  32   19.92    7.69
  -3  13  32    9.50    5.63
 -10  13 -32   15.50    7.55
 -13  10 -32    8.87    6.43
  -3  13  29    2.11    3.80
 -10  13 -29    7.40    3.51
 -13  10 -29    1.53    5.04
 -13  10 -26    6.07    5.30
  -3  13  26   13.68    6.32
 -10  13 -26   13.30    6.99
 -13  10 -23    0.28    2.97
  -3  13  23   -3.98    2.69
 -10  13 -23    0.33    3.17
 -13  10 -20   13.70    7.43
  -3  13  20   13.46    6.70
 -10  13 -20   11.40    6.58
  -3  13  17    0.37    3.28
 -13  10 -17   -5.59    3.62
 -10  13 -17    2.73    6.89
 -13  10 -14    8.17    5.34
  -3  13  14   10.62    5.34
 -10  13 -14   13.80    7.33
  -3  13  11    3.16    4.05
 -13  10 -11   -2.20    3.84
 -10  13 -11   -1.48    2.70
 -13  10  -8   -0.99    3.31
 -10  13  -8    8.25    5.26
  -3  13   8    8.14    4.19
   3  10   5    4.83    3.61
  -3  13   5    1.39    2.29
 -10  13  -5    5.30    4.85
 -13  10  -5   -0.46    2.73
 -10  13  -2   11.95    6.86
 -13  10  -2   18.69    7.70
   3  10   2   10.47    3.99
  -3  13   2   16.32    6.56
 -13  10   1    9.17    6.25
 -10  13   1    0.80    4.46
   3  10  -1   -2.39    2.03
  -3  13  -1   -0.61    2.92
   3  10  -4    7.99    4.16
  -3  13  -4    6.69    4.20
 -10  13   4    8.87    5.82
 -13  10   4    8.88    5.92
   3  10  -7    3.56    3.61
 -13  10   7   -3.41    4.22
  -3  13  -7    4.15    4.42
 -10  13   7   -5.94    4.82
 -13  10  10    2.60    3.75
   3  10 -10    5.85    3.51
 -10  13  10   -1.92    4.36
  -3  13 -10   10.53    4.62
 -13  10  13    4.53    3.73
   3  10 -13    7.07    3.57
  -3  13 -13   -2.87    4.03
 -10  13  13    0.99    4.16
 -13  10  16    2.34    3.78
   3  10 -16   -1.03    1.96
  -3  13 -16   -6.94    5.33
 -10  13  16   -5.56    3.73
 -13  10  19    4.77    4.45
   3  10 -19    0.97    2.37
  -3  13 -19   11.73    6.76
 -10  13  19   -0.24    3.68
 -13  10  22   11.14    6.33
   3  10 -22   12.75    5.94
  -3  13 -22   20.18    8.23
 -10  13  22   17.68    7.41
 -10  13  25    0.27    5.01
 -13  10  25    0.82    3.33
   3  10 -25    4.60    3.96
  -3  13 -25    0.07    4.61
 -10  13  28   16.10    8.35
 -13  10  28   11.76    7.82
   3  10 -28   10.49    5.75
  -3  13 -28   14.07    6.88
 -10  13  31    7.65    7.51
 -13  10  31   10.66    7.26
  -3  13 -31    7.19    5.63
   3  10 -31    4.68    4.98
 -10  13  34   12.60    6.74
 -13  10  34   12.85    7.14
  -3  13 -34   14.81    7.00
   3  10 -34    7.36    5.21
 -10  13  37    2.16    3.38
 -13  10  37    8.94    7.78
   3  10 -37    3.14    3.62
  -3  13 -37    0.09    2.85
 -13  10  40   -3.27    5.17
   3  10 -40   -0.07    2.75
 -13  10  43    2.07    5.02
   3  10 -43    0.08    3.25
   3  10 -46   -1.31    2.91
   3  10 -49   -1.00    3.39
  -2  13  51    9.13    6.45
  -2  13  48   13.56    8.81
 -13  11 -48    3.42    6.31
  -2  13  45    1.04    4.83
 -13  11 -45    4.10    4.41
  -2  13  42    1.90    3.42
 -13  11 -42  -12.65    6.73
  -2  13  39    0.99    3.86
  -2  13  39   -2.11    4.53
 -13  11 -39    1.62    4.76
  -2  13  36    2.12    3.66
  -2  13  36    2.50    3.14
 -13  11 -36    6.69    5.55
  -2  13  33    3.47    4.08
  -2  13  33    3.60    5.72
 -11  13 -33    6.89    6.68
 -13  11 -33   16.62    8.32
  -2  13  30   17.04    6.89
  -2  13  30   12.78    7.51
 -11  13 -30   15.04    7.79
 -13  11 -30    6.42    6.94
  -2  13  27    3.95    4.08
  -2  13  27    1.19    4.75
 -11  13 -27   -0.64    3.31
 -13  11 -27    8.31    5.20
 -13  11 -24   17.36    8.27
  -2  13  24   13.89    6.27
 -11  13 -24   14.40    8.23
 -13  11 -21    2.16    4.21
 -11  13 -21    4.31    5.25
  -2  13  21   -0.16    2.59
 -13  11 -18    9.52    6.03
  -2  13  18    3.75    4.42
 -11  13 -18    1.63    2.86
 -13  11 -15    5.43    4.52
 -11  13 -15    3.57    2.66
  -2  13  15    1.65    3.02
 -11  13 -12    8.15    4.93
 -13  11 -12    2.18    3.38
  -2  13  12   14.04    7.57
 -11  13  -9    7.09    6.62
  -2  13   9    2.64    4.34
 -13  11  -9    1.05    3.70
  -2  13   6   -5.34    3.42
   2  11   6   11.93    5.53
 -11  13  -6    2.40    4.62
 -13  11  -6    9.07    8.51
 -13  11  -3    4.69    4.86
 -11  13  -3   -6.02    5.04
   2  11   3    6.03    3.53
  -2  13   3    2.20    3.87
 -13  11   0   15.73    7.69
 -11  13   0    7.19    7.43
   2  11   0    6.84    4.10
  -2  13   0   13.84    6.00
 -13  11   3    5.74    5.80
   2  11  -3    7.56    3.67
  -2  13  -3    4.83    3.74
 -11  13   3   -9.42   13.01
 -11  13   6   12.94    5.87
   2  11  -6    8.31    4.68
  -2  13  -6    0.63    2.73
 -13  11   6    5.63    5.44
   2  11  -9    1.13    2.86
 -11  13   9    1.76    4.87
  -2  13  -9    4.46    3.81
 -13  11   9    6.10    5.49
 -13  11  12   -2.08    4.18
   2  11 -12    3.80    3.49
  -2  13 -12   -4.90    3.83
 -11  13  12    2.94    5.08
 -13  11  15   -1.57    3.29
   2  11 -15    4.69    4.00
 -11  13  15   -3.86    3.24
  -2  13 -15    4.05    4.00
 -13  11  18    2.73    4.28
   2  11 -18    1.96    3.62
 -11  13  18    7.13    5.85
  -2  13 -18    7.64    5.50
 -13  11  21    2.68    2.95
   2  11 -21    2.66    2.90
  -2  13 -21    9.61    6.09
 -11  13  21    6.54    6.22
 -11  13  24    4.53    5.53
 -13  11  24    2.82    2.84
   2  11 -24   -0.53    3.94
  -2  13 -24    0.64    3.56
 -11  13  27   16.40    8.03
 -13  11  27    4.78    6.04
   2  11 -27    2.37    5.09
  -2  13 -27    6.48    5.73
 -11  13  30   16.59    7.49
 -13  11  30   22.85    9.73
   2  11 -30   14.01    6.33
  -2  13 -30    8.78    6.20
 -13  11  33   15.96    8.69
  -2  13 -33    1.35    4.36
   2  11 -33    5.47    4.06
  -2  13 -36    3.55    4.49
   2  11 -36   -2.28    3.50
  -2  13 -39    1.30    3.21
   2  11 -39    9.20    6.84
   2  11 -42   11.90    8.57
   2  11 -45    3.23    4.81
 -13  12 -37    1.11    5.76
 -13  12 -34    4.54    3.86
 -12  13 -31    7.30    5.52
 -13  12 -31    1.65    3.67
  -1  13  28    1.81    3.63
 -12  13 -28    4.54    4.88
 -13  12 -28    3.53    5.02
  -1  13  25    4.15    4.93
  -1  13  25   -2.76    3.99
 -12  13 -25    2.63    5.25
 -13  12 -25   11.03    7.63
  -1  13  22   20.67    7.68
 -13  12 -22   21.52    9.72
  -1  13  22   18.30    6.46
 -12  13 -22   19.33    9.03
 -13  12 -19   14.99    8.97
  -1  13  19    2.49    2.71
 -12  13 -19    6.09    6.83
 -12  13 -16    2.45    5.39
  -1  13  16    0.30    2.94
 -13  12 -16   10.45    7.16
 -12  13 -13    0.34    4.09
 -13  12 -13   -0.85    3.72
  -1  13  13    4.06    5.04
 -12  13 -10    8.39    6.50
  -1  13  10   10.35    5.47
 -13  12 -10    3.23    4.03
   1  12  10   -1.58    2.95
  -1  13   7   -0.61    2.29
   1  12   7    1.91    3.42
 -12  13  -7    0.73    6.09
 -13  12  -7    5.05    4.48
 -13  12  -4    5.01    5.21
   1  12   4    5.78    4.30
  -1  13   4    5.81    4.10
 -12  13  -4   12.79    7.52
 -13  12  -1   -4.60    3.67
 -12  13  -1    4.82    5.67
   1  12   1    2.07    3.28
  -1  13   1   -1.24    3.11
 -12  13   2    2.28    4.48
 -13  12   2   12.80    7.32
   1  12  -2    9.07    4.71
  -1  13  -2    7.60    5.45
 -12  13   5    0.44    4.44
   1  12  -5   -0.49    2.19
  -1  13  -5   -2.76    2.26
 -13  12   5    7.87    6.11
   1  12  -8    2.91    3.85
  -1  13  -8    4.72    3.93
 -13  12   8    2.12    3.80
 -12  13   8   -2.20    4.52
 -12  13  11    5.27    4.65
   1  12 -11    5.85    4.61
  -1  13 -11   -1.17    2.39
 -13  12  11   -4.18    4.63
 -13  12  14    5.57    5.44
   1  12 -14    1.19    4.05
  -1  13 -14    2.07    3.69
 -12  13  14    2.66    4.02
 -13  12  17    0.11    4.05
   1  12 -17    1.88    3.36
 -12  13  17    1.26    3.69
  -1  13 -17   -1.32    4.11
 -12  13  20    8.60    6.29
 -13  12  20    3.93    5.28
   1  12 -20    1.63    2.50
  -1  13 -20    3.51    3.37
 -12  13  23   -1.05    3.56
 -13  12  23    3.83    4.00
   1  12 -23   -0.81    2.61
  -1  13 -23    6.04    5.07
 -13  12  26    7.44    6.55
   1  12 -26    1.32    4.18
  -1  13 -26   -1.12    2.93
   1  12 -29    3.72    5.03
  -1  13 -29    1.11    3.89
  -1  13 -32    4.31    5.02
   1  12 -32    4.00    5.32
  -1  13 -35    5.38    6.44
   1  12 -35    2.33    4.83
  -1  13 -38   -4.41    4.59
   1  12 -38    6.58    6.57
   1  12 -41   -5.05    4.78
 -13  13 -23    3.43    5.77
 -13  13 -20   29.17   10.35
 -13  13 -17    3.90    5.83
 -13  13 -14    3.38    4.86
 -13  13 -11   -0.29    3.15
   0  13  11    5.59    4.95
   0  13   8    2.85    3.71
 -13  13  -8    0.17    3.64
   0  13   5    1.93    2.61
 -13  13  -5   -0.84    5.05
   0  13   2    8.33    4.96
 -13  13  -2    8.64    5.49
 -13  13   1    2.08    3.16
   0  13  -1    2.29    2.58
 -13  13   4   17.36    9.98
   0  13  -4    6.30    4.27
 -13  13   7    6.41    7.11
   0  13  -7    2.40    3.69
   0  13 -10    7.25    5.82
 -13  13  10   17.76    8.83
   0  13 -13    4.53    4.89
 -13  13  13    8.32    6.82
   0  13 -16    7.77    5.54
   0  13 -19    1.26    3.33
   0  13 -22    1.16    4.42
   0  13 -25   -0.22    4.45
   0  13 -28    0.10    5.18
   0  13 -31   -1.46    3.03
   0  13 -34   -1.08    3.29
 -14   7   0   15.74    7.01
  -7  14   0   26.16    9.43
 -14   7  -3    2.15    2.88
 -14   7   3   -2.17    3.29
  -7  14   3    5.18    7.04
  -7  14  -3    9.08    5.34
 -14   7  -6    3.40    4.02
 -14   7   6    6.70    4.43
  -7  14   6   14.14    6.04
  -7  14  -6   14.03    7.22
 -14   7   9    1.03    3.50
  -7  14   9   -2.94    3.16
  -7  14  -9   -2.80    3.57
 -14   7 -12   15.41    7.43
 -14   7  12   10.46    6.45
  -7  14 -12    8.01    5.94
  -7  14  12   10.91    6.43
 -14   7  15    2.00    4.55
  -7  14  15   -8.24    6.99
  -7  14 -15    0.91    3.26
 -14   7 -15    0.17    3.32
 -14   7  18    2.11    3.84
  -7  14 -18    6.31    5.36
  -7  14  18    6.35    3.65
 -14   7 -18    6.66    4.83
 -14   7  21    8.95    6.38
  -7  14 -21   13.69    7.58
 -14   7 -21    4.55    4.17
  -7  14  21    2.71    5.01
 -14   7  24    3.15    3.48
  -7  14 -24    1.55    3.18
  -7  14  24   -7.12    4.54
  -7  14 -27    3.35    5.74
  -7  14  27    5.31    5.09
  -7  14  30    5.49    5.80
  -7  14 -30   13.08    7.63
  -7  14  33   11.05    7.18
 -14   7  33  -11.40    6.31
  -7  14  36    2.10    4.63
 -14   7  36    4.65    5.24
  -7  14  39   -3.85    3.22
 -14   7  39    6.72    6.32
   7   7 -39    3.01    3.72
 -14   7  42   14.42    8.67
   7   7 -42    3.28    6.25
 -14   7  45   16.80   10.19
   7   7 -45    0.01    3.00
 -14   7  48   11.23    8.35
   7   7 -48   13.92    7.14
 -14   7  51    1.82    4.45
   7   7 -51    0.00    5.70
 -14   6  46    3.66    8.61
  -6  14  43   -0.63    3.70
 -14   6  43    2.08    3.90
  -6  14  40    4.46    4.68
 -14   6  40    3.67    5.46
  -6  14  40    3.24    5.32
  -6  14  37   -8.43    4.94
 -14   6  37    9.38    6.98
  -6  14  34   12.66    7.28
 -14   6  34    6.49    5.84
  -6  14  31    6.14    5.07
 -14   6  31    2.01    4.14
 -14   8 -31    1.16    4.35
 -14   6  28   -1.19    3.89
  -8  14 -28    9.08    7.15
  -6  14  28    6.55    6.38
 -14   8 -28    7.41    5.61
  -8  14 -25    5.39    4.76
 -14   8 -25    0.05    2.48
  -6  14  25   10.04    5.50
  -6  14  22    8.19    5.54
 -14   8 -22   -0.82    2.64
  -8  14 -22    4.20    2.75
 -14   8 -19   -0.69    3.61
  -8  14 -19    4.13    4.94
  -6  14  19    8.55    5.11
 -14   6  16    5.24    3.99
  -6  14  16   -0.62    2.89
  -8  14 -16    0.40    2.58
 -14   8 -16    6.90    5.40
 -14   6  13    0.90    3.94
 -14   8 -13  -10.72    5.15
  -8  14 -13   -7.02    5.92
  -6  14  13   -1.41    4.14
 -14   6  10   13.60    7.02
 -14   8 -10    8.96    5.88
  -6  14  10    9.52    6.29
  -8  14 -10   12.71    6.92
 -14   6   7   10.13    6.80
 -14   8  -7   11.40    6.60
  -6  14   7    5.11    4.99
  -8  14  -7   10.00    6.80
 -14   8  -4   20.11    7.88
 -14   6   4   13.10    7.31
  -8  14  -4   20.65    8.94
  -6  14   4   20.50    8.81
 -14   8  -1    9.15    6.52
 -14   6   1    3.64    5.35
  -6  14   1    4.34    5.49
  -8  14  -1    4.79    6.11
 -14   8   2    8.67    6.33
 -14   6  -2    4.73    5.16
  -8  14   2   14.61    6.90
  -6  14  -2   19.01    7.04
 -14   8   5   -0.73    3.73
 -14   6  -5   -0.44    4.26
  -8  14   5    5.22    5.41
  -6  14  -5   -0.45    3.29
 -14   6  -8   16.19    6.02
 -14   8   8    0.18    2.73
  -8  14   8   10.78    6.46
  -6  14  -8   22.03    7.94
 -14   6 -11    5.26    4.71
 -14   8  11    9.45    5.63
  -6  14 -11   -1.84    3.12
  -8  14  11   11.22    5.72
 -14   8  14   15.44    7.48
  -8  14  14    1.76    2.91
  -6  14 -14    5.50    4.92
 -14   8  17    4.86    4.98
  -6  14 -17   -3.93    3.98
  -8  14  17    7.10    5.82
 -14   8  20    4.55    5.66
  -6  14 -20   -1.69    3.40
  -8  14  20   11.54    8.06
 -14   8  23    5.90    5.87
  -6  14 -23    2.59    4.41
  -8  14  23   -2.48    3.72
 -14   8  26    5.81    4.90
  -6  14 -26    5.89    5.66
  -8  14  26    6.09    5.02
  -8  14  29    7.44    6.15
 -14   8  29    4.10    4.03
  -6  14 -29    0.45    3.58
  -8  14  32    2.39    3.30
 -14   8  32   -4.78    4.12
   6   8 -32    5.75    4.11
  -6  14 -32   -2.37    3.26
  -8  14  35    6.53    7.05
 -14   8  35    6.76    5.71
   6   8 -35   -0.89    2.75
 -14   8  38    8.89    6.16
   6   8 -38    9.75    5.76
 -14   8  41    7.33    6.76
   6   8 -41   -3.53    4.03
 -14   8  44    1.18    5.60
   6   8 -44    2.49    5.70
 -14   8  47    1.07    4.03
   6   8 -47    0.01    3.34
   6   8 -50   16.55    8.96
  -5  14  47    1.84    3.96
  -5  14  44    5.41    6.69
  -5  14  41   -8.37    5.51
  -5  14  41    2.87    5.63
  -5  14  38    6.33    2.74
  -5  14  38    8.30    7.21
 -14   9 -38    5.40    4.39
  -5  14  35    2.44    4.72
 -14   9 -35    5.59    5.31
  -5  14  32   -7.74    4.91
 -14   9 -32    3.90    4.71
  -5  14  29   -1.71    3.40
 -14   9 -29    3.02    4.39
  -5  14  26    5.48    5.39
  -9  14 -26    5.95    5.85
 -14   9 -26    3.25    4.85
 -14   5  23    5.57    5.31
  -5  14  23    4.74    4.66
  -9  14 -23    7.15    5.16
 -14   9 -23    2.65    3.66
  -9  14 -20    0.82    2.93
  -5  14  20    1.66    3.80
 -14   9 -20    2.36    4.75
 -14   9 -17    6.66    4.98
  -5  14  17    6.41    4.88
  -9  14 -17    1.96    4.47
 -14   9 -14    1.06    3.34
  -9  14 -14    6.82    6.71
  -5  14  14   -2.95    3.56
  -5  14  11   -0.71    4.07
 -14   9 -11   -2.62    4.07
  -9  14 -11    0.17    4.58
 -14   9  -8   10.01    5.90
  -5  14   8   12.56    7.64
  -9  14  -8    8.21    5.95
 -14   9  -5    8.24    5.88
  -9  14  -5    4.06    4.27
  -5  14   5    8.28    6.37
 -14   5   2    7.82    3.90
  -5  14   2    6.65    6.03
 -14   9  -2   14.72    7.27
  -9  14  -2    9.37    5.07
 -14   9   1    0.75    3.57
  -9  14   1   14.16    7.40
  -5  14  -1    5.47    4.92
 -14   9   4   35.77    9.87
  -9  14   4   10.56    6.27
  -5  14  -4    9.56    5.49
 -14   9   7   10.64    7.74
  -5  14  -7   -2.69    3.92
  -9  14   7    6.44    5.25
 -14   9  10    1.02    3.14
  -5  14 -10   -6.50    5.36
  -9  14  10    2.09    2.97
 -14   9  13    2.65    4.88
  -9  14  13   -4.99    5.14
  -5  14 -13    1.10    2.99
 -14   9  16    5.91    6.68
  -5  14 -16    7.87    5.43
  -9  14  16    5.96    4.95
 -14   9  19    6.58    6.61
  -9  14  19    1.27    3.58
  -5  14 -19   -2.26    4.07
 -14   9  22    8.84    6.72
  -5  14 -22   -0.02    3.36
  -9  14  22   17.76    6.83
 -14   9  25    4.28    4.17
   5   9 -25    6.83    3.69
  -5  14 -25    0.53    3.54
  -9  14  25    8.70    6.67
  -9  14  28    7.15    6.27
 -14   9  28   13.30    7.61
   5   9 -28    3.88    3.83
  -5  14 -28    9.56    7.69
  -9  14  31    8.19    7.10
 -14   9  31   -5.85    5.05
   5   9 -31    6.59    4.97
  -5  14 -31    7.27    6.72
 -14   9  34   -5.27    3.92
   5   9 -34    0.82    3.68
 -14   9  37    3.69    4.58
   5   9 -37    4.57    4.81
 -14   9  40    2.26    3.54
   5   9 -40    1.62    2.64
 -14   9  43   -1.03    4.92
   5   9 -43   -0.14    3.74
   5   9 -46   10.78    6.45
   5   9 -49   11.17    6.75
  -4  14  48    0.32    4.04
  -4  14  45   -1.82    3.60
  -4  14  45    0.01    4.64
 -14  10 -45   10.01    6.22
  -4  14  42    4.02    4.64
  -4  14  42   -1.23    3.44
 -14  10 -42    0.91    5.76
  -4  14  39    7.43    5.86
  -4  14  39    7.60    7.62
 -14  10 -39   -0.30    2.86
  -4  14  36   -0.48    3.16
  -4  14  36    0.57    3.17
 -14  10 -36    6.03    6.94
  -4  14  33    4.55    5.30
 -14  10 -33    2.86    4.66
  -4  14  30   10.42    6.18
 -14  10 -30    5.26    5.65
 -14  10 -27   -0.40    2.78
  -4  14  27    4.07    4.56
 -14  10 -24    0.96    3.34
 -10  14 -24    3.54    4.42
  -4  14  24   -1.15    2.55
 -14  10 -21   -1.09    3.51
 -10  14 -21   -0.26    3.72
  -4  14  21   -4.55    4.13
  -4  14  18    5.83    5.22
 -10  14 -18   22.10    9.45
 -14  10 -18    4.18    5.28
  -4  14  15    7.73    5.48
 -10  14 -15   12.25    8.00
 -14  10 -15   -0.31    3.76
 -14  10 -12   -1.62    4.04
  -4  14  12    1.59    2.40
 -10  14 -12    3.67    4.44
 -10  14  -9    6.98    5.26
  -4  14   9    9.64    5.97
 -14  10  -9    7.17    5.23
 -10  14  -6   18.28    8.05
  -4  14   6    9.16    6.18
 -14  10  -6    8.28    5.46
  -4  14   3   -6.45    5.23
 -10  14  -3   12.55    7.86
 -14  10  -3    6.59    5.43
 -10  14   0    9.49    6.85
 -14  10   0   12.44    8.29
  -4  14   0   13.58    5.92
 -14  10   3    4.45    5.81
 -10  14   3    9.20    6.30
  -4  14  -3    5.04    5.35
 -14  10   6    3.09    4.71
  -4  14  -6    5.91    5.55
 -10  14   6    2.89    3.73
 -10  14   9    0.96    2.97
  -4  14  -9   -0.03    2.69
 -14  10  12    1.58    3.73
 -10  14  12    6.02    4.83
  -4  14 -12   -2.09    3.88
 -14  10  15    5.39    5.31
  -4  14 -15    3.18    5.54
 -10  14  15   -1.85    3.68
 -14  10  18   11.61    7.25
 -10  14  18    8.38    6.57
  -4  14 -18   10.60    5.83
 -14  10  21   -0.72    3.19
   4  10 -21    1.76    2.67
 -10  14  21    0.93    4.98
  -4  14 -21    3.87    5.17
 -14  10  24    6.83    7.10
   4  10 -24    0.80    3.37
  -4  14 -24    7.18    5.43
 -10  14  24    5.33    5.19
 -14  10  27    3.07    4.93
   4  10 -27    5.11    4.87
  -4  14 -27   -0.93    3.84
 -14  10  30   10.79    7.58
   4  10 -30   14.51    7.08
  -4  14 -30   14.18    7.97
 -14  10  33    2.42    6.80
   4  10 -33    2.45    4.81
   4  10 -36    3.90    4.47
   4  10 -39    5.23    6.17
   4  10 -42    5.20    7.06
   4  10 -45    9.88    6.26
   4  10 -48   10.14    6.56
  -3  14  46    8.50    7.22
  -3  14  43    2.01    5.47
 -14  11 -43    0.13    3.88
  -3  14  40    0.38    3.54
  -3  14  40    0.22    2.87
 -14  11 -40    2.50    5.99
  -3  14  37    0.03    3.38
  -3  14  37    1.26    6.16
 -14  11 -37   11.92    6.72
  -3  14  34    7.46    5.32
  -3  14  34    6.98    5.01
 -14  11 -34    4.78    5.88
  -3  14  31    7.30    5.51
  -3  14  31    9.27    6.86
 -14  11 -31    4.25    4.48
  -3  14  28    3.06    3.73
 -14  11 -28    5.82    7.08
 -14  11 -25    3.24    4.91
  -3  14  25    4.92    5.12
  -3  14  22    2.57    2.40
 -14  11 -22    5.62    5.01
 -14  11 -19    1.87    5.29
  -3  14  19    4.73    4.10
 -11  14 -19   13.05    7.75
  -3  14  16    4.26    4.31
 -14  11 -16   12.17    6.95
 -11  14 -16    3.42    5.93
 -11  14 -13    8.95    6.24
  -3  14  13   -2.08    3.91
 -14  11 -13    1.82    4.39
 -11  14 -10    5.41    5.54
 -14  11 -10   -2.81    3.82
  -3  14  10    5.97    4.74
 -11  14  -7   -3.18    4.26
  -3  14   7   -0.98    4.68
 -14  11  -7    4.44    4.71
  -3  14   4    7.80    5.48
 -11  14  -4    9.39    5.34
 -14  11  -4    3.79    3.60
 -14  11  -1    1.24    3.95
 -11  14  -1    3.17    3.60
  -3  14   1    3.82    4.72
 -11  14   2   -2.04    3.45
  -3  14  -2    7.49    5.68
 -14  11   5    0.12    3.77
  -3  14  -5    5.03    4.39
 -11  14   5   -5.28    3.32
 -14  11   8    3.79    3.32
 -11  14   8    7.40    4.84
  -3  14  -8    0.41    3.39
 -14  11  11   -6.39    4.75
  -3  14 -11    1.23    2.42
 -11  14  11    1.30    4.35
 -14  11  14   -2.98    2.93
  -3  14 -14    1.43    3.85
 -11  14  14    0.69    3.36
 -14  11  17    6.34    4.94
   3  11 -17    3.94    3.40
  -3  14 -17    8.20    4.05
 -11  14  17    3.56    4.86
 -14  11  20    4.32    4.88
   3  11 -20    5.24    4.20
  -3  14 -20    0.09    2.61
 -14  11  23    7.13    6.76
   3  11 -23    1.16    3.18
  -3  14 -23   -3.14    4.73
 -14  11  26   23.53   10.11
   3  11 -26    4.06    5.71
  -3  14 -26    9.33    7.60
   3  11 -29    3.25    4.12
  -3  14 -29    0.25    4.00
   3  11 -32    0.79    4.80
   3  11 -35    0.93    5.07
   3  11 -38    0.00    4.19
   3  11 -41    7.42    7.26
   3  11 -44   -1.33    3.94
 -14  12 -32   12.30    8.07
 -14  12 -29    5.02    7.59
  -2  14  26    2.15    3.10
 -14  12 -26   12.24    7.27
  -2  14  23    4.26    4.49
 -14  12 -23    3.81    5.84
  -2  14  20    3.38    2.82
 -14  12 -20    0.47    4.63
  -2  14  17    1.87    4.68
 -14  12 -17   -0.57    3.49
  -2  14  14    7.91    5.51
 -14  12 -14   10.63    7.08
  -2  14  11    2.34    4.32
 -14  12 -11    6.33    5.32
 -14  12  -8    3.73    5.35
  -2  14   8   -0.52    3.08
  -2  14   5    4.15    3.48
 -14  12  -5    3.18    5.66
  -2  14   2    3.64    3.80
 -14  12  -2   12.58    8.00
 -14  12   1   -0.44    3.99
  -2  14  -1    2.47    3.89
  -2  14  -4    8.58    4.94
 -14  12   4   -0.29    3.40
  -2  14  -7   -3.52    4.25
 -14  12   7    2.59    5.06
 -14  12  10    6.56    6.11
  -2  14 -10    2.45    3.57
 -14  12  13   -4.74    4.57
  -2  14 -13   -0.50    3.20
 -14  12  16    1.88    3.75
   2  12 -16    0.22    3.18
  -2  14 -16    2.04    4.32
   2  12 -19    1.10    3.52
  -2  14 -19    2.64    3.44
   2  12 -22    1.95    3.10
  -2  14 -22    3.29    4.43
   2  12 -25    3.09    4.38
  -2  14 -25    3.94    5.58
   2  12 -28    1.46    2.90
  -2  14 -28    1.43    6.33
   2  12 -31    2.33    4.96
   2  12 -34    0.00    2.84
   2  12 -37   19.79    8.05
   2  12 -40   20.14    8.37
  -1  14   9    6.49    5.11
  -1  14   6    2.57    2.70
  -1  14   3    0.33    3.99
  -1  14   0    2.94    4.09
  -1  14  -3    2.60    4.78
  -1  14  -6    2.24    3.28
  -1  14  -9    0.53    3.57
   1  13 -12   15.87    6.19
  -1  14 -12    6.78    6.51
   1  13 -15    6.71    5.57
  -1  14 -15   10.29    6.75
   1  13 -18    2.38    5.75
  -1  14 -18    7.39    6.15
   1  13 -21    1.12    3.13
  -1  14 -21    1.43    4.82
   1  13 -24    0.04    3.63
  -1  14 -24    6.54    6.51
   1  13 -27   -5.22    4.47
  -1  14 -27    1.15    3.90
   1  13 -30    0.10    5.48
   1  13 -33    6.00    5.24
   0  14 -14    8.95    5.53
   0  14 -17    8.99    5.40
   0  14 -20  -10.05    5.86
   0  14 -23   -4.45    4.54
   0  14 -26    9.71    6.18
 -15   7  32    2.51    6.08
 -15   7  29    6.99    7.26
  -7  15  26    5.46    5.60
  -7  15  23    6.74    5.89
  -7  15  20   11.08    7.38
 -15   7  17    0.71    3.04
  -7  15  17    8.54    7.85
 -15   7  14    0.00    3.76
  -7  15  14    3.41    4.98
 -15   8 -11    0.56    4.06
 -15   7  11    5.56    6.11
  -8  15 -11    4.90    6.41
  -7  15  11    7.90    6.13
 -15   8  -8    6.06    5.35
 -15   7   8    7.05    5.82
  -7  15   8    9.42    4.47
  -8  15  -8   20.24    9.30
 -15   8  -5    9.56    6.62
 -15   7   5    2.88    5.23
  -8  15  -5    9.08    7.74
  -7  15   5    5.88    5.42
 -15   8  -2    1.00    4.20
 -15   7   2   12.23    6.55
  -8  15  -2    9.25    6.22
  -7  15   2    1.85    4.74
 -15   8   1   -1.62    3.71
 -15   7  -1    2.93    5.12
  -7  15  -1    0.52    3.29
  -8  15   1    6.62    5.76
 -15   8   4    5.43    5.58
  -7  15  -4    2.50    4.09
  -8  15   4    4.89    5.09
 -15   8   7   -0.60    2.91
  -8  15   7    6.53    5.83
  -7  15  -7   -1.33    2.65
 -15   8  10    0.13    2.85
  -7  15 -10    4.05    3.92
  -8  15  10    6.53    5.07
 -15   8  13   11.83    7.88
  -8  15  13    3.04    4.96
  -7  15 -13    2.30    3.11
 -15   8  16   11.73    7.81
  -8  15  16   19.83    8.85
 -15   8  19   -4.71    4.87
  -8  15  19    1.05    5.55
 -15   8  22   -2.60    4.02
 -15   8  25    0.73    2.85
 -15   8  28    3.03    3.80
 -15   8  34   -5.45    5.31
 -15   8  37   -8.05    6.10
 -15   8  40   -1.47    4.15
  -6  15  30   -0.94    2.92
  -6  15  27    8.49    6.93
  -6  15  24    2.54    5.24
  -6  15  21   17.41    8.74
 -15   9 -21    3.10    5.48
  -6  15  18    0.90    2.82
 -15   9 -18   -1.08    3.12
  -6  15  15   -1.73    3.24
 -15   9 -15    0.00    2.98
 -15   9 -12   10.31    6.37
  -6  15  12    1.73    4.94
 -15   9  -9    0.28    3.24
  -6  15   9    9.15    5.92
 -15   9  -6    4.42    4.73
  -6  15   6    9.43    6.15
 -15   9  -3   -0.49    3.57
  -9  15  -3    8.79    5.76
  -6  15   3    7.97    5.83
 -15   9   0    7.17    7.00
  -6  15   0    1.73    4.24
  -9  15   0   11.18    6.69
 -15   9   3   -0.10    3.81
  -9  15   3   -0.11    3.92
  -6  15  -3    1.46    4.95
 -15   9   6   -8.29    5.65
  -9  15   6    9.19    5.67
  -6  15  -6    0.90    2.67
 -15   9   9    4.84    5.89
  -6  15  -9   -1.11    3.19
  -9  15   9   11.48    7.79
 -15   9  12   12.71    8.71
  -6  15 -12   14.11    8.01
 -15   9  15    7.86    6.16
  -6  15 -15    8.19    6.22
 -15   9  18   12.26    8.37
 -15   9  21    3.58    6.40
 -15   9  24    3.06    4.34
 -15   9  27   13.32    9.12
 -15   9  30    6.03    5.44
 -15   9  36    0.67    3.43
  -5  15  34   10.06    8.44
  -5  15  31    6.77    6.19
  -5  15  28    9.17    6.90
 -15  10 -28   21.41    8.96
  -5  15  25    6.75    5.69
 -15  10 -25    4.86    7.84
 -15  10 -22    2.52    7.15
  -5  15  22    1.95    4.35
 -15  10 -19    0.61    3.24
  -5  15  19    4.50    5.61
  -5  15  16    6.14    5.98
 -15  10 -16   11.12    8.27
 -15  10 -13   -0.67    3.18
  -5  15  13    3.53    5.20
 -15  10 -10    2.28    5.97
  -5  15  10    7.00    5.06
 -15  10  -7    0.58    3.88
  -5  15   7   -6.01    5.50
 -15  10  -4    2.30    3.42
  -5  15   4    4.29    4.58
 -15  10  -1   -1.06    3.23
  -5  15   1   -6.16    4.24
 -15  10   2    1.51    3.01
  -5  15  -2    4.54    4.18
 -15  10   5   -5.03    4.88
  -5  15  -5    7.28    5.71
 -15  10   8    4.40    5.23
  -5  15  -8    8.80    6.70
 -15  10  11   -6.69    5.50
  -5  15 -11    4.36    4.41
 -15  10  14    1.31    4.71
  -5  15 -14   -1.03    3.56
 -15  10  17    3.92    5.66
  -5  15 -17   -1.50    3.01
 -15  10  20    2.40    4.94
 -15  10  23    4.00    5.34
 -15  10  26    1.90    3.28
  -4  15  35   -0.02    4.84
  -4  15  35    4.24    7.59
 -15  11 -35    0.43    5.68
  -4  15  32   10.95    7.89
  -4  15  32    3.19    6.48
 -15  11 -32    0.00    3.55
  -4  15  29    0.49    2.91
 -15  11 -29    4.44    8.25
 -15  11 -26    6.50    5.86
  -4  15  26   11.45    6.48
 -15  11 -23    2.13    4.42
  -4  15  23    1.17    2.95
 -15  11 -20    0.31    6.21
  -4  15  20    4.90    3.32
 -15  11 -17   -6.74    5.43
  -4  15  17    1.92    4.40
  -4  15  14    3.30    4.57
 -15  11 -14    7.84    6.51
 -15  11 -11    3.55    6.05
  -4  15  11    8.08    5.79
 -15  11  -8    0.41    4.96
  -4  15   8    7.89    6.43
  -4  15   5    0.91    4.99
 -15  11  -5    0.60    4.41
  -4  15   2    0.23    3.92
 -15  11  -2    5.81    5.77
 -15  11   1    2.51    6.08
  -4  15  -1   -1.32    3.74
 -15  11   4    5.74    6.29
  -4  15  -4    5.91    5.33
 -15  11   7    1.08    4.94
  -4  15  -7    3.88    5.66
 -15  11  10    3.98    5.26
  -4  15 -10    3.82    5.76
 -15  11  13    1.70    4.22
  -4  15 -13    1.93    3.10
 -15  11  16    6.56    5.38
  -4  15 -16    3.67    6.80
  -3  15  24    5.78    6.31
  -3  15  21    0.35    2.83
 -15  12 -21    2.57    7.07
  -3  15  18   -0.29    3.89
 -15  12 -18    2.08    4.05
 -15  12 -15   10.34    6.55
  -3  15  15    4.33    3.66
 -15  12 -12    4.77    6.22
  -3  15  12    2.28    4.05
 -15  12  -9   -1.49    3.74
  -3  15   9    9.02    7.62
  -3  15   6   -1.11    3.44
 -15  12  -6    0.94    3.54
  -3  15   3   -1.55    4.77
 -15  12  -3    2.40    4.21
  -3  15   0   11.70    7.43
 -15  12   0    0.27    4.26
 -15  12   3    7.19    7.72
  -3  15  -3    6.51    5.03
  -3  15  -6    0.32    4.43
  -3  15  -9   -2.39    2.68
  -3  15 -12    1.09    5.12
  -3  15 -15   -2.87    3.86
  -2  15  10    2.40    5.94
  -2  15   7    9.81    6.71
  -2  15   4    0.91    5.46
  -2  15   1    3.46    5.47
  -2  15  -2    3.71    5.56
  -2  15  -5    3.80    5.12
  -2  15  -8    2.55    3.94
  -2  15 -11   -0.03    3.37
  -2  15 -14    6.27    6.35
 -16   8  15    1.97    4.93
 -16   8  18   -4.88    4.26
 -16   9  -1   -0.23    3.09
 -16   9   2    8.80    7.14
 -16   9   5    3.46    8.71
 -16   9   8   20.59    9.39
 -16   9  11    7.25    8.20
 -16   9  14    5.55    7.71
 -16   9  17    0.09    4.42
 -16   9  20    6.83    7.80
 -16   9  23   11.30    6.73
 -16  10 -11    1.40    4.50
 -16  10  -8   -6.83    6.70
 -16  10  -5  -11.99    7.51
 -16  10  -2    0.00    4.13
 -16  10   1    0.39    3.92
 -16  10   4   12.23    7.31
 -16  10   7   16.20    8.23
 -16  10  10    2.01    5.40
 -16  10  13    5.66    5.40
 -16  10  16   10.78    8.40
 -16  11 -18    0.31    7.52
 -16  11 -15    0.95    4.54
 -16  11 -12    6.35    5.64
 -16  11  -9    0.00    4.42
 -16  11  -6   -4.55    5.01
 -16  11  -3   -7.07    5.67
 -16  11   0   -3.08    4.37
 -16  11   3    0.03    3.13
 -16  11   6    2.58    4.76
   0   0   0    0.00    0.00


TITL er-1548_autored in R-3c
REM R-3c (#167 in standard setting)
CELL 0.71073  12.332735  12.332735  69.663725  90.0000  90.0000 120.0000
ZERR  102.00   0.000653   0.000653   0.002615   0.0000   0.0000   0.0000
LATT  3
SYMM -y, x-y, z
SYMM -x+y,-x, z
SYMM  y, x,-z+1/2
SYMM  x-y,-y,-z+1/2
SYMM -x,-x+y,-z+1/2
SFAC C H N O S Zn
UNIT 102.00 102.00 102.00 102.00 102.00 102.00
TREF
HKLF 4
END
_computing_structure_solution     'SHELXT 2018/2 (Sheldrick, 2018)'
;
_shelx_hkl_checksum   20188

