 
data_Er-1545Cd_autored_a
 
_audit_creation_method            'SHELXL-2018/3'
_shelx_SHELXL_version_number      '2018/3'
_chemical_name_systematic         ?
_chemical_name_common             ?
_chemical_melting_point           ?
_chemical_formula_moiety          ?
_chemical_formula_sum
 'C H Cd N O S' 
_chemical_formula_weight          187.49

loop_
 _atom_type_symbol
 _atom_type_description
 _atom_type_scat_dispersion_real
 _atom_type_scat_dispersion_imag
 _atom_type_scat_source
 'C'  'C'   0.0033   0.0016
 'International Tables Vol C Tables 4.2.6.8 and 6.1.1.4'
 'H'  'H'   0.0000   0.0000
 'International Tables Vol C Tables 4.2.6.8 and 6.1.1.4'
 'N'  'N'   0.0061   0.0033
 'International Tables Vol C Tables 4.2.6.8 and 6.1.1.4'
 'O'  'O'   0.0106   0.0060
 'International Tables Vol C Tables 4.2.6.8 and 6.1.1.4'
 'S'  'S'   0.1246   0.1234
 'International Tables Vol C Tables 4.2.6.8 and 6.1.1.4'
 'Cd'  'Cd'  -0.8075   1.2024
 'International Tables Vol C Tables 4.2.6.8 and 6.1.1.4'
 
_space_group_crystal_system       monoclinic
_space_group_IT_number            15
_space_group_name_H-M_alt         'I 2/a'
_space_group_name_Hall            '-I 2ya'
 
_shelx_space_group_comment
;
The symmetry employed for this shelxl refinement is uniquely defined
by the following loop, which should always be used as a source of
symmetry information in preference to the above space-group names.
They are only intended as comments.
;
 
loop_
 _space_group_symop_operation_xyz
 'x, y, z'
 '-x+1/2, y, -z'
 'x+1/2, y+1/2, z+1/2'
 '-x+1, y+1/2, -z+1/2'
 '-x, -y, -z'
 'x-1/2, -y, z'
 '-x+1/2, -y+1/2, -z+1/2'
 'x, -y+1/2, z+1/2'
 
_cell_length_a                    37.0104(15)
_cell_length_b                    12.2369(5)
_cell_length_c                    42.6740(18)
_cell_angle_alpha                 90
_cell_angle_beta                  105.700(4)
_cell_angle_gamma                 90
_cell_volume                      18605.7(14)
_cell_formula_units_Z             207
_cell_measurement_temperature     293(2)
_cell_measurement_reflns_used     ?
_cell_measurement_theta_min       ?
_cell_measurement_theta_max       ?
 
_exptl_crystal_description        ?
_exptl_crystal_colour             ?
_exptl_crystal_density_meas       ?
_exptl_crystal_density_method     ?
_exptl_crystal_density_diffrn     3.464          
_exptl_crystal_F_000              17802
_exptl_transmission_factor_min    ?
_exptl_transmission_factor_max    ?
_exptl_crystal_size_max           ?
_exptl_crystal_size_mid           ?
_exptl_crystal_size_min           ?
_exptl_absorpt_coefficient_mu     6.426
_shelx_estimated_absorpt_T_min    ?
_shelx_estimated_absorpt_T_max    ?
_exptl_absorpt_correction_type    ?
_exptl_absorpt_correction_T_min   ?
_exptl_absorpt_correction_T_max   ?
_exptl_absorpt_process_details    ?
_exptl_absorpt_special_details    ?
_diffrn_ambient_temperature       293(2)
_diffrn_radiation_wavelength      0.71073
_diffrn_radiation_type            MoK\a
_diffrn_source                    ?
_diffrn_measurement_device_type   ?
_diffrn_measurement_method        ?
_diffrn_detector_area_resol_mean  ?
_diffrn_reflns_number             25172
_diffrn_reflns_av_unetI/netI      0.0606
_diffrn_reflns_av_R_equivalents   0.0185
_diffrn_reflns_limit_h_min        -46
_diffrn_reflns_limit_h_max        33
_diffrn_reflns_limit_k_min        -16
_diffrn_reflns_limit_k_max        8
_diffrn_reflns_limit_l_min        -45
_diffrn_reflns_limit_l_max        38
_diffrn_reflns_theta_min          2.094
_diffrn_reflns_theta_max          29.098
_diffrn_reflns_theta_full         25.242
_diffrn_measured_fraction_theta_max   0.711
_diffrn_measured_fraction_theta_full  0.894
_diffrn_reflns_Laue_measured_fraction_max    0.711
_diffrn_reflns_Laue_measured_fraction_full   0.894
_diffrn_reflns_point_group_measured_fraction_max   0.711
_diffrn_reflns_point_group_measured_fraction_full  0.894
_reflns_number_total              17754
_reflns_number_gt                 4594
_reflns_threshold_expression      'I > 2\s(I)'
_reflns_Friedel_coverage          0.000
_reflns_Friedel_fraction_max      .
_reflns_Friedel_fraction_full     .
 
_reflns_special_details
;
 Reflections were merged by SHELXL according to the crystal
 class for the calculation of statistics and refinement.
 
 _reflns_Friedel_fraction is defined as the number of unique
 Friedel pairs measured divided by the number that would be
 possible theoretically, ignoring centric projections and
 systematic absences.
;
 
_computing_data_collection        ?
_computing_cell_refinement        ?
_computing_data_reduction         ?
_computing_structure_solution     'SHELXT 2014/5 (Sheldrick, 2014)'
_computing_structure_refinement 'SHELXL-2018/3 (Sheldrick, 2018)'
_computing_molecular_graphics     ?
_computing_publication_material   ?
_refine_special_details           ?
_refine_ls_structure_factor_coef  Fsqd
_refine_ls_matrix_type            full
_refine_ls_weighting_scheme       calc
_refine_ls_weighting_details
'w=1/[\s^2^(Fo^2^)+(0.2000P)^2^] where P=(Fo^2^+2Fc^2^)/3'
_atom_sites_solution_primary      ?
_atom_sites_solution_secondary    ?
_atom_sites_solution_hydrogens    .
_refine_ls_hydrogen_treatment     undef
_refine_ls_extinction_method      none
_refine_ls_extinction_coef        .
_refine_ls_number_reflns          17754
_refine_ls_number_parameters      894
_refine_ls_number_restraints      0
_refine_ls_R_factor_all           0.2000
_refine_ls_R_factor_gt            0.0997
_refine_ls_wR_factor_ref          0.4437
_refine_ls_wR_factor_gt           0.3204
_refine_ls_goodness_of_fit_ref    1.053
_refine_ls_restrained_S_all       1.053
_refine_ls_shift/su_max           0.355
_refine_ls_shift/su_mean          0.053
 
loop_
 _atom_site_label
 _atom_site_type_symbol
 _atom_site_fract_x
 _atom_site_fract_y
 _atom_site_fract_z
 _atom_site_U_iso_or_equiv
 _atom_site_adp_type
 _atom_site_occupancy
 _atom_site_site_symmetry_order  
 _atom_site_calc_flag
 _atom_site_refinement_flags_posn
 _atom_site_refinement_flags_adp
 _atom_site_refinement_flags_occupancy
 _atom_site_disorder_assembly
 _atom_site_disorder_group
Cd01 Cd 0.66668(2) 0.49831(5) 0.83335(2) 0.0385(3) Uani 1 1 d . . . . .
Cd02 Cd 0.500000 0.500000 0.500000 0.0393(4) Uani 1 2 d S . P . .
S1 S 0.5836(2) 0.3315(4) 0.66671(10) 0.214(4) Uani 1 1 d . . . . .
S2 S 0.52784(12) 0.8327(6) 0.72251(15) 0.208(4) Uani 1 1 d . . . . .
S3 S 0.80574(13) 0.1657(6) 0.94430(15) 0.223(4) Uani 1 1 d . . . . .
S4 S 0.36122(12) 0.1646(6) 0.38913(15) 0.215(4) Uani 1 1 d . . . . .
S22 S 0.750000 0.6648(5) 1.000000 0.206(5) Uani 1 2 d S T P . .
N008 N 0.7840(2) 0.3797(7) 0.85376(18) 0.051(2) Uani 1 1 d . . . . .
N9 N 0.7886(3) 0.2315(14) 0.9105(4) 0.162(8) Uani 1 1 d . . . . .
N10 N 0.7251(2) 0.4217(7) 0.83372(19) 0.052(2) Uani 1 1 d . . . . .
N11 N 0.9674(2) 0.1538(7) 0.97389(18) 0.053(2) Uani 1 1 d . . . . .
N12 N 0.3666(2) 0.8433(7) 0.69234(18) 0.053(2) Uani 1 1 d . . . . .
N13 N 0.4829(3) 0.8195(14) 0.7176(3) 0.153(7) Uani 1 1 d . . . . .
N14 N 0.5451(3) 0.7618(13) 0.7563(3) 0.147(7) Uani 1 1 d . . . . .
N15 N 0.4418(2) 0.4229(7) 0.49929(19) 0.052(2) Uani 1 1 d . . . . .
N16 N 0.1995(2) 0.1515(7) 0.35937(18) 0.052(2) Uani 1 1 d . . . . .
N17 N 0.3162(3) 0.1758(14) 0.3848(3) 0.161(8) Uani 1 1 d . . . . .
N18 N 0.3777(3) 0.2344(14) 0.4223(4) 0.161(8) Uani 1 1 d . . . . .
N19 N 0.5619(5) 0.4145(12) 0.6385(3) 0.180(9) Uani 1 1 d . . . . .
N20 N 0.6039(5) 0.4154(12) 0.6952(3) 0.182(9) Uani 1 1 d . . . . .
N00A N 0.3825(2) 0.3794(7) 0.47958(18) 0.054(2) Uani 1 1 d . . . . .
N00E N 0.5495(2) 0.6163(7) 0.81351(19) 0.055(2) Uani 1 1 d . . . . .
N00G N 0.6593(2) 0.5746(7) 0.78146(16) 0.053(2) Uani 1 1 d . . . . .
N00H N 0.5072(2) 0.5753(7) 0.55191(17) 0.053(2) Uani 1 1 d . . . . .
N00I N 0.6739(2) 0.4228(7) 0.88530(17) 0.053(2) Uani 1 1 d . . . . .
N00J N 0.4088(2) 0.7542(6) 0.72820(18) 0.050(2) Uani 1 1 d . . . . .
N00K N 0.6083(2) 0.5743(7) 0.83261(19) 0.055(2) Uani 1 1 d . . . . .
N00L N 0.9239(2) 0.2423(7) 0.93851(17) 0.051(2) Uani 1 1 d . . . . .
N00M N 0.2427(2) 0.2414(7) 0.39469(18) 0.054(2) Uani 1 1 d . . . . .
N00N N 0.6305(2) 0.6226(7) 0.73209(16) 0.050(2) Uani 1 1 d . . . . .
N00O N 0.7028(2) 0.3729(7) 0.93505(16) 0.055(2) Uani 1 1 d . . . . .
N00P N 0.5361(2) 0.6241(7) 0.60177(16) 0.056(2) Uani 1 1 d . . . . .
N7 N 0.7296(5) 0.5801(10) 0.9716(2) 0.164(8) Uani 1 1 d . . . . .
N8 N 0.8500(3) 0.1778(14) 0.9486(3) 0.148(7) Uani 1 1 d . . . . .
C00Q C 0.2351(3) 0.1607(9) 0.3728(2) 0.060(3) Uani 1 1 d . . . . .
C00R C 0.3479(3) 0.3433(9) 0.4574(3) 0.056(3) Uani 1 1 d . . . . .
C00S C 0.8181(3) 0.3442(10) 0.8757(3) 0.061(3) Uani 1 1 d . . . . .
C00T C 0.5146(3) 0.6542(9) 0.7916(2) 0.052(3) Uani 1 1 d . . . . .
C00U C 0.4456(3) 0.7216(8) 0.7497(3) 0.054(3) Uani 1 1 d . . . . .
C00V C 0.4171(3) 0.3805(9) 0.4746(2) 0.057(3) Uani 1 1 d . . . . .
C00W C 0.7494(3) 0.3783(9) 0.8583(2) 0.054(3) Uani 1 1 d . . . . .
C00X C 0.4017(3) 0.8343(9) 0.7059(2) 0.060(3) Uani 1 1 d . . . . .
C00Y C 0.2781(3) 0.2720(9) 0.4160(3) 0.059(3) Uani 1 1 d . . . . .
C00Z C 0.9317(3) 0.1628(10) 0.9610(3) 0.064(3) Uani 1 1 d . . . . .
O010 O 0.3146(3) 0.5616(9) 0.5244(2) 0.111(3) Uani 1 1 d . . . . .
C011 C 0.5836(3) 0.6160(9) 0.8085(3) 0.060(3) Uani 1 1 d . . . . .
C012 C 0.7448(3) 0.4556(14) 0.8130(3) 0.086(4) Uani 1 1 d . . . . .
C013 C 0.7270(3) 0.3775(9) 0.9677(2) 0.050(3) Uani 1 1 d . . . . .
C014 C 0.4220(4) 0.4542(14) 0.5202(3) 0.084(4) Uani 1 1 d . . . . .
C015 C 0.6955(3) 0.4532(10) 0.9126(2) 0.056(3) Uani 1 1 d . . . . .
C016 C 0.6378(3) 0.5421(9) 0.7545(2) 0.054(3) Uani 1 1 d . . . . .
O017 O 0.4813(3) 0.4346(9) 0.8577(2) 0.111(3) Uani 1 1 d . . . . .
N6 N 0.4662(4) 0.4995(8) 0.8726(3) 0.065(3) Uani 1 1 d . . . . .
C01A C 0.8511(3) 0.3713(9) 0.8706(2) 0.055(3) Uani 1 1 d . . . . .
C01B C 0.4818(3) 0.6252(9) 0.7962(2) 0.052(3) Uani 1 1 d . . . . .
C01C C 0.2801(3) 0.3379(9) 0.4415(2) 0.059(3) Uani 1 1 d . . . . .
O01D O 0.8517(3) 0.5637(9) 0.8085(2) 0.105(3) Uani 1 1 d . . . . .
C01F C 0.5285(3) 0.5435(10) 0.5791(2) 0.057(3) Uani 1 1 d . . . . .
C01G C 0.4468(3) 0.6566(9) 0.7747(2) 0.055(3) Uani 1 1 d . . . . .
C01H C 0.8869(3) 0.3392(9) 0.8920(2) 0.056(3) Uani 1 1 d . . . . .
C01I C 0.5892(3) 0.5437(14) 0.8542(3) 0.088(4) Uani 1 1 d . . . . .
C01J C 0.6065(3) 0.6184(10) 0.6989(2) 0.055(3) Uani 1 1 d . . . . .
C01K C 0.5603(3) 0.6184(10) 0.6343(2) 0.057(3) Uani 1 1 d . . . . .
O01L O 0.8637(3) 0.4013(8) 0.7968(2) 0.111(3) Uani 1 1 d . . . . .
O01M O 0.3028(3) 0.3989(9) 0.5362(3) 0.112(3) Uani 1 1 d . . . . .
C01N C 0.3153(3) 0.3717(9) 0.4631(2) 0.056(3) Uani 1 1 d . . . . .
C01O C 0.7807(3) 0.4212(13) 0.8236(3) 0.094(5) Uani 1 1 d . . . . .
C01P C 0.8881(3) 0.2749(9) 0.9173(3) 0.058(3) Uani 1 1 d . . . . .
O01Q O 0.4692(3) 0.5984(8) 0.8698(2) 0.110(3) Uani 1 1 d . . . . .
C01R C 0.7380(3) 0.2851(8) 0.9836(2) 0.065(3) Uani 1 1 d . . . . .
C01S C 0.5711(3) 0.7108(9) 0.6507(2) 0.058(3) Uani 1 1 d . . . . .
C01T C 0.5955(3) 0.7120(9) 0.6833(2) 0.056(3) Uani 1 1 d . . . . .
O01U O 0.8853(3) 0.5366(9) 0.7747(3) 0.110(3) Uani 1 1 d . . . . .
N21 N 0.8672(3) 0.5011(8) 0.7935(3) 0.066(3) Uani 1 1 d . . . . .
O01V O 0.4474(3) 0.4621(9) 0.8913(3) 0.107(3) Uani 1 1 d . . . . .
C01W C 0.3763(3) 0.7031(12) 0.7270(3) 0.108(6) Uani 1 1 d . . . . .
C01X C 0.3864(3) 0.4205(13) 0.5093(3) 0.096(5) Uani 1 1 d . . . . .
C01Y C 0.5153(3) 0.7185(12) 0.7627(3) 0.081(4) Uani 1 1 d . . . . .
C01Z C 0.3496(3) 0.7631(11) 0.7066(3) 0.091(5) Uani 1 1 d . . . . .
C020 C 0.4794(3) 0.7587(11) 0.7426(3) 0.070(4) Uani 1 1 d . . . . .
C021 C 0.6668(4) 0.3141(12) 0.8896(3) 0.092(5) Uani 1 1 d . . . . .
C022 C 0.8191(4) 0.2766(13) 0.9043(3) 0.084(4) Uani 1 1 d . . . . .
O023 O 0.2812(3) 0.5360(10) 0.5580(3) 0.115(4) Uani 1 1 d . . . . .
N5 N 0.2996(4) 0.4970(8) 0.5393(3) 0.068(3) Uani 1 1 d . . . . .
C024 C 0.5532(3) 0.5766(14) 0.8437(3) 0.098(5) Uani 1 1 d . . . . .
C025 C 0.6665(4) 0.6809(11) 0.7771(3) 0.089(5) Uani 1 1 d . . . . .
C026 C 0.9829(3) 0.2335(11) 0.9601(3) 0.090(4) Uani 1 1 d . . . . .
C027 C 0.9572(4) 0.2919(12) 0.9393(3) 0.104(5) Uani 1 1 d . . . . .
C028 C 0.3133(3) 0.2387(12) 0.4092(3) 0.072(4) Uani 1 1 d . . . . .
C029 C 0.1835(3) 0.2290(11) 0.3728(3) 0.088(4) Uani 1 1 d . . . . .
C02A C 0.8537(3) 0.2367(13) 0.9237(3) 0.080(4) Uani 1 1 d . . . . .
C02B C 0.5002(4) 0.6824(11) 0.5565(2) 0.085(4) Uani 1 1 d . . . . .
C02C C 0.3483(3) 0.2771(12) 0.4290(3) 0.076(4) Uani 1 1 d . . . . .
C02F C 0.2093(3) 0.2900(11) 0.3936(3) 0.099(5) Uani 1 1 d . . . . .
C02G C 0.7390(4) 0.4797(10) 0.9838(3) 0.082(5) Uani 1 1 d . . . . .
C02H C 0.5163(4) 0.7122(10) 0.5870(3) 0.100(5) Uani 1 1 d . . . . .
C02J C 0.6501(4) 0.7102(11) 0.7460(3) 0.103(6) Uani 1 1 d . . . . .
C02K C 0.5726(5) 0.5151(11) 0.6503(3) 0.088(5) Uani 1 1 d . . . . .
C02L C 0.6827(4) 0.2846(11) 0.9209(3) 0.112(6) Uani 1 1 d . . . . .
C02M C 0.5946(5) 0.5176(11) 0.6838(3) 0.082(5) Uani 1 1 d . . . . .
 
loop_
 _atom_site_aniso_label
 _atom_site_aniso_U_11
 _atom_site_aniso_U_22
 _atom_site_aniso_U_33
 _atom_site_aniso_U_23
 _atom_site_aniso_U_13
 _atom_site_aniso_U_12
Cd01 0.0265(5) 0.0485(5) 0.0310(5) -0.0003(2) -0.0085(3) -0.0006(2)
Cd02 0.0264(7) 0.0508(8) 0.0315(6) -0.0006(4) -0.0082(5) -0.0017(4)
S1 0.413(11) 0.061(3) 0.082(3) -0.001(2) -0.080(4) 0.009(4)
S2 0.060(3) 0.327(9) 0.236(6) 0.213(6) 0.040(3) 0.035(4)
S3 0.070(3) 0.355(10) 0.248(6) 0.236(7) 0.049(4) 0.043(4)
S4 0.062(3) 0.328(9) 0.255(6) -0.234(7) 0.044(3) -0.040(4)
S22 0.390(13) 0.061(4) 0.086(4) 0.000 -0.073(6) 0.000
N008 0.030(5) 0.071(6) 0.049(5) 0.011(4) 0.005(4) 0.010(4)
N9 0.046(8) 0.238(19) 0.203(15) 0.155(14) 0.035(9) 0.030(9)
N10 0.037(6) 0.055(6) 0.057(5) 0.000(4) -0.003(4) 0.006(4)
N11 0.040(6) 0.065(6) 0.046(5) 0.008(4) -0.005(4) 0.006(5)
N12 0.035(6) 0.064(6) 0.053(5) 0.010(4) 0.000(4) 0.013(4)
N13 0.054(8) 0.254(18) 0.159(12) 0.149(12) 0.043(8) 0.056(9)
N14 0.060(9) 0.203(16) 0.167(12) 0.133(12) 0.010(8) 0.037(9)
N15 0.040(6) 0.061(6) 0.050(5) -0.006(4) 0.001(4) -0.010(4)
N16 0.042(6) 0.055(6) 0.048(5) -0.006(4) -0.005(4) -0.012(4)
N17 0.048(8) 0.257(19) 0.165(13) -0.155(13) 0.005(8) -0.023(9)
N18 0.047(8) 0.235(18) 0.203(15) -0.158(14) 0.039(9) -0.035(9)
N19 0.33(2) 0.079(10) 0.057(7) 0.001(7) -0.074(10) -0.002(12)
N20 0.33(2) 0.078(11) 0.066(8) 0.011(7) -0.065(11) 0.006(12)
N00A 0.039(6) 0.077(7) 0.047(5) -0.011(4) 0.013(4) -0.012(5)
N00E 0.029(6) 0.076(7) 0.054(5) 0.010(4) 0.001(4) 0.016(4)
N00G 0.060(6) 0.062(6) 0.029(4) 0.005(4) -0.002(4) -0.001(5)
N00H 0.053(6) 0.067(6) 0.030(4) -0.003(4) -0.003(4) 0.002(5)
N00I 0.046(6) 0.067(7) 0.038(5) 0.003(4) -0.003(4) 0.001(5)
N00J 0.041(6) 0.048(5) 0.058(5) 0.025(4) 0.009(4) 0.007(4)
N00K 0.035(6) 0.079(7) 0.045(5) 0.002(4) 0.001(4) 0.008(5)
N00L 0.038(6) 0.059(6) 0.050(5) 0.009(4) 0.003(4) 0.003(4)
N00M 0.038(6) 0.064(6) 0.053(5) -0.017(4) 0.000(4) -0.011(5)
N00N 0.050(6) 0.055(6) 0.036(4) 0.007(4) -0.005(4) -0.004(4)
N00O 0.065(6) 0.064(6) 0.027(4) 0.008(4) -0.004(4) -0.003(5)
N00P 0.070(7) 0.059(6) 0.030(4) -0.006(4) -0.001(4) -0.002(5)
N7 0.30(2) 0.072(9) 0.047(6) 0.000(6) -0.071(9) -0.001(11)
N8 0.048(8) 0.244(18) 0.158(12) 0.129(12) 0.036(7) 0.028(9)
C00Q 0.051(8) 0.063(8) 0.061(7) -0.014(5) 0.003(6) -0.019(6)
C00R 0.031(7) 0.069(8) 0.062(7) -0.010(6) 0.003(5) -0.024(6)
C00S 0.030(7) 0.071(8) 0.072(7) 0.017(6) -0.005(6) 0.015(6)
C00T 0.038(7) 0.059(7) 0.057(6) 0.021(5) 0.009(5) 0.013(5)
C00U 0.027(6) 0.043(6) 0.085(7) 0.022(5) 0.003(5) 0.011(5)
C00V 0.050(8) 0.059(7) 0.055(6) -0.005(5) 0.000(6) -0.012(6)
C00W 0.031(7) 0.073(8) 0.048(6) 0.009(5) -0.007(5) 0.008(5)
C00X 0.036(7) 0.068(8) 0.058(6) 0.008(5) -0.019(5) 0.009(5)
C00Y 0.029(6) 0.065(8) 0.073(7) -0.024(6) -0.007(5) -0.005(5)
C00Z 0.045(8) 0.077(9) 0.063(7) 0.021(6) 0.001(6) 0.009(6)
O010 0.128(9) 0.092(9) 0.130(8) 0.012(7) 0.064(7) -0.007(7)
C011 0.040(7) 0.064(8) 0.070(7) 0.013(6) 0.001(6) 0.012(6)
C012 0.040(9) 0.148(13) 0.067(8) 0.030(9) 0.012(7) 0.028(8)
C013 0.065(8) 0.055(7) 0.024(5) -0.003(4) 0.001(5) -0.005(6)
C014 0.047(9) 0.148(13) 0.050(7) -0.021(8) -0.001(6) -0.037(9)
C015 0.049(7) 0.077(8) 0.036(5) 0.002(6) -0.001(5) 0.001(6)
C016 0.060(8) 0.057(7) 0.038(6) 0.010(5) -0.001(5) 0.003(6)
O017 0.117(9) 0.103(9) 0.130(8) -0.012(7) 0.062(7) 0.002(7)
N6 0.068(9) 0.055(8) 0.072(8) 0.001(5) 0.016(7) -0.009(5)
C01A 0.032(7) 0.082(8) 0.046(6) 0.015(5) 0.003(5) 0.010(5)
C01B 0.026(6) 0.073(8) 0.051(6) 0.010(5) 0.001(5) 0.005(5)
C01C 0.049(7) 0.064(8) 0.057(6) -0.017(5) 0.002(5) -0.006(6)
O01D 0.107(8) 0.101(9) 0.119(7) -0.010(7) 0.052(6) 0.001(7)
C01F 0.054(8) 0.062(7) 0.048(6) -0.002(6) 0.003(5) 0.005(6)
C01G 0.035(7) 0.066(8) 0.056(6) 0.014(5) -0.004(5) 0.004(5)
C01H 0.031(6) 0.070(8) 0.056(6) 0.015(5) -0.007(5) 0.013(5)
C01I 0.040(9) 0.166(14) 0.050(7) 0.029(8) -0.003(6) 0.029(9)
C01J 0.056(7) 0.076(9) 0.025(5) 0.007(5) -0.005(5) -0.007(6)
C01K 0.073(8) 0.072(8) 0.018(5) -0.006(5) -0.002(5) 0.010(6)
O01L 0.156(10) 0.069(7) 0.128(8) 0.003(6) 0.075(7) -0.003(7)
O01M 0.142(10) 0.075(7) 0.130(8) -0.007(6) 0.057(7) 0.002(7)
C01N 0.048(7) 0.080(8) 0.035(5) -0.011(5) 0.003(5) -0.020(6)
C01O 0.037(8) 0.168(16) 0.073(8) 0.035(9) 0.012(6) 0.032(8)
C01P 0.029(7) 0.067(8) 0.068(7) 0.019(6) -0.003(5) 0.016(5)
O01Q 0.140(10) 0.081(8) 0.122(8) 0.010(6) 0.056(6) -0.006(7)
C01R 0.080(9) 0.055(7) 0.046(6) 0.000(5) -0.006(6) -0.010(6)
C01S 0.049(7) 0.079(9) 0.031(5) -0.002(5) -0.014(5) -0.004(6)
C01T 0.057(7) 0.070(8) 0.031(5) -0.002(5) -0.005(5) -0.002(6)
O01U 0.121(9) 0.110(8) 0.119(8) 0.009(7) 0.068(7) 0.003(7)
N21 0.061(9) 0.056(8) 0.082(9) -0.010(5) 0.023(7) 0.006(5)
O01V 0.119(9) 0.099(7) 0.124(8) 0.009(7) 0.066(7) 0.007(7)
C01W 0.027(7) 0.126(13) 0.148(12) 0.081(10) -0.017(7) -0.007(7)
C01X 0.045(9) 0.155(15) 0.076(8) -0.042(9) -0.003(6) -0.018(8)
C01Y 0.034(8) 0.106(12) 0.104(10) 0.045(8) 0.021(7) 0.025(7)
C01Z 0.044(8) 0.076(9) 0.119(10) 0.043(8) -0.035(7) -0.003(7)
C020 0.040(8) 0.092(10) 0.073(7) 0.049(7) 0.005(6) 0.021(7)
C021 0.089(10) 0.103(12) 0.052(7) 0.023(7) -0.035(6) -0.036(8)
C022 0.041(8) 0.110(12) 0.092(9) 0.038(8) 0.000(7) 0.018(8)
O023 0.131(10) 0.105(8) 0.129(9) -0.007(7) 0.067(8) 0.000(7)
N5 0.073(10) 0.066(9) 0.065(8) -0.004(5) 0.018(7) 0.007(6)
C024 0.051(9) 0.179(16) 0.058(7) 0.043(9) 0.006(6) 0.044(9)
C025 0.101(11) 0.085(10) 0.054(7) 0.012(7) -0.027(7) -0.039(8)
C026 0.053(8) 0.080(10) 0.113(10) 0.030(8) -0.020(7) -0.015(7)
C027 0.044(8) 0.107(12) 0.138(12) 0.074(10) -0.016(8) -0.002(8)
C028 0.039(8) 0.113(11) 0.063(7) -0.044(7) 0.013(6) -0.018(7)
C029 0.054(8) 0.074(9) 0.112(10) -0.053(8) -0.019(7) 0.003(7)
C02A 0.040(8) 0.133(13) 0.068(8) 0.046(8) 0.015(6) 0.022(8)
C02B 0.108(11) 0.086(10) 0.038(6) -0.009(6) -0.019(6) 0.040(8)
C02C 0.032(7) 0.131(13) 0.060(7) -0.043(8) 0.008(6) -0.036(7)
C02F 0.046(9) 0.090(11) 0.136(12) -0.050(9) -0.019(8) 0.012(7)
C02G 0.123(13) 0.047(7) 0.045(7) 0.009(6) -0.030(7) 0.003(8)
C02H 0.155(14) 0.073(9) 0.043(6) -0.011(6) -0.023(8) 0.043(9)
C02J 0.129(12) 0.081(10) 0.061(7) 0.025(7) -0.040(8) -0.053(9)
C02K 0.128(14) 0.075(10) 0.036(7) -0.002(6) -0.021(8) 0.006(8)
C02L 0.157(14) 0.083(10) 0.052(7) 0.020(6) -0.047(8) -0.042(9)
C02M 0.119(13) 0.070(9) 0.034(7) 0.009(6) -0.018(7) 0.005(8)
 
_geom_special_details
;
 All esds (except the esd in the dihedral angle between two l.s. planes)
 are estimated using the full covariance matrix.  The cell esds are taken
 into account individually in the estimation of esds in distances, angles
 and torsion angles; correlations between esds in cell parameters are only
 used when they are defined by crystal symmetry.  An approximate (isotropic)
 treatment of cell esds is used for estimating esds involving l.s. planes.
;
 
loop_
 _geom_bond_atom_site_label_1
 _geom_bond_atom_site_label_2
 _geom_bond_distance
 _geom_bond_site_symmetry_2
 _geom_bond_publ_flag
Cd01 N00K 2.344(8) . ?
Cd01 N16 2.343(8) 3 ?
Cd01 N00I 2.349(7) . ?
Cd01 N00G 2.350(7) . ?
Cd01 N10 2.351(8) . ?
Cd01 N12 2.364(8) 4_546 ?
Cd02 N15 2.344(8) . ?
Cd02 N15 2.344(8) 5_666 ?
Cd02 N00H 2.347(7) . ?
Cd02 N00H 2.347(7) 5_666 ?
Cd02 N11 2.347(8) 7_656 ?
Cd02 N11 2.347(8) 3_454 ?
S1 N19 1.612(12) . ?
S1 N20 1.614(13) . ?
S2 N13 1.629(11) . ?
S2 N14 1.654(11) . ?
S3 N8 1.605(12) . ?
S3 N9 1.624(12) . ?
S4 N18 1.625(12) . ?
S4 N17 1.633(12) . ?
S22 N7 1.619(11) . ?
S22 N7 1.619(11) 2_657 ?
N008 C00W 1.349(12) . ?
N008 C01O 1.359(13) . ?
N008 C00S 1.420(11) . ?
N9 C022 1.345(16) . ?
N10 C00W 1.296(10) . ?
N10 C012 1.356(14) . ?
N11 C00Z 1.291(11) . ?
N11 C026 1.346(14) . ?
N12 C00X 1.275(11) . ?
N12 C01Z 1.395(14) . ?
N13 C020 1.333(14) . ?
N14 C01Y 1.316(16) . ?
N15 C00V 1.302(11) . ?
N15 C014 1.353(14) . ?
N16 C00Q 1.294(11) . ?
N16 C029 1.327(13) . ?
N17 C028 1.322(15) . ?
N18 C02C 1.304(15) . ?
N19 C02K 1.348(17) . ?
N20 C02M 1.352(16) . ?
N00A C01X 1.336(13) . ?
N00A C00V 1.354(12) . ?
N00A C00R 1.443(11) . ?
N00E C011 1.336(12) . ?
N00E C024 1.350(13) . ?
N00E C00T 1.450(11) . ?
N00G C016 1.273(11) . ?
N00G C025 1.349(14) . ?
N00H C01F 1.275(11) . ?
N00H C02B 1.360(14) . ?
N00I C015 1.276(11) . ?
N00I C021 1.378(14) . ?
N00J C00X 1.344(12) . ?
N00J C01W 1.345(12) . ?
N00J C00U 1.477(11) . ?
N00K C011 1.285(11) . ?
N00K C01I 1.356(14) . ?
N00L C00Z 1.342(12) . ?
N00L C027 1.366(13) . ?
N00L C01P 1.443(11) . ?
N00M C00Q 1.337(12) . ?
N00M C02F 1.359(13) . ?
N00M C00Y 1.427(11) . ?
N00N C02J 1.341(13) . ?
N00N C016 1.348(11) . ?
N00N C01J 1.455(11) . ?
N00O C015 1.349(12) . ?
N00O C02L 1.355(13) . ?
N00O C013 1.438(11) . ?
N00P C01F 1.356(12) . ?
N00P C02H 1.358(13) . ?
N00P C01K 1.434(11) . ?
N7 C02G 1.342(15) . ?
N8 C02A 1.320(15) . ?
C00R C01N 1.340(14) . ?
C00R C02C 1.462(15) . ?
C00S C01A 1.337(14) . ?
C00S C022 1.467(16) . ?
C00T C01B 1.331(13) . ?
C00T C01Y 1.468(15) . ?
C00U C01G 1.320(13) . ?
C00U C020 1.438(14) . ?
C00Y C01C 1.339(13) . ?
C00Y C028 1.468(15) . ?
O010 N5 1.235(14) . ?
C012 C01O 1.350(14) . ?
C013 C01R 1.326(13) . ?
C013 C02G 1.438(15) . ?
C014 C01X 1.338(14) . ?
O017 N6 1.241(13) . ?
N6 O01Q 1.224(11) . ?
N6 O01V 1.275(14) . ?
C01A C01H 1.447(12) . ?
C01B C01G 1.422(12) . ?
C01C C01N 1.439(13) . ?
O01D N21 1.234(12) . ?
C01H C01P 1.329(14) . ?
C01I C024 1.346(14) . ?
C01J C01T 1.332(14) . ?
C01J C02M 1.405(16) . ?
C01K C01S 1.333(14) . ?
C01K C02K 1.451(16) . ?
O01L N21 1.240(11) . ?
O01M N5 1.217(12) . ?
C01P C02A 1.449(15) . ?
C01R C01R 1.439(18) 2_657 ?
C01S C01T 1.441(11) . ?
O01U N21 1.254(14) . ?
C01W C01Z 1.343(14) . ?
C01Y C020 1.459(15) . ?
C021 C02L 1.355(14) . ?
C022 C02A 1.412(15) . ?
O023 N5 1.274(14) . ?
C025 C02J 1.350(14) . ?
C026 C027 1.321(15) . ?
C028 C02C 1.421(14) . ?
C029 C02F 1.340(14) . ?
C02B C02H 1.328(13) . ?
C02G C02G 1.40(2) 2_657 ?
C02K C02M 1.440(17) . ?
 
loop_
 _geom_angle_atom_site_label_1
 _geom_angle_atom_site_label_2
 _geom_angle_atom_site_label_3
 _geom_angle
 _geom_angle_site_symmetry_1
 _geom_angle_site_symmetry_3
 _geom_angle_publ_flag
N00K Cd01 N16 92.7(3) . 3 ?
N00K Cd01 N00I 92.2(3) . . ?
N16 Cd01 N00I 87.4(3) 3 . ?
N00K Cd01 N00G 87.6(3) . . ?
N16 Cd01 N00G 92.4(3) 3 . ?
N00I Cd01 N00G 179.7(3) . . ?
N00K Cd01 N10 179.6(3) . . ?
N16 Cd01 N10 87.6(3) 3 . ?
N00I Cd01 N10 88.1(3) . . ?
N00G Cd01 N10 92.1(3) . . ?
N00K Cd01 N12 87.1(3) . 4_546 ?
N16 Cd01 N12 179.3(3) 3 4_546 ?
N00I Cd01 N12 91.9(3) . 4_546 ?
N00G Cd01 N12 88.2(3) . 4_546 ?
N10 Cd01 N12 92.6(3) . 4_546 ?
N15 Cd02 N15 180.00(15) . 5_666 ?
N15 Cd02 N00H 92.2(3) . . ?
N15 Cd02 N00H 87.8(3) 5_666 . ?
N15 Cd02 N00H 87.8(3) . 5_666 ?
N15 Cd02 N00H 92.2(3) 5_666 5_666 ?
N00H Cd02 N00H 180.0 . 5_666 ?
N15 Cd02 N11 92.1(3) . 7_656 ?
N15 Cd02 N11 87.9(3) 5_666 7_656 ?
N00H Cd02 N11 87.4(3) . 7_656 ?
N00H Cd02 N11 92.6(3) 5_666 7_656 ?
N15 Cd02 N11 87.9(3) . 3_454 ?
N15 Cd02 N11 92.1(3) 5_666 3_454 ?
N00H Cd02 N11 92.6(3) . 3_454 ?
N00H Cd02 N11 87.4(3) 5_666 3_454 ?
N11 Cd02 N11 180.0(3) 7_656 3_454 ?
N19 S1 N20 101.3(7) . . ?
N13 S2 N14 101.5(6) . . ?
N8 S3 N9 101.3(6) . . ?
N18 S4 N17 100.6(6) . . ?
N7 S22 N7 100.3(9) . 2_657 ?
C00W N008 C01O 107.1(8) . . ?
C00W N008 C00S 127.8(9) . . ?
C01O N008 C00S 125.1(10) . . ?
C022 N9 S3 103.4(9) . . ?
C00W N10 C012 105.9(9) . . ?
C00W N10 Cd01 127.2(8) . . ?
C012 N10 Cd01 122.0(7) . . ?
C00Z N11 C026 105.0(9) . . ?
C00Z N11 Cd02 127.3(8) . 3_545 ?
C026 N11 Cd02 124.3(8) . 3_545 ?
C00X N12 C01Z 105.5(9) . . ?
C00X N12 Cd01 128.2(8) . 4_556 ?
C01Z N12 Cd01 121.8(7) . 4_556 ?
C020 N13 S2 105.6(9) . . ?
C01Y N14 S2 104.2(9) . . ?
C00V N15 C014 105.1(9) . . ?
C00V N15 Cd02 127.7(8) . . ?
C014 N15 Cd02 122.5(7) . . ?
C00Q N16 C029 105.5(9) . . ?
C00Q N16 Cd01 127.9(7) . 3_444 ?
C029 N16 Cd01 122.9(8) . 3_444 ?
C028 N17 S4 104.9(9) . . ?
C02C N18 S4 105.2(9) . . ?
C02K N19 S1 105.1(9) . . ?
C02M N20 S1 107.2(9) . . ?
C01X N00A C00V 106.4(9) . . ?
C01X N00A C00R 126.0(10) . . ?
C00V N00A C00R 127.6(9) . . ?
C011 N00E C024 107.2(8) . . ?
C011 N00E C00T 127.7(9) . . ?
C024 N00E C00T 125.1(10) . . ?
C016 N00G C025 106.0(8) . . ?
C016 N00G Cd01 127.8(7) . . ?
C025 N00G Cd01 122.3(7) . . ?
C01F N00H C02B 104.9(9) . . ?
C01F N00H Cd02 128.6(8) . . ?
C02B N00H Cd02 122.5(6) . . ?
C015 N00I C021 104.8(9) . . ?
C015 N00I Cd01 128.9(8) . . ?
C021 N00I Cd01 122.0(7) . . ?
C00X N00J C01W 108.1(8) . . ?
C00X N00J C00U 127.5(9) . . ?
C01W N00J C00U 124.3(8) . . ?
C011 N00K C01I 105.3(9) . . ?
C011 N00K Cd01 128.5(8) . . ?
C01I N00K Cd01 122.0(8) . . ?
C00Z N00L C027 106.6(8) . . ?
C00Z N00L C01P 129.2(9) . . ?
C027 N00L C01P 124.2(9) . . ?
C00Q N00M C02F 106.4(9) . . ?
C00Q N00M C00Y 128.4(10) . . ?
C02F N00M C00Y 125.1(9) . . ?
C02J N00N C016 106.7(8) . . ?
C02J N00N C01J 125.2(9) . . ?
C016 N00N C01J 128.1(9) . . ?
C015 N00O C02L 106.6(8) . . ?
C015 N00O C013 127.7(9) . . ?
C02L N00O C013 125.7(9) . . ?
C01F N00P C02H 105.4(8) . . ?
C01F N00P C01K 127.5(9) . . ?
C02H N00P C01K 127.1(9) . . ?
C02G N7 S22 106.0(9) . . ?
C02A N8 S3 106.5(9) . . ?
N16 C00Q N00M 111.6(10) . . ?
C01N C00R N00A 119.0(10) . . ?
C01N C00R C02C 120.6(9) . . ?
N00A C00R C02C 120.4(10) . . ?
C01A C00S N008 120.3(10) . . ?
C01A C00S C022 117.2(10) . . ?
N008 C00S C022 122.5(11) . . ?
C01B C00T N00E 120.6(9) . . ?
C01B C00T C01Y 119.4(10) . . ?
N00E C00T C01Y 119.9(10) . . ?
C01G C00U C020 121.4(9) . . ?
C01G C00U N00J 119.2(9) . . ?
C020 C00U N00J 119.4(9) . . ?
N15 C00V N00A 111.2(10) . . ?
N10 C00W N008 111.0(9) . . ?
N12 C00X N00J 111.3(10) . . ?
C01C C00Y N00M 121.0(10) . . ?
C01C C00Y C028 118.0(9) . . ?
N00M C00Y C028 120.8(9) . . ?
N11 C00Z N00L 111.4(10) . . ?
N00K C011 N00E 111.8(10) . . ?
C01O C012 N10 109.9(11) . . ?
C01R C013 C02G 118.9(9) . . ?
C01R C013 N00O 119.2(9) . . ?
C02G C013 N00O 121.9(9) . . ?
C01X C014 N15 110.0(10) . . ?
N00I C015 N00O 113.0(10) . . ?
N00G C016 N00N 111.7(10) . . ?
O01Q N6 O017 121.1(13) . . ?
O01Q N6 O01V 119.7(12) . . ?
O017 N6 O01V 119.2(11) . . ?
C00S C01A C01H 123.4(10) . . ?
C00T C01B C01G 122.7(10) . . ?
C00Y C01C C01N 122.5(10) . . ?
N00H C01F N00P 112.7(10) . . ?
C00U C01G C01B 120.6(10) . . ?
C01P C01H C01A 119.9(10) . . ?
C024 C01I N00K 110.2(10) . . ?
C01T C01J C02M 120.7(9) . . ?
C01T C01J N00N 118.6(10) . . ?
C02M C01J N00N 120.7(10) . . ?
C01S C01K N00P 119.1(10) . . ?
C01S C01K C02K 118.6(9) . . ?
N00P C01K C02K 122.3(10) . . ?
C00R C01N C01C 120.6(10) . . ?
C012 C01O N008 105.3(10) . . ?
C01H C01P C02A 120.4(9) . . ?
C01H C01P N00L 119.8(10) . . ?
C02A C01P N00L 119.8(10) . . ?
C013 C01R C01R 121.5(6) . 2_657 ?
C01K C01S C01T 122.5(11) . . ?
C01J C01T C01S 120.0(10) . . ?
O01D N21 O01L 118.5(12) . . ?
O01D N21 O01U 121.3(12) . . ?
O01L N21 O01U 120.2(11) . . ?
C01Z C01W N00J 105.4(11) . . ?
C014 C01X N00A 106.8(11) . . ?
N14 C01Y C020 115.0(11) . . ?
N14 C01Y C00T 126.6(11) . . ?
C020 C01Y C00T 117.0(11) . . ?
C01W C01Z N12 109.0(11) . . ?
N13 C020 C00U 128.6(10) . . ?
N13 C020 C01Y 112.9(11) . . ?
C00U C020 C01Y 118.3(10) . . ?
C02L C021 N00I 110.0(10) . . ?
N9 C022 C02A 114.7(13) . . ?
N9 C022 C00S 124.3(11) . . ?
C02A C022 C00S 119.8(12) . . ?
O01M N5 O010 120.3(13) . . ?
O01M N5 O023 121.5(13) . . ?
O010 N5 O023 118.2(12) . . ?
C01I C024 N00E 105.1(11) . . ?
N00G C025 C02J 109.8(10) . . ?
C027 C026 N11 111.8(11) . . ?
C026 C027 N00L 104.9(11) . . ?
N17 C028 C02C 113.9(12) . . ?
N17 C028 C00Y 125.6(11) . . ?
C02C C028 C00Y 120.5(11) . . ?
N16 C029 C02F 111.3(11) . . ?
N8 C02A C022 112.7(12) . . ?
N8 C02A C01P 128.0(11) . . ?
C022 C02A C01P 118.8(12) . . ?
C02H C02B N00H 110.7(10) . . ?
N18 C02C C028 114.7(12) . . ?
N18 C02C C00R 126.8(11) . . ?
C028 C02C C00R 117.5(11) . . ?
C029 C02F N00M 104.9(11) . . ?
N7 C02G C02G 113.7(7) . 2_657 ?
N7 C02G C013 126.6(10) . . ?
C02G C02G C013 119.5(6) 2_657 . ?
C02B C02H N00P 106.2(10) . . ?
N00N C02J C025 105.6(10) . . ?
N19 C02K C01K 126.5(12) . . ?
N19 C02K C02M 114.8(12) . . ?
C01K C02K C02M 118.2(12) . . ?
C021 C02L N00O 105.4(11) . . ?
N20 C02M C01J 129.0(12) . . ?
N20 C02M C02K 111.0(13) . . ?
C01J C02M C02K 119.7(12) . . ?
 
_refine_diff_density_max    2.175
_refine_diff_density_min   -0.932
_refine_diff_density_rms    0.208

_shelx_res_file
;
TITL Er-1545Cd_autored_a.res in I2/a
    Er-1545Cd_autored_a.res
    created by SHELXL-2018/3 at 18:40:17 on 11-May-2023
REM Old TITL Er-1545Cd_autored in I2/a
REM SHELXT solution in I2/a
REM R1 0.314,  Rweak 0.002,  Alpha 0.039,  Orientation as input
REM Formula found by SHELXT:  C132 N26 O37 Cd3
CELL  0.71073  37.0104  12.2369  42.6740   90.000  105.700   90.000
ZERR  207.000   0.0015   0.0005   0.0018    0.000    0.004    0.000
LATT  2
SYMM 1/2-X, Y, -Z
SFAC C H N O S CD
UNIT 207.00 207.00 207.00 207.00 207.00 207.00
ACTA
L.S. 10
BOND $H
LIST 4
FMAP 2
PLAN 20
WGHT    0.200000
FVAR       0.05794
CD01  6    0.666682    0.498310    0.833351    11.00000    0.02650    0.04850 =
         0.03104   -0.00030   -0.00853   -0.00058
CD02  6    0.500000    0.500000    0.500000    10.50000    0.02640    0.05078 =
         0.03151   -0.00063   -0.00816   -0.00166
S1    5    0.583553    0.331450    0.666709    11.00000    0.41290    0.06118 =
         0.08192   -0.00090   -0.07974    0.00937
S2    5    0.527845    0.832665    0.722509    11.00000    0.05957    0.32739 =
         0.23635    0.21258    0.03990    0.03476
S3    5    0.805739    0.165734    0.944301    11.00000    0.06975    0.35527 =
         0.24774    0.23574    0.04946    0.04267
S4    5    0.361218    0.164564    0.389126    11.00000    0.06175    0.32776 =
         0.25451   -0.23366    0.04352   -0.03959
S22   5    0.750000    0.664791    1.000000    10.50000    0.39047    0.06099 =
         0.08639    0.00000   -0.07264    0.00000
N008  3    0.784036    0.379683    0.853764    11.00000    0.02977    0.07119 =
         0.04908    0.01129    0.00501    0.00997
N9    3    0.788616    0.231505    0.910483    11.00000    0.04611    0.23791 =
         0.20287    0.15543    0.03507    0.03025
N10   3    0.725055    0.421661    0.833717    11.00000    0.03658    0.05462 =
         0.05655    0.00029   -0.00336    0.00552
N11   3    0.967403    0.153760    0.973889    11.00000    0.03956    0.06467 =
         0.04595    0.00843   -0.00539    0.00608
N12   3    0.366631    0.843338    0.692343    11.00000    0.03454    0.06371 =
         0.05325    0.01024    0.00012    0.01254
N13   3    0.482860    0.819544    0.717642    11.00000    0.05430    0.25386 =
         0.15883    0.14871    0.04315    0.05600
N14   3    0.545052    0.761760    0.756260    11.00000    0.05989    0.20301 =
         0.16736    0.13331    0.00992    0.03685
N15   3    0.441811    0.422928    0.499289    11.00000    0.03963    0.06059 =
         0.04955   -0.00594    0.00122   -0.01009
N16   3    0.199459    0.151463    0.359365    11.00000    0.04176    0.05460 =
         0.04838   -0.00568   -0.00546   -0.01215
N17   3    0.316180    0.175836    0.384806    11.00000    0.04803    0.25684 =
         0.16508   -0.15519    0.00466   -0.02302
N18   3    0.377676    0.234358    0.422325    11.00000    0.04735    0.23499 =
         0.20255   -0.15758    0.03859   -0.03498
N19   3    0.561930    0.414543    0.638534    11.00000    0.32912    0.07929 =
         0.05722    0.00052   -0.07386   -0.00226
N20   3    0.603894    0.415410    0.695209    11.00000    0.33110    0.07814 =
         0.06635    0.01055   -0.06515    0.00591
N00A  3    0.382530    0.379439    0.479578    11.00000    0.03850    0.07732 =
         0.04742   -0.01077    0.01299   -0.01220
N00E  3    0.549484    0.616328    0.813508    11.00000    0.02948    0.07602 =
         0.05373    0.01009    0.00099    0.01593
N00G  3    0.659338    0.574610    0.781460    11.00000    0.05990    0.06209 =
         0.02915    0.00467   -0.00159   -0.00125
N00H  3    0.507163    0.575258    0.551914    11.00000    0.05265    0.06733 =
         0.02966   -0.00254   -0.00272    0.00201
N00I  3    0.673915    0.422776    0.885301    11.00000    0.04576    0.06732 =
         0.03829    0.00318   -0.00325    0.00123
N00J  3    0.408823    0.754178    0.728202    11.00000    0.04147    0.04793 =
         0.05789    0.02474    0.00950    0.00685
N00K  3    0.608317    0.574278    0.832612    11.00000    0.03482    0.07933 =
         0.04531    0.00191    0.00102    0.00839
N00L  3    0.923883    0.242303    0.938509    11.00000    0.03772    0.05920 =
         0.04973    0.00909    0.00304    0.00300
N00M  3    0.242685    0.241398    0.394686    11.00000    0.03814    0.06367 =
         0.05292   -0.01729    0.00014   -0.01062
N00N  3    0.630469    0.622640    0.732090    11.00000    0.05007    0.05522 =
         0.03560    0.00653   -0.00478   -0.00419
N00O  3    0.702755    0.372859    0.935046    11.00000    0.06453    0.06414 =
         0.02734    0.00839   -0.00404   -0.00305
N00P  3    0.536105    0.624128    0.601772    11.00000    0.07020    0.05944 =
         0.02994   -0.00619   -0.00113   -0.00246
N7    3    0.729576    0.580051    0.971588    11.00000    0.30448    0.07240 =
         0.04693   -0.00030   -0.07083   -0.00099
N8    3    0.849983    0.177797    0.948557    11.00000    0.04810    0.24366 =
         0.15780    0.12931    0.03624    0.02826
C00Q  1    0.235127    0.160704    0.372751    11.00000    0.05097    0.06256 =
         0.06089   -0.01388    0.00318   -0.01888
C00R  1    0.347850    0.343269    0.457372    11.00000    0.03130    0.06928 =
         0.06230   -0.00969    0.00263   -0.02384
C00S  1    0.818135    0.344231    0.875662    11.00000    0.03039    0.07086 =
         0.07227    0.01705   -0.00470    0.01540
C00T  1    0.514607    0.654153    0.791561    11.00000    0.03799    0.05863 =
         0.05748    0.02097    0.00930    0.01328
C00U  1    0.445627    0.721589    0.749734    11.00000    0.02723    0.04336 =
         0.08477    0.02169    0.00284    0.01054
C00V  1    0.417111    0.380509    0.474569    11.00000    0.04970    0.05892 =
         0.05530   -0.00497    0.00045   -0.01163
C00W  1    0.749359    0.378345    0.858283    11.00000    0.03065    0.07323 =
         0.04791    0.00876   -0.00711    0.00784
C00X  1    0.401714    0.834335    0.705851    11.00000    0.03591    0.06850 =
         0.05761    0.00841   -0.01910    0.00918
C00Y  1    0.278070    0.271983    0.415994    11.00000    0.02918    0.06480 =
         0.07256   -0.02413   -0.00650   -0.00476
C00Z  1    0.931718    0.162789    0.961007    11.00000    0.04462    0.07671 =
         0.06295    0.02101    0.00129    0.00934
O010  4    0.314600    0.561575    0.524448    11.00000    0.12798    0.09199 =
         0.13025    0.01212    0.06423   -0.00666
C011  1    0.583576    0.615995    0.808467    11.00000    0.03954    0.06379 =
         0.06991    0.01318    0.00095    0.01247
C012  1    0.744789    0.455620    0.812979    11.00000    0.04017    0.14764 =
         0.06738    0.02984    0.01214    0.02778
C013  1    0.726957    0.377507    0.967671    11.00000    0.06510    0.05472 =
         0.02420   -0.00316    0.00134   -0.00535
C014  1    0.422026    0.454164    0.520183    11.00000    0.04710    0.14752 =
         0.05018   -0.02124   -0.00072   -0.03747
C015  1    0.695536    0.453211    0.912560    11.00000    0.04895    0.07705 =
         0.03557    0.00205   -0.00058    0.00106
C016  1    0.637814    0.542147    0.754486    11.00000    0.06008    0.05668 =
         0.03799    0.00984   -0.00076    0.00314
O017  4    0.481324    0.434612    0.857747    11.00000    0.11685    0.10259 =
         0.12993   -0.01204    0.06156    0.00231
N6    3    0.466205    0.499484    0.872637    11.00000    0.06779    0.05458 =
         0.07215    0.00098    0.01629   -0.00865
C01A  1    0.851090    0.371279    0.870557    11.00000    0.03229    0.08244 =
         0.04561    0.01459    0.00264    0.01040
C01B  1    0.481754    0.625216    0.796182    11.00000    0.02609    0.07290 =
         0.05064    0.00971    0.00117    0.00504
C01C  1    0.280097    0.337925    0.441461    11.00000    0.04931    0.06420 =
         0.05656   -0.01709    0.00224   -0.00625
O01D  4    0.851738    0.563662    0.808542    11.00000    0.10728    0.10126 =
         0.11898   -0.00959    0.05162    0.00147
C01F  1    0.528480    0.543512    0.579114    11.00000    0.05426    0.06189 =
         0.04848   -0.00211    0.00321    0.00464
C01G  1    0.446792    0.656565    0.774680    11.00000    0.03501    0.06571 =
         0.05616    0.01427   -0.00371    0.00444
C01H  1    0.886925    0.339233    0.891984    11.00000    0.03126    0.06998 =
         0.05643    0.01493   -0.00749    0.01307
C01I  1    0.589186    0.543680    0.854151    11.00000    0.03995    0.16582 =
         0.05016    0.02892   -0.00262    0.02863
C01J  1    0.606470    0.618369    0.698884    11.00000    0.05580    0.07567 =
         0.02524    0.00726   -0.00543   -0.00696
C01K  1    0.560259    0.618365    0.634262    11.00000    0.07290    0.07248 =
         0.01776   -0.00608   -0.00238    0.01015
O01L  4    0.863692    0.401262    0.796762    11.00000    0.15645    0.06935 =
         0.12792    0.00339    0.07454   -0.00323
O01M  4    0.302765    0.398932    0.536176    11.00000    0.14237    0.07466 =
         0.13020   -0.00748    0.05716    0.00232
C01N  1    0.315267    0.371723    0.463139    11.00000    0.04772    0.08022 =
         0.03518   -0.01119    0.00270   -0.01989
C01O  1    0.780692    0.421213    0.823579    11.00000    0.03746    0.16828 =
         0.07322    0.03507    0.01170    0.03214
C01P  1    0.888110    0.274853    0.917317    11.00000    0.02948    0.06694 =
         0.06780    0.01914   -0.00333    0.01640
O01Q  4    0.469238    0.598399    0.869837    11.00000    0.13979    0.08108 =
         0.12171    0.00963    0.05634   -0.00601
C01R  1    0.737968    0.285100    0.983638    11.00000    0.08022    0.05544 =
         0.04571    0.00045   -0.00611   -0.00984
C01S  1    0.571121    0.710769    0.650652    11.00000    0.04858    0.07930 =
         0.03132   -0.00230   -0.01446   -0.00440
C01T  1    0.595460    0.712033    0.683315    11.00000    0.05692    0.07012 =
         0.03142   -0.00245   -0.00473   -0.00194
O01U  4    0.885314    0.536620    0.774730    11.00000    0.12091    0.10962 =
         0.11902    0.00861    0.06805    0.00344
N21   3    0.867183    0.501068    0.793515    11.00000    0.06090    0.05593 =
         0.08235   -0.01001    0.02291    0.00621
O01V  4    0.447421    0.462148    0.891308    11.00000    0.11887    0.09884 =
         0.12363    0.00944    0.06601    0.00705
C01W  1    0.376278    0.703077    0.726961    11.00000    0.02735    0.12551 =
         0.14793    0.08147   -0.01708   -0.00706
C01X  1    0.386434    0.420478    0.509310    11.00000    0.04509    0.15485 =
         0.07557   -0.04184   -0.00288   -0.01804
C01Y  1    0.515304    0.718525    0.762694    11.00000    0.03405    0.10551 =
         0.10408    0.04524    0.02121    0.02460
C01Z  1    0.349570    0.763076    0.706650    11.00000    0.04376    0.07591 =
         0.11857    0.04331   -0.03527   -0.00292
C020  1    0.479372    0.758659    0.742554    11.00000    0.04046    0.09174 =
         0.07300    0.04929    0.00461    0.02091
C021  1    0.666772    0.314118    0.889638    11.00000    0.08857    0.10313 =
         0.05232    0.02298   -0.03463   -0.03614
C022  1    0.819082    0.276566    0.904254    11.00000    0.04051    0.10960 =
         0.09246    0.03824    0.00036    0.01841
O023  4    0.281233    0.536020    0.558029    11.00000    0.13088    0.10454 =
         0.12932   -0.00718    0.06735    0.00008
N5    3    0.299645    0.497038    0.539338    11.00000    0.07325    0.06606 =
         0.06550   -0.00399    0.01840    0.00666
C024  1    0.553221    0.576576    0.843727    11.00000    0.05150    0.17908 =
         0.05752    0.04286    0.00632    0.04356
C025  1    0.666476    0.680874    0.777141    11.00000    0.10105    0.08485 =
         0.05376    0.01220   -0.02678   -0.03861
C026  1    0.982886    0.233507    0.960073    11.00000    0.05311    0.07976 =
         0.11272    0.02958   -0.01978   -0.01504
C027  1    0.957172    0.291900    0.939305    11.00000    0.04382    0.10704 =
         0.13835    0.07377   -0.01647   -0.00226
C028  1    0.313312    0.238712    0.409197    11.00000    0.03909    0.11256 =
         0.06286   -0.04408    0.01334   -0.01839
C029  1    0.183511    0.229022    0.372816    11.00000    0.05356    0.07376 =
         0.11168   -0.05340   -0.01936    0.00340
C02A  1    0.853716    0.236723    0.923711    11.00000    0.03960    0.13295 =
         0.06834    0.04552    0.01504    0.02238
C02B  1    0.500219    0.682403    0.556513    11.00000    0.10798    0.08591 =
         0.03848   -0.00881   -0.01926    0.03965
C02C  1    0.348314    0.277078    0.428956    11.00000    0.03243    0.13138 =
         0.06016   -0.04258    0.00781   -0.03621
C02F  1    0.209333    0.290010    0.393574    11.00000    0.04637    0.08977 =
         0.13572   -0.04974   -0.01888    0.01232
C02G  1    0.739032    0.479681    0.983753    11.00000    0.12347    0.04657 =
         0.04527    0.00877   -0.03016    0.00268
C02H  1    0.516315    0.712234    0.587028    11.00000    0.15517    0.07297 =
         0.04325   -0.01119   -0.02287    0.04343
C02J  1    0.650146    0.710171    0.746028    11.00000    0.12911    0.08101 =
         0.06108    0.02464   -0.03989   -0.05303
C02K  1    0.572613    0.515131    0.650335    11.00000    0.12766    0.07503 =
         0.03570   -0.00187   -0.02067    0.00589
C02L  1    0.682714    0.284609    0.920931    11.00000    0.15710    0.08268 =
         0.05224    0.02032   -0.04690   -0.04152
C02M  1    0.594612    0.517593    0.683803    11.00000    0.11876    0.07003 =
         0.03396    0.00888   -0.01785    0.00455
HKLF 4




REM  Er-1545Cd_autored_a.res in I2/a
REM wR2 = 0.4437, GooF = S = 1.053, Restrained GooF = 1.053 for all data
REM R1 = 0.0997 for 4594 Fo > 4sig(Fo) and 0.2000 for all 17754 data
REM 894 parameters refined using 0 restraints

END

WGHT      0.2000      0.0000

REM Highest difference peak  2.175,  deepest hole -0.932,  1-sigma level  0.208
Q1    1   0.5412  0.5022  0.7342  11.00000  0.05    1.64
Q2    1   0.7916  0.4972  0.9324  11.00000  0.05    1.62
Q3    1   0.3747  0.4977  0.4004  11.00000  0.05    1.55
Q4    1   0.7591  0.2390  0.7563  11.00000  0.05    1.46
Q5    1   0.5728  0.7576  0.9084  11.00000  0.05    1.45
Q6    1   0.4097  0.2396  0.5786  11.00000  0.05    1.43
Q7    1   0.7420  0.7541  0.7379  11.00000  0.05    1.43
Q8    1   0.5901  0.2479  0.9260  11.00000  0.05    1.43
Q9    1   0.4220  0.7450  0.5895  11.00000  0.05    1.40
Q10   1   0.3582  0.1008  0.4166  11.00000  0.05    1.39
Q11   1   0.4262  0.7513  0.5972  11.00000  0.05    1.38
Q12   1   0.8084  0.0928  0.9173  11.00000  0.05    1.37
Q13   1   0.7500  0.7500  0.7500  10.50000  0.05    1.35
Q14   1   0.3504  0.2718  0.3743  11.00000  0.05    1.30
Q15   1   0.5253  0.8980  0.7508  11.00000  0.05    1.29
Q16   1   0.5497  0.3730  0.6759  11.00000  0.05    1.29
Q17   1   0.7835  0.6274  0.9910  11.00000  0.05    1.26
Q18   1   0.5181  0.7297  0.7082  11.00000  0.05    1.23
Q19   1   0.8169  0.2747  0.9598  11.00000  0.05    1.22
Q20   1   0.4005  0.3001  0.5917  11.00000  0.05    1.22
;
_shelx_res_checksum   72540

_shelx_hkl_file
;
   0   0  -8    0.02    0.11
   0   0   8   -0.11    0.11
   0   0 -10    0.08    0.16
   0   0  10    0.08    0.12
   0   0  12  100.33    2.89
   0   0 -12  106.67    2.92
   0   0 -14    0.18    0.27
   0   0  14    0.12    0.23
   0   0 -16   -0.08    0.24
   0   0  16    0.17    0.21
   0   0 -18  121.27    3.83
   0   0  18  122.00    3.87
   0   0 -20   -0.14    0.29
   0   0  20   -0.20    0.22
   0   0 -22   -0.47    0.38
   0   0  22   -0.37    0.26
   0   0 -24  294.35    6.76
   0   0  24  297.69    6.94
   0   0 -26    0.49    0.35
   0   0 -28    0.18    0.29
   0   0 -30  212.40    6.31
   0   0 -32    0.88    0.47
   0   0 -34    0.35    0.21
   0   0 -36  295.60    7.36
   0   0 -38    0.73    0.30
   0  -1  -5    0.23    0.14
   0   1   5   -0.06    0.13
   0   1   7    0.22    0.25
   0  -1  -7   -0.48    0.32
   0  -1  -9    1.35    0.36
   0   1   9    2.22    0.52
   0  -1  11    0.15    0.16
   0   1  11    0.17    0.28
   0  -1 -11   -0.01    0.17
   0  -1  13    0.06    0.11
   0   1  13    0.25    0.35
   0  -1 -13    0.03    0.29
   0   1  15  189.41    5.49
   0  -1 -15  188.38    5.31
   0  -1  15  184.44    3.64
   0   1 -17   -0.05    0.14
   0   1  17   -0.25    0.40
   0  -1 -17    0.25    0.20
   0  -1  17    0.29    0.21
   0   1 -19    0.81    0.40
   0   1  19   -0.20    0.24
   0  -1 -19   -0.13    0.26
   0  -1  19   -0.19    0.15
   0   1 -21 1068.54   10.44
   0  -1  21 1047.45   10.25
   0  -1 -21 1084.17   14.20
   0  -1 -23   -0.45    0.60
   0  -1  23   -0.02    0.31
   0  -1 -25    0.04    0.44
   0  -1  25   -0.35    0.33
   0  -1  27  199.39    5.00
   0  -1 -27  204.88    6.70
   0  -1 -29    0.18    0.29
   0  -1 -31    0.00    0.18
   0  -1 -33  134.03    5.79
   0  -1 -35    0.30    0.38
   0  -1 -37   -0.01    0.40
   0  -1 -39  203.16    7.31
   0  -1 -41    0.99    0.50
   0  -2  -6 9999.00   39.89
   0  -2  -8    0.07    0.29
   0  -2 -10   -0.29    0.45
   0  -2 -12  337.58    8.07
   0  -2  14   -0.29    0.23
   0  -2 -14   -0.62    0.59
   0  -2  16   -0.15    0.19
   0  -2 -16    0.16    0.26
   0  -2  18  312.63    5.32
   0  -2 -18  318.63    8.45
   0  -2  20    0.09    0.09
   0  -2 -20   -0.56    0.56
   0  -2 -22   -0.73    0.61
   0  -2  22   -0.11    0.18
   0  -2  24  146.33    3.71
   0  -2 -24  149.77    6.22
   0  -2  26    0.04    0.23
   0  -2 -26   -0.70    0.70
   0  -2  28   -0.15    0.26
   0  -2 -28   -0.75    0.74
   0  -2  30  197.77    3.90
   0  -2 -30  199.11    7.66
   0  -2 -32    0.12    0.29
   0  -2 -34    0.42    0.33
   0  -2 -36  122.06    6.31
   0  -2 -38    0.35    0.72
   0  -2 -40   -0.55    0.61
   0  -2 -42   94.12    5.58
   0  -3  -7    0.71    0.97
   0  -3  -9 2234.09   23.19
   0  -3 -11   -0.70    0.73
   0  -3 -13    0.00    0.68
   0  -3 -15 1884.87   22.90
   0  -3 -17   -0.41    0.65
   0  -3 -19   -1.41    1.16
   0  -3  19   -0.43    0.33
   0  -3  21  328.97    6.31
   0  -3 -21  325.87    9.88
   0  -3  23    0.02    0.11
   0  -3 -23   -1.05    0.90
   0  -3  25   -0.07    0.25
   0  -3 -25   -0.38    0.58
   0  -3 -27  645.52   14.71
   0  -3  27  633.06    7.61
   0  -3  29   -0.26    0.20
   0  -3 -29   -0.53    0.81
   0  -3 -31    0.27    0.68
   0  -3 -33  182.38    8.23
   0  -3 -35   -0.19    0.57
   0  -3 -37   -0.62    0.87
   0  -3 -39   98.28    6.32
   0  -3 -41   -0.29    0.38
   0  -3 -43   -0.65    0.86
   0  -4  -6    6.22    1.25
   0  -4  -8    0.10    0.42
   0  -4 -10   -0.54    0.64
   0  -4 -12 1796.36   24.00
   0  -4 -14   -0.39    0.56
   0  -4 -16    0.19    0.63
   0  -4 -18  247.94    9.46
   0  -4 -20   -1.69    1.08
   0  -4  22   -0.03    0.26
   0  -4 -22   -0.58    0.90
   0  -4  24  442.33    8.36
   0  -4 -24  464.68   13.30
   0  -4  26   -0.61    0.39
   0  -4 -26    0.05    0.37
   0  -4  28    0.05    0.26
   0  -4 -28    0.50    0.68
   0  -4  30   17.21    1.29
   0  -4 -30   17.31    2.65
   0  -4 -32   -1.41    0.96
   0  -4 -34   -0.96    1.04
   0  -4 -36   33.18    3.87
   0  -4 -38   -0.15    0.41
   0  -4 -40   -0.52    0.45
   0  -4 -42   36.37    4.22
   0  -4 -44    0.56    0.69
   0  -5  -7   -0.45    1.01
   0  -5  -9    8.72    1.80
   0  -5 -11   -0.42    0.78
   0  -5 -13    0.18    0.78
   0  -5 -15  195.84    8.91
   0  -5 -17   -0.43    0.86
   0  -5 -19   -0.81    1.16
   0  -5 -21  467.82   14.32
   0  -5 -23   -0.72    0.49
   0  -5  25   -0.51    0.52
   0  -5 -25   -2.58    1.44
   0  -5  27  175.37    5.83
   0  -5 -27  180.41    9.23
   0  -5  29   -0.34    0.21
   0  -5 -29   -0.41    0.87
   0  -5  31    0.41    0.32
   0  -5 -31   -1.09    1.10
   0  -5  33  157.03    3.99
   0  -5 -33  161.76    9.10
   0  -5  33  154.88    3.89
   0  -5 -35   -1.28    1.34
   0  -5 -37   -0.42    0.64
   0  -5 -39   43.90    4.95
   0  -5 -41   -1.14    1.14
   0  -5 -43   -1.89    1.28
   0  -6  -6  507.84   14.65
   0  -6  -8   -0.62    0.67
   0  -6 -10    4.92    2.59
   0  -6 -12  100.07    6.87
   0  -6 -14   -0.34    0.55
   0  -6 -16    0.24    0.97
   0  -6 -18  806.84   19.98
   0  -6 -20   -0.61    0.69
   0  -6 -22    0.45    0.46
   0  -6 -24  158.12    9.18
   0  -6 -26   -1.83    1.43
   0  -6  28    0.17    0.24
   0  -6 -28   -1.07    1.10
   0  -6  30   94.11    4.59
   0  -6 -30   95.53    7.34
   0  -6  32    0.38    0.44
   0  -6  32   -0.79    0.57
   0  -6 -32    0.50    0.45
   0  -6  34   -0.28    0.18
   0  -6  34    0.17    0.17
   0  -6 -36   62.46    6.15
   0  -6 -38   -0.40    0.48
   0  -6 -40   -0.83    0.63
   0  -6 -42   33.16    4.63
   0  -6 -44   -1.46    1.50
   0  -7  -3  302.31   12.25
   0  -7  -5    0.94    1.34
   0  -7  -7   -0.02    0.63
   0  -7  -9   65.14    5.78
   0  -7 -11    0.97    1.15
   0  -7 -13    0.99    1.46
   0  -7 -15   52.70    5.30
   0  -7 -17   -0.70    0.70
   0  -7 -19    0.51    0.58
   0  -7 -21   25.52    3.75
   0  -7 -23   -1.25    1.03
   0  -7 -25   -0.99    0.94
   0  -7 -27   73.44    6.75
   0  -7  29    0.50    0.53
   0  -7 -29   -0.16    0.71
   0  -7  31   -0.13    0.27
   0  -7  31   -0.22    0.53
   0  -7 -31    0.07    0.93
   0  -7 -33   68.04    6.69
   0  -7  33   64.22    3.97
   0  -7 -35    0.45    0.44
   0  -7 -37   -0.53    1.25
   0  -7 -39   23.18    3.99
   0  -7 -41   -0.06    0.89
   0  -7 -43   -1.29    1.45
   0  -7 -45   18.03    3.69
   0  -8   0  417.86   14.97
   0  -8  -2    1.83    1.43
   0  -8  -4   -0.49    0.82
   0  -8  -6   92.56    7.24
   0  -8  -8   -0.24    1.00
   0  -8 -10    0.89    0.60
   0  -8 -12  138.16    9.09
   0  -8 -14   -0.26    0.76
   0  -8 -16   -1.34    1.33
   0  -8 -18   20.22    3.55
   0  -8 -20    0.86    0.84
   0  -8 -22   -0.38    1.38
   0  -8 -24   38.38    5.01
   0  -8 -26   -3.09    2.05
   0  -8  28    0.46    0.74
   0  -8 -28    1.28    0.77
   0  -8 -30  180.76   11.37
   0  -8  30  179.62    8.12
   0  -8  32   -0.14    0.43
   0  -8 -32   -1.50    1.44
   0  -8 -34   -1.68    0.96
   0  -8 -36    3.37    1.37
   0  -8 -38   -0.12    0.74
   0  -8 -40   -2.04    1.39
   0  -8 -42    4.77    1.57
   0  -8 -44   -1.22    1.64
   0  -9  -1   -3.97    1.58
   0  -9   1   -0.72    0.89
   0  -9  -3   78.09    7.18
   0  -9   3   87.93    7.28
   0  -9  -5   -1.57    1.11
   0  -9   5    0.19    0.58
   0  -9  -7   -1.23    1.38
   0  -9  -9  289.41   13.99
   0  -9 -11   -1.45    1.47
   0  -9 -13   -0.78    1.42
   0  -9 -15   53.66    6.20
   0  -9 -17    0.49    1.11
   0  -9 -19   -0.64    1.06
   0  -9 -21  117.93    9.41
   0  -9 -23   -2.75    2.28
   0  -9  23   -2.26    1.78
   0  -9  25   -0.58    1.09
   0  -9 -25   -1.29    1.08
   0  -9 -27  165.10   11.32
   0  -9  27  163.72    8.83
   0  -9  29   -1.81    1.25
   0  -9 -29   -2.43    1.65
   0  -9  31    1.16    0.79
   0  -9 -31   -0.47    0.60
   0  -9 -33   38.27    5.71
   0  -9 -35    0.88    1.12
   0  -9 -37    0.64    0.78
   0  -9 -39   20.28    4.24
   0  -9 -41   -0.29    1.32
   0  -9 -43   -0.23    0.95
   0  -9 -45   44.47    6.38
   0 -10   0   28.63    4.39
   0 -10  -2   -0.08    0.67
   0 -10   2   -0.89    1.00
   0 -10   4    0.14    1.00
   0 -10  -4    0.93    0.97
   0 -10   6  130.95    9.49
   0 -10  -6  134.53    9.91
   0 -10  -8   -0.19    0.68
   0 -10   8    0.79    1.03
   0 -10  10    0.50    1.20
   0 -10 -10   -0.39    1.27
   0 -10  12   66.15    6.53
   0 -10 -12   57.93    6.69
   0 -10  14    0.96    1.20
   0 -10 -14    0.15    0.79
   0 -10 -16    0.86    1.28
   0 -10  16    0.15    1.01
   0 -10 -18   37.68    5.46
   0 -10  18   44.38    5.25
   0 -10  20   -0.07    0.50
   0 -10 -20   -1.53    1.63
   0 -10 -22   -0.96    1.44
   0 -10  22   -0.50    1.28
   0 -10 -24   67.52    7.59
   0 -10  24   64.94    6.06
   0 -10 -26    0.11    1.27
   0 -10  26    0.42    0.52
   0 -10  28    0.27    0.46
   0 -10 -28   -2.68    1.49
   0 -10  30   18.85    3.04
   0 -10 -30   21.47    4.32
   0 -10 -32    0.29    1.15
   0 -10 -34    0.96    1.06
   0 -10 -36   13.12    3.46
   0 -10 -38    0.23    1.02
   0 -10 -40    0.52    0.81
   0 -10 -42   21.31    4.45
   0 -10 -44    0.44    0.63
   0 -11  -1   -0.70    1.44
   0 -11   1   -0.26    1.32
   0 -11   3   59.52    6.87
   0 -11  -3   59.90    6.86
   0 -11  -5   -0.32    0.77
   0 -11   5   -1.57    1.05
   0 -11   7    0.48    0.95
   0 -11  -7    0.79    0.53
   0 -11  -9   46.74    6.16
   0 -11   9   45.21    5.74
   0 -11  11   -0.58    1.03
   0 -11 -11   -0.38    1.09
   0 -11 -13    0.20    1.18
   0 -11  13   -0.61    1.12
   0 -11 -15   34.95    5.52
   0 -11  15   43.09    5.52
   0 -11  17   -1.49    1.23
   0 -11 -17   -1.06    1.90
   0 -11 -19    1.02    1.28
   0 -11  19    0.53    0.42
   0 -11  21   77.42    7.29
   0 -11 -21   79.01    8.57
   0 -11 -23    1.10    1.44
   0 -11  23   -0.65    0.87
   0 -11 -25    0.66    0.80
   0 -11  25    1.39    1.06
   0 -11 -27   23.59    4.85
   0 -11  27   26.32    4.06
   0 -11  29    0.57    0.39
   0 -11 -29    0.85    1.49
   0 -11 -31    2.76    1.86
   0 -11 -33   20.86    4.71
   0 -11 -35   -0.05    0.78
   0 -11 -37    0.89    0.74
   0 -11 -39   15.79    4.16
   0 -11 -41   -1.09    0.86
   0 -12   0   71.83    7.97
   0 -12  -2   -1.98    1.76
   0 -12   2    1.17    1.60
   0 -12   4   -1.13    1.34
   0 -12  -4   -1.27    1.49
   0 -12  -6   81.40    8.53
   0 -12   6   72.07    7.80
   0 -12  -8   -1.49    1.50
   0 -12   8   -2.01    1.58
   0 -12  10   -0.89    1.55
   0 -12 -10   -2.58    2.07
   0 -12 -12   21.18    4.66
   0 -12  12   13.17    3.27
   0 -12  14   -0.65    1.29
   0 -12 -14   -5.36    2.28
   0 -12  16   -2.17    1.42
   0 -12 -16    0.70    1.99
   0 -12  18   85.90    8.21
   0 -12 -18   94.62    9.69
   0 -12 -20   -0.07    1.15
   0 -12  20    0.25    0.42
   0 -12  22    0.76    0.57
   0 -12 -22    0.72    1.13
   0 -12 -24   54.21    7.54
   0 -12  24   53.95    6.31
   0 -12 -26    0.80    0.84
   0 -12  26    0.44    1.26
   0 -12 -28    1.52    1.65
   0 -12 -30   32.74    5.97
   0 -12 -32    0.98    1.38
   0 -12 -34   -0.43    1.25
   0 -13   1    0.80    1.26
   0 -13  -1    1.09    1.06
   0 -13   3   50.74    6.92
   0 -13  -3   48.30    6.90
   0 -13  -5    1.71    1.89
   0 -13   5   -1.09    1.02
   0 -13   7   -2.05    1.75
   0 -13  -7   -1.73    1.50
   0 -13   9    4.46    1.93
   0 -13  -9    4.17    1.91
   0 -13  11   -3.01    1.85
   0 -13 -11    0.80    0.99
   0 -13  13   -1.62    1.41
   0 -13 -13    0.85    1.47
   0 -13  15   27.31    4.93
   0 -13 -15   25.77    5.31
   0 -13  17   -0.46    0.68
   0 -13 -17    1.46    1.43
   0 -13  19   -0.28    1.07
   0 -13 -19   -1.43    1.98
   0 -13  21   31.58    5.18
   0 -13 -21   32.21    5.93
   0 -13  23    1.49    1.43
   0 -13 -23   -3.19    1.31
   0 -13 -25    0.21    0.86
   0 -13  25   -0.07    0.47
   0 -13 -27   18.22    4.68
   0 -14   0   26.87    5.34
   0 -14  -2   -0.85    1.43
   0 -14   2   -2.11    1.36
   0 -14   4    0.69    1.71
   0 -14  -4   -2.53    2.10
   0 -14   6   24.23    4.99
   0 -14  -6   26.06    5.41
   0 -14   8   -1.77    1.39
   0 -14  -8   -0.11    1.06
   0 -14 -10   -1.32    1.09
   0 -14  10    3.19    1.85
   0 -14 -12   22.04    4.92
   0 -14  12   14.11    3.80
   0 -14 -14   -0.58    1.04
   0 -14  14    0.71    0.51
   0 -14  16   -2.47    1.80
   0 -14 -16   -1.14    1.14
   0 -14 -18    9.51    3.32
   0 -14  18   10.26    3.09
   0 -14  20   -0.09    0.89
   0 -14  22   -0.91    1.37
   0 -14  24   12.98    3.47
   0 -15  -1   -4.67    2.45
   0 -15   1   -2.58    2.09
   0 -15  -3    9.52    3.55
   0 -15   3   15.23    4.38
   0 -15  -5   -2.31    1.64
   0 -15   5   -1.26    1.53
   0 -15   7   -0.10    0.93
   0 -15   9   31.64    5.91
   0 -15  11   -0.72    0.73
   0 -15  13   -1.76    1.60
   0 -15  15    9.40    3.15
   0 -15  17   -0.07    1.00
   0 -15  19    0.70    1.41
   0 -15  21   13.88    3.95
   1   0 -37   -0.35    0.17
   1   0 -35    0.20    0.20
   1   0 -33   -0.31    0.16
   1   0 -31    0.54    0.39
   1   0 -29    0.42    0.38
   1   0 -27    0.65    0.51
   1   0 -25    0.27    0.35
   1   0 -23    0.04    0.34
   1   0 -21    0.23    0.34
   1   0 -19   -0.03    0.12
  -1   0  19   -0.23    0.29
   1   0 -17    0.34    0.16
  -1   0  17    0.10    0.20
   1   0 -15    0.16    0.14
  -1   0  15    0.14    0.16
  -1   0  13    0.07    0.18
   1   0 -13   -0.07    0.10
  -1   0  11    0.33    0.20
   1   0 -11    0.40    0.18
  -1   0  -7    0.71    0.27
   1   0   7    0.60    0.22
  -1   0  -9   -0.06    0.18
   1   0   9    0.02    0.11
  -1   0 -11   -0.08    0.21
   1   0  11   -0.13    0.12
  -1   0 -13    0.14    0.17
   1   0  13    0.30    0.13
  -1   0 -15    0.21    0.31
   1   0  15    0.31    0.32
  -1   0 -17    0.26    0.35
   1   0  17    0.14    0.24
  -1   0 -19    0.53    0.43
   1   0  19    0.54    0.33
  -1   0 -21    0.72    0.79
   1   0  21   -0.04    0.20
  -1   0 -23    1.27    0.78
   1   0  23    0.04    0.24
  -1   0 -25    0.53    0.30
   1   0  25    0.03    0.24
   1   0  27   -0.22    0.36
  -1   0 -27    0.84    0.50
   1   0  29    0.03    0.40
  -1   0 -29   -0.04    0.40
  -1   0 -31    0.13    0.34
  -1   0 -33    0.26    0.36
  -1   0 -35   -0.39    0.36
  -1   0 -37    0.41    0.37
  -1   0 -39    0.75    0.68
   1  -1 -42    0.63    0.51
   1  -1 -40    0.18    0.55
   1  -1 -38    2.87    0.70
   1  -1 -36    0.06    0.50
   1  -1 -34    0.15    0.53
   1  -1 -32   39.44    2.99
   1  -1 -30    0.03    0.37
   1  -1 -28    0.33    0.43
   1  -1 -26    6.94    1.16
   1  -1 -24   -0.67    0.55
  -1  -1  22    0.00    0.16
   1  -1 -22   -0.28    0.16
  -1  -1  20    7.13    0.70
   1  -1 -20    5.74    0.99
  -1  -1  18    0.02    0.10
   1  -1 -18   -0.05    0.16
   1  -1 -16   -0.23    0.18
   1  -1 -14  103.54    3.68
   1  -1 -12   -0.57    0.43
   1  -1 -10    0.54    0.38
   1  -1  -8 1121.50   10.71
   1   1   2   -0.09    0.13
  -1  -1  -4    1.97    0.44
   1   1   4    1.67    0.43
   1   1   6   -0.12    0.20
  -1  -1  -6   -0.30    0.32
   1  -1   8   -0.11    0.11
   1   1   8    0.20    0.29
  -1  -1  -8   -0.05    0.25
   1  -1  10  245.22    4.32
  -1  -1 -10  249.32    5.68
   1   1  10  247.07    5.73
   1  -1  12   -0.28    0.23
   1   1  12   -0.26    0.22
  -1  -1 -12    0.14    0.50
   1  -1  14   -0.03    0.16
  -1   1 -14    0.49    0.38
   1   1  14    0.23    0.24
  -1  -1 -14   -0.23    0.36
  -1   1 -16    4.11    0.64
   1   1  16    2.86    0.69
  -1  -1 -16    3.96    0.87
   1  -1  16    3.23    0.60
  -1   1 -18    0.38    0.41
   1   1  18   -0.08    0.35
  -1  -1 -18    0.10    0.21
   1  -1  18    0.09    0.19
  -1   1 -20    0.02    0.35
   1   1  20   -0.56    0.54
   1  -1  20   -0.45    0.38
  -1  -1 -20    0.87    0.70
  -1   1 -22   78.75    3.25
   1   1  22   75.00    4.06
   1  -1  22   73.99    3.08
  -1  -1 -22   74.67    3.92
  -1  -1 -24   -0.40    0.42
   1  -1  24    0.33    0.35
   1   1  24   -0.42    0.35
  -1   1 -24   -0.17    0.15
  -1  -1 -26   -0.10    0.40
   1  -1  26    0.15    0.18
   1   1  26   -0.15    0.41
  -1  -1 -28   22.86    2.32
   1  -1  28   25.28    1.95
  -1  -1 -30    0.41    0.71
   1  -1  30   -0.02    0.14
  -1  -1 -32    0.53    0.58
  -1  -1 -34    0.40    0.23
  -1  -1 -36    1.23    0.71
  -1  -1 -38   -0.07    0.46
  -1  -1 -40    9.11    1.57
  -1  -1 -42    0.38    0.63
   1  -2 -43    0.30    0.51
   1  -2 -41   26.22    2.88
   1  -2 -39    1.20    0.71
   1  -2 -37    0.79    0.67
   1  -2 -35   -0.23    0.69
   1  -2 -33   -0.20    0.48
   1  -2 -31    0.45    0.51
   1  -2 -29   10.87    1.65
   1  -2 -27   -0.45    0.61
   1  -2 -25   -0.78    0.73
  -1  -2  23   37.22    1.45
   1  -2 -23   39.57    3.10
   1  -2 -21   -0.56    0.45
  -1  -2  21   -0.03    0.16
  -1  -2  19   -0.22    0.15
   1  -2 -19   -0.41    0.48
  -1  -2  17  105.90    2.66
   1  -2 -17  103.55    4.71
  -1  -2  15    0.01    0.10
   1  -2 -15    0.10    0.30
   1  -2 -13    0.21    0.27
   1  -2 -11   51.11    3.09
   1  -2  -9    1.29    0.95
  -1  -2  -1  582.64    8.97
  -1  -2  -3    0.16    0.36
  -1  -2  -5    1.95    0.90
   1   2   5    1.61    0.79
   1   2   7    2.12    0.83
  -1  -2  -7    1.37    0.32
   1   2   9    1.14    0.82
  -1  -2  -9    0.01    0.54
   1   2  11    0.24    0.36
  -1  -2 -11   -0.95    0.75
   1  -2  13  248.05    5.18
  -1  -2 -13  242.83    6.95
   1   2  13  246.67    7.27
   1  -2  15    0.43    0.22
   1   2  15    1.32    0.77
  -1  -2 -15    1.21    0.75
   1  -2  17   -0.08    0.11
   1   2  17    0.17    0.45
  -1  -2 -17    0.15    0.52
   1  -2  19   92.71    3.26
   1   2  19   94.89    4.93
  -1  -2 -19   97.20    4.84
   1  -2  21    0.18    0.22
  -1  -2 -21   -0.46    0.61
   1  -2  23   -0.38    0.32
  -1  -2 -23   -0.23    0.42
   1  -2  25    8.81    1.03
  -1  -2 -25    9.85    1.58
   1  -2  27   -0.90    0.53
  -1  -2 -27    0.74    0.62
  -1  -2 -29    0.33    0.52
   1  -2  29    0.23    0.32
  -1  -2 -31    7.96    1.57
   1  -2  31    9.78    1.06
  -1  -2 -33    0.47    0.43
  -1  -2 -35    0.47    0.55
  -1  -2 -37   36.74    3.61
  -1  -2 -39    0.37    0.84
  -1  -2 -41   -0.14    0.49
  -1  -2 -43    0.94    0.82
   1  -3 -42    0.14    0.56
   1  -3 -40   -0.15    0.66
   1  -3 -38    0.42    0.71
   1  -3 -36    1.14    0.58
   1  -3 -34   -0.17    0.68
   1  -3 -32    6.86    1.58
   1  -3 -30   -0.35    0.35
   1  -3 -28    1.62    1.13
  -1  -3  26   10.18    0.81
   1  -3 -26   10.19    1.72
  -1  -3  24   -0.01    0.17
   1  -3 -24    0.64    0.63
  -1  -3  22    0.13    0.20
   1  -3 -22   -0.26    0.72
  -1  -3  20   -0.28    0.28
   1  -3 -20   -0.36    0.91
  -1  -3  18    0.46    0.41
   1  -3 -18   -0.03    0.61
   1  -3 -16    1.78    1.17
   1  -3 -14   31.35    2.81
   1  -3 -12    1.32    1.01
   1  -3 -10    0.40    0.70
  -1  -3  -2    1.82    0.94
  -1  -3  -4 3593.33   28.03
  -1  -3  -6    0.34    0.74
  -1  -3  -8    1.29    1.14
  -1  -3 -10   -0.14    0.42
  -1  -3 -12    0.53    0.41
  -1  -3 -14    0.10    0.81
  -1  -3 -16  223.16    7.90
   1  -3  18   -0.04    0.34
  -1  -3 -18    0.54    0.66
   1  -3  20   -0.20    0.13
  -1  -3 -20    0.82    0.99
   1  -3  22   23.84    1.84
  -1  -3 -22   24.14    2.77
   1  -3  24    0.32    0.21
  -1  -3 -24    0.60    0.73
   1  -3  26    0.11    0.33
  -1  -3 -26    1.40    1.02
  -1  -3 -28    0.00    1.02
   1  -3  28    1.82    0.52
   1  -3  30    0.44    0.25
  -1  -3 -30   -0.41    0.71
   1  -3  32    0.54    0.29
  -1  -3 -32    1.09    1.04
  -1  -3 -34   21.00    2.84
  -1  -3 -36    0.18    0.66
  -1  -3 -38    0.94    0.80
  -1  -3 -40    2.30    1.09
  -1  -3 -42    0.56    0.61
   1  -4 -43   -0.55    0.52
   1  -4 -41    1.02    0.40
   1  -4 -39   -0.85    0.89
   1  -4 -37   -0.20    0.89
   1  -4 -35   15.06    2.49
   1  -4 -33    0.66    1.08
   1  -4 -31   -0.47    0.70
   1  -4 -29    1.23    0.63
  -1  -4  29    0.10    0.15
  -1  -4  27    0.62    0.45
   1  -4 -27    2.35    1.43
  -1  -4  25    0.40    0.30
   1  -4 -25    1.16    1.16
  -1  -4  23   73.45    3.24
   1  -4 -23   74.23    5.33
   1  -4 -21   -0.12    0.49
   1  -4 -19   -0.35    0.84
   1  -4 -17  275.03    9.73
   1  -4 -15   -0.40    0.44
   1  -4 -13    2.81    1.49
   1  -4 -11   -0.14    0.62
   1  -4  -9   -0.39    0.66
  -1  -4  -3    0.33    0.50
  -1  -4  -5    0.47    0.41
  -1  -4  -7  161.95    6.92
  -1  -4  -9    1.20    0.95
  -1  -4 -11    4.82    1.84
  -1  -4 -13   -1.61    1.04
  -1  -4 -15    0.64    0.99
  -1  -4 -17   -0.27    0.74
  -1  -4 -19   43.20    3.94
   1  -4  21    0.78    0.51
  -1  -4 -21    0.48    0.65
   1  -4  23    0.43    0.37
  -1  -4 -23    2.86    1.47
   1  -4  25   10.87    1.31
  -1  -4 -25   13.60    2.27
   1  -4  27    0.81    0.51
  -1  -4 -27    0.82    0.80
   1  -4  29    0.03    0.16
  -1  -4 -29   -0.16    0.41
  -1  -4 -31    0.07    0.59
   1  -4  31    0.47    0.20
   1  -4  33    0.74    0.31
  -1  -4 -33   -0.34    0.46
  -1  -4 -35   -0.58    0.99
  -1  -4 -37   -0.69    1.07
  -1  -4 -39   -0.49    0.74
  -1  -4 -41    0.70    0.60
  -1  -4 -43   17.57    3.01
   1  -5 -44    4.28    1.56
   1  -5 -42    0.58    0.57
   1  -5 -40    1.73    1.01
   1  -5 -38    0.37    0.71
   1  -5 -36   -2.14    1.35
   1  -5 -34    1.36    1.06
   1  -5 -32   24.72    3.51
  -1  -5  32   22.58    1.35
  -1  -5  32   22.84    1.37
  -1  -5  30   -0.49    0.17
  -1  -5  30   -0.50    0.37
   1  -5 -30   -0.27    0.53
  -1  -5  28    0.02    0.13
   1  -5 -28    1.50    1.25
  -1  -5  26    2.39    0.58
   1  -5 -26    3.02    1.13
   1  -5 -24    1.84    1.54
   1  -5 -22    2.27    1.45
   1  -5 -20    0.46    0.33
   1  -5 -18   -1.32    1.05
   1  -5 -16   -0.42    0.37
   1  -5 -14    0.57    0.47
   1  -5 -12    2.84    1.46
   1  -5 -10   -0.04    0.79
  -1  -5  -2   -1.21    1.25
  -1  -5  -4   43.23    3.83
  -1  -5  -6   -0.54    0.90
  -1  -5  -8   -0.20    0.47
  -1  -5 -10    7.33    1.65
  -1  -5 -12   -0.15    0.45
  -1  -5 -14    1.19    1.22
  -1  -5 -16   -0.20    0.53
  -1  -5 -18   -0.05    0.59
  -1  -5 -20    0.66    1.07
  -1  -5 -22   34.50    3.90
   1  -5  24    0.21    0.40
  -1  -5 -24    0.33    0.72
   1  -5  26    0.13    0.28
  -1  -5 -26    0.31    0.41
   1  -5  28    7.10    1.14
  -1  -5 -28    8.01    2.00
   1  -5  30   -0.73    0.54
  -1  -5 -30   -1.00    1.09
   1  -5  32    0.91    0.53
  -1  -5 -32    1.79    1.42
  -1  -5 -34   -0.75    1.39
   1  -5  34    1.18    0.37
  -1  -5 -36    0.82    0.50
  -1  -5 -38    1.87    1.07
  -1  -5 -40    5.27    1.71
  -1  -5 -42   -1.10    1.24
  -1  -5 -44    0.40    0.45
   1  -6 -43   -0.22    0.49
   1  -6 -41    5.84    1.80
   1  -6 -39   -0.39    0.43
   1  -6 -37   -0.56    0.99
   1  -6 -35    7.76    2.16
  -1  -6  33    0.75    0.41
  -1  -6  33    0.29    0.30
   1  -6 -33    1.00    0.88
  -1  -6  31   -0.06    0.20
  -1  -6  31    0.56    0.42
  -1  -6  29   10.66    1.48
  -1  -6  29   10.29    1.51
   1  -6 -29    8.50    2.17
  -1  -6  27    0.90    0.52
   1  -6 -27   -0.57    0.80
   1  -6 -25   -0.33    0.61
   1  -6 -23    0.21    0.42
   1  -6 -21   -0.14    0.32
   1  -6 -19    3.29    1.92
   1  -6 -17   -0.76    0.79
   1  -6 -15   -0.27    0.66
   1  -6 -13    1.47    1.58
   1  -6 -11 1029.72   21.55
   1  -6  -9    3.53    2.48
  -1  -6  -1  147.57    7.71
  -1  -6  -3   -0.86    1.03
  -1  -6  -5    1.34    0.85
  -1  -6  -7   -0.03    0.69
  -1  -6  -9   -0.91    1.10
  -1  -6 -11    1.20    1.35
  -1  -6 -13   61.10    5.30
  -1  -6 -15    0.09    0.52
  -1  -6 -17    7.14    2.66
  -1  -6 -19   -1.22    1.32
  -1  -6 -21   -1.19    1.04
  -1  -6 -23    0.11    0.77
  -1  -6 -25    0.31    0.74
   1  -6  27    0.17    0.17
  -1  -6 -27    0.91    0.99
   1  -6  29    0.48    0.39
  -1  -6 -29    0.95    0.91
   1  -6  31   27.36    2.50
  -1  -6 -31   29.48    4.09
   1  -6  33    0.50    0.39
  -1  -6 -33   -0.85    0.41
   1  -6  35   -0.04    0.31
  -1  -6 -35    0.40    0.84
  -1  -6 -37    5.97    1.86
  -1  -6 -39   -0.79    0.84
  -1  -6 -41    0.42    0.59
  -1  -6 -43   -0.62    0.78
   1  -7 -44   -0.28    1.40
   1  -7 -42   -0.35    0.61
   1  -7 -40   -1.38    1.16
   1  -7 -38    3.46    1.60
   1  -7 -36    1.02    0.94
  -1  -7  34    0.58    0.41
   1  -7 -34   -0.19    0.83
  -1  -7  32    2.13    0.65
  -1  -7  32    3.07    0.84
   1  -7 -32    5.02    1.93
  -1  -7  30   -0.87    0.51
  -1  -7  30    0.62    0.37
   1  -7 -30    0.47    0.81
   1  -7 -28   -0.97    1.28
  -1  -7  28   -0.57    0.59
   1  -7 -26   21.36    3.60
  -1  -7  26   22.14    2.67
   1  -7 -24   -0.48    0.60
   1  -7 -22   -0.75    0.75
   1  -7 -20   -1.27    1.14
   1  -7 -18   -1.45    1.09
   1  -7 -16   -1.19    0.61
   1  -7 -14  128.98    8.47
   1  -7 -12    3.64    1.89
   1  -7 -10    1.95    1.31
   1  -7  -8   12.07    2.53
  -1  -7   2   77.14    5.92
  -1  -7   0    0.68    1.28
  -1  -7  -2    2.35    1.47
  -1  -7  -4    0.64    0.60
  -1  -7  -6   -2.07    1.52
  -1  -7  -8   -0.10    0.56
  -1  -7 -10   15.66    2.95
  -1  -7 -12    1.72    1.37
  -1  -7 -14    0.05    0.58
  -1  -7 -16   39.44    4.68
  -1  -7 -18   -0.91    1.21
  -1  -7 -20   -0.16    0.57
  -1  -7 -22   -0.66    1.30
  -1  -7 -24   -0.17    1.08
  -1  -7 -26    0.59    0.83
   1  -7  28   49.10    3.96
  -1  -7 -28   56.70    5.99
   1  -7  30    1.67    1.01
  -1  -7 -30    1.85    1.51
   1  -7  32   -0.14    0.21
  -1  -7 -32    0.75    0.74
   1  -7  34   11.65    1.74
  -1  -7 -34   10.00    2.55
  -1  -7 -36   -0.70    0.53
  -1  -7 -38   -1.21    1.20
  -1  -7 -40    0.50    0.77
  -1  -7 -42   -0.70    0.52
  -1  -7 -44    1.12    0.85
   1  -8 -45   -2.39    1.66
   1  -8 -43   -1.72    1.37
   1  -8 -41    0.10    0.53
   1  -8 -39    2.56    1.68
   1  -8 -37    0.26    0.78
   1  -8 -35    5.26    1.85
  -1  -8  33   -0.32    0.30
   1  -8 -33    0.08    0.48
  -1  -8  31    1.72    0.98
   1  -8 -31    3.83    2.24
   1  -8 -29   16.06    3.28
  -1  -8  29   14.31    2.29
  -1  -8  27   -1.10    1.00
   1  -8 -27   -2.27    1.82
   1  -8 -25   -2.68    2.27
  -1  -8  25   -1.78    1.36
   1  -8 -23   -1.94    2.03
  -1  -8  23   -2.38    1.50
  -1  -8  21   -0.87    1.12
   1  -8 -21   -0.43    0.79
   1  -8 -19    0.94    0.86
   1  -8 -17   14.94    2.95
   1  -8 -15    2.95    2.08
   1  -8 -13    1.55    1.40
   1  -8 -11    1.66    1.13
   1  -8  -9    2.39    2.24
   1  -8  -7    1.59    1.07
   1  -8  -5    1.27    0.81
  -1  -8   5   -0.59    1.21
  -1  -8   3    2.87    2.01
  -1  -8   1    4.37    2.30
  -1  -8  -1  119.14    8.08
  -1  -8  -3    0.31    0.70
  -1  -8  -5   -0.97    1.34
  -1  -8  -7   14.04    2.63
  -1  -8  -9    2.53    1.67
  -1  -8 -11    0.00    1.05
  -1  -8 -13   23.73    3.78
  -1  -8 -15   -1.39    1.26
  -1  -8 -17   -1.81    1.46
  -1  -8 -19   17.80    3.53
  -1  -8 -21   -2.57    1.76
  -1  -8 -23   -3.11    1.90
  -1  -8 -25   -2.38    1.70
  -1  -8 -27    0.22    0.95
  -1  -8 -29    4.09    2.14
   1  -8  31    3.75    1.33
  -1  -8 -31    0.62    1.21
   1  -8  33   -0.28    0.30
  -1  -8 -33   -0.03    0.74
  -1  -8 -35   -0.57    0.80
  -1  -8 -37    3.10    1.77
  -1  -8 -39    1.22    1.21
  -1  -8 -41   -0.78    0.60
  -1  -8 -43    0.18    0.74
  -1  -8 -45    3.14    1.98
   1  -9 -44    0.22    1.04
   1  -9 -42   -0.51    0.82
   1  -9 -40   -0.62    0.96
   1  -9 -38    1.68    1.15
   1  -9 -36   -0.36    0.79
   1  -9 -34    0.75    1.32
  -1  -9  32   13.60    2.24
   1  -9 -32   16.98    3.62
  -1  -9  30    0.63    0.53
   1  -9 -30   -1.37    1.62
   1  -9 -28    2.99    1.89
  -1  -9  28    1.46    1.34
  -1  -9  26   -1.03    1.22
   1  -9 -26   -1.91    1.73
   1  -9 -24   -2.02    2.00
  -1  -9  24   -2.14    1.85
   1  -9 -22    1.98    1.52
  -1  -9  22   -1.83    1.00
  -1  -9  20    6.14    1.55
   1  -9 -20    7.30    2.57
  -1  -9  18    3.05    1.61
   1  -9 -18    3.00    2.12
  -1  -9  16    0.74    1.01
   1  -9 -16   -0.04    0.57
  -1  -9  14   18.25    3.14
   1  -9 -14   17.55    3.68
   1  -9 -12    1.45    1.57
  -1  -9  12    0.07    0.81
  -1  -9  10    3.48    2.04
   1  -9 -10    6.44    2.49
  -1  -9   8   10.32    2.65
   1  -9  -8    7.87    2.26
   1  -9  -6   -1.60    1.45
  -1  -9   6    1.38    1.11
  -1  -9   4   -1.41    1.20
   1  -9  -4    1.14    1.06
   1  -9  -2    4.01    1.03
  -1  -9   2    2.00    0.93
  -1  -9   0    0.44    1.15
  -1  -9  -2    0.92    0.69
  -1  -9  -4    9.51    2.26
  -1  -9  -6    0.21    1.12
  -1  -9  -8    4.06    2.26
  -1  -9 -10    7.44    1.90
  -1  -9 -12   -2.26    1.78
  -1  -9 -14   -1.08    1.29
  -1  -9 -16    0.03    1.14
  -1  -9 -18    0.52    0.58
  -1  -9 -20   -0.89    0.90
  -1  -9 -22    0.72    1.77
  -1  -9 -24   -0.58    1.54
  -1  -9 -26    2.08    2.00
   1  -9  28   -0.35    0.37
  -1  -9 -28    1.06    0.73
   1  -9  30   -0.89    0.42
  -1  -9 -30   -0.36    1.09
   1  -9  32   -0.54    0.83
  -1  -9 -32    0.92    1.35
  -1  -9 -34    5.05    2.21
  -1  -9 -36    1.57    1.27
  -1  -9 -38   -1.30    1.35
  -1  -9 -40   -2.48    1.63
  -1  -9 -42    0.12    0.74
  -1  -9 -44   -0.60    0.86
   1 -10 -43    0.58    0.72
   1 -10 -41    1.71    1.56
   1 -10 -39   -0.08    0.59
   1 -10 -37   -2.14    1.38
   1 -10 -35    0.15    1.00
   1 -10 -33    0.49    1.20
  -1 -10  31   -0.71    0.65
   1 -10 -31    0.66    0.69
  -1 -10  29    1.36    0.76
   1 -10 -29   -0.88    1.23
   1 -10 -27   -1.23    1.21
  -1 -10  27    0.41    0.62
   1 -10 -25   -0.60    0.80
  -1 -10  25   -0.55    0.96
  -1 -10  23   -0.60    0.93
   1 -10 -23    0.23    1.18
   1 -10 -21    0.56    1.53
  -1 -10  21    0.47    0.56
   1 -10 -19   -2.04    1.87
  -1 -10  19    0.14    0.46
   1 -10 -17   21.03    4.05
  -1 -10  17   21.82    3.55
   1 -10 -15    9.88    3.47
  -1 -10  15    4.19    1.97
  -1 -10  13    1.00    1.52
   1 -10 -13    0.23    1.03
   1 -10 -11    2.47    1.48
  -1 -10  11    1.35    0.97
  -1 -10   9   -0.14    0.62
   1 -10  -9    0.56    1.37
  -1 -10   7    1.54    1.28
   1 -10  -7    1.62    1.96
   1 -10  -5   33.93    4.94
  -1 -10   5   33.16    4.73
  -1 -10   3   -0.55    0.72
   1 -10  -3   -2.48    1.77
   1 -10  -1   -0.61    0.94
  -1 -10   1   -0.65    1.40
   1 -10   1   79.45    7.53
  -1 -10  -1   72.47    7.23
  -1 -10  -3    1.33    1.70
   1 -10   3    0.92    1.26
  -1 -10  -5    1.25    1.21
   1 -10   5    0.74    0.58
  -1 -10  -7    3.73    1.69
  -1 -10  -9    0.78    1.51
  -1 -10 -11    0.92    1.52
  -1 -10 -13    7.62    2.58
  -1 -10 -15    2.52    2.13
  -1 -10 -17   -1.73    2.00
  -1 -10 -19    5.52    1.90
  -1 -10 -21    3.98    2.33
   1 -10  21    2.17    1.66
   1 -10  23   -0.62    0.87
  -1 -10 -23   -1.62    1.55
   1 -10  25    1.44    0.55
  -1 -10 -25   -0.46    1.30
   1 -10  27    1.31    1.12
  -1 -10 -27   -0.01    0.81
   1 -10  29   -0.37    0.42
  -1 -10 -29   -0.02    0.68
  -1 -10 -31   -0.03    0.59
  -1 -10 -33    3.22    2.02
  -1 -10 -35    0.44    0.71
  -1 -10 -37   -0.08    0.72
  -1 -10 -39   -0.43    1.45
  -1 -10 -41   -0.39    1.14
  -1 -10 -43    1.20    0.87
   1 -11 -42   -3.22    1.54
   1 -11 -40    3.24    2.25
   1 -11 -38    2.15    1.84
   1 -11 -36    1.32    1.34
   1 -11 -34    1.33    1.79
   1 -11 -32    0.10    0.58
   1 -11 -30   -0.57    0.97
   1 -11 -28    2.02    1.56
  -1 -11  28    1.66    1.18
  -1 -11  26    1.08    0.98
   1 -11 -26    0.05    0.80
  -1 -11  24    0.87    1.01
   1 -11 -24    0.56    1.49
  -1 -11  22    0.06    0.67
   1 -11 -22    1.45    1.49
  -1 -11  20   -0.26    0.94
   1 -11 -20    0.64    1.14
  -1 -11  18    1.18    1.28
   1 -11 -18   -0.60    0.96
  -1 -11  16    0.59    0.66
   1 -11 -16   -0.51    0.66
   1 -11 -14   21.47    4.27
  -1 -11  14   23.29    4.14
  -1 -11  12   -0.59    0.93
   1 -11 -12    3.42    2.14
  -1 -11  10   -0.17    0.65
   1 -11 -10   -0.06    0.88
  -1 -11   8    8.59    2.37
   1 -11  -8    8.39    2.56
  -1 -11   6   -1.30    1.10
   1 -11  -6    0.40    0.85
  -1 -11   4    1.22    1.45
   1 -11  -4   -0.24    1.44
   1 -11  -2   25.90    4.63
  -1 -11   2   20.45    3.92
  -1 -11   0   -0.30    0.49
   1 -11   0    1.10    0.75
   1 -11   2    0.55    1.03
  -1 -11  -2    0.08    1.41
  -1 -11  -4   -1.81    1.63
   1 -11   4   -1.60    1.38
  -1 -11  -6    2.72    1.45
   1 -11   6    0.50    0.98
   1 -11   8    0.09    0.75
  -1 -11  -8   -0.65    1.17
  -1 -11 -10   -0.71    1.06
   1 -11  10   -0.23    0.46
   1 -11  12    0.69    1.49
  -1 -11 -12    1.84    1.88
   1 -11  14    0.12    0.60
  -1 -11 -14   -0.40    0.72
  -1 -11 -16    0.18    0.57
   1 -11  16   -0.01    0.58
  -1 -11 -18    3.59    2.36
   1 -11  18    4.48    2.27
   1 -11  20    0.65    1.22
  -1 -11 -20    2.30    2.06
  -1 -11 -22    4.76    2.05
   1 -11  22    2.04    1.11
  -1 -11 -24    0.62    1.13
   1 -11  24   -0.54    0.75
  -1 -11 -26   -1.34    0.80
   1 -11  26   -0.78    0.96
   1 -11  28    7.12    2.23
  -1 -11 -28    6.49    2.47
  -1 -11 -30    3.42    2.22
  -1 -11 -32   -1.91    0.86
  -1 -11 -34   -0.09    0.46
  -1 -11 -36    4.10    2.37
  -1 -11 -38    0.89    1.30
  -1 -11 -40    0.88    0.55
   1 -12 -35    0.21    1.67
   1 -12 -33    4.80    2.67
   1 -12 -31    1.14    1.66
   1 -12 -29    6.35    2.77
  -1 -12  27    0.07    0.37
   1 -12 -27    0.39    1.06
  -1 -12  25    0.17    1.26
   1 -12 -25    2.68    1.84
  -1 -12  23    0.80    0.38
   1 -12 -23    0.53    0.70
   1 -12 -21    1.51    1.59
  -1 -12  21   -0.19    0.72
   1 -12 -19    1.61    1.57
  -1 -12  19    1.31    1.72
  -1 -12  17   -0.68    0.94
   1 -12 -17    0.22    1.35
  -1 -12  15   -0.25    0.92
   1 -12 -15   -0.73    1.21
  -1 -12  13   -1.46    1.52
   1 -12 -13   -0.22    1.21
   1 -12 -11    0.95    0.82
  -1 -12  11   -0.03    1.29
   1 -12  -9    0.09    1.27
  -1 -12   9   -0.94    1.51
   1 -12  -7    0.91    1.16
  -1 -12   7    2.92    1.99
  -1 -12   5    2.47    1.78
   1 -12  -5    0.75    0.88
   1 -12  -3    0.52    0.76
  -1 -12   3    0.26    0.74
  -1 -12   1    1.47    1.24
   1 -12  -1    3.00    2.09
   1 -12   1   -0.15    1.00
  -1 -12  -1    1.13    1.14
   1 -12   3    0.12    0.73
  -1 -12  -3    1.76    1.24
  -1 -12  -5   -0.25    0.73
   1 -12   5    0.60    0.78
  -1 -12  -7    9.34    2.86
   1 -12   7    5.40    2.16
   1 -12   9   -1.48    2.05
  -1 -12  -9   -0.64    1.06
  -1 -12 -11   -0.54    0.62
   1 -12  11   -1.07    1.39
   1 -12  13    0.24    0.79
  -1 -12 -13    4.57    2.33
  -1 -12 -15    2.74    2.00
   1 -12  15    1.57    1.70
   1 -12  17    1.42    1.74
  -1 -12 -17   -0.02    1.27
   1 -12  19   -0.26    1.12
  -1 -12 -19   -1.08    1.14
   1 -12  21    1.74    1.15
  -1 -12 -21    0.16    0.63
  -1 -12 -23    2.60    1.77
   1 -12  23    4.01    2.04
  -1 -12 -25    2.57    1.68
   1 -12  25    0.15    0.91
   1 -12  27    1.10    1.15
  -1 -12 -27   -0.38    0.77
  -1 -12 -29    2.95    2.19
  -1 -12 -31   -0.11    0.63
  -1 -12 -33    1.57    1.77
   1 -13 -26   -0.08    1.15
  -1 -13  26    2.49    1.61
  -1 -13  24    3.35    1.73
   1 -13 -24    4.39    2.63
   1 -13 -22    1.11    1.77
  -1 -13  22    2.18    1.64
   1 -13 -20   -1.99    1.39
  -1 -13  20    0.21    0.76
   1 -13 -18    4.70    2.75
  -1 -13  18    2.21    1.99
   1 -13 -16    3.33    2.37
  -1 -13  16    0.71    0.76
   1 -13 -14    0.22    1.25
  -1 -13  14   -0.21    1.10
  -1 -13  12    1.88    1.36
   1 -13 -12   -1.60    1.65
  -1 -13  10   -0.31    0.66
   1 -13 -10   -1.80    2.25
  -1 -13   8   -1.21    1.16
   1 -13  -8    0.65    0.67
   1 -13  -6    2.05    2.20
  -1 -13   6    2.00    1.39
  -1 -13   4    1.18    1.70
   1 -13  -4    1.02    1.15
   1 -13  -2   10.61    3.42
  -1 -13   2    2.62    1.02
  -1 -13   0    0.95    1.82
   1 -13   0    2.22    1.73
   1 -13   2   -1.53    1.44
  -1 -13  -2    2.22    1.72
  -1 -13  -4   -0.46    0.81
   1 -13   4    1.73    1.51
  -1 -13  -6   -2.25    1.61
   1 -13   6    1.62    1.35
  -1 -13  -8   -3.05    2.11
   1 -13   8   -2.62    2.08
  -1 -13 -10   -3.19    2.04
   1 -13  10   -2.86    2.16
  -1 -13 -12    0.39    1.82
   1 -13  12    1.71    1.45
  -1 -13 -14    1.53    1.68
   1 -13  14    0.60    0.72
  -1 -13 -16   -1.19    1.50
   1 -13  16   -0.10    0.74
   1 -13  18    3.43    2.11
  -1 -13 -18    2.15    1.98
   1 -13  20   -1.00    1.20
  -1 -13 -20   -0.16    1.08
  -1 -13 -22    0.01    1.38
   1 -13  22   -0.80    1.00
  -1 -13 -24   -1.91    1.27
   1 -13  24    1.30    1.07
  -1 -13 -26    1.79    1.27
  -1 -14  23    0.92    0.59
  -1 -14  21   -1.81    1.32
  -1 -14  19   -0.72    1.41
  -1 -14  17   -1.08    1.70
   1 -14 -17   -2.20    0.95
  -1 -14  15   -2.01    1.25
   1 -14 -15   -1.23    0.67
   1 -14 -13    3.56    2.25
  -1 -14  13   -0.08    0.62
   1 -14 -11    1.44    1.34
  -1 -14  11    1.36    1.37
   1 -14  -9    2.63    2.16
  -1 -14   9    0.61    1.09
   1 -14  -7   -1.24    0.92
  -1 -14   7   -0.42    1.06
   1 -14  -5    0.28    0.63
  -1 -14   5    1.72    1.31
  -1 -14   3    0.46    0.92
   1 -14  -3    0.08    0.57
   1 -14  -1    5.97    2.82
  -1 -14   1    1.65    1.57
  -1 -14  -1    3.26    1.28
   1 -14   1    1.81    1.72
   1 -14   3   -1.00    0.61
  -1 -14  -3    1.07    1.39
  -1 -14  -5   -0.13    0.95
   1 -14   5    2.79    1.19
  -1 -14  -7    2.12    1.59
   1 -14   7    4.76    2.36
  -1 -14  -9    3.78    2.43
   1 -14   9    0.17    1.00
  -1 -14 -11    2.82    2.28
   1 -14  11   -0.22    0.81
   1 -14  13    1.23    1.24
  -1 -14 -13    1.09    1.25
  -1 -14 -15    0.71    0.80
   1 -14  15    0.23    1.37
  -1 -14 -17    2.36    1.17
   1 -14  17    2.44    1.56
   1 -14  19   -0.33    0.53
   1 -14  21    0.57    1.62
   1 -14  23    1.66    1.81
  -1 -15  20    3.47    2.30
  -1 -15  18   -0.43    0.79
  -1 -15  16    1.63    1.54
  -1 -15  14    1.62    0.99
  -1 -15  12    0.24    0.88
  -1 -15  10    3.79    2.29
  -1 -15   8    2.12    1.72
  -1 -15   6   -0.88    1.49
   1 -15  -6    0.77    1.12
   1 -15  -4   -0.23    0.73
  -1 -15   4   -1.62    1.83
  -1 -15   2    2.88    2.07
   1 -15  -2   -1.45    2.17
  -1 -15   0   -2.71    1.91
   1 -15   0    2.38    1.95
   1 -15   2    2.02    1.62
  -1 -15  -2   -2.52    1.80
  -1 -15  -4    1.34    1.75
   1 -15   4    1.77    1.67
  -1 -15  -6   -0.27    1.59
   1 -15   6    1.29    1.08
   1 -15   8    2.37    1.98
   1 -15  10    2.11    1.46
   1 -15  12   -0.12    1.20
   1 -15  14    2.31    2.02
   1 -15  16    1.84    1.56
   1 -15  18    1.49    1.25
   1 -15  20   -0.16    0.63
   2   0 -36    0.51    0.35
   2   0 -34  114.46    3.89
   2   0 -32    0.35    0.36
   2   0 -30    0.71    0.31
   2   0 -28  213.91    5.29
   2   0 -26    0.06    0.19
   2   0 -24    0.29    0.18
   2   0 -22  460.13    7.03
   2   0 -20   -0.12    0.15
   2   0 -18   -0.11    0.14
   2   0 -16  345.30    5.14
   2   0 -14    0.17    0.22
   2   0 -12   -0.08    0.13
  -2   0  -4    0.18    0.14
   2   0   4    0.15    0.14
   2   0   6    0.11    0.10
  -2   0  -6   -0.17    0.11
  -2   0  -8  898.92    9.14
   2   0   8  894.68    8.96
  -2   0 -10    0.80    0.42
   2   0  10   -0.22    0.18
  -2   0 -12    0.22    0.43
   2   0  12   -0.04    0.14
  -2   0 -14 1681.45   15.05
   2   0  14 1659.54   14.76
  -2   0 -16    0.01    0.46
   2   0  16   -0.07    0.26
  -2   0 -18   -0.11    0.35
   2   0  18   -0.35    0.35
  -2   0 -20  996.61   13.23
   2   0  20  987.35   13.02
  -2   0 -22    0.90    0.58
   2   0  22   -0.47    0.43
   2   0  24   -0.51    0.44
  -2   0 -24   -0.34    0.30
  -2   0 -26  184.69    6.24
   2   0  26  185.34    6.22
   2   0  28    0.65    0.48
  -2   0 -28    0.73    0.47
   2   0  30   -0.10    0.37
  -2   0 -30   -0.62    0.53
   2   0  32  170.33    6.45
  -2   0 -32  173.43    6.43
  -2   0 -34    0.84    0.51
  -2   0 -36   -0.20    0.27
  -2   0 -38  338.56    8.95
   2  -1 -41    0.20    0.32
   2  -1 -39   -0.85    0.83
   2  -1 -37  201.96    6.63
   2  -1 -35   -0.85    0.68
   2  -1 -33    0.10    0.26
   2  -1 -31  125.39    5.11
   2  -1 -29    0.48    0.58
   2  -1 -27   -0.21    0.43
   2  -1 -25  240.44    6.59
   2  -1 -23   -0.24    0.34
   2  -1 -21   -0.31    0.38
   2  -1 -19  220.21    5.81
   2  -1 -17    0.54    0.46
   2  -1 -15    0.06    0.14
   2  -1 -13  999.18   11.12
   2  -1 -11    0.00    0.29
   2   1   1   -0.13    0.17
   2   1   3    0.50    0.38
  -2  -1  -3   -0.10    0.17
  -2  -1  -5 1389.60   12.12
   2   1   5 1366.85   12.10
   2  -1   7    0.00    0.17
  -2  -1  -7    0.05    0.14
   2  -1   9   -0.14    0.10
   2   1   9   -0.23    0.38
  -2  -1  -9    0.11    0.23
   2  -1  11 3505.54   18.98
  -2   1 -11 3552.76   19.02
   2   1  11 3514.08   23.13
  -2  -1 -11 3535.26   22.64
   2  -1  13   -0.16    0.28
  -2   1 -13   -0.44    0.35
   2   1  13    0.01    0.27
  -2  -1 -13    0.24    0.22
   2  -1  15   -0.28    0.33
  -2   1 -15    0.04    0.25
   2   1  15    0.13    0.30
  -2  -1 -15   -0.58    0.55
  -2   1 -17  446.77    7.70
   2   1  17  444.69    9.35
  -2  -1 -17  447.77    9.19
   2  -1  17  438.67    7.48
  -2  -1 -19    0.07    0.34
  -2   1 -19    0.63    0.49
   2   1  19    0.14    0.30
   2  -1  19    0.08    0.28
  -2  -1 -21    0.39    0.38
  -2   1 -21   -0.03    0.22
   2   1  21   -0.56    0.38
   2  -1  21   -0.34    0.27
  -2   1 -23  416.90    8.23
   2   1  23  393.16    9.72
   2  -1  23  397.40    7.92
  -2  -1 -23  392.83    9.46
  -2  -1 -25   -0.12    0.42
  -2   1 -25    0.82    0.43
   2   1  25    0.14    0.28
   2  -1  25   -0.09    0.31
  -2  -1 -27   -0.37    0.49
   2  -1  27    0.09    0.22
   2   1  27    0.20    0.52
  -2   1 -27    0.24    0.29
  -2  -1 -29  294.43    8.90
   2   1  29  274.38    8.86
   2  -1  29  277.49    7.16
  -2  -1 -31   -0.56    0.48
   2  -1  31   -0.12    0.33
  -2  -1 -33   -0.56    0.66
   2  -1  33   -0.27    0.27
  -2  -1 -35  277.96    9.15
  -2  -1 -37    0.17    0.43
  -2  -1 -39    0.47    0.68
  -2  -1 -41  146.93    6.69
   2  -2 -42    0.49    0.65
   2  -2 -40  218.47    8.21
   2  -2 -38    1.05    0.61
   2  -2 -36   -0.34    0.67
   2  -2 -34   81.73    4.85
   2  -2 -32   -0.75    0.58
   2  -2 -30   -0.70    0.85
   2  -2 -28  156.38    6.36
   2  -2 -26   -0.32    0.39
   2  -2 -24   -0.11    0.53
   2  -2 -22  707.63   12.81
   2  -2 -20    0.19    0.35
   2  -2 -18   -0.18    0.44
   2  -2 -16 1115.25   15.07
   2  -2 -14   -0.31    0.34
   2  -2 -12    0.89    0.62
  -2  -2   4   29.89    1.83
  -2  -2   2    0.02    0.14
  -2  -2   0    0.00    0.20
   2   2   0   -0.20    0.26
   2   2   2 1822.53   16.24
  -2  -2  -2 1853.01   16.29
  -2  -2  -4   -0.01    0.41
   2   2   4    0.41    0.39
   2   2   6    0.20    0.67
  -2  -2  -6   -0.61    0.60
   2   2   8 3974.40   27.10
  -2  -2  -8 4030.80   26.86
   2   2  10    4.61    1.22
  -2  -2 -10    0.98    0.66
   2  -2  12   -0.19    0.22
   2   2  12    0.35    0.56
  -2  -2 -12    0.42    0.38
   2  -2  14 1143.52   12.28
  -2  -2 -14 1175.46   16.12
   2   2  14 1179.44   16.37
   2  -2  16    0.07    0.13
   2   2  16   -0.04    0.36
  -2  -2 -16   -0.46    0.57
   2  -2  18   -0.15    0.27
   2   2  18   -0.77    0.73
  -2  -2 -18    0.01    0.23
   2   2  20  699.29   14.00
  -2  -2 -20  706.40   13.50
   2  -2  20  696.91    9.88
   2  -2  22    0.24    0.19
   2   2  22   -0.02    0.21
  -2  -2 -22    0.11    0.55
   2   2  24   -0.23    0.36
   2  -2  24    0.00    0.29
  -2  -2 -24   -0.63    0.70
   2  -2  26  513.42    8.72
  -2  -2 -26  534.53   12.57
  -2  -2 -28   -0.88    0.83
   2  -2  28   -0.31    0.27
  -2  -2 -30   -0.01    0.28
   2  -2  30   -0.21    0.24
   2  -2  32   92.16    3.74
  -2  -2 -32   91.13    5.59
  -2  -2 -34   -0.95    0.71
   2  -2  34   -0.12    0.20
  -2  -2 -36   -0.17    0.28
  -2  -2 -38  218.33    9.04
  -2  -2 -40    0.85    0.73
  -2  -2 -42    0.19    0.67
   2  -3 -43   63.15    4.89
   2  -3 -41   -0.67    0.61
   2  -3 -39   -0.78    0.72
   2  -3 -37  127.29    6.86
   2  -3 -35   -0.74    0.97
   2  -3 -33   -0.04    0.52
   2  -3 -31   46.95    3.95
   2  -3 -29    0.06    0.24
   2  -3 -27   -0.65    0.82
   2  -3 -25  217.23    8.20
  -2  -3  23    0.25    0.16
   2  -3 -23   -1.30    1.14
  -2  -3  21    0.06    0.15
   2  -3 -21    0.00    0.47
  -2  -3  19  528.57    6.95
   2  -3 -19  555.50   12.57
   2  -3 -17   -0.26    0.35
   2  -3 -15   -0.10    0.55
   2  -3 -13 1211.34   17.69
  -2  -3   3    1.21    0.81
  -2  -3   1   48.30    3.11
  -2  -3  -1    0.18    0.63
  -2  -3  -3    0.42    0.79
  -2  -3  -5 3418.10   27.85
  -2  -3  -7    0.04    0.60
   2   3   7    1.52    0.77
   2   3   9    1.35    0.88
  -2  -3  -9   -0.44    0.53
   2   3  11  917.30   15.76
  -2  -3 -11  921.94   15.49
   2   3  13    0.45    0.46
  -2  -3 -13    0.22    0.54
   2   3  15    0.03    0.59
  -2  -3 -15    0.17    0.45
   2  -3  17  499.04    9.15
   2   3  17  519.45   12.72
  -2  -3 -17  499.38   12.04
   2  -3  19    0.38    0.29
  -2  -3 -19    0.14    0.46
   2  -3  21   -0.37    0.32
  -2  -3 -21   -0.24    0.44
   2  -3  23  286.21    6.85
  -2  -3 -23  297.48    9.90
   2  -3  25   -0.13    0.21
  -2  -3 -25    0.49    0.31
   2  -3  27   -0.52    0.42
  -2  -3 -27   -0.95    1.12
   2  -3  29   38.12    2.36
  -2  -3 -29   38.54    3.77
   2  -3  31    0.04    0.21
  -2  -3 -31   -0.31    0.46
  -2  -3 -33   -0.60    0.65
   2  -3  33    0.59    0.44
   2  -3  35   74.57    2.74
  -2  -3 -35   73.45    5.53
  -2  -3 -37   -0.03    0.70
  -2  -3 -39   -0.11    0.41
  -2  -3 -41   37.33    4.14
  -2  -3 -43   -0.21    0.46
   2  -4 -44   -0.53    0.61
   2  -4 -42    0.33    0.57
   2  -4 -40   48.95    4.72
   2  -4 -38   -1.22    1.24
   2  -4 -36   -0.95    1.16
   2  -4 -34  349.11   12.14
   2  -4 -32   -0.69    0.92
   2  -4 -30   -0.34    0.30
   2  -4 -28  469.74   13.63
  -2  -4  26   -0.50    0.29
   2  -4 -26   -0.76    0.99
  -2  -4  26    0.11    0.19
  -2  -4  24    0.07    0.26
   2  -4 -24   -0.05    0.67
   2  -4 -22  194.45    8.51
   2  -4 -20   -0.10    0.66
   2  -4 -18   -0.84    0.77
   2  -4 -16  917.34   17.63
   2  -4 -14   -1.02    0.85
   2  -4 -12   -0.37    0.72
  -2  -4   2    0.40    0.44
  -2  -4   0   -0.22    0.45
  -2  -4  -2  800.91   14.91
  -2  -4  -4   -0.04    0.37
  -2  -4  -6   -0.48    0.38
  -2  -4  -8 1187.64   18.94
  -2  -4 -10    0.08    0.51
  -2  -4 -12   -1.02    0.88
  -2  -4 -14  680.25   15.18
  -2  -4 -16   -1.34    1.21
  -2  -4 -18    0.11    0.46
   2  -4  20  320.50    8.16
  -2  -4 -20  313.03   10.92
   2  -4  22   -0.46    0.21
  -2  -4 -22   -0.05    0.34
   2  -4  24   -0.63    0.62
  -2  -4 -24   -1.03    0.95
   2  -4  26  385.89    8.60
  -2  -4 -26  393.87   12.76
   2  -4  28   -0.67    0.49
  -2  -4 -28    0.50    0.38
   2  -4  30   -0.22    0.17
  -2  -4 -30   -0.14    0.48
   2  -4  32  301.06    6.61
  -2  -4 -32  309.67   12.06
   2  -4  34   -0.52    0.32
  -2  -4 -34   -1.68    1.65
  -2  -4 -36   -1.50    1.07
   2  -4  36    0.40    0.11
  -2  -4 -38   44.27    4.70
  -2  -4 -40    0.03    0.63
  -2  -4 -42   -0.08    0.45
  -2  -4 -44   24.75    3.62
   2  -5 -43   37.55    4.49
   2  -5 -41   -0.14    0.41
   2  -5 -39   -0.26    0.74
   2  -5 -37   20.78    3.25
   2  -5 -35    0.90    0.56
   2  -5 -33   -0.88    0.56
   2  -5 -31   84.20    6.36
  -2  -5  31   72.73    2.31
  -2  -5  31   74.05    2.34
  -2  -5  29    0.41    0.27
  -2  -5  29   -0.20    0.29
   2  -5 -29    0.21    0.47
  -2  -5  27   -0.16    0.39
  -2  -5  27    0.13    0.20
   2  -5 -27   -0.11    1.08
  -2  -5  25  439.43    8.77
   2  -5 -25  448.63   14.29
  -2  -5  25  446.38    9.00
   2  -5 -23    1.00    0.86
   2  -5 -21   -0.08    0.69
   2  -5 -19   65.40    5.27
   2  -5 -17   -0.41    0.49
   2  -5 -15   -0.30    0.45
   2  -5 -13  615.25   15.73
  -2  -5   3   -0.47    0.40
  -2  -5   1  259.33    9.08
  -2  -5  -1   -0.01    0.67
  -2  -5  -3   -0.55    0.91
  -2  -5  -5  739.44   16.34
  -2  -5  -7    0.13    0.48
  -2  -5  -9   -0.86    0.94
  -2  -5 -11  882.78   18.80
  -2  -5 -13   -1.06    1.26
  -2  -5 -15   -0.74    0.67
  -2  -5 -17  321.13   11.66
  -2  -5 -19   -1.19    1.23
  -2  -5 -21    1.19    0.92
   2  -5  23  160.14    6.36
  -2  -5 -23  168.41    8.76
   2  -5  25   -0.69    0.58
  -2  -5 -25   -0.67    1.17
   2  -5  27    0.26    0.46
  -2  -5 -27   -0.17    0.79
   2  -5  29   42.66    3.02
  -2  -5 -29   44.95    4.73
   2  -5  31   -0.23    0.29
  -2  -5 -31   -0.84    0.97
   2  -5  33    0.22    0.21
  -2  -5 -33   -1.00    1.17
   2  -5  35   52.59    2.62
  -2  -5 -35   55.33    5.45
  -2  -5 -37   -0.72    0.85
  -2  -5 -39   -1.16    1.11
  -2  -5 -41   19.74    3.41
  -2  -5 -43    0.45    0.47
   2  -6 -44   -1.57    1.38
   2  -6 -42    0.24    0.64
   2  -6 -40   49.43    5.46
   2  -6 -38    0.05    0.52
   2  -6 -36   -0.46    0.38
  -2  -6  34   49.49    1.80
   2  -6 -34   64.23    6.08
  -2  -6  34   46.53    1.76
  -2  -6  32    0.58    0.32
  -2  -6  32    0.20    0.37
   2  -6 -32   -0.31    0.51
  -2  -6  30   -0.14    0.33
  -2  -6  30   -0.29    0.28
   2  -6 -30   -0.89    0.64
  -2  -6  28  116.00    4.98
  -2  -6  28  115.99    5.07
   2  -6 -28  127.42    8.30
   2  -6 -26   -1.23    1.26
  -2  -6  26   -0.63    0.80
   2  -6 -24    0.07    0.92
  -2  -6  24   -0.08    0.20
  -2  -6  22   79.27    4.73
   2  -6 -22   83.93    6.52
   2  -6 -20   -0.63    1.08
   2  -6 -18   -0.05    0.70
   2  -6 -16   56.82    5.28
   2  -6 -14    4.66    1.94
   2  -6 -12    8.98    2.98
  -2  -6   6    0.12    0.70
  -2  -6   4  391.10   12.08
  -2  -6   2   -0.26    0.60
  -2  -6   0   -0.41    0.68
  -2  -6  -2  126.63    7.15
  -2  -6  -4    0.84    0.54
  -2  -6  -6    0.30    0.63
  -2  -6  -8   90.64    6.25
  -2  -6 -10   -0.91    1.04
  -2  -6 -12   -0.73    1.02
  -2  -6 -14   65.08    5.52
  -2  -6 -16   -0.63    0.63
  -2  -6 -18   -1.28    1.13
  -2  -6 -20    3.20    1.11
  -2  -6 -22   -0.56    1.34
  -2  -6 -24   -0.98    1.22
   2  -6  26  110.38    5.73
  -2  -6 -26  119.38    8.04
   2  -6  28    0.31    0.52
  -2  -6 -28    1.00    1.00
   2  -6  30    0.32    0.33
  -2  -6 -30   -0.49    0.88
   2  -6  32   87.03    4.59
  -2  -6 -32   90.94    7.36
  -2  -6 -34   -0.71    1.21
  -2  -6 -36   -1.25    1.28
  -2  -6 -38   39.32    4.96
  -2  -6 -40   -1.44    1.04
  -2  -6 -42   -0.39    0.98
  -2  -6 -44   24.62    4.02
   2  -7 -45   -1.67    1.58
   2  -7 -43   33.78    4.81
   2  -7 -41   -1.47    1.26
   2  -7 -39   -0.83    0.90
   2  -7 -37   47.57    5.63
   2  -7 -35    0.91    1.10
  -2  -7  33   -0.15    0.24
   2  -7 -33    0.49    0.37
  -2  -7  31   82.04    4.49
  -2  -7  31   79.18    4.37
   2  -7 -31   80.53    7.09
  -2  -7  29   -1.20    0.77
   2  -7 -29   -1.93    1.72
   2  -7 -27   -1.63    0.95
  -2  -7  27    0.20    0.47
   2  -7 -25   62.11    6.14
  -2  -7  25   61.13    4.47
  -2  -7  23   -0.29    0.67
   2  -7 -23   -0.31    0.79
  -2  -7  21   -0.93    1.02
   2  -7 -21    0.24    0.75
   2  -7 -19  105.70    7.77
  -2  -7  19  110.23    6.39
   2  -7 -17   -0.13    0.56
  -2  -7  17   -0.59    0.79
   2  -7 -15    0.02    0.78
   2  -7 -13  381.57   14.27
   2  -7 -11   -0.60    0.67
  -2  -7  11   -0.65    1.04
  -2  -7   9   -0.83    0.95
  -2  -7   7 1034.85   21.07
  -2  -7   5    1.48    1.41
  -2  -7   3    1.11    1.24
  -2  -7   1  219.14   10.11
  -2  -7  -1   -1.04    0.99
  -2  -7  -3   -0.08    0.99
  -2  -7  -5   60.93    5.52
  -2  -7  -7   -0.79    1.16
  -2  -7  -9    0.27    0.44
  -2  -7 -11  214.65   10.54
  -2  -7 -13   -1.81    1.44
  -2  -7 -15   -1.20    1.14
  -2  -7 -17   82.68    6.90
  -2  -7 -19   -0.72    0.81
  -2  -7 -21    0.03    0.87
  -2  -7 -23   79.04    6.87
  -2  -7 -25   -0.29    0.71
   2  -7  27    0.13    0.36
  -2  -7 -27    0.90    1.08
   2  -7  29  206.12    8.34
  -2  -7 -29  217.81   11.81
   2  -7  31   -1.56    1.11
  -2  -7 -31   -0.54    1.16
  -2  -7 -33   -0.81    1.36
  -2  -7 -35   38.31    5.11
  -2  -7 -37   -0.56    0.96
  -2  -7 -39    1.12    0.80
  -2  -7 -41   49.01    6.00
  -2  -7 -43   -1.89    1.42
   2  -8 -44    1.23    1.04
   2  -8 -42   -1.38    1.31
   2  -8 -40   52.21    6.44
   2  -8 -38   -0.85    1.30
   2  -8 -36   -0.24    0.87
   2  -8 -34   41.96    5.48
  -2  -8  32   -0.35    0.57
   2  -8 -32   -1.42    1.55
  -2  -8  30    1.40    0.24
   2  -8 -30   -1.93    1.37
  -2  -8  28   24.61    2.90
   2  -8 -28   26.52    4.34
   2  -8 -26   -2.31    1.89
  -2  -8  26   -1.94    1.35
  -2  -8  24   -1.74    1.22
   2  -8 -24   -0.54    1.64
  -2  -8  22   91.41    6.21
   2  -8 -22   90.35    7.72
  -2  -8  20    0.86    0.83
   2  -8 -20   -0.60    0.84
  -2  -8  18   -1.23    0.97
   2  -8 -18    0.54    0.43
   2  -8 -16  255.44   12.75
  -2  -8  16  267.72   11.07
   2  -8 -14   -0.23    1.00
  -2  -8  14    1.24    1.10
   2  -8 -12    0.02    0.56
  -2  -8  12    0.06    0.78
  -2  -8  10  447.81   14.78
   2  -8 -10  452.54   16.47
  -2  -8   8   -0.25    0.78
   2  -8  -8   -0.68    0.65
  -2  -8   6   -0.21    0.46
  -2  -8   4  414.44   14.68
  -2  -8   2    2.33    1.42
  -2  -8   0    0.86    1.06
  -2  -8  -2   51.77    5.43
  -2  -8  -4   -1.57    1.45
  -2  -8  -6   -0.52    0.74
  -2  -8  -8  322.27   13.67
  -2  -8 -10   -1.57    1.59
  -2  -8 -12    0.26    0.80
  -2  -8 -14   25.73    4.01
  -2  -8 -16    0.35    0.51
  -2  -8 -18   -1.06    1.40
  -2  -8 -20   58.42    6.18
  -2  -8 -22   -1.97    1.58
  -2  -8 -24   -1.50    1.79
  -2  -8 -26  109.77    8.73
  -2  -8 -28    0.91    1.01
   2  -8  30    0.16    0.40
  -2  -8 -30   -0.34    0.70
  -2  -8 -32   61.43    6.77
  -2  -8 -34   -0.37    0.85
  -2  -8 -36    0.84    1.13
  -2  -8 -38   65.69    7.19
  -2  -8 -40    0.31    0.75
  -2  -8 -42   -0.56    0.78
  -2  -8 -44   39.71    5.75
   2  -9 -45    0.16    0.68
   2  -9 -43    8.43    2.82
   2  -9 -41   -0.93    1.28
   2  -9 -39   -1.12    1.28
   2  -9 -37   12.93    3.33
   2  -9 -35    1.64    1.11
   2  -9 -33   -0.21    0.75
  -2  -9  31   18.99    2.73
   2  -9 -31   17.67    3.71
   2  -9 -29   -0.82    1.42
  -2  -9  29   -2.30    1.16
  -2  -9  27   -0.92    1.13
   2  -9 -27   -1.42    1.29
   2  -9 -25   -1.54    1.69
  -2  -9  25   -1.75    1.45
   2  -9 -23   -0.63    0.85
  -2  -9  23   -0.46    1.01
   2  -9 -21   -0.34    0.79
  -2  -9  21    0.91    0.78
  -2  -9  19  180.53    9.61
   2  -9 -19  177.39   11.31
  -2  -9  17    1.32    1.06
   2  -9 -17    0.45    0.78
   2  -9 -15   -0.28    0.43
  -2  -9  15   -0.05    0.47
  -2  -9  13  167.83    9.62
   2  -9 -13  165.91   10.70
   2  -9 -11    1.86    1.73
  -2  -9  11    0.87    1.25
  -2  -9   9    1.19    1.18
   2  -9  -9   -0.89    0.96
   2  -9  -7  103.52    8.27
  -2  -9   7  102.05    7.82
  -2  -9   5    1.81    0.98
   2  -9  -5   -0.12    0.50
  -2  -9   3   -1.44    1.10
  -2  -9   1  107.76    8.12
  -2  -9  -1   -1.15    1.15
  -2  -9  -3   -0.55    0.92
  -2  -9  -5  127.51    9.00
  -2  -9  -7   -0.64    0.82
  -2  -9  -9   -0.57    1.44
  -2  -9 -11   34.95    4.87
  -2  -9 -13   -1.65    1.46
  -2  -9 -15    0.84    0.88
  -2  -9 -17   30.33    4.78
  -2  -9 -19   -0.21    1.16
  -2  -9 -21   -1.25    1.27
  -2  -9 -23   25.97    4.29
  -2  -9 -25   -1.13    0.98
  -2  -9 -27   -0.12    0.88
  -2  -9 -29   28.60    4.78
   2  -9  31   -0.94    0.49
  -2  -9 -31   -1.41    1.25
  -2  -9 -33    1.42    1.42
  -2  -9 -35   32.25    5.25
  -2  -9 -37   -0.11    1.22
  -2  -9 -39    0.13    0.89
  -2  -9 -41   16.82    3.99
  -2  -9 -43    2.80    1.80
   2 -10 -44    2.05    1.32
   2 -10 -42    1.55    1.37
   2 -10 -40   14.94    3.64
   2 -10 -38   -0.55    0.48
   2 -10 -36    1.89    1.35
   2 -10 -34   38.25    5.96
   2 -10 -32   -0.76    0.59
   2 -10 -30   -0.84    1.28
  -2 -10  30   -0.83    0.98
   2 -10 -28   21.77    4.37
  -2 -10  28   17.07    2.97
  -2 -10  26    0.31    0.43
   2 -10 -26    0.19    0.70
   2 -10 -24   -1.06    1.76
  -2 -10  24   -1.61    1.10
   2 -10 -22  109.94    9.60
  -2 -10  22  102.29    7.55
   2 -10 -20   -0.12    0.67
  -2 -10  20    0.47    0.50
   2 -10 -18    1.78    1.57
  -2 -10  18    0.62    0.45
  -2 -10  16  250.03   12.35
   2 -10 -16  256.25   14.17
  -2 -10  14    0.75    1.49
   2 -10 -14    1.19    1.00
  -2 -10  12    0.88    0.63
   2 -10 -12   -1.86    1.57
   2 -10 -10  107.25    9.01
  -2 -10  10  104.65    8.23
  -2 -10   8   -1.00    1.19
   2 -10  -8   -0.82    1.32
  -2 -10   6    0.24    0.61
   2 -10  -6    0.64    0.50
   2 -10  -4   11.08    2.93
  -2 -10   4   11.09    2.69
  -2 -10   2   -0.79    1.51
   2 -10  -2   -3.22    1.54
  -2 -10   0    0.25    0.64
  -2 -10  -2  126.41    9.50
  -2 -10  -4   -0.17    0.47
  -2 -10  -6   -0.70    1.42
  -2 -10  -8  140.72   10.13
  -2 -10 -10   -1.16    1.31
  -2 -10 -12   -0.24    1.22
  -2 -10 -14  122.39    9.73
  -2 -10 -16   -0.73    1.42
  -2 -10 -18   -1.50    1.40
  -2 -10 -20  154.03   11.29
  -2 -10 -22   -1.43    1.83
  -2 -10 -24   -1.39    1.31
  -2 -10 -26   16.44    3.74
   2 -10  28   -0.48    0.67
  -2 -10 -28   -0.16    0.57
   2 -10  30   -0.92    0.96
  -2 -10 -30   -0.69    0.65
  -2 -10 -32   83.19    8.74
  -2 -10 -34   -1.59    1.65
  -2 -10 -36   -1.18    1.06
  -2 -10 -38   39.60    6.14
  -2 -10 -40    0.40    0.94
  -2 -10 -42    0.10    0.72
  -2 -10 -44    8.48    2.94
   2 -11 -41    2.66    2.04
   2 -11 -39   -0.11    1.15
   2 -11 -37   20.87    4.75
   2 -11 -35   -0.83    0.60
   2 -11 -33    0.14    0.84
   2 -11 -31   40.21    6.34
  -2 -11  29    0.58    0.90
   2 -11 -29   -2.98    1.77
  -2 -11  27   -1.48    0.96
   2 -11 -27   -0.46    1.35
   2 -11 -25   38.35    6.06
  -2 -11  25   36.83    4.79
   2 -11 -23    0.90    1.01
  -2 -11  23   -0.40    0.87
  -2 -11  21   -0.53    1.26
   2 -11 -21    0.47    1.18
  -2 -11  19   75.39    7.14
   2 -11 -19   72.14    8.11
  -2 -11  17   -2.10    1.34
   2 -11 -17   -2.37    2.33
   2 -11 -15    0.77    1.26
  -2 -11  15   -1.08    1.25
  -2 -11  13   90.20    8.00
   2 -11 -13   83.76    8.60
  -2 -11  11   -0.94    0.96
   2 -11 -11   -1.91    1.45
   2 -11  -9    1.12    0.74
  -2 -11   9   -0.76    1.42
   2 -11  -7   48.23    6.31
  -2 -11   7   48.17    5.95
  -2 -11   5   -0.48    0.49
   2 -11  -5   -0.36    1.02
  -2 -11   3   -0.13    0.67
   2 -11  -3   -0.13    0.88
   2 -11  -1   46.90    6.12
  -2 -11   1   45.07    5.97
   2 -11   1    0.28    0.75
  -2 -11  -1    0.61    0.84
  -2 -11  -3   -1.59    1.30
   2 -11   3   -2.05    1.18
   2 -11   5  122.57    9.73
  -2 -11  -5  130.94   10.31
   2 -11   7   -1.69    1.70
  -2 -11  -7   -2.46    2.05
  -2 -11  -9   -2.66    1.52
  -2 -11 -11   70.64    7.74
  -2 -11 -13   -0.43    1.29
  -2 -11 -15    1.20    0.98
  -2 -11 -17  120.69   10.38
  -2 -11 -19   -1.45    1.56
   2 -11  19    2.19    1.27
   2 -11  21   -0.93    0.88
  -2 -11 -21   -0.31    0.63
  -2 -11 -23   19.41    4.26
   2 -11  23   22.18    3.91
   2 -11  25    0.98    1.13
  -2 -11 -25    3.37    2.10
   2 -11  27    0.96    0.71
  -2 -11 -27    0.27    0.53
  -2 -11 -29   40.25    6.30
   2 -11  29   34.43    4.72
  -2 -11 -31   -1.11    1.09
  -2 -11 -33   -0.16    0.68
  -2 -11 -35   40.59    6.47
  -2 -11 -37    0.87    0.55
  -2 -11 -39   -2.67    2.27
   2 -12 -34   10.37    3.68
   2 -12 -32   -1.68    1.36
   2 -12 -30    1.01    0.52
   2 -12 -28   21.81    4.86
  -2 -12  26   -0.87    0.47
   2 -12 -26    4.76    2.42
   2 -12 -24    0.76    1.44
  -2 -12  24    0.62    0.81
   2 -12 -22   26.02    5.18
  -2 -12  22   24.73    4.26
  -2 -12  20    1.37    1.44
   2 -12 -20    0.58    0.94
  -2 -12  18   -1.10    1.42
   2 -12 -18   -1.41    1.74
  -2 -12  16   19.47    3.84
   2 -12 -16   20.30    4.43
   2 -12 -14   -2.91    2.00
  -2 -12  14   -1.96    1.63
  -2 -12  12    0.60    1.23
   2 -12 -12   -1.07    1.45
  -2 -12  10    9.33    2.65
   2 -12 -10    8.89    3.10
   2 -12  -8   -0.57    0.54
  -2 -12   8   -1.08    1.37
  -2 -12   6   -0.05    0.80
   2 -12  -6    0.64    1.02
   2 -12  -4   67.43    8.11
  -2 -12   4   64.61    7.40
   2 -12  -2   -1.40    1.42
  -2 -12   2    0.03    1.08
  -2 -12   0    2.98    1.73
   2 -12   0    0.02    1.19
   2 -12   2   46.30    6.30
  -2 -12  -2   47.82    6.46
   2 -12   4   -3.71    2.06
  -2 -12  -4   -2.21    1.84
   2 -12   6    0.78    1.96
  -2 -12  -6   -2.09    2.18
  -2 -12  -8   33.05    5.54
   2 -12   8   31.06    5.15
   2 -12  10    0.63    1.27
  -2 -12 -10   -1.16    1.03
  -2 -12 -12   -0.47    0.90
   2 -12  12   -2.62    1.42
   2 -12  14   64.73    7.40
  -2 -12 -14   62.06    7.82
   2 -12  16   -0.69    0.69
  -2 -12 -16   -1.72    1.08
  -2 -12 -18    0.79    0.72
   2 -12  18   -1.49    1.26
   2 -12  20   19.50    3.75
  -2 -12 -20   16.45    3.90
   2 -12  22    0.85    1.07
  -2 -12 -22    0.60    1.63
   2 -12  24    0.85    1.06
  -2 -12 -24   -1.89    1.58
   2 -12  26   16.67    3.57
  -2 -12 -26   16.10    4.13
  -2 -12 -28    0.34    0.89
  -2 -12 -30   -0.16    0.83
  -2 -12 -32   12.40    3.59
   2 -13 -27    0.62    0.86
  -2 -13  25   25.68    4.56
   2 -13 -25   30.27    5.89
   2 -13 -23    0.59    0.99
  -2 -13  23    0.76    0.43
   2 -13 -21    2.24    1.76
  -2 -13  21   -1.58    1.77
  -2 -13  19   35.92    5.44
   2 -13 -19   40.85    6.65
  -2 -13  17    1.16    0.80
   2 -13 -17   -2.18    1.90
  -2 -13  15   -2.28    1.69
   2 -13 -15   -0.96    1.55
   2 -13 -13    6.65    2.62
  -2 -13  13    7.33    2.31
   2 -13 -11   -0.74    1.42
  -2 -13  11   -2.82    1.86
  -2 -13   9   -0.43    0.95
   2 -13  -9    2.79    2.16
   2 -13  -7   57.15    7.60
  -2 -13   7   64.92    7.67
  -2 -13   5    0.61    0.63
   2 -13  -5    1.65    1.58
   2 -13  -3   -0.85    1.21
  -2 -13   3   -1.80    1.78
  -2 -13   1   41.85    6.39
   2 -13  -1   44.87    6.63
  -2 -13  -1   -1.03    0.97
   2 -13   1   -0.46    0.56
   2 -13   3   -2.45    1.85
  -2 -13  -3   -1.63    2.22
   2 -13   5   56.35    7.35
  -2 -13  -5   48.88    7.03
  -2 -13  -7   -0.27    0.73
   2 -13   7   -5.41    2.68
  -2 -13  -9   -2.45    2.18
   2 -13   9   -2.72    2.30
  -2 -13 -11   44.32    6.82
   2 -13  11   37.01    5.85
   2 -13  13   -1.20    1.19
  -2 -13 -13   -0.93    1.91
  -2 -13 -15   -0.21    0.76
   2 -13  15   -0.80    1.17
  -2 -13 -17   39.46    6.54
   2 -13  17   39.59    5.91
   2 -13  19   -1.52    1.42
  -2 -13 -19    2.41    2.10
   2 -13  21   -0.79    1.51
  -2 -13 -21    0.58    1.53
   2 -13  23   19.67    4.10
  -2 -13 -23   25.01    5.30
   2 -13  25   -1.83    1.36
  -2 -13 -25    0.80    1.23
  -2 -14  24    0.97    1.04
  -2 -14  22   29.71    5.31
  -2 -14  20    0.02    0.91
  -2 -14  18   -0.59    1.33
   2 -14 -18    1.69    1.57
  -2 -14  16   22.82    4.73
   2 -14 -16   26.27    5.67
   2 -14 -14    1.28    1.49
  -2 -14  14   -1.61    1.82
  -2 -14  12   -0.53    0.73
   2 -14 -12   -1.51    1.67
  -2 -14  10   13.53    3.72
   2 -14 -10   11.34    3.58
  -2 -14   8   -1.07    0.81
   2 -14  -8    1.13    1.42
   2 -14  -6    0.23    0.63
  -2 -14   6   -2.49    1.61
   2 -14  -4   18.34    4.44
  -2 -14   4   15.63    4.02
  -2 -14   2   -1.03    1.97
   2 -14  -2    0.48    1.42
  -2 -14   0   -3.12    1.64
   2 -14   0    0.35    1.31
   2 -14   2   22.06    4.74
  -2 -14  -2   26.09    5.38
   2 -14   4    0.19    0.76
  -2 -14  -4   -0.81    0.92
   2 -14   6   -1.09    1.65
  -2 -14  -6   -0.11    0.68
   2 -14   8   22.11    4.79
  -2 -14  -8   23.51    5.16
   2 -14  10   -3.34    2.53
  -2 -14 -10   -2.62    1.94
  -2 -14 -12    4.67    2.69
   2 -14  12    0.45    1.14
  -2 -14 -14   16.38    4.23
   2 -14  14   16.16    3.91
   2 -14  16   -1.20    0.52
  -2 -14 -16   -2.44    2.21
   2 -14  18   -0.11    0.52
   2 -14  20   25.77    5.03
   2 -14  22   -2.35    1.87
  -2 -15  21    0.71    0.75
  -2 -15  19   13.71    3.74
  -2 -15  17    0.97    1.58
  -2 -15  15    0.33    0.77
  -2 -15  13   11.98    3.55
  -2 -15  11    1.31    1.22
  -2 -15   9    0.90    1.47
  -2 -15   7    7.67    3.06
   2 -15  -5    0.00    0.69
  -2 -15   5   -0.16    0.64
  -2 -15   3    1.38    1.67
   2 -15  -3    1.02    1.29
  -2 -15   1   11.98    3.55
   2 -15  -1    9.01    3.40
  -2 -15  -1    0.21    1.16
   2 -15   1    3.80    2.14
   2 -15   3    0.39    1.52
  -2 -15  -3   -0.79    1.61
   2 -15   5   11.65    3.61
  -2 -15  -5   10.02    3.56
   2 -15   7    0.78    1.29
   2 -15   9    0.07    1.32
   2 -15  11    3.94    1.90
   2 -15  13   -1.23    1.79
   2 -15  15    1.71    0.86
   2 -15  17    8.18    2.95
   2 -15  19   -1.73    1.78
   2 -15  21   -0.78    1.30
   3   0 -35   -0.05    0.25
   3   0 -33    0.40    0.21
   3   0 -31    0.32    0.38
   3   0 -29    0.44    0.36
   3   0 -27   -0.22    0.23
   3   0 -25   -0.26    0.18
   3   0 -23   -0.23    0.19
   3   0 -21    0.42    0.25
   3   0 -19   -0.15    0.20
   3   0 -17   -0.17    0.12
   3   0 -15    0.30    0.09
   3   0 -13   -0.13    0.12
   3   0   1   -0.23    0.15
   3   0   3    0.08    0.07
  -3   0  -3    0.20    0.24
  -3   0  -5    0.05    0.18
   3   0   5    0.07    0.13
  -3   0  -7   -0.05    0.22
   3   0   7   -0.20    0.22
  -3   0  -9   -0.14    0.29
   3   0   9    0.15    0.23
  -3   0 -11   -0.22    0.23
   3   0  11   -0.01    0.21
  -3   0 -13   -0.28    0.26
   3   0  13   -0.33    0.23
  -3   0 -15   -0.05    0.22
   3   0  15    0.01    0.29
  -3   0 -17    0.11    0.26
   3   0  17   -0.24    0.35
  -3   0 -19    0.48    0.77
   3   0  19   -0.26    0.26
  -3   0 -21    0.16    0.39
   3   0  21   -0.58    0.44
   3   0  23    0.81    0.53
  -3   0 -23    3.11    1.39
   3   0  25   -0.30    0.49
  -3   0 -25    0.06    0.49
   3   0  27    0.63    0.37
  -3   0 -27   -0.24    0.46
   3   0  29   -0.18    0.47
  -3   0 -29    1.82    0.91
   3   0  31   -0.14    0.29
  -3   0 -31   -0.11    0.22
   3   0  33   -0.44    0.52
  -3   0 -33   -0.30    0.22
  -3   0 -35    0.94    0.69
  -3   0 -37    0.39    0.55
  -3   0 -39   -0.12    0.52
   3  -1 -42    2.90    0.69
   3  -1 -40    0.42    0.35
   3  -1 -38    0.42    0.64
   3  -1 -36    0.35    0.21
   3  -1 -34    0.51    0.54
   3  -1 -32    0.09    0.51
   3  -1 -30   35.25    2.56
   3  -1 -28   -0.37    0.34
   3  -1 -26   -0.48    0.60
   3  -1 -24  340.56    7.57
   3  -1 -22   -0.13    0.40
   3  -1 -20    0.27    0.30
   3  -1 -18   -0.09    0.38
   3  -1 -16   -0.07    0.28
   3  -1 -14   -0.01    0.20
  -3  -1   4    0.04    0.12
   3   1  -4    0.01    0.13
   3   1  -2    0.03    0.07
  -3  -1   2    0.09    0.09
  -3  -1   0    0.86    0.30
   3   1   0    0.58    0.21
   3   1   2    0.12    0.21
  -3  -1  -2   -0.24    0.31
  -3  -1  -4    0.17    0.22
   3   1   4    0.23    0.20
   3  -1   6    0.58    0.33
   3   1   6    0.22    0.28
  -3  -1  -6    0.29    0.22
   3  -1   8    0.19    0.31
  -3   1  -8    0.39    0.55
   3   1   8    0.27    0.21
  -3  -1  -8   -0.10    0.26
   3  -1  10    0.00    0.27
  -3  -1 -10   -0.16    0.21
   3   1  10    0.59    0.49
   3  -1  12   11.09    1.17
  -3   1 -12   12.29    1.28
   3   1  12   13.67    1.54
  -3  -1 -12   11.56    1.38
   3  -1  14   -0.06    0.12
   3   1  14    0.03    0.21
  -3  -1 -14   -0.38    0.47
   3  -1  16   -0.18    0.12
  -3  -1 -16    0.03    0.29
   3   1  16   -0.22    0.18
  -3   1 -18  226.52    6.12
   3   1  18  223.22    6.95
  -3  -1 -18  227.19    6.93
   3  -1  18  230.07    5.97
  -3  -1 -20    0.59    0.81
   3   1  20   -0.02    0.42
   3  -1  20    0.35    0.42
  -3  -1 -22    0.25    0.45
  -3   1 -22   -0.15    0.34
   3   1  22   -0.04    0.32
   3  -1  22   -0.03    0.33
  -3  -1 -24   22.10    2.37
  -3   1 -24   23.80    2.15
   3   1  24   20.48    2.32
   3  -1  24   21.86    2.01
  -3   1 -26   -0.25    0.26
   3   1  26   -0.30    0.40
   3  -1  26   -0.04    0.31
  -3  -1 -28    0.00    0.66
   3   1  28   -0.04    0.49
   3  -1  28   -0.48    0.27
  -3   1 -28    0.10    0.24
  -3  -1 -30   38.52    3.37
   3   1  30   40.88    3.57
   3  -1  30   44.19    3.05
  -3  -1 -32    0.19    0.56
   3  -1  32   -0.03    0.37
   3   1  32   -0.10    0.27
   3  -1  34    0.35    0.40
  -3  -1 -34    1.30    0.99
  -3  -1 -36   29.97    3.14
   3  -1  36   28.79    2.48
  -3  -1 -38    0.50    0.64
  -3  -1 -40    0.75    0.74
  -3  -1 -42   14.26    2.18
   3  -2 -43    0.23    0.20
   3  -2 -41    0.83    0.80
   3  -2 -39    8.21    1.54
   3  -2 -37    1.79    0.89
   3  -2 -35    0.12    0.21
   3  -2 -33    3.32    0.72
   3  -2 -31   -0.23    0.55
   3  -2 -29   -0.40    0.57
   3  -2 -27   64.24    3.98
   3  -2 -25   -0.01    0.62
   3  -2 -23    0.27    0.53
   3  -2 -21   71.18    3.99
   3  -2 -19   -0.18    0.37
   3  -2 -17   -0.24    0.33
   3  -2 -15  629.16   11.33
  -3  -2  11    3.23    0.62
  -3  -2   9 3372.57   16.35
  -3  -2   7    0.53    0.61
  -3  -2   5    0.05    0.35
   3   2  -5    0.50    0.40
  -3  -2   3    0.01    0.28
   3   2  -3    1.67    0.40
   3   2  -1   -0.22    0.15
  -3  -2   1   -0.46    0.30
   3   2   1   -0.01    0.20
  -3  -2  -1   -0.09    0.44
  -3  -2  -3 1098.47   13.16
   3   2   3 1064.88   12.98
   3   2   5   -0.31    0.47
  -3  -2  -5   -0.10    0.38
   3   2   7   -0.06    0.28
  -3  -2  -7    1.39    1.02
   3   2   9    0.10    0.59
  -3  -2  -9   -0.25    0.45
   3  -2  11    0.31    0.34
   3   2  11    0.02    0.43
  -3  -2 -11    0.13    0.27
   3  -2  13   -0.30    0.35
   3   2  13    0.26    0.20
  -3  -2 -13    0.70    0.76
   3  -2  15    6.24    0.97
   3   2  15    7.56    1.34
  -3  -2 -15    7.02    1.30
   3  -2  17    0.19    0.27
   3   2  17   -0.08    0.47
  -3  -2 -17   -0.21    0.48
   3  -2  19    0.09    0.18
   3   2  19    0.05    0.37
   3   2  21  187.83    7.47
   3  -2  21  183.51    5.51
  -3  -2 -21  189.40    7.26
   3  -2  23   -0.08    0.34
   3   2  23    0.26    0.31
  -3  -2 -23    0.14    0.54
  -3  -2 -25    1.52    1.00
   3   2  25    0.64    0.51
   3  -2  25    0.70    0.45
  -3  -2 -27    1.96    0.80
   3   2  27    0.59    0.26
   3  -2  27    1.83    0.68
  -3  -2 -29    0.54    0.78
   3   2  29    0.53    0.38
   3  -2  29    0.40    0.47
  -3  -2 -31    0.09    0.56
   3  -2  31   -0.24    0.13
  -3  -2 -33   -0.26    0.25
   3  -2  33   -0.08    0.30
  -3  -2 -35   -0.18    0.27
   3  -2  35    0.58    0.39
  -3  -2 -37    2.29    1.21
   3  -2  37    1.05    0.66
  -3  -2 -39   93.53    6.07
  -3  -2 -41    1.14    1.08
   3  -3 -42    4.64    1.18
   3  -3 -40   -0.71    0.63
   3  -3 -38    1.40    0.92
   3  -3 -36   11.49    2.00
   3  -3 -34    1.47    0.88
   3  -3 -32   -0.54    0.52
   3  -3 -30    0.62    0.25
   3  -3 -28    0.62    0.68
   3  -3 -26   -1.07    0.89
   3  -3 -24   46.83    3.77
   3  -3 -22    0.34    0.61
  -3  -3  20   -0.11    0.09
  -3  -3  20   -0.11    0.15
  -3  -3  18   29.24    1.57
   3  -3 -18   30.57    2.90
  -3  -3  16   -0.83    0.47
   3  -3 -16    0.43    0.32
  -3  -3  14    0.37    0.42
  -3  -3  12  157.76    4.52
  -3  -3  10    0.04    0.18
  -3  -3   8    0.14    0.38
  -3  -3   6   -0.48    0.68
  -3  -3   4    0.33    0.76
  -3  -3   2   -0.18    0.22
   3   3   0 1401.43   17.00
  -3  -3   0 1423.14   16.86
   3   3   2    0.30    0.31
  -3  -3  -2    0.05    0.42
   3   3   4    3.16    1.08
  -3  -3  -4   -0.24    0.23
  -3  -3  -6   51.27    3.50
   3   3   6   54.81    3.66
  -3  -3  -8   -0.97    0.62
   3   3   8    0.57    0.63
   3   3  10    0.68    0.67
  -3  -3 -10    0.38    0.40
   3   3  12   -0.68    0.58
  -3  -3 -12   -0.33    0.66
   3   3  14    1.70    1.08
  -3  -3 -14    2.19    1.50
   3  -3  16    0.64    0.71
   3   3  16    1.28    0.97
  -3  -3 -16    1.24    1.22
   3  -3  18   80.29    3.90
   3   3  18   83.08    5.25
  -3  -3 -18   77.32    4.91
   3  -3  20   -0.20    0.25
   3   3  20    0.06    0.29
  -3  -3 -20    0.40    0.65
   3  -3  22   -0.29    0.25
   3   3  22    0.28    0.48
  -3  -3 -22    0.40    0.48
   3  -3  24   20.47    1.97
   3   3  24   22.53    2.92
  -3  -3 -24   19.89    2.62
   3  -3  26   -0.15    0.32
  -3  -3 -26   -0.17    0.32
  -3  -3 -28   -0.57    0.79
   3  -3  28   -0.50    0.43
  -3  -3 -30   10.12    1.96
   3  -3  30   11.02    1.39
  -3  -3 -32    0.12    0.59
   3  -3  32   -0.24    0.35
  -3  -3 -34    0.03    0.46
   3  -3  34   -0.31    0.37
  -3  -3 -36    2.09    0.67
   3  -3  36    3.12    0.58
  -3  -3 -38    0.28    0.38
  -3  -3 -40   -0.35    0.73
  -3  -3 -42   10.52    2.34
   3  -4 -43    0.22    0.35
   3  -4 -41   -0.18    0.55
   3  -4 -39    0.70    0.44
   3  -4 -37   -1.70    1.17
   3  -4 -35    2.00    1.49
   3  -4 -33   16.86    2.60
   3  -4 -31    1.19    0.82
   3  -4 -29    1.36    1.30
   3  -4 -27   14.26    2.35
  -3  -4  25    0.44    0.28
   3  -4 -25    0.38    0.78
  -3  -4  25    0.81    0.33
  -3  -4  23    0.52    0.29
  -3  -4  23    0.14    0.20
   3  -4 -23   -0.72    0.86
   3  -4 -21    0.77    0.59
  -3  -4  21    0.48    0.33
   3  -4 -19    0.40    1.03
  -3  -4  19   -0.84    0.64
  -3  -4  17    1.06    0.71
   3  -4 -17    0.37    0.98
   3  -4 -15    7.05    1.39
  -3  -4  15    6.64    1.11
  -3  -4  13   -0.27    0.48
  -3  -4  11   -0.04    0.24
  -3  -4   9    0.81    0.34
  -3  -4   7   -0.17    0.38
  -3  -4   5    1.56    0.83
  -3  -4   3  513.42   11.31
  -3  -4   1   -0.01    0.24
  -3  -4  -1    0.34    0.67
  -3  -4  -3  342.41    9.75
  -3  -4  -5    0.57    0.68
  -3  -4  -7    2.10    1.15
  -3  -4  -9   29.88    3.06
  -3  -4 -11    1.66    1.41
  -3  -4 -13    2.06    1.22
  -3  -4 -15    0.76    0.38
  -3  -4 -17    0.47    0.84
   3  -4  19    0.89    0.68
  -3  -4 -19   -0.42    0.48
   3  -4  21  210.44    6.90
  -3  -4 -21  208.74    9.01
   3  -4  23   -0.26    0.39
  -3  -4 -23    0.02    0.43
   3  -4  25    0.87    0.77
  -3  -4 -25    1.75    1.43
   3  -4  27    0.83    0.36
  -3  -4 -27    0.54    0.44
   3  -4  29   -0.30    0.31
  -3  -4 -29   -0.02    0.66
   3  -4  31    1.74    0.80
  -3  -4 -31    3.00    1.79
  -3  -4 -33    8.83    1.80
   3  -4  33    8.80    1.19
  -3  -4 -35   -1.85    1.45
   3  -4  35   -0.10    0.20
  -3  -4 -37    0.76    1.03
  -3  -4 -39   -0.42    0.93
  -3  -4 -41    0.31    0.59
  -3  -4 -43   -0.74    0.76
   3  -5 -44   -1.04    1.08
   3  -5 -42    0.32    0.48
   3  -5 -40   -1.10    0.91
   3  -5 -38   -0.28    0.80
   3  -5 -36    4.38    1.52
   3  -5 -34    3.26    1.89
   3  -5 -32   -0.42    1.00
  -3  -5  30   39.56    1.66
  -3  -5  30   40.11    1.63
   3  -5 -30   43.09    4.54
  -3  -5  28   -0.05    0.27
  -3  -5  28    0.29    0.25
  -3  -5  26    0.27    0.31
  -3  -5  26    0.09    0.21
   3  -5 -26    0.20    0.38
  -3  -5  24   87.81    3.93
   3  -5 -24   86.21    6.24
  -3  -5  22    0.01    0.28
   3  -5 -22   -1.51    1.24
   3  -5 -20    0.15    0.39
  -3  -5  20   -0.22    0.46
   3  -5 -18   56.90    5.08
  -3  -5  18   56.66    3.58
  -3  -5  16   -2.07    1.28
   3  -5 -16    2.19    1.31
  -3  -5  14    0.10    0.30
  -3  -5  12    0.60    0.58
  -3  -5  10    0.16    0.31
  -3  -5   8    0.39    0.38
  -3  -5   6   90.07    5.19
  -3  -5   4   -0.25    0.48
  -3  -5   2   -0.19    0.43
  -3  -5   0  234.47    8.77
  -3  -5  -2    1.28    1.14
  -3  -5  -4    1.43    0.84
  -3  -5  -6  337.74   11.00
  -3  -5  -8    0.22    0.31
  -3  -5 -10    2.70    1.66
  -3  -5 -12  256.25   10.30
  -3  -5 -14   -0.71    0.74
  -3  -5 -16    0.34    0.68
  -3  -5 -18   -0.66    0.76
  -3  -5 -20   -0.08    0.35
   3  -5  22    0.24    0.49
  -3  -5 -22    0.25    0.76
   3  -5  24    8.01    1.39
  -3  -5 -24    5.82    1.15
   3  -5  26    0.91    0.69
  -3  -5 -26    1.13    1.11
   3  -5  28    0.03    0.43
  -3  -5 -28   -0.28    0.52
   3  -5  30    3.97    0.93
  -3  -5 -30    6.05    1.76
   3  -5  32    0.60    0.39
  -3  -5 -32   -0.30    0.96
   3  -5  34    0.01    0.16
  -3  -5 -34   -0.33    0.72
  -3  -5 -36    0.13    0.54
  -3  -5 -38   -0.03    0.49
  -3  -5 -40   -0.07    0.89
  -3  -5 -42    1.52    1.01
  -3  -5 -44   -0.53    0.35
   3  -6 -45   -0.78    1.27
   3  -6 -43    0.57    0.65
   3  -6 -41   -0.93    0.91
   3  -6 -39   -0.88    0.76
   3  -6 -37   -0.88    0.73
   3  -6 -35   -0.37    0.47
  -3  -6  33   66.42    2.27
   3  -6 -33   80.83    6.74
  -3  -6  33   62.79    2.22
  -3  -6  31    0.42    0.28
  -3  -6  31   -0.17    0.28
  -3  -6  29    0.47    0.42
   3  -6 -29   -0.30    0.67
  -3  -6  29    0.35    0.52
  -3  -6  27    6.44    1.11
   3  -6 -27    5.08    1.73
  -3  -6  25    0.42    0.56
   3  -6 -25    0.64    0.82
   3  -6 -23   -0.16    0.81
  -3  -6  23    0.59    0.46
  -3  -6  21   43.66    3.45
   3  -6 -21   42.98    4.61
  -3  -6  19   -1.27    1.01
   3  -6 -19   -0.98    0.98
  -3  -6  17   -1.30    1.13
   3  -6 -17   -0.32    0.90
  -3  -6  15   -1.45    1.06
   3  -6 -15    2.88    1.85
  -3  -6  13    4.52    1.88
  -3  -6  11    5.86    2.09
  -3  -6   9  123.15    6.54
  -3  -6   7    1.14    0.85
  -3  -6   5    0.69    1.09
  -3  -6   3   -0.39    0.66
  -3  -6   1    0.44    0.88
  -3  -6  -1   -0.56    0.81
  -3  -6  -3   10.88    2.09
  -3  -6  -5    2.95    1.90
  -3  -6  -7    0.29    0.66
  -3  -6  -9   89.43    6.35
  -3  -6 -11    2.45    1.41
  -3  -6 -13   -0.86    1.06
  -3  -6 -15   -0.34    1.12
  -3  -6 -17    1.07    1.34
  -3  -6 -19   -0.96    1.41
  -3  -6 -21   -0.87    1.28
  -3  -6 -23   -1.35    0.99
   3  -6  25   -0.16    0.21
  -3  -6 -25    0.72    1.01
   3  -6  27  112.01    5.89
  -3  -6 -27  116.60    8.16
   3  -6  29    0.43    0.60
  -3  -6 -29   -0.69    0.69
   3  -6  31   -0.25    0.39
  -3  -6 -31   -0.07    0.40
   3  -6  33   -0.85    0.59
  -3  -6 -33   -0.06    0.69
  -3  -6 -35    0.75    0.80
  -3  -6 -37   -0.42    0.46
  -3  -6 -39    0.50    0.75
  -3  -6 -41    0.56    1.11
  -3  -6 -43    0.67    1.02
   3  -7 -44    0.41    0.55
   3  -7 -42    2.41    1.35
   3  -7 -40    0.14    0.85
   3  -7 -38    0.81    1.02
   3  -7 -36    3.07    1.24
  -3  -7  34   -0.69    0.50
   3  -7 -34    0.84    0.93
  -3  -7  32    1.28    0.59
   3  -7 -32    0.08    0.81
  -3  -7  32    0.34    0.40
  -3  -7  30    1.41    0.37
   3  -7 -30    0.50    1.18
   3  -7 -28    1.81    1.44
  -3  -7  28    0.71    0.58
  -3  -7  26    0.12    0.30
   3  -7 -26    0.55    0.58
   3  -7 -24   13.57    2.65
  -3  -7  24   15.58    2.20
  -3  -7  22   -0.73    0.68
   3  -7 -22    0.30    0.49
   3  -7 -20    0.40    1.04
  -3  -7  20   -0.29    0.60
  -3  -7  18   -0.27    0.75
   3  -7 -18    1.60    0.99
  -3  -7  16    0.44    0.45
   3  -7 -16   -0.17    1.12
  -3  -7  14   -0.09    0.49
   3  -7 -14    2.51    1.77
  -3  -7  12    0.16    0.86
  -3  -7  10   -0.02    0.54
  -3  -7   8    4.51    2.04
  -3  -7   6   50.41    4.71
  -3  -7   4    0.82    1.11
  -3  -7   2   -0.30    0.33
  -3  -7   0    2.90    0.99
  -3  -7  -2   -0.21    0.87
  -3  -7  -4    0.02    0.78
  -3  -7  -6   20.93    3.20
  -3  -7  -8    1.57    1.48
  -3  -7 -10    0.59    0.64
  -3  -7 -12   21.38    3.21
  -3  -7 -14   -2.28    1.70
  -3  -7 -16   -0.53    1.12
  -3  -7 -18    1.87    0.71
  -3  -7 -20    0.37    0.73
  -3  -7 -22    0.58    0.84
  -3  -7 -24    0.39    0.37
   3  -7  26    0.30    0.52
  -3  -7 -26    0.36    0.97
   3  -7  28   -0.42    0.45
  -3  -7 -28    0.86    1.27
   3  -7  30   21.36    2.73
  -3  -7 -30   24.48    4.00
  -3  -7 -32   -0.32    0.73
  -3  -7 -34    0.03    0.44
  -3  -7 -36    0.53    0.80
  -3  -7 -38    1.57    1.26
  -3  -7 -40    3.17    1.97
  -3  -7 -42   -0.33    0.53
  -3  -7 -44   -0.11    0.54
   3  -8 -45    0.11    0.53
   3  -8 -43    0.09    0.80
   3  -8 -41    2.40    1.66
   3  -8 -39    1.30    1.03
   3  -8 -37   -0.75    1.12
   3  -8 -35    0.28    0.97
  -3  -8  33    0.12    0.31
   3  -8 -33   -1.17    1.46
  -3  -8  31    0.30    0.29
   3  -8 -31   -2.27    1.89
   3  -8 -29   -1.37    1.39
  -3  -8  29   -1.03    0.83
   3  -8 -27    0.61    1.19
  -3  -8  27    4.58    1.20
  -3  -8  25   -0.30    0.66
   3  -8 -25   -0.72    0.93
   3  -8 -23    2.37    1.75
  -3  -8  23    0.22    0.28
   3  -8 -21    0.49    0.60
  -3  -8  21   -0.90    0.82
   3  -8 -19    1.87    1.60
  -3  -8  19   -0.59    0.73
   3  -8 -17    2.70    1.94
  -3  -8  17    1.22    1.14
   3  -8 -15   12.73    2.62
  -3  -8  15   11.49    2.35
  -3  -8  13   -0.92    1.17
   3  -8 -13   -0.16    0.61
   3  -8 -11    6.37    2.57
  -3  -8  11   -0.12    0.52
  -3  -8   9   19.73    3.04
  -3  -8   7    1.34    1.06
  -3  -8   5    2.60    1.67
  -3  -8   3   15.07    2.78
  -3  -8   1    1.00    0.91
  -3  -8  -1   -0.66    0.78
  -3  -8  -3   21.87    3.38
  -3  -8  -5    0.14    0.65
  -3  -8  -7    1.94    1.52
  -3  -8  -9   11.44    2.49
  -3  -8 -11   -0.74    0.53
  -3  -8 -13    0.54    0.73
  -3  -8 -15   21.93    3.67
  -3  -8 -17    1.19    1.11
  -3  -8 -19   -0.25    0.45
  -3  -8 -21   20.39    3.63
  -3  -8 -23    2.01    1.28
  -3  -8 -25   -0.37    1.03
  -3  -8 -27   -1.65    1.73
   3  -8  29    1.82    1.14
  -3  -8 -29    1.84    2.08
  -3  -8 -31    3.13    1.67
  -3  -8 -33   -0.45    0.68
  -3  -8 -35    2.88    1.76
  -3  -8 -37    0.76    1.25
  -3  -8 -39   -1.30    0.92
  -3  -8 -41   -1.73    1.60
  -3  -8 -43    0.45    0.87
   3  -9 -44   -2.30    1.52
   3  -9 -42   -0.30    0.95
   3  -9 -40    2.49    1.76
   3  -9 -38   -0.08    0.61
   3  -9 -36    1.80    1.05
   3  -9 -34   -0.22    0.88
   3  -9 -32   -1.80    1.85
  -3  -9  32   -0.77    0.68
   3  -9 -30    0.01    0.80
  -3  -9  30    1.76    0.72
   3  -9 -28   -0.29    0.53
  -3  -9  28   -0.45    0.80
  -3  -9  26   -0.44    0.66
   3  -9 -26   -1.72    1.48
  -3  -9  24    0.64    0.62
   3  -9 -24   -0.31    1.05
  -3  -9  22    6.45    2.24
   3  -9 -22    9.28    3.70
   3  -9 -20    6.30    2.84
  -3  -9  20    1.78    1.32
   3  -9 -18   41.11    5.46
  -3  -9  18   36.84    4.34
   3  -9 -16    1.92    1.52
  -3  -9  16    0.04    0.36
  -3  -9  14    2.05    1.15
   3  -9 -14   -0.37    0.76
   3  -9 -12    3.44    1.77
  -3  -9  12    4.90    1.48
   3  -9 -10    2.59    2.11
  -3  -9  10    2.94    1.55
  -3  -9   8    0.11    0.46
  -3  -9   6   74.92    6.61
  -3  -9   4   -0.01    0.69
  -3  -9   2   -0.58    0.48
  -3  -9   0    0.58    0.73
  -3  -9  -2    0.75    1.13
  -3  -9  -4   -0.41    0.97
  -3  -9  -6   74.75    6.98
  -3  -9  -8    1.05    1.09
  -3  -9 -10   -1.46    1.35
  -3  -9 -12    2.94    1.06
  -3  -9 -14    3.33    2.08
  -3  -9 -16   -1.59    1.24
  -3  -9 -18    0.32    0.99
  -3  -9 -20    3.13    2.04
  -3  -9 -22   -2.34    1.87
  -3  -9 -24   13.72    3.21
  -3  -9 -26    5.04    2.58
  -3  -9 -28   -0.03    0.59
  -3  -9 -30   -1.13    1.15
  -3  -9 -32    3.37    2.11
  -3  -9 -34    0.78    0.79
  -3  -9 -36   -0.47    1.21
  -3  -9 -38    0.00    0.79
  -3  -9 -40    2.25    1.39
  -3  -9 -42    0.79    1.14
  -3  -9 -44   -0.44    0.60
   3 -10 -45   -0.44    1.09
   3 -10 -43   -0.48    1.47
   3 -10 -41   -2.64    1.76
   3 -10 -39   -3.24    2.11
   3 -10 -37    0.69    1.06
   3 -10 -35    3.90    2.13
   3 -10 -33    5.09    2.24
  -3 -10  31    0.97    0.90
   3 -10 -31    0.38    1.20
   3 -10 -29   -0.98    0.89
  -3 -10  29   -0.12    0.43
   3 -10 -27    1.50    0.65
  -3 -10  27    0.03    0.95
  -3 -10  25   -0.82    0.82
   3 -10 -25   -0.61    1.28
   3 -10 -23    0.13    0.84
  -3 -10  23    0.40    0.55
  -3 -10  21   -0.96    1.00
   3 -10 -21   -0.58    0.74
  -3 -10  19    1.33    1.16
   3 -10 -19    1.77    1.48
   3 -10 -17    9.18    3.36
  -3 -10  17    4.26    1.94
  -3 -10  15   32.44    4.59
   3 -10 -15   35.29    5.22
  -3 -10  13   -0.61    0.90
   3 -10 -13   -0.41    0.96
  -3 -10  11   -0.47    0.96
   3 -10 -11   -0.41    0.87
   3 -10  -9    3.76    1.60
  -3 -10   9    1.77    0.99
  -3 -10   7    0.83    0.72
   3 -10  -7   -0.32    0.72
  -3 -10   5   -0.77    0.58
   3 -10  -5   -0.96    1.35
  -3 -10   3   12.01    2.90
  -3 -10   1    2.56    1.71
  -3 -10  -1    1.41    1.39
  -3 -10  -3   21.39    3.85
  -3 -10  -5    0.77    1.18
  -3 -10  -7    0.65    0.66
  -3 -10  -9   16.88    3.59
  -3 -10 -11   -0.39    0.67
  -3 -10 -13    2.43    1.93
  -3 -10 -15    5.47    2.03
  -3 -10 -17    0.57    0.58
  -3 -10 -19    0.66    1.09
  -3 -10 -21   11.00    3.03
  -3 -10 -23    0.39    0.48
  -3 -10 -25    1.12    1.38
  -3 -10 -27   14.06    3.40
  -3 -10 -29    0.61    0.97
  -3 -10 -31    2.43    1.97
  -3 -10 -33    0.08    0.52
  -3 -10 -35   -0.66    1.17
  -3 -10 -37    2.16    1.63
  -3 -10 -39   -0.82    1.33
  -3 -10 -41    0.51    0.59
  -3 -10 -43    0.28    1.27
   3 -11 -42   -1.39    0.56
   3 -11 -40   -1.60    1.08
   3 -11 -38    0.14    1.44
   3 -11 -36   -2.07    1.13
   3 -11 -34   -0.11    0.90
   3 -11 -32    2.58    2.23
   3 -11 -30    1.63    1.60
  -3 -11  28    0.11    0.70
   3 -11 -28    0.92    1.40
   3 -11 -26    1.49    1.65
  -3 -11  26    1.48    1.33
  -3 -11  24    1.74    1.09
   3 -11 -24    2.11    1.51
   3 -11 -22   -1.72    2.01
  -3 -11  22   -2.16    1.66
  -3 -11  20    0.78    0.94
   3 -11 -20    0.72    0.99
   3 -11 -18   -2.63    2.08
  -3 -11  18    0.24    0.70
   3 -11 -16   -0.23    0.71
  -3 -11  16    0.59    0.61
  -3 -11  14    0.83    0.72
   3 -11 -14    2.21    1.82
  -3 -11  12    6.34    2.15
   3 -11 -12    5.84    2.19
   3 -11 -10    0.68    0.62
  -3 -11  10   -2.88    1.62
  -3 -11   8    0.75    0.94
   3 -11  -8    1.55    0.91
   3 -11  -6    4.36    2.19
  -3 -11   6    3.62    1.46
  -3 -11   4    1.83    2.02
   3 -11  -4    2.91    2.22
   3 -11  -2   -0.65    0.89
  -3 -11   2    0.08    0.54
  -3 -11   0   64.81    7.16
   3 -11   0   58.99    6.80
  -3 -11  -2   -1.68    1.80
  -3 -11  -4    2.09    1.80
  -3 -11  -6    0.92    0.90
  -3 -11  -8   -0.41    0.59
  -3 -11 -10   -0.13    0.96
  -3 -11 -12    6.12    2.23
  -3 -11 -14    0.71    0.67
  -3 -11 -16   -0.16    1.68
  -3 -11 -18    4.23    2.23
  -3 -11 -20   -0.01    1.40
  -3 -11 -22   -0.15    1.29
  -3 -11 -24   15.08    3.90
   3 -11  26    1.85    1.24
  -3 -11 -26    1.62    1.63
   3 -11  28    1.53    1.45
  -3 -11 -28    2.88    2.04
  -3 -11 -30    1.06    1.43
  -3 -11 -32    0.12    0.72
  -3 -11 -34    3.75    2.58
  -3 -11 -36   -1.08    1.65
  -3 -11 -38    0.58    1.03
   3 -12 -35    2.04    2.06
   3 -12 -33   -2.09    1.82
   3 -12 -31    2.51    2.28
   3 -12 -29    0.15    0.96
  -3 -12  27   -1.20    1.30
   3 -12 -27    1.83    1.69
   3 -12 -25    0.15    0.53
  -3 -12  25    2.08    1.68
  -3 -12  23    0.25    0.87
   3 -12 -23    0.77    1.27
  -3 -12  21   -1.19    1.09
   3 -12 -21   -0.80    1.56
  -3 -12  19   -0.24    0.44
   3 -12 -19   -0.04    1.45
  -3 -12  17   -2.08    1.88
   3 -12 -17   -1.16    1.46
   3 -12 -15   -1.17    1.98
  -3 -12  15   -1.08    1.49
   3 -12 -13    1.62    1.62
  -3 -12  13    0.10    0.55
  -3 -12  11   -0.31    0.49
   3 -12 -11    0.92    0.97
  -3 -12   9   14.93    3.31
   3 -12  -9   14.96    3.75
  -3 -12   7    1.58    1.63
   3 -12  -7    8.04    3.18
  -3 -12   5    2.15    1.43
   3 -12  -5    2.48    1.00
  -3 -12   3    5.90    2.15
   3 -12  -3    5.29    2.13
   3 -12  -1    2.40    1.81
  -3 -12   1    1.07    1.61
   3 -12   1   -0.94    0.75
  -3 -12  -1    0.13    0.89
   3 -12   3    1.01    1.11
  -3 -12  -3   -0.40    1.06
   3 -12   5    1.19    1.79
  -3 -12  -5    1.17    1.73
  -3 -12  -7   -1.37    1.23
   3 -12   7   -3.96    2.68
   3 -12   9   -0.78    1.47
  -3 -12  -9   -0.06    1.43
  -3 -12 -11   -1.46    1.00
   3 -12  11   -1.93    1.79
  -3 -12 -13    0.71    0.79
   3 -12  13    2.06    1.42
   3 -12  15    0.57    0.51
  -3 -12 -15    3.69    1.84
   3 -12  17    1.10    1.41
  -3 -12 -17    2.29    2.30
   3 -12  19   -0.72    1.22
  -3 -12 -19    0.35    0.71
   3 -12  21    3.70    1.71
  -3 -12 -21    1.58    1.29
   3 -12  23    2.69    1.71
  -3 -12 -23    0.67    1.56
   3 -12  25   -2.36    1.79
  -3 -12 -25    0.62    1.46
   3 -12  27   -1.20    0.55
  -3 -12 -27   -0.77    1.30
  -3 -12 -29    1.97    1.28
  -3 -12 -31   -0.02    0.78
  -3 -12 -33    1.21    1.28
   3 -13 -28   -0.82    0.94
   3 -13 -26    2.96    2.17
  -3 -13  26    0.91    1.07
  -3 -13  24    1.15    1.23
   3 -13 -24    0.16    1.11
  -3 -13  22    0.97    1.08
   3 -13 -22   -1.03    1.55
   3 -13 -20    2.48    1.74
  -3 -13  20    1.93    1.55
   3 -13 -18   -0.30    1.60
  -3 -13  18    0.58    0.58
  -3 -13  16    0.24    1.04
   3 -13 -16   -0.16    0.85
   3 -13 -14   -0.29    1.20
  -3 -13  14   -1.63    1.14
   3 -13 -12    0.39    0.93
  -3 -13  12   -0.80    1.06
   3 -13 -10    1.09    1.54
  -3 -13  10   -1.82    0.69
   3 -13  -8    5.07    2.79
  -3 -13   8    0.68    1.62
   3 -13  -6    9.27    3.12
  -3 -13   6    5.66    2.20
  -3 -13   4   -0.37    0.97
   3 -13  -4   -0.78    0.82
  -3 -13   2    0.02    0.68
   3 -13  -2   -0.04    0.58
   3 -13   0   11.22    3.29
  -3 -13   0   12.75    3.50
  -3 -13  -2    2.21    1.72
   3 -13   2   -0.15    0.68
  -3 -13  -4   -1.06    1.88
   3 -13   4    1.02    0.73
  -3 -13  -6   -0.26    1.07
   3 -13   6   -1.66    1.80
   3 -13   8   -1.18    1.71
  -3 -13  -8   -3.43    2.28
  -3 -13 -10    1.85    1.56
   3 -13  10   -0.03    1.07
   3 -13  12   -1.21    1.03
  -3 -13 -12   -0.14    1.41
  -3 -13 -14   -1.67    1.49
   3 -13  14    1.10    1.42
   3 -13  16   -1.48    0.68
  -3 -13 -16    1.58    1.81
  -3 -13 -18    2.44    1.45
   3 -13  18   -1.85    1.54
   3 -13  20    1.25    1.04
  -3 -13 -20    1.14    1.59
   3 -13  22   -2.27    1.81
  -3 -13 -22    0.99    1.35
   3 -13  24    0.00    1.04
  -3 -13 -24    1.05    1.25
  -3 -14  23    1.11    1.32
  -3 -14  21    0.55    0.69
  -3 -14  19    0.41    0.70
   3 -14 -19    1.47    1.61
  -3 -14  17    2.00    2.07
   3 -14 -17    0.19    0.90
  -3 -14  15   -0.93    1.32
   3 -14 -15    2.22    1.66
   3 -14 -13    0.29    0.92
  -3 -14  13    0.87    0.55
  -3 -14  11    3.57    2.02
   3 -14 -11    2.02    1.62
   3 -14  -9    2.53    2.23
  -3 -14   9   -2.09    1.28
  -3 -14   7   -1.14    1.54
   3 -14  -7    1.22    1.44
   3 -14  -5    0.54    1.37
  -3 -14   5   -1.35    1.45
  -3 -14   3    0.00    1.18
   3 -14  -3   -0.87    1.68
  -3 -14   1    4.01    2.47
   3 -14  -1   -0.95    1.48
  -3 -14  -1    1.64    0.85
   3 -14   1    2.33    1.54
  -3 -14  -3    3.05    1.81
   3 -14   3    0.73    0.94
  -3 -14  -5   -0.86    1.11
   3 -14   5   -0.39    1.14
  -3 -14  -7   -1.04    1.12
   3 -14   7    0.25    1.28
  -3 -14  -9    0.15    0.55
   3 -14   9    0.45    0.97
  -3 -14 -11   -0.22    0.91
   3 -14  11   -0.92    1.25
  -3 -14 -13    0.51    1.20
   3 -14  13    1.24    1.33
  -3 -14 -15    0.62    1.01
   3 -14  15   -0.31    1.29
  -3 -14 -17    1.21    1.89
   3 -14  17   -1.96    0.91
   3 -14  19    2.34    1.93
   3 -14  21    0.41    1.13
   3 -14  23    0.88    0.82
  -3 -15  20    3.63    2.13
  -3 -15  18    3.03    1.64
  -3 -15  16    0.05    0.95
  -3 -15  14    3.11    2.23
  -3 -15  12    0.80    1.25
  -3 -15  10   -0.54    0.55
  -3 -15   8    0.99    0.51
  -3 -15   6   -0.37    0.82
   3 -15  -6   -1.15    1.06
  -3 -15   4    2.83    1.71
   3 -15  -4   -0.40    0.93
   3 -15  -2    1.52    1.40
  -3 -15   2   -0.63    0.69
   3 -15   0    0.40    1.32
  -3 -15   0    0.34    1.52
   3 -15   2    0.69    1.16
  -3 -15  -2   -1.11    0.94
   3 -15   4    0.65    0.57
  -3 -15  -4    1.03    1.32
   3 -15   6    2.68    1.81
   3 -15   8   -0.60    1.01
   3 -15  10    2.12    1.53
   3 -15  12   -0.59    0.64
   3 -15  14    1.53    1.61
   3 -15  16   -0.01    1.42
   3 -15  18    2.19    2.08
   3 -15  20   -0.06    0.87
  -3 -16  17    2.70    2.09
   4   0 -34    0.93    0.31
   4   0 -32  309.68    5.23
   4   0 -30    0.26    0.21
   4   0 -28   -0.27    0.26
   4   0 -26    0.67    0.22
   4   0 -24    0.06    0.26
   4   0 -22    0.05    0.13
   4   0 -20  811.95    7.79
   4   0 -18   -0.17    0.21
   4   0 -16   -0.12    0.13
   4   0 -14  903.61    7.46
  -4   0   4   -0.02    0.10
   4   0  -4    0.09    0.11
  -4   0   2 1772.59   11.63
   4   0  -2 1806.45   11.64
   4   0   0    0.03    0.06
  -4   0   0   -0.13    0.15
  -4   0  -2    0.15    0.19
   4   0   2    0.00    0.20
  -4   0  -4 2312.83   15.73
   4   0   4 2265.64   15.72
   4   0   6    0.11    0.17
  -4   0  -6   -0.35    0.37
  -4   0  -8   -0.29    0.44
   4   0   8   -0.02    0.13
  -4   0 -10   98.46    3.79
   4   0  10  101.29    3.78
  -4   0 -12   -0.52    0.49
   4   0  12   -0.25    0.38
  -4   0 -14   -0.16    0.33
   4   0  14   -0.17    0.23
  -4   0 -16  444.69    9.15
   4   0  16  444.65    8.97
  -4   0 -18   -0.27    0.43
   4   0  18   -0.23    0.42
  -4   0 -20   -0.72    0.57
   4   0  20   -0.53    0.36
  -4   0 -22 1054.75   15.63
   4   0  22 1060.42   15.31
  -4   0 -24    0.30    0.53
   4   0  24   -0.08    0.27
   4   0  26   -0.82    0.60
  -4   0 -26   -0.75    0.78
  -4   0 -28  437.66   10.90
   4   0  28  436.70   10.79
   4   0  30   -0.15    0.48
  -4   0 -30    1.26    0.70
   4   0  32    0.19    0.44
  -4   0 -32    0.79    0.65
   4   0  34  391.46   10.75
  -4   0 -34  398.28   10.86
   4   0  36    0.41    0.46
  -4   0 -36    1.42    0.77
  -4   0 -38   -0.35    0.68
  -4   0 -40   71.96    4.53
   4  -1 -41  107.87    4.02
   4  -1 -39    0.27    0.20
   4  -1 -37   -0.19    0.26
   4  -1 -35  196.40    6.07
   4  -1 -33    0.24    0.26
   4  -1 -31   -0.88    0.62
   4  -1 -29  252.98    6.64
   4  -1 -27   -0.80    0.50
   4  -1 -25   -0.40    0.33
   4  -1 -23  359.13    7.54
   4  -1 -21   -0.85    0.60
   4  -1 -19   -0.35    0.38
   4  -1 -17 1000.21   11.77
   4   1  -5  617.04    6.40
  -4  -1   5  612.76    6.34
   4   1  -3    0.15    0.14
  -4  -1   3    0.10    0.16
  -4  -1   1    0.02    0.16
   4   1  -1    0.08    0.14
  -4  -1  -1  297.70    5.66
   4   1   1  294.54    5.67
   4  -1   3   -0.10    0.21
  -4  -1  -3    0.29    0.32
   4   1   3    0.20    0.28
   4  -1   5    0.12    0.19
  -4  -1  -5   -0.37    0.35
   4   1   5   -0.26    0.31
  -4   1  -7  591.13    8.70
   4  -1   7  593.95    8.67
   4   1   7  578.57    9.35
  -4  -1  -7  581.90    9.33
  -4   1  -9    0.03    0.24
   4  -1   9   -0.20    0.36
  -4  -1  -9   -0.23    0.47
   4   1   9    0.05    0.16
  -4   1 -11    0.60    0.47
   4  -1  11    1.19    0.68
  -4  -1 -11   -0.41    0.36
   4   1  11   -0.11    0.23
   4  -1  13  395.05    7.87
  -4   1 -13  407.00    8.02
   4   1  13  405.49    8.85
  -4  -1 -13  398.14    8.78
  -4   1 -15    0.27    0.51
   4  -1  15    0.39    0.23
  -4  -1 -15    0.19    0.33
   4   1  15    0.18    0.20
  -4  -1 -17    0.33    0.46
   4  -1  17   -0.19    0.39
   4   1  17   -0.03    0.33
  -4   1 -19 1678.44   17.99
   4   1  19 1671.27   20.06
   4  -1  19 1682.19   17.48
  -4  -1 -19 1682.38   19.97
  -4  -1 -21    0.14    0.41
   4   1  21    0.00    0.37
   4  -1  21   -0.33    0.40
  -4  -1 -23    0.05    0.36
  -4   1 -23   -0.07    0.47
   4   1  23    0.30    0.25
   4  -1  23   -0.05    0.34
  -4  -1 -25  508.92   12.02
  -4   1 -25  492.77   10.46
   4   1  25  496.89   11.95
   4  -1  25  498.71   10.33
  -4  -1 -27    0.02    0.25
  -4   1 -27    0.38    0.43
   4   1  27   -0.16    0.42
   4  -1  27   -0.41    0.22
  -4  -1 -29   -0.32    0.38
   4  -1  29   -0.23    0.56
   4   1  29   -0.07    0.37
  -4   1 -29    0.38    0.33
  -4  -1 -31   95.00    5.54
   4   1  31   97.42    5.72
   4  -1  31   99.16    4.85
   4  -1  33   -0.21    0.26
   4   1  33   -0.16    0.53
  -4  -1 -33    0.13    0.35
   4  -1  35   -0.13    0.42
  -4  -1 -35   -0.65    0.55
  -4  -1 -37  255.00    9.53
   4  -1  37  253.19    7.95
  -4  -1 -39    1.01    0.96
  -4  -1 -41    0.12    0.40
   4  -2 -42   -0.10    0.32
   4  -2 -40   -0.11    0.50
   4  -2 -38  108.84    5.42
   4  -2 -36   -0.33    0.49
   4  -2 -34   -0.36    0.31
   4  -2 -32  103.58    5.16
   4  -2 -30   -0.13    0.42
   4  -2 -28   -0.09    0.24
   4  -2 -26  655.48   12.49
   4  -2 -24   -0.68    0.66
   4  -2 -22    0.10    0.28
   4  -2 -20   25.30    2.33
   4  -2 -18    0.43    0.43
  -4  -2  12   -0.11    0.18
  -4  -2  10    0.72    0.42
   4   2  -8    2.51    0.48
  -4  -2   8    2.25    0.41
   4   2  -6    0.05    0.26
  -4  -2   6    0.42    0.18
   4   2  -4   -0.19    0.30
  -4  -2   4    0.37    0.55
   4   2  -2 3220.77   20.97
  -4  -2   2 3237.07   20.60
   4   2   0    0.41    0.36
  -4  -2   0    0.59    0.47
   4   2   2   -0.34    0.64
  -4  -2  -2    0.38    0.48
   4   2   4    2.59    0.64
  -4  -2  -4    2.39    0.70
   4   2   6   -0.69    0.71
  -4  -2  -6    0.44    0.30
   4   2   8   -0.63    0.63
  -4  -2  -8   -0.72    0.58
   4  -2  10  192.49    5.59
   4   2  10  187.71    6.44
  -4  -2 -10  193.54    6.44
   4  -2  12    0.04    0.18
   4   2  12   -0.35    0.37
  -4  -2 -12   -0.25    0.55
   4  -2  14   -0.32    0.47
   4   2  14   -0.70    0.67
  -4  -2 -14    0.40    0.28
   4  -2  16 1084.46   13.83
   4   2  16 1084.29   16.99
  -4  -2 -16 1074.78   16.54
   4   2  18    0.20    0.24
  -4  -2 -18   -0.34    0.38
   4  -2  20   -0.07    0.31
   4   2  20    0.00    0.40
  -4  -2 -20   -0.40    0.70
   4   2  22  372.06   10.89
  -4  -2 -22  367.77   10.52
   4  -2  22  374.17    8.45
  -4  -2 -24   -0.19    0.28
   4  -2  24   -0.63    0.59
   4   2  24   -0.13    0.30
  -4  -2 -26    0.20    0.50
   4   2  26   -0.53    0.72
   4  -2  26    0.07    0.32
   4   2  28  150.50    7.43
   4  -2  28  148.86    5.57
  -4  -2 -28  153.94    7.24
  -4  -2 -30   -0.89    0.84
   4   2  30    0.40    0.60
   4  -2  30    0.04    0.29
  -4  -2 -32   -0.71    0.76
   4  -2  32   -1.41    0.89
  -4  -2 -34   94.62    6.09
   4  -2  34   93.71    4.47
  -4  -2 -36   -0.28    0.69
   4  -2  36    0.27    0.42
  -4  -2 -38    0.44    0.56
  -4  -2 -40  101.53    6.50
  -4  -2 -42    0.93    0.54
   4  -3 -43   -0.89    0.56
   4  -3 -41  116.77    6.39
   4  -3 -39   -0.63    0.52
   4  -3 -37   -1.66    1.11
   4  -3 -35  107.88    6.07
   4  -3 -33   -1.12    0.90
   4  -3 -31    0.10    0.61
   4  -3 -29  325.45   10.15
   4  -3 -27   -1.12    1.03
   4  -3 -25   -0.22    0.58
   4  -3 -23  800.94   15.66
   4  -3 -21   -0.12    0.23
   4  -3 -19   -0.21    0.34
  -4  -3  19   -0.32    0.27
   4  -3 -17  228.25    7.98
  -4  -3  17  220.89    4.42
  -4  -3  15    0.40    0.31
  -4  -3  13   -0.19    0.24
  -4  -3  11    7.29    0.97
  -4  -3   9   -0.32    0.32
  -4  -3   7   -0.08    0.50
  -4  -3   5 4457.92   27.79
  -4  -3   3   -0.82    0.54
   4   3  -3   -0.26    0.28
  -4  -3   1   -0.45    0.68
   4   3  -1    0.60    0.61
   4   3   1  430.41    9.70
  -4  -3  -1  431.71    9.62
   4   3   3   -0.02    0.29
  -4  -3  -3   -0.94    0.84
   4   3   5    0.01    0.35
  -4  -3  -5   -0.38    0.90
   4   3   7  328.09    9.12
  -4  -3  -7  332.10    9.10
   4   3   9    0.49    0.44
  -4  -3  -9    0.37    0.45
   4   3  11    0.97    0.82
  -4  -3 -11    0.02    0.63
   4   3  13 2400.35   26.63
  -4  -3 -13 2306.56   25.89
   4  -3  15   -0.27    0.21
   4   3  15    0.46    0.76
  -4  -3 -15   -0.20    0.49
   4  -3  17   -0.38    0.43
   4   3  17   -0.42    0.44
  -4  -3 -17   -1.09    0.66
   4  -3  19  307.24    8.05
   4   3  19  308.98   10.37
  -4  -3 -19  303.24    9.94
   4  -3  21   -0.94    0.66
   4   3  21    0.16    0.27
  -4  -3 -21   -0.69    0.80
   4  -3  23    0.23    0.16
   4   3  23    0.30    0.44
  -4  -3 -23    0.00    0.81
   4  -3  25  437.74    9.62
   4   3  25  435.68   13.27
  -4  -3 -25  436.61   12.74
   4  -3  27   -0.73    0.60
   4   3  27   -1.10    1.05
  -4  -3 -27   -1.31    1.24
  -4  -3 -29    0.57    0.35
   4  -3  29   -0.13    0.31
  -4  -3 -31  222.84    9.60
   4  -3  31  208.70    6.52
  -4  -3 -33   -1.17    1.25
   4  -3  33   -0.16    0.34
  -4  -3 -35    0.45    0.49
   4  -3  35   -0.83    0.52
  -4  -3 -37   61.78    5.38
   4  -3  37   55.33    3.12
  -4  -3 -39   -0.72    0.59
  -4  -3 -41   -0.59    0.76
  -4  -3 -43   84.37    6.46
   4  -4 -44   33.45    3.80
   4  -4 -42   -1.18    1.01
   4  -4 -40   -0.62    0.61
   4  -4 -38   69.62    5.46
   4  -4 -36   -0.06    0.48
   4  -4 -34   -0.29    0.90
   4  -4 -32   26.97    3.26
   4  -4 -30   -0.20    0.72
   4  -4 -28   -1.00    1.03
   4  -4 -26  278.79   10.37
  -4  -4  24    0.07    0.23
   4  -4 -24   -0.91    1.06
  -4  -4  24   -0.37    0.38
   4  -4 -22    0.47    0.44
  -4  -4  22    0.06    0.18
   4  -4 -20  607.97   14.74
  -4  -4  20  577.35    8.78
  -4  -4  18    0.05    0.19
   4  -4 -18    1.66    0.88
  -4  -4  16   -0.78    0.47
  -4  -4  14    8.46    1.22
  -4  -4  12   -0.43    0.41
  -4  -4  10    0.25    0.48
  -4  -4   8  767.77   12.98
  -4  -4   6   -0.70    0.57
  -4  -4   4   -0.06    0.33
  -4  -4   2 1207.17   17.70
  -4  -4   0   -0.60    0.46
   4   4   2    0.89    0.94
  -4  -4  -2    0.09    0.39
   4   4   4  947.25   16.96
  -4  -4  -4  980.52   16.92
   4   4   6    1.06    0.82
  -4  -4  -6    0.66    0.87
   4   4   8    1.55    0.95
  -4  -4  -8   -0.58    0.67
   4   4  10 1860.00   25.39
  -4  -4 -10 1845.67   24.45
   4   4  12    1.29    1.02
  -4  -4 -12    0.74    0.56
   4   4  14    0.52    0.53
  -4  -4 -14    0.16    0.34
  -4  -4 -16  228.25    9.11
   4   4  16  234.93    9.52
   4  -4  18   -0.31    0.43
   4   4  18   -1.05    0.71
  -4  -4 -18    0.39    0.59
   4  -4  20    0.27    0.55
   4   4  20    0.37    0.64
  -4  -4 -20   -0.29    0.70
   4  -4  22  108.74    5.18
  -4  -4 -22  109.74    6.66
   4  -4  24    0.47    0.48
  -4  -4 -24   -0.23    0.50
   4  -4  26    0.57    0.35
  -4  -4 -26   -0.21    0.63
   4  -4  28   12.64    1.73
  -4  -4 -28   13.79    2.51
   4  -4  30    0.69    0.37
  -4  -4 -30   -0.28    0.49
  -4  -4 -32   -1.62    1.22
   4  -4  32    0.06    0.34
  -4  -4 -34   21.77    3.30
   4  -4  34   24.34    2.16
  -4  -4 -36    0.04    0.81
   4  -4  36   -0.24    0.37
  -4  -4 -38   -0.44    0.69
  -4  -4 -40   20.27    3.34
  -4  -4 -42    1.58    1.04
   4  -5 -43   -1.14    1.00
   4  -5 -41   23.68    3.48
   4  -5 -39   -1.30    0.90
   4  -5 -37    0.43    0.89
   4  -5 -35  332.72   12.81
   4  -5 -33   -0.05    0.87
   4  -5 -31   -0.81    0.98
  -4  -5  29  149.00    3.37
  -4  -5  29  136.87    3.15
   4  -5 -29  165.70    8.85
  -4  -5  27    0.26    0.19
   4  -5 -27    0.18    0.58
  -4  -5  27   -0.27    0.44
  -4  -5  25   -0.55    0.55
   4  -5 -25   -0.60    0.95
  -4  -5  23   43.01    2.73
   4  -5 -23   41.61    4.26
  -4  -5  21   -0.45    0.53
   4  -5 -21   -0.39    0.88
  -4  -5  19   -0.43    0.37
   4  -5 -19    0.58    0.94
  -4  -5  17   87.98    4.47
   4  -5 -17  102.35    6.65
  -4  -5  15    0.27    0.61
  -4  -5  13    0.22    0.25
  -4  -5  11   69.72    4.31
  -4  -5   9   -0.09    0.61
  -4  -5   7    0.03    0.47
  -4  -5   5  335.20   10.04
  -4  -5   3   -0.08    0.51
  -4  -5   1   -0.14    0.29
  -4  -5  -1  975.10   18.07
  -4  -5  -3    0.14    0.65
  -4  -5  -5    0.53    0.72
  -4  -5  -7  230.24    9.30
  -4  -5  -9    0.04    0.44
  -4  -5 -11   -1.05    1.23
  -4  -5 -13  252.26   10.20
  -4  -5 -15   -0.81    0.82
  -4  -5 -17    0.70    0.76
  -4  -5 -19   66.82    5.52
   4  -5  21   -0.26    0.19
  -4  -5 -21    0.43    0.65
   4  -5  23   -1.01    0.75
  -4  -5 -23   -1.99    1.19
   4  -5  25  356.56   10.12
  -4  -5 -25  346.13   13.07
   4  -5  27   -0.15    0.52
  -4  -5 -27   -0.49    0.68
   4  -5  29   -1.32    0.94
  -4  -5 -29   -0.47    0.88
   4  -5  31  102.26    5.12
  -4  -5 -31  101.42    7.34
   4  -5  33   -0.12    0.38
  -4  -5 -33   -0.82    1.20
  -4  -5 -35   -1.69    1.53
  -4  -5 -37   59.74    5.90
  -4  -5 -39    0.63    0.45
  -4  -5 -41    0.47    0.77
  -4  -5 -43   62.31    6.29
   4  -6 -44   22.20    3.72
   4  -6 -42   -0.08    0.75
   4  -6 -40    0.01    0.70
   4  -6 -38   29.78    4.17
   4  -6 -36    0.15    0.44
   4  -6 -34   -0.15    1.02
  -4  -6  32  198.20    4.26
  -4  -6  32  192.96    4.12
   4  -6 -32  217.75   11.03
  -4  -6  30    0.04    0.23
   4  -6 -30   -1.35    1.39
  -4  -6  30   -0.53    0.25
  -4  -6  28   -0.68    0.52
   4  -6 -28   -1.50    1.25
  -4  -6  26  121.38    5.14
   4  -6 -26  120.31    8.01
   4  -6 -24   -0.81    1.08
  -4  -6  24    0.36    0.21
  -4  -6  22   -0.71    0.46
   4  -6 -22   -0.44    0.64
   4  -6 -20   58.81    5.42
  -4  -6  20   52.33    3.76
  -4  -6  18   -0.94    0.78
   4  -6 -18   -0.29    0.47
  -4  -6  16    0.90    0.78
   4  -6 -16    1.00    1.48
  -4  -6  14 1525.82   21.94
  -4  -6  12    0.66    0.86
  -4  -6  10   -0.50    0.68
  -4  -6   8  251.22    9.46
  -4  -6   6   -0.16    0.27
  -4  -6   4    0.83    0.78
  -4  -6   2  443.19   13.13
  -4  -6   0   -0.67    0.95
  -4  -6  -2   -0.05    0.32
  -4  -6  -4 1075.44   21.45
  -4  -6  -6    0.64    1.11
  -4  -6  -8   -0.79    0.82
  -4  -6 -10  590.12   16.66
  -4  -6 -12   -1.93    1.56
  -4  -6 -14   -0.76    1.36
  -4  -6 -16  468.07   15.17
  -4  -6 -18   -0.01    0.56
  -4  -6 -20   -1.66    1.50
  -4  -6 -22  251.01   11.54
   4  -6  24   -0.46    0.64
  -4  -6 -24   -0.25    0.91
   4  -6  26   -0.08    0.39
  -4  -6 -26   -0.17    0.52
   4  -6  28   58.27    4.35
  -4  -6 -28   56.43    5.72
   4  -6  30    0.57    0.35
  -4  -6 -30    0.20    0.59
   4  -6  32   -1.58    1.02
  -4  -6 -32    0.38    0.41
  -4  -6 -34  101.55    8.01
  -4  -6 -36   -0.04    0.44
  -4  -6 -38   -1.26    1.34
  -4  -6 -40  105.05    8.44
  -4  -6 -42   -0.73    0.82
  -4  -6 -44   -0.63    1.12
   4  -7 -45   -0.96    0.73
   4  -7 -43   -0.55    0.95
   4  -7 -41   28.60    4.53
   4  -7 -39   -0.43    1.01
   4  -7 -37   -0.01    0.70
   4  -7 -35   19.85    3.59
  -4  -7  33   -0.55    0.54
   4  -7 -33   -0.34    0.79
  -4  -7  33   -0.79    0.63
  -4  -7  31   -0.87    0.61
  -4  -7  31    0.06    0.22
   4  -7 -31   -0.80    0.85
   4  -7 -29  188.23   10.96
  -4  -7  29  176.70    6.72
   4  -7 -27   -1.12    0.84
  -4  -7  27   -0.22    0.45
   4  -7 -25   -0.33    0.67
  -4  -7  25   -0.45    0.59
   4  -7 -23   20.03    3.32
  -4  -7  23   17.78    2.37
  -4  -7  21   -0.83    0.71
   4  -7 -21    0.57    0.97
  -4  -7  19    0.20    0.31
   4  -7 -19    1.79    1.15
   4  -7 -17  163.25    9.60
  -4  -7  17  149.98    7.45
   4  -7 -15    0.21    0.68
  -4  -7  15   -0.57    0.86
  -4  -7  13   -0.70    0.89
  -4  -7  11  390.20   12.60
  -4  -7   9    0.94    1.19
  -4  -7   7    0.22    0.80
  -4  -7   5  294.53   11.31
  -4  -7   3   -0.33    0.55
  -4  -7   1    0.15    0.77
  -4  -7  -1   78.02    6.00
  -4  -7  -3   -0.27    0.96
  -4  -7  -5   -0.77    0.35
  -4  -7  -7  415.92   14.64
  -4  -7  -9   -0.76    0.78
  -4  -7 -11   -1.51    1.14
  -4  -7 -13   42.90    4.79
  -4  -7 -15    0.09    0.47
  -4  -7 -17   -0.82    0.81
  -4  -7 -19  160.64    9.79
  -4  -7 -21   -0.96    1.13
  -4  -7 -23   -0.65    0.41
  -4  -7 -25   35.72    4.70
   4  -7  27   -0.26    0.66
  -4  -7 -27   -0.46    0.80
   4  -7  29   -0.05    0.27
  -4  -7 -29    0.36    0.87
   4  -7  31  116.00    6.40
  -4  -7 -31  121.03    9.07
  -4  -7 -33   -1.12    1.16
  -4  -7 -35   -0.91    1.00
  -4  -7 -37   72.71    7.25
  -4  -7 -39    1.02    1.14
  -4  -7 -41   -2.05    2.12
  -4  -7 -43   18.91    3.73
   4  -8 -44   18.25    3.79
   4  -8 -42    3.40    1.70
   4  -8 -40   -0.45    0.73
   4  -8 -38    7.80    2.36
   4  -8 -36    0.10    0.71
   4  -8 -34   -2.78    1.83
  -4  -8  32   48.41    3.67
   4  -8 -32   53.72    6.15
   4  -8 -30   -1.83    1.53
  -4  -8  30   -0.13    0.26
  -4  -8  28   -0.59    0.55
   4  -8 -28   -0.38    0.80
   4  -8 -26  117.90    9.01
  -4  -8  26  117.12    6.58
   4  -8 -24   -0.60    0.81
  -4  -8  24   -0.01    0.31
   4  -8 -22   -0.01    0.66
  -4  -8  22   -0.25    0.71
   4  -8 -20  115.68    8.64
  -4  -8  20  112.45    6.83
  -4  -8  18   -1.07    0.84
   4  -8 -18   -0.55    0.83
  -4  -8  16   -0.03    0.32
   4  -8 -16    0.91    0.90
   4  -8 -14   47.11    5.53
  -4  -8  14   48.92    4.75
  -4  -8  12    0.05    0.36
  -4  -8  10    0.41    0.59
  -4  -8   8  385.88   13.77
  -4  -8   6    1.46    1.30
  -4  -8   4   -0.71    0.95
  -4  -8   2  117.24    7.86
  -4  -8   0   -0.79    1.04
  -4  -8  -2   -0.74    1.15
  -4  -8  -4  107.81    7.86
  -4  -8  -6    0.88    1.00
  -4  -8  -8   -1.29    1.15
  -4  -8 -10  149.61    9.52
  -4  -8 -12   -0.78    0.43
  -4  -8 -14    0.59    0.59
  -4  -8 -16  125.27    9.02
  -4  -8 -18   -0.08    0.57
  -4  -8 -20   -0.54    1.21
  -4  -8 -22   79.04    7.35
  -4  -8 -24   -2.20    1.67
  -4  -8 -26   -1.77    1.67
   4  -8  28  198.32    9.34
  -4  -8 -28  219.95   12.68
  -4  -8 -30    0.29    0.69
  -4  -8 -32   -0.05    0.47
  -4  -8 -34   41.91    5.75
  -4  -8 -36   -0.09    0.86
  -4  -8 -38   -2.87    1.77
  -4  -8 -40    8.92    2.53
  -4  -8 -42    0.36    1.11
  -4  -8 -44    0.74    1.26
   4  -9 -45    0.18    0.59
   4  -9 -43   -0.76    1.20
   4  -9 -41   31.91    5.32
   4  -9 -39   -0.76    0.59
   4  -9 -37    0.00    0.91
   4  -9 -35   29.36    4.78
   4  -9 -33   -2.90    2.23
   4  -9 -31   -1.16    1.53
  -4  -9  31   -1.09    0.76
   4  -9 -29   60.90    6.93
  -4  -9  29   60.83    4.97
   4  -9 -27   -2.48    1.92
  -4  -9  27   -0.57    0.67
   4  -9 -25   -1.28    0.84
  -4  -9  25    0.23    0.66
  -4  -9  23  361.72   13.03
   4  -9 -23  370.00   16.68
   4  -9 -21    0.61    0.95
  -4  -9  21   -0.06    0.43
  -4  -9  19    0.22    0.77
   4  -9 -19    0.92    1.12
  -4  -9  17   34.16    4.16
   4  -9 -17   37.99    5.34
  -4  -9  15   -0.31    1.22
   4  -9 -15    1.21    1.24
  -4  -9  13   -1.42    1.22
   4  -9 -13    1.03    0.81
  -4  -9  11  206.30   10.68
  -4  -9   9   -0.38    0.62
  -4  -9   7    0.24    0.71
  -4  -9   5  114.63    8.17
  -4  -9   3    0.24    1.02
  -4  -9   1    0.11    1.17
  -4  -9  -1   96.15    7.68
  -4  -9  -3    0.03    0.86
  -4  -9  -5   -0.72    0.86
  -4  -9  -7  149.16    9.86
  -4  -9  -9   -1.25    1.53
  -4  -9 -11   -0.83    0.89
  -4  -9 -13  187.82   11.47
  -4  -9 -15   -0.08    0.43
  -4  -9 -17   -0.90    1.58
  -4  -9 -19  194.63   12.07
  -4  -9 -21   -0.22    1.05
  -4  -9 -23    0.19    0.94
  -4  -9 -25  174.83   11.66
  -4  -9 -27    0.51    0.88
  -4  -9 -29   -0.87    0.88
  -4  -9 -31  116.88    9.92
  -4  -9 -33   -0.45    0.97
  -4  -9 -35   -0.87    1.41
  -4  -9 -37   28.74    5.12
  -4  -9 -39   -0.66    0.62
  -4  -9 -41    0.15    1.13
  -4  -9 -43   20.58    4.43
   4 -10 -44    9.08    3.08
   4 -10 -42   -0.18    0.61
   4 -10 -40    0.20    0.92
   4 -10 -38   19.50    4.42
   4 -10 -36    0.73    0.76
   4 -10 -34   -1.64    1.73
   4 -10 -32   24.80    4.77
   4 -10 -30    0.56    0.79
  -4 -10  30    0.95    0.68
   4 -10 -28    2.21    1.62
  -4 -10  28    1.20    0.91
  -4 -10  26   25.82    3.64
   4 -10 -26   27.38    4.71
  -4 -10  24   -1.40    1.37
   4 -10 -24   -0.92    0.92
   4 -10 -22    1.36    1.60
  -4 -10  22   -1.20    1.05
   4 -10 -20   79.56    8.10
  -4 -10  20   75.65    6.51
  -4 -10  18   -1.30    1.03
   4 -10 -18    0.48    0.76
  -4 -10  16    1.19    0.81
   4 -10 -16    1.72    1.54
  -4 -10  14   35.09    4.62
   4 -10 -14   40.63    5.70
  -4 -10  12   -1.52    0.84
   4 -10 -12   -1.24    1.56
  -4 -10  10   -1.54    1.33
   4 -10 -10   -0.79    0.89
  -4 -10   8  110.94    8.57
  -4 -10   6    0.95    0.60
  -4 -10   4   -1.23    1.32
  -4 -10   2  132.06    9.41
  -4 -10   0   -0.60    0.87
  -4 -10  -2   -0.37    0.83
  -4 -10  -4   67.43    6.99
  -4 -10  -6   -0.68    0.75
  -4 -10  -8   -1.11    1.19
  -4 -10 -10   49.09    6.11
  -4 -10 -12    0.53    0.93
  -4 -10 -14   -0.27    0.61
  -4 -10 -16   94.88    8.68
  -4 -10 -18    0.97    1.06
  -4 -10 -20   -0.53    0.98
  -4 -10 -22   55.86    6.89
  -4 -10 -24   -0.61    0.72
  -4 -10 -26    0.91    0.76
  -4 -10 -28   40.62    6.02
  -4 -10 -30    1.53    1.50
  -4 -10 -32   -2.01    1.58
  -4 -10 -34   10.34    3.07
  -4 -10 -36   -0.61    1.48
  -4 -10 -38   -1.23    1.61
  -4 -10 -40    7.75    2.76
  -4 -10 -42   -0.44    0.85
   4 -11 -43    2.13    1.80
   4 -11 -41    5.73    2.28
   4 -11 -39    2.92    1.88
   4 -11 -37   -0.50    0.66
   4 -11 -35   28.48    5.37
   4 -11 -33   -1.20    1.21
   4 -11 -31    0.79    0.95
  -4 -11  29   24.80    3.70
   4 -11 -29   22.53    4.69
   4 -11 -27    0.05    0.94
  -4 -11  27    0.14    0.64
  -4 -11  25    0.11    0.74
   4 -11 -25   -0.40    0.83
   4 -11 -23    4.53    1.75
  -4 -11  23    5.85    1.88
   4 -11 -21   -0.41    1.16
  -4 -11  21    0.17    0.93
   4 -11 -19   -4.31    1.99
  -4 -11  19   -1.07    1.22
   4 -11 -17   71.21    7.99
  -4 -11  17   62.85    6.47
  -4 -11  15   -0.57    1.09
   4 -11 -15    0.38    0.76
  -4 -11  13   -0.28    0.98
   4 -11 -13   -1.60    1.96
   4 -11 -11   25.69    4.53
  -4 -11  11   24.73    4.17
  -4 -11   9   -2.44    1.80
   4 -11  -9   -0.93    1.56
  -4 -11   7   -0.61    1.30
   4 -11  -7    1.02    1.11
   4 -11  -5  108.17    9.69
  -4 -11   5  106.33    8.91
  -4 -11   3    0.81    0.86
  -4 -11   1   -0.58    1.04
  -4 -11  -1   53.91    6.56
  -4 -11  -3   -1.15    1.34
  -4 -11  -5   -0.34    1.27
  -4 -11  -7   48.72    6.38
  -4 -11  -9   -0.70    1.47
  -4 -11 -11   -0.33    1.28
  -4 -11 -13   57.29    7.11
  -4 -11 -15    0.54    0.64
  -4 -11 -17   -1.92    1.62
  -4 -11 -19   79.69    8.66
  -4 -11 -21    0.32    0.70
  -4 -11 -23    1.59    1.95
  -4 -11 -25   28.32    5.30
  -4 -11 -27   -0.08    0.89
   4 -11  29   -0.78    0.82
  -4 -11 -29    0.60    1.52
  -4 -11 -31   14.84    3.93
  -4 -11 -33   -1.26    1.53
  -4 -11 -35   -1.71    1.53
  -4 -11 -37    4.35    2.19
   4 -12 -36    3.57    2.16
   4 -12 -34    1.52    0.91
   4 -12 -32   43.84    6.95
   4 -12 -30    2.58    1.92
   4 -12 -28   -0.64    1.28
   4 -12 -26   14.72    3.83
  -4 -12  26   17.36    3.47
  -4 -12  24    0.02    0.91
   4 -12 -24   -0.17    1.03
  -4 -12  22    0.28    0.41
   4 -12 -22   -0.70    0.58
   4 -12 -20   12.96    3.65
  -4 -12  20   16.05    3.46
   4 -12 -18   -2.00    2.28
  -4 -12  18    0.37    0.47
   4 -12 -16   -2.78    1.77
  -4 -12  16   -1.60    1.46
   4 -12 -14   37.97    6.04
  -4 -12  14   33.17    5.14
  -4 -12  12   -1.35    1.33
   4 -12 -12    2.32    1.92
  -4 -12  10   -0.24    0.82
   4 -12 -10    1.00    1.41
   4 -12  -8  123.19   10.72
  -4 -12   8  106.99    9.36
   4 -12  -6   -0.32    0.79
  -4 -12   6   -0.61    1.20
  -4 -12   4   -2.86    2.01
   4 -12  -4   -0.85    1.33
  -4 -12   2   51.22    6.67
   4 -12  -2   54.48    7.17
   4 -12   0    0.19    1.27
  -4 -12   0   -1.66    1.45
   4 -12   2   -2.91    2.03
  -4 -12  -2   -0.94    1.46
  -4 -12  -4  103.96    9.62
  -4 -12  -6   -1.89    2.08
  -4 -12  -8   -0.77    1.38
  -4 -12 -10   25.84    4.85
  -4 -12 -12   -0.36    1.25
  -4 -12 -14   -0.94    0.67
  -4 -12 -16   60.58    7.63
  -4 -12 -18    0.53    1.44
  -4 -12 -20    1.37    1.36
   4 -12  22   48.30    6.18
  -4 -12 -22   54.15    7.47
   4 -12  24   -1.54    1.23
  -4 -12 -24    0.08    0.83
   4 -12  26    0.44    1.09
  -4 -12 -26   -0.61    0.56
  -4 -12 -28   21.41    4.83
  -4 -12 -30   -0.17    1.02
  -4 -12 -32   -1.89    1.70
   4 -13 -27    0.98    1.33
   4 -13 -25    2.40    1.74
  -4 -13  25   -1.34    1.38
   4 -13 -23   11.11    3.56
  -4 -13  23    8.65    2.55
  -4 -13  21   -3.55    1.65
   4 -13 -21   -1.36    1.98
  -4 -13  19   -1.30    1.82
   4 -13 -19   -3.44    2.61
  -4 -13  17    4.80    1.95
   4 -13 -17    6.13    2.16
   4 -13 -15   -2.43    1.81
  -4 -13  15   -0.63    1.11
   4 -13 -13   -0.31    1.04
  -4 -13  13   -2.40    1.62
   4 -13 -11   30.13    5.73
  -4 -13  11   23.48    4.75
   4 -13  -9    0.29    0.53
  -4 -13   9    0.40    0.79
  -4 -13   7    2.52    1.99
   4 -13  -7    1.17    1.12
   4 -13  -5   46.34    6.87
  -4 -13   5   49.47    6.79
  -4 -13   3    0.80    1.11
   4 -13  -3   -3.09    2.23
  -4 -13   1    0.21    0.78
   4 -13  -1   -0.56    1.32
  -4 -13  -1   37.00    6.08
   4 -13   1   40.11    6.19
  -4 -13  -3   -2.53    1.92
   4 -13   3    0.30    0.81
  -4 -13  -5   -0.44    0.87
   4 -13   5   -2.23    1.80
  -4 -13  -7   15.97    3.90
   4 -13   7   12.25    3.27
   4 -13   9   -1.75    1.77
  -4 -13  -9   -0.05    1.22
  -4 -13 -11   -2.10    1.68
   4 -13  11    0.24    0.58
   4 -13  13   14.98    3.86
  -4 -13 -13   17.64    4.40
  -4 -13 -15    1.63    1.12
   4 -13  15   -0.01    0.86
   4 -13  17    2.03    1.39
  -4 -13 -17   -0.47    1.17
   4 -13  19   22.83    4.53
  -4 -13 -19   19.64    4.60
   4 -13  21   -1.33    1.03
  -4 -13 -21    3.98    2.46
   4 -13  23   -0.28    1.44
  -4 -13 -23    1.06    0.61
   4 -13  25   13.10    3.49
  -4 -13 -25   10.11    3.02
  -4 -14  24    1.00    1.03
  -4 -14  22   -2.15    1.55
  -4 -14  20    7.88    2.78
  -4 -14  18   -1.53    1.57
   4 -14 -18    1.01    0.83
   4 -14 -16   -0.92    0.83
  -4 -14  16   -1.38    1.06
   4 -14 -14   15.58    4.39
  -4 -14  14   16.23    3.92
  -4 -14  12   -1.68    1.45
   4 -14 -12   -0.32    1.25
   4 -14 -10   -0.70    0.80
  -4 -14  10   -1.92    1.50
   4 -14  -8   18.15    4.69
  -4 -14   8   21.08    4.47
  -4 -14   6   -1.11    0.77
   4 -14  -6    0.51    0.72
   4 -14  -4   -1.42    1.90
  -4 -14   4   -1.67    1.17
  -4 -14   2   26.79    5.29
   4 -14  -2   20.89    4.82
  -4 -14   0   -3.54    2.75
   4 -14   0    1.11    1.17
  -4 -14  -2    1.22    1.56
   4 -14   2    0.84    1.10
  -4 -14  -4   29.78    5.73
   4 -14   4   32.13    5.84
   4 -14   6   -0.24    1.25
  -4 -14  -6    0.09    0.53
  -4 -14  -8   -0.81    1.66
   4 -14   8   -0.83    1.91
  -4 -14 -10    8.35    2.91
   4 -14  10   10.01    3.18
  -4 -14 -12    2.40    1.70
   4 -14  12   -1.86    1.49
  -4 -14 -14   -0.54    0.98
   4 -14  14   -0.07    0.64
   4 -14  16   10.00    3.06
  -4 -14 -16   14.76    3.94
   4 -14  18   -1.50    1.65
   4 -14  20   -0.41    1.09
   4 -14  22    8.28    2.88
  -4 -15  21    1.79    1.28
  -4 -15  19    1.24    1.35
  -4 -15  17   16.45    4.12
  -4 -15  15   -1.11    1.54
  -4 -15  13    1.13    1.59
  -4 -15  11   14.72    3.82
  -4 -15   9   -0.71    1.63
  -4 -15   7   -3.21    1.98
   4 -15  -5   10.14    3.47
  -4 -15   5   12.03    3.70
   4 -15  -3   -2.24    2.10
  -4 -15   3   -0.87    1.03
   4 -15  -1   -0.19    1.38
  -4 -15   1   -1.97    1.10
   4 -15   1   15.22    4.25
  -4 -15  -1   12.19    3.79
  -4 -15  -3    1.54    1.99
   4 -15   3   -0.83    1.54
   4 -15   5   -1.69    1.55
   4 -15   7   18.50    4.54
   4 -15   9   -0.90    0.93
   4 -15  11    1.00    0.62
   4 -15  13   13.45    3.83
   4 -15  15    0.21    0.97
   4 -15  17    0.96    0.98
   4 -15  19   10.28    3.08
   4 -15  21    0.11    0.63
   5   0 -31   -0.41    0.21
   5   0 -29    0.08    0.22
   5   0 -27    0.31    0.20
   5   0 -25    0.39    0.31
   5   0 -23    0.86    0.45
   5   0 -21   -0.19    0.20
   5   0 -19    0.05    0.19
   5   0 -17    0.01    0.17
   5   0  -7    0.47    0.19
  -5   0   5    0.00    0.11
   5   0  -5    0.14    0.14
  -5   0   3    2.17    0.60
   5   0  -3    0.65    0.49
  -5   0   1    1.98    0.40
   5   0  -1    2.44    0.54
  -5   0  -1    0.11    0.18
   5   0   1   -0.15    0.15
  -5   0  -3    0.40    0.45
   5   0   3    0.10    0.22
  -5   0  -5    0.61    0.31
   5   0   5    0.23    0.34
   5   0   7    0.31    0.27
  -5   0  -7    0.11    0.32
   5   0   9   -0.29    0.24
  -5   0  -9   -0.16    0.19
  -5   0 -11   -0.06    0.38
   5   0  11    1.07    0.55
  -5   0 -13    0.12    0.31
   5   0  13   -0.14    0.43
  -5   0 -15   -0.15    0.33
   5   0  15   -0.36    0.37
  -5   0 -17   -0.40    0.39
   5   0  17    0.69    0.62
  -5   0 -19   -0.13    0.59
   5   0  19    0.56    0.25
  -5   0 -21    3.17    1.64
   5   0  21    0.16    0.49
  -5   0 -23   -0.34    0.27
   5   0  23   -0.04    0.34
  -5   0 -25    1.42    0.93
   5   0  25   -0.58    0.51
   5   0  27    0.04    0.22
  -5   0 -27    1.55    1.03
   5   0  29   -0.08    0.29
  -5   0 -29    0.06    0.42
   5   0  31    0.16    0.43
  -5   0 -31    0.50    0.38
   5   0  33    0.61    0.59
  -5   0 -33   -0.43    0.59
   5   0  35   -0.98    0.86
  -5   0 -35    0.01    0.25
   5   0  37    0.16    0.32
  -5   0 -37   -0.65    0.60
  -5   0 -39   -0.11    0.46
   5  -1 -42    0.32    0.18
   5  -1 -40    2.92    0.60
   5  -1 -38    0.88    0.54
   5  -1 -36    0.18    0.30
   5  -1 -34    0.14    0.28
   5  -1 -32   -0.26    0.21
   5  -1 -30    0.14    0.17
   5  -1 -28   -0.58    0.49
   5  -1 -26   -0.28    0.32
   5  -1 -24   -0.57    0.47
   5  -1 -22   20.47    1.75
   5  -1 -20   -0.16    0.29
   5  -1 -18    0.27    0.39
  -5  -1   8   -0.25    0.19
   5   1  -8   -0.08    0.16
  -5  -1   6   -0.01    0.22
   5   1  -6    0.31    0.27
  -5  -1   4  578.37    7.25
   5   1  -4  567.72    7.22
  -5  -1   2   -0.27    0.32
   5   1  -2    0.21    0.31
  -5  -1   0   -0.07    0.17
   5   1   0    0.09    0.14
   5  -1   2    0.63    0.32
  -5  -1  -2    0.63    0.45
   5   1   2    0.66    0.26
  -5  -1  -4    0.04    0.32
   5   1   4   -0.24    0.32
   5  -1   6   -0.23    0.23
  -5  -1  -6    0.26    0.41
   5   1   6   -0.25    0.20
   5  -1   8    0.13    0.15
  -5   1  -8    0.35    0.29
  -5  -1  -8    0.81    0.41
   5   1   8    0.10    0.23
   5  -1  10   -0.03    0.15
  -5  -1 -10    0.20    0.26
   5   1  10   -0.06    0.19
  -5  -1 -12    0.14    0.31
   5  -1  12   -0.27    0.34
   5   1  12   -0.32    0.30
   5  -1  14   78.20    3.77
  -5   1 -14   78.93    3.80
   5   1  14   80.35    4.20
  -5  -1 -14   81.35    4.19
  -5   1 -16    0.81    0.78
  -5  -1 -16    0.44    0.50
   5  -1  16   -0.08    0.31
   5   1  16    0.43    0.48
   5  -1  18    1.16    0.79
  -5  -1 -18    1.28    1.00
   5   1  18    0.79    0.58
  -5  -1 -20  273.17    8.51
  -5   1 -20  269.18    7.70
   5   1  20  269.87    8.45
   5  -1  20  269.69    7.53
  -5  -1 -22   -0.08    0.59
  -5   1 -22    1.35    0.97
   5   1  22    0.58    0.50
   5  -1  22   -0.42    0.42
  -5  -1 -24    1.81    1.17
  -5   1 -24    0.01    0.65
   5   1  24   -0.29    0.54
   5  -1  24    0.36    0.48
  -5  -1 -26   55.67    4.12
  -5   1 -26   58.43    3.83
   5  -1  26   55.64    3.67
   5   1  26   56.14    4.19
  -5  -1 -28    0.01    0.68
  -5   1 -28   -0.17    0.30
   5   1  28   -0.19    0.42
   5  -1  28    0.63    0.46
  -5  -1 -30    0.30    0.30
  -5   1 -30    0.13    0.21
   5   1  30    0.06    0.51
   5  -1  30    0.57    0.37
   5  -1  32    1.18    0.58
   5   1  32    1.01    0.49
  -5  -1 -32    0.29    0.37
   5   1  34   -0.12    0.31
   5  -1  34   -0.18    0.61
   5  -1  36    0.41    0.23
   5   1  36    0.56    0.77
  -5  -1 -36    1.59    0.91
  -5  -1 -38  118.76    6.68
   5  -1  38  117.07    5.71
  -5  -1 -40    0.02    0.55
  -5  -1 -42    0.45    0.64
   5  -2 -43    4.38    0.83
   5  -2 -41    0.64    0.45
   5  -2 -39    0.02    0.41
   5  -2 -37    7.42    1.39
   5  -2 -35    0.10    0.25
   5  -2 -33    0.06    0.41
   5  -2 -31    3.89    0.90
   5  -2 -29    0.62    0.73
   5  -2 -27    1.41    0.96
   5  -2 -25  185.19    6.62
   5  -2 -23   -0.82    0.52
   5  -2 -21   -0.22    0.44
   5  -2 -19  101.44    4.73
  -5  -2  13  337.04    4.51
   5   2 -11   -0.03    0.12
  -5  -2  11   -0.24    0.23
   5   2  -9    0.06    0.25
  -5  -2   9    0.06    0.21
   5   2  -7   62.06    2.65
  -5  -2   7   65.08    2.67
   5   2  -5   -0.18    0.28
  -5  -2   5   -0.12    0.21
   5   2  -3    0.08    0.21
  -5  -2   3    0.26    0.38
   5   2  -1   -0.28    0.41
  -5  -2   1    0.23    0.26
   5   2   1   -0.16    0.26
  -5  -2  -1   -0.11    0.22
   5   2   3    0.12    0.30
  -5  -2  -3   -0.40    0.37
   5   2   5  241.80    6.81
  -5  -2  -5  246.49    6.92
  -5  -2  -7    0.70    0.74
   5   2   7    2.15    0.86
   5  -2   9    0.55    0.59
   5   2   9   -0.96    0.77
  -5  -2  -9    0.18    0.19
   5  -2  11    0.44    0.30
   5   2  11    0.68    0.37
  -5  -2 -11    0.57    0.31
   5  -2  13    0.98    0.67
   5   2  13    0.09    0.34
  -5  -2 -13    0.72    0.54
   5  -2  15   -0.40    0.30
   5   2  15   -0.05    0.28
   5  -2  17    0.05    0.41
   5   2  17    1.01    0.51
  -5  -2 -17   -0.54    0.86
  -5  -2 -19   -0.37    0.62
   5  -2  19   -0.50    0.53
   5   2  19    0.00    0.33
   5  -2  21   -0.21    0.29
  -5  -2 -21    0.13    0.33
   5   2  21    0.03    0.32
  -5  -2 -23    0.88    0.39
   5  -2  23    0.51    0.50
   5   2  23    0.85    0.47
  -5  -2 -25    0.28    0.58
   5   2  25   -0.64    0.53
   5  -2  25   -0.53    0.50
  -5  -2 -27   -0.26    0.60
   5   2  27   -1.00    0.84
   5  -2  27   -0.11    0.16
  -5  -2 -29    3.09    1.02
   5   2  29    3.12    1.11
   5  -2  29    2.43    0.82
  -5  -2 -31    0.30    0.64
   5   2  31   -0.04    0.74
   5  -2  31   -0.51    0.43
  -5  -2 -33    0.68    0.62
   5   2  33   -0.13    0.44
   5  -2  33   -0.53    0.48
  -5  -2 -35    0.06    0.83
   5  -2  35    0.18    0.38
  -5  -2 -37    1.12    1.12
   5  -2  37    0.82    0.62
  -5  -2 -39    0.99    0.87
  -5  -2 -41    2.74    1.10
   5  -3 -42    0.46    0.69
   5  -3 -40    3.30    1.20
   5  -3 -38   -0.58    0.82
   5  -3 -36   -0.67    0.65
   5  -3 -34    1.00    0.53
   5  -3 -32    0.57    0.31
   5  -3 -30    1.27    1.09
   5  -3 -28    7.46    1.47
   5  -3 -26    0.98    0.67
   5  -3 -24   -0.12    0.32
   5  -3 -22  145.98    6.61
   5  -3 -20   -0.27    0.52
  -5  -3  18   -0.25    0.20
  -5  -3  16  325.50    5.54
  -5  -3  14   -0.23    0.23
  -5  -3  12   -0.48    0.46
  -5  -3  10   83.24    3.45
  -5  -3   8    0.20    0.35
   5   3  -6    1.58    0.83
  -5  -3   6    0.12    0.42
  -5  -3   4   -1.13    0.86
   5   3  -4    0.37    0.40
   5   3  -2    0.12    0.27
  -5  -3   2   -0.95    0.80
   5   3   0   -0.28    0.32
  -5  -3   0   -0.67    0.77
   5   3   2  352.82    9.04
  -5  -3  -2  356.73    8.99
   5   3   4   -0.35    0.33
  -5  -3  -4    1.76    1.10
   5   3   6    0.02    0.48
  -5  -3  -6    0.30    0.75
   5   3   8  244.50    8.20
  -5  -3  -8  234.82    7.86
   5   3  10    1.31    0.85
  -5  -3 -10    0.99    1.21
   5   3  12    3.02    1.25
  -5  -3 -12    3.96    1.75
   5  -3  14    0.32    0.26
   5   3  14   -0.34    0.52
  -5  -3 -14    0.14    0.49
   5  -3  16    0.00    0.25
   5   3  16    0.00    0.28
   5  -3  18   -0.08    0.21
   5   3  18    0.01    0.45
  -5  -3 -18    0.01    0.35
   5  -3  20    0.37    0.31
   5   3  20    0.58    0.38
  -5  -3 -20   -0.33    0.74
   5  -3  22    0.23    0.17
   5   3  22   -0.22    0.57
  -5  -3 -22   -0.61    0.81
   5  -3  24    0.16    0.25
   5   3  24    0.53    0.89
  -5  -3 -24    0.88    0.87
   5  -3  26    1.20    0.18
  -5  -3 -26    0.02    1.02
   5   3  26    1.78    0.88
   5  -3  28    0.45    0.50
  -5  -3 -28   -0.45    0.55
   5   3  28    0.17    0.69
  -5  -3 -30    1.59    1.13
   5   3  30    0.57    0.65
   5  -3  30    0.64    0.53
   5  -3  32   54.39    3.59
  -5  -3 -32   61.12    5.20
  -5  -3 -34    0.55    0.65
   5  -3  34    0.18    0.19
  -5  -3 -36    0.51    0.69
   5  -3  36   -0.28    0.27
  -5  -3 -38    2.43    1.21
  -5  -3 -40   -0.31    0.66
  -5  -3 -42    1.23    1.03
   5  -4 -43    0.62    0.58
   5  -4 -41   -0.41    0.48
   5  -4 -39    0.80    0.80
   5  -4 -37   28.02    3.45
   5  -4 -35    0.47    0.86
   5  -4 -33   -0.93    0.96
   5  -4 -31   22.26    2.93
   5  -4 -29   -0.60    0.57
   5  -4 -27   -0.72    0.86
   5  -4 -25   31.15    3.42
   5  -4 -23    0.31    0.70
  -5  -4  23   -0.24    0.25
   5  -4 -21    1.97    1.35
  -5  -4  21    0.93    0.42
  -5  -4  19   90.00    3.51
   5  -4 -19   99.49    5.99
  -5  -4  17    0.12    0.21
  -5  -4  15   -0.24    0.33
  -5  -4  13   28.99    2.32
  -5  -4  11    0.27    0.23
  -5  -4   9    0.83    0.57
  -5  -4   7    1.03    0.36
  -5  -4   5    0.07    0.39
  -5  -4   3    0.03    0.49
  -5  -4   1   98.61    5.17
   5   4  -1   97.34    5.20
  -5  -4  -1    0.66    0.79
   5   4   1    1.13    0.89
  -5  -4  -3    0.44    0.81
   5   4   3    1.08    0.88
   5   4   5  600.90   13.96
  -5  -4  -5  611.97   13.64
   5   4   7    0.56    1.01
  -5  -4  -7    1.57    1.20
   5   4   9    2.95    1.41
  -5  -4  -9    3.11    1.62
  -5  -4 -11  229.23    8.87
   5   4  11  224.47    9.06
   5   4  13    0.01    0.42
  -5  -4 -13    1.00    1.00
   5   4  15    0.64    0.33
  -5  -4 -15    0.36    0.63
   5  -4  17   -0.21    0.53
   5   4  17   -0.13    0.89
  -5  -4 -17    0.29    0.39
   5  -4  19    0.51    0.60
   5   4  19    0.60    0.68
  -5  -4 -19   -0.58    0.70
   5  -4  21    0.50    0.49
   5   4  21   -0.62    0.58
  -5  -4 -21    0.09    0.59
   5  -4  23   86.91    4.81
   5   4  23   92.50    6.55
  -5  -4 -23   88.70    6.13
   5  -4  25    3.47    1.23
   5   4  25    3.37    1.70
  -5  -4 -25    2.63    1.63
   5  -4  27    0.15    0.27
  -5  -4 -27   -0.51    0.68
   5  -4  29   62.74    4.02
  -5  -4 -29   65.02    5.58
  -5  -4 -31    1.49    1.37
   5  -4  31    0.56    0.56
  -5  -4 -33    0.11    0.80
   5  -4  33   -0.39    0.27
   5  -4  35   21.29    2.18
  -5  -4 -35   21.11    3.27
  -5  -4 -37    1.76    1.18
  -5  -4 -39    1.33    0.99
  -5  -4 -41   18.58    3.24
  -5  -4 -43    1.30    1.50
   5  -5 -44   -1.32    1.23
   5  -5 -42    0.95    0.74
   5  -5 -40    0.13    0.53
   5  -5 -38    1.34    1.21
   5  -5 -36    3.85    2.03
   5  -5 -34   35.62    4.15
   5  -5 -32   -1.56    1.07
   5  -5 -30   -1.06    1.13
  -5  -5  28   25.25    1.46
  -5  -5  28   26.20    1.44
   5  -5 -28   26.61    3.56
   5  -5 -26   -0.89    0.49
  -5  -5  26   -0.20    0.25
   5  -5 -24   -0.92    1.05
  -5  -5  24   -0.69    0.49
   5  -5 -22   20.45    3.00
  -5  -5  22   20.94    1.90
  -5  -5  20    0.24    0.50
   5  -5 -20    0.72    1.06
  -5  -5  18   -0.64    0.44
  -5  -5  16  934.80   14.73
  -5  -5  14    1.36    0.98
  -5  -5  12   -0.19    0.46
  -5  -5  10   -0.40    0.78
  -5  -5   8    0.64    0.62
  -5  -5   6   -0.04    0.39
  -5  -5   4   73.17    4.73
  -5  -5   2    1.22    0.84
  -5  -5   0    1.77    1.09
  -5  -5  -2  204.52    8.56
  -5  -5  -4    1.77    1.14
  -5  -5  -6    0.56    0.55
  -5  -5  -8   26.34    3.18
   5   5   8   31.54    3.61
   5   5  10    0.76    0.91
  -5  -5 -10   -0.03    0.38
   5   5  12   -1.14    0.87
  -5  -5 -12    1.11    0.45
   5   5  14   44.17    4.46
  -5  -5 -14   44.19    4.29
   5   5  16    0.06    0.50
  -5  -5 -16    1.70    1.15
  -5  -5 -18    0.26    0.57
   5  -5  20    0.16    0.19
  -5  -5 -20   -0.17    0.61
   5  -5  22    1.29    0.88
  -5  -5 -22    1.25    1.19
   5  -5  24   -0.01    0.38
  -5  -5 -24    1.52    1.30
   5  -5  26   83.38    5.03
  -5  -5 -26   83.72    6.52
   5  -5  28   -0.42    0.59
  -5  -5 -28   -0.85    0.76
   5  -5  30   -0.12    0.19
  -5  -5 -30   -0.58    0.71
   5  -5  32   85.29    4.83
  -5  -5 -32   89.82    7.08
   5  -5  34    0.12    0.41
  -5  -5 -34    1.18    1.20
  -5  -5 -36    0.62    1.00
  -5  -5 -38   -0.81    0.89
  -5  -5 -40    1.47    1.16
  -5  -5 -42    2.01    1.58
  -5  -5 -44   -0.03    0.86
   5  -6 -45    1.36    0.77
   5  -6 -43   -1.08    1.09
   5  -6 -41    0.05    0.34
   5  -6 -39   -0.10    0.76
   5  -6 -37    6.28    2.01
   5  -6 -35    2.97    1.59
   5  -6 -33    2.46    1.92
  -5  -6  31    2.28    0.42
   5  -6 -31    1.11    0.59
  -5  -6  31    1.49    0.23
   5  -6 -29   -0.97    0.74
  -5  -6  29   -0.07    0.22
  -5  -6  27   -0.03    0.23
   5  -6 -27   -0.80    0.95
   5  -6 -25   17.68    3.07
  -5  -6  25   19.61    2.06
  -5  -6  23   -1.02    0.68
   5  -6 -23   -1.36    1.09
  -5  -6  21   -0.56    0.53
   5  -6 -21   -0.54    0.56
   5  -6 -19  135.50    8.28
  -5  -6  19  122.44    5.83
  -5  -6  17    0.45    0.47
  -5  -6  15    4.38    1.61
  -5  -6  13    0.66    0.63
  -5  -6  11   -1.01    0.85
  -5  -6   9   -0.47    1.02
  -5  -6   7   27.13    3.13
  -5  -6   5    0.27    0.87
  -5  -6   3    0.14    0.62
  -5  -6   1   28.64    3.32
  -5  -6  -1    1.20    1.15
  -5  -6  -3    2.98    2.07
  -5  -6  -5  532.09   15.21
  -5  -6  -7   -0.31    0.81
  -5  -6  -9    1.62    1.49
  -5  -6 -11    0.07    1.19
  -5  -6 -13   -0.55    0.65
  -5  -6 -15    4.66    2.14
  -5  -6 -17   38.96    4.48
  -5  -6 -19   -0.25    0.88
  -5  -6 -21   -0.88    0.67
   5  -6  23   -1.44    1.18
  -5  -6 -23   -1.38    1.23
   5  -6  25    0.39    0.65
  -5  -6 -25    0.88    1.08
   5  -6  27   -0.57    0.49
  -5  -6 -27    1.00    0.74
   5  -6  29  138.63    6.89
  -5  -6 -29  142.43    9.24
   5  -6  31    1.23    0.89
  -5  -6 -31    0.99    1.25
   5  -6  33    0.35    0.52
  -5  -6 -33   -0.29    0.90
  -5  -6 -35   -0.41    1.22
  -5  -6 -37    1.01    1.47
  -5  -6 -39    3.83    2.11
  -5  -6 -41    3.88    1.70
  -5  -6 -43   -2.01    1.65
   5  -7 -44    1.07    0.63
   5  -7 -42    0.28    0.81
   5  -7 -40    0.58    0.47
   5  -7 -38    0.58    0.46
   5  -7 -36   -0.68    1.08
   5  -7 -34    9.45    2.55
  -5  -7  34    7.45    0.88
  -5  -7  32    0.02    0.49
  -5  -7  32    0.19    0.24
   5  -7 -30    2.43    1.72
  -5  -7  30    1.06    0.70
   5  -7 -28   -0.05    0.67
  -5  -7  28    0.16    0.32
   5  -7 -26   -0.33    0.56
  -5  -7  26    0.08    0.29
  -5  -7  24    0.05    0.59
   5  -7 -24    0.21    0.78
   5  -7 -22   16.61    3.11
  -5  -7  22   15.39    2.21
  -5  -7  20   -0.03    0.55
   5  -7 -20    0.80    1.83
   5  -7 -18    1.87    1.37
  -5  -7  18    0.56    0.76
  -5  -7  16   -0.57    0.53
  -5  -7  14   -0.35    0.63
  -5  -7  12    1.22    0.82
  -5  -7  10   28.17    3.33
  -5  -7   8    1.67    1.27
  -5  -7   6   -0.81    0.98
  -5  -7   4   40.87    4.18
  -5  -7   2   -1.37    0.74
  -5  -7   0   -0.67    0.70
  -5  -7  -2   33.79    3.98
  -5  -7  -4    0.22    1.02
  -5  -7  -6    1.23    1.54
  -5  -7  -8   25.67    3.61
  -5  -7 -10    0.09    1.08
  -5  -7 -12   -1.18    1.58
  -5  -7 -14   91.60    7.20
  -5  -7 -16    3.24    1.96
  -5  -7 -18    0.32    0.90
  -5  -7 -20    2.00    1.00
  -5  -7 -22    0.19    0.58
  -5  -7 -24    0.28    0.63
   5  -7  26    0.01    0.66
  -5  -7 -26   -1.10    1.30
   5  -7  28    3.12    1.54
  -5  -7 -28    5.26    2.66
   5  -7  30    1.74    1.14
  -5  -7 -30    0.43    1.14
  -5  -7 -32    1.13    0.61
  -5  -7 -34    0.98    1.25
  -5  -7 -36    2.86    1.96
  -5  -7 -38   -0.56    1.36
  -5  -7 -40    0.48    0.41
  -5  -7 -42   -1.55    1.40
  -5  -7 -44   -1.78    1.42
   5  -8 -45    0.85    1.29
   5  -8 -43    0.80    0.96
   5  -8 -41    2.43    1.45
   5  -8 -39    1.56    1.21
   5  -8 -37   -0.44    0.71
   5  -8 -35   -1.38    1.35
   5  -8 -33   -0.18    0.97
  -5  -8  33   -1.01    0.70
   5  -8 -31   11.58    2.71
  -5  -8  31    8.78    1.57
  -5  -8  29    2.06    1.09
   5  -8 -29    1.53    1.76
  -5  -8  27    1.20    0.94
   5  -8 -27    2.49    1.83
  -5  -8  25    7.77    1.77
   5  -8 -25    4.97    1.90
   5  -8 -23    4.95    2.56
  -5  -8  23    1.31    1.02
  -5  -8  21    0.82    0.64
   5  -8 -21    1.03    0.89
  -5  -8  19   -1.07    0.85
   5  -8 -19   -0.91    0.82
  -5  -8  17   -0.01    0.59
   5  -8 -17    0.72    1.48
  -5  -8  15   -0.64    0.45
  -5  -8  13   -0.51    1.02
  -5  -8  11   -0.30    0.75
  -5  -8   9    0.71    0.91
  -5  -8   7   39.64    4.49
  -5  -8   5    0.56    0.97
  -5  -8   3    0.24    0.90
  -5  -8   1   70.96    6.13
  -5  -8  -1   -0.37    0.61
  -5  -8  -3    0.23    0.43
  -5  -8  -5    5.79    2.03
  -5  -8  -7    3.57    2.01
  -5  -8  -9    0.86    1.20
  -5  -8 -11    3.35    1.29
  -5  -8 -13    0.36    0.77
  -5  -8 -15   -0.50    0.93
  -5  -8 -17    6.43    1.97
  -5  -8 -19    0.79    1.23
  -5  -8 -21   -0.41    0.66
  -5  -8 -23   56.26    6.26
  -5  -8 -25    2.91    2.01
   5  -8  27    2.57    1.53
  -5  -8 -27    7.58    3.08
   5  -8  29   -0.75    0.96
  -5  -8 -29   -0.44    1.30
  -5  -8 -31    5.97    2.60
  -5  -8 -33    0.85    1.12
  -5  -8 -35    0.98    1.04
  -5  -8 -37    0.02    0.51
  -5  -8 -39   -2.31    1.44
  -5  -8 -41    0.25    1.15
  -5  -8 -43    3.45    2.18
   5  -9 -44   -0.54    0.96
   5  -9 -42    0.30    0.66
   5  -9 -40    2.12    1.42
   5  -9 -38    0.96    1.23
   5  -9 -36   -0.10    0.62
   5  -9 -34   12.59    3.15
   5  -9 -32    0.32    0.46
  -5  -9  32   -1.05    0.77
   5  -9 -30    1.01    1.27
  -5  -9  30   -0.25    0.71
   5  -9 -28   -0.30    0.62
  -5  -9  28    1.92    0.89
  -5  -9  26    1.14    1.20
   5  -9 -26    4.68    2.43
  -5  -9  24    6.56    2.18
   5  -9 -24    6.25    3.31
  -5  -9  22   -0.19    0.42
   5  -9 -22    2.24    1.69
  -5  -9  20    0.09    0.75
   5  -9 -20    0.04    1.35
  -5  -9  18   -1.54    1.16
   5  -9 -18    0.74    0.97
   5  -9 -16    4.86    2.07
  -5  -9  16    5.71    1.58
   5  -9 -14    1.87    1.70
  -5  -9  14    0.59    0.82
  -5  -9  12   -0.54    0.54
  -5  -9  10    9.96    2.47
  -5  -9   8   -1.58    1.44
  -5  -9   6   -1.17    1.18
  -5  -9   4   66.42    6.34
  -5  -9   2   -1.15    0.90
  -5  -9   0   -0.18    0.67
  -5  -9  -2   27.80    4.31
  -5  -9  -4    1.10    1.41
  -5  -9  -6    3.97    1.75
  -5  -9  -8   -1.12    1.47
  -5  -9 -10    0.90    1.30
  -5  -9 -12    2.38    1.97
  -5  -9 -14    2.86    0.81
  -5  -9 -16   -0.06    0.67
  -5  -9 -18    2.49    1.74
  -5  -9 -20    1.17    1.00
  -5  -9 -22    0.87    1.03
  -5  -9 -24    4.87    2.73
  -5  -9 -26    1.66    1.08
  -5  -9 -28   -0.76    1.12
  -5  -9 -30    1.58    1.77
  -5  -9 -32    1.66    1.29
  -5  -9 -34   -1.88    1.60
  -5  -9 -36   -2.32    1.47
  -5  -9 -38    0.50    0.74
  -5  -9 -40   -1.78    1.74
  -5  -9 -42   -0.54    0.49
  -5  -9 -44    7.65    2.52
   5 -10 -45   -0.07    0.89
   5 -10 -43   -1.37    1.61
   5 -10 -41    1.14    1.66
   5 -10 -39    2.07    1.62
   5 -10 -37    1.29    0.99
   5 -10 -35    2.42    1.43
   5 -10 -33   -0.62    1.10
   5 -10 -31    0.35    0.83
  -5 -10  31    0.06    0.48
  -5 -10  29   -0.69    0.64
   5 -10 -29    1.00    1.50
  -5 -10  27    0.46    0.78
   5 -10 -27    0.74    1.22
   5 -10 -25   -0.26    1.26
  -5 -10  25    0.53    0.77
  -5 -10  23    1.94    1.51
   5 -10 -23    3.67    2.63
  -5 -10  21   -0.32    0.67
   5 -10 -21    1.04    0.85
   5 -10 -19    2.03    1.00
  -5 -10  19    0.12    1.22
   5 -10 -17    4.37    2.75
  -5 -10  17   -0.30    0.69
  -5 -10  15   -1.45    1.47
   5 -10 -15   -0.23    1.18
   5 -10 -13   -0.28    1.16
  -5 -10  13    1.70    1.07
  -5 -10  11   -0.63    0.89
  -5 -10   9    0.95    1.34
  -5 -10   7   57.12    6.05
  -5 -10   5   -1.51    1.25
  -5 -10   3    0.73    1.37
  -5 -10   1   19.91    3.60
  -5 -10  -1   -0.95    0.90
  -5 -10  -3    0.60    0.63
  -5 -10  -5   11.31    3.02
  -5 -10  -7    1.77    1.99
  -5 -10  -9   -1.01    0.72
  -5 -10 -11   -1.58    1.14
  -5 -10 -13    2.19    1.72
  -5 -10 -15    2.24    1.48
  -5 -10 -17   19.05    3.90
  -5 -10 -19    5.26    2.61
  -5 -10 -21    1.94    2.00
  -5 -10 -23    3.33    1.93
  -5 -10 -25    2.52    1.79
  -5 -10 -27    1.07    1.40
  -5 -10 -29    4.64    2.11
  -5 -10 -31    0.65    0.47
  -5 -10 -33   -0.60    1.48
  -5 -10 -35    0.54    0.72
  -5 -10 -37    1.42    1.42
  -5 -10 -39    1.13    0.88
  -5 -10 -41   -1.48    1.53
  -5 -10 -43    0.48    0.81
   5 -11 -42    2.70    1.98
   5 -11 -40    1.38    1.18
   5 -11 -38    2.26    1.90
   5 -11 -36    2.27    1.86
   5 -11 -34   -0.75    1.21
   5 -11 -32    1.50    1.65
   5 -11 -30   -0.76    1.19
  -5 -11  28    1.15    0.81
   5 -11 -28    0.72    1.10
   5 -11 -26    0.51    1.30
  -5 -11  26   -0.88    1.00
   5 -11 -24   -0.24    1.41
  -5 -11  24    1.03    0.91
  -5 -11  22   -1.05    1.24
   5 -11 -22   -1.06    1.56
  -5 -11  20    1.33    1.24
   5 -11 -20    4.19    2.49
  -5 -11  18    0.51    0.64
   5 -11 -18   -1.00    1.25
   5 -11 -16   10.83    2.69
  -5 -11  16   14.46    3.25
   5 -11 -14   -1.37    1.49
  -5 -11  14    0.71    0.62
   5 -11 -12   -2.86    1.70
  -5 -11  12   -0.82    1.27
   5 -11 -10    3.31    1.97
  -5 -11  10    3.38    1.26
  -5 -11   8   -0.18    1.00
   5 -11  -8    3.72    2.31
  -5 -11   6    1.23    1.76
  -5 -11   4   11.65    2.92
  -5 -11   2   -1.60    1.43
  -5 -11   0   -1.83    1.66
  -5 -11  -2    6.93    2.05
  -5 -11  -4    1.88    1.76
  -5 -11  -6    1.47    1.45
  -5 -11  -8   11.26    2.94
  -5 -11 -10    2.12    1.48
  -5 -11 -12   -1.20    1.46
  -5 -11 -14    2.60    0.97
  -5 -11 -16    2.73    2.13
  -5 -11 -18    5.73    2.80
  -5 -11 -20    3.70    2.38
  -5 -11 -22    1.83    1.55
  -5 -11 -24   -1.93    1.29
  -5 -11 -26   -0.18    0.99
  -5 -11 -28   -0.88    1.26
  -5 -11 -30    1.81    1.43
  -5 -11 -32    0.65    1.42
  -5 -11 -34    1.37    1.72
  -5 -11 -36   -0.32    1.18
  -5 -11 -38   -2.29    1.79
   5 -12 -37    3.32    2.19
   5 -12 -35   -1.14    0.61
   5 -12 -33    0.94    1.46
   5 -12 -31   -0.67    0.76
   5 -12 -29   -1.44    1.65
  -5 -12  27    1.75    1.23
   5 -12 -27    3.40    1.99
   5 -12 -25    0.87    0.88
  -5 -12  25    2.68    1.36
   5 -12 -23    0.76    0.94
  -5 -12  23   -0.99    0.84
   5 -12 -21    2.24    1.20
  -5 -12  21   -0.21    0.77
   5 -12 -19   -1.45    1.54
  -5 -12  19   -2.28    1.37
   5 -12 -17    1.97    2.12
  -5 -12  17   -0.93    1.04
  -5 -12  15    1.41    1.27
   5 -12 -15    0.94    1.75
   5 -12 -13    2.27    1.16
  -5 -12  13    0.89    1.17
   5 -12 -11    1.49    1.14
  -5 -12  11    1.47    0.67
   5 -12  -9    3.45    2.55
  -5 -12   9    2.61    1.95
   5 -12  -7    1.59    1.05
  -5 -12   7    2.79    1.58
  -5 -12   5    1.29    1.34
   5 -12  -5    0.83    1.36
  -5 -12   3    0.30    0.49
   5 -12  -3   -1.83    1.02
  -5 -12   1    1.22    1.14
  -5 -12  -1   -0.86    1.05
  -5 -12  -3    3.44    2.31
  -5 -12  -5   -0.79    1.72
  -5 -12  -7   -0.94    1.56
  -5 -12  -9   -2.04    1.47
  -5 -12 -11    8.08    3.07
  -5 -12 -13    3.06    1.71
  -5 -12 -15    1.49    1.84
  -5 -12 -17   -0.23    1.24
  -5 -12 -19    1.38    1.41
  -5 -12 -21    5.14    2.80
  -5 -12 -23    0.23    1.27
  -5 -12 -25   -1.28    1.83
   5 -12  27   -1.35    0.78
  -5 -12 -27    2.31    2.39
  -5 -12 -29    1.15    0.82
  -5 -12 -31    2.71    1.72
   5 -13 -28    2.63    1.89
   5 -13 -26    3.24    2.36
  -5 -13  26    2.00    1.48
  -5 -13  24    1.18    0.90
   5 -13 -24   -0.70    1.45
   5 -13 -22    1.07    0.75
  -5 -13  22    1.85    1.23
  -5 -13  20    0.28    0.90
   5 -13 -20    0.66    0.51
   5 -13 -18   -2.10    2.28
  -5 -13  18    0.69    0.67
   5 -13 -16    0.68    1.15
  -5 -13  16    3.01    1.58
   5 -13 -14    1.40    1.48
  -5 -13  14    0.13    0.63
  -5 -13  12    1.80    1.53
   5 -13 -12    1.16    1.43
  -5 -13  10    2.89    1.69
   5 -13 -10   -0.14    1.03
  -5 -13   8    1.79    1.69
   5 -13  -8    5.52    2.99
  -5 -13   6    0.48    1.33
   5 -13  -6    0.48    1.34
  -5 -13   4    5.77    2.29
   5 -13  -4    4.71    2.58
  -5 -13   2    4.69    2.49
   5 -13  -2   -1.58    1.00
   5 -13   0    0.32    1.16
  -5 -13   0    0.21    1.34
   5 -13   2   -0.45    0.71
  -5 -13  -2   -4.07    2.63
   5 -13   4   -2.21    1.81
  -5 -13  -4   -0.60    1.66
  -5 -13  -6    0.27    1.18
   5 -13   6   -0.31    0.94
  -5 -13  -8   -0.05    1.60
   5 -13   8   -1.12    1.47
  -5 -13 -10    0.14    1.26
  -5 -13 -12   -1.79    1.51
  -5 -13 -14    0.02    0.67
   5 -13  16    0.43    1.02
  -5 -13 -16   -0.07    1.24
   5 -13  18   -0.12    0.59
  -5 -13 -18   -0.08    1.04
   5 -13  20    6.88    2.67
  -5 -13 -20    7.24    3.05
   5 -13  22    1.05    1.23
  -5 -13 -22   -0.36    1.38
   5 -13  24   -0.86    1.31
  -5 -13 -24   -1.34    1.83
  -5 -14  23    1.30    0.72
  -5 -14  21    1.81    1.19
  -5 -14  19    1.31    1.45
   5 -14 -19   -0.17    1.37
   5 -14 -17   -0.86    0.71
  -5 -14  17    1.07    1.23
   5 -14 -15    0.21    0.58
  -5 -14  15   -0.58    1.12
   5 -14 -13    5.43    2.74
  -5 -14  13    0.08    0.60
   5 -14 -11   -0.14    0.77
  -5 -14  11   -0.47    0.76
  -5 -14   9    0.98    0.96
   5 -14  -9    0.93    0.98
  -5 -14   7    0.79    0.99
   5 -14  -7   -2.30    2.39
  -5 -14   5   -0.30    0.71
   5 -14  -5   -2.16    1.81
  -5 -14   3    1.42    1.04
   5 -14  -3    2.11    1.75
   5 -14  -1    2.73    1.70
  -5 -14   1    3.11    1.77
   5 -14   1   -3.01    2.33
  -5 -14  -1    1.88    1.74
  -5 -14  -3   -0.01    1.26
   5 -14   3    3.71    2.43
  -5 -14  -5   -1.77    2.10
   5 -14   5   -0.03    1.37
   5 -14   7   -2.92    1.83
  -5 -14  -7    0.24    0.81
   5 -14   9    1.70    2.03
  -5 -14  -9   -0.84    1.52
   5 -14  11    3.96    2.19
  -5 -14 -11    0.15    0.61
   5 -14  13   -1.57    1.52
  -5 -14 -13    3.13    1.83
   5 -14  15    0.94    1.30
  -5 -14 -15    0.53    1.48
   5 -14  17    0.33    0.83
   5 -14  19   -1.43    1.73
   5 -14  21   -0.53    1.35
   5 -14  23   -0.25    1.50
  -5 -15  20   -4.08    2.07
  -5 -15  18   -1.20    1.20
  -5 -15  16   -3.67    2.00
  -5 -15  14   -1.35    1.48
  -5 -15  12   -0.45    0.88
  -5 -15  10    1.32    0.99
  -5 -15   8   -0.41    1.40
  -5 -15   6    4.38    2.45
   5 -15  -4   -1.89    1.89
  -5 -15   4   -0.99    1.35
  -5 -15   2   -0.97    1.12
   5 -15  -2    1.04    0.75
  -5 -15   0    1.02    1.02
   5 -15   0    0.01    1.09
  -5 -15  -2    2.66    2.06
   5 -15   2   -2.34    2.62
  -5 -15  -4    1.31    0.80
   5 -15   4    1.95    2.15
   5 -15   6    2.56    1.45
   5 -15   8   -0.26    1.48
   5 -15  10    1.20    1.28
   5 -15  12   -2.25    1.26
   5 -15  14   -0.13    0.68
   5 -15  16   -1.42    1.86
   5 -15  18   -3.84    2.22
   5 -15  20    1.60    1.22
  -5 -16  17   -4.71    2.28
   6   0 -28    0.25    0.19
   6   0 -26    0.17    0.25
   6   0 -24 1782.83   11.27
   6   0 -22   -0.16    0.24
   6   0 -20   -0.19    0.18
   6   0 -10   -0.25    0.23
   6   0  -8   -0.05    0.22
   6   0  -6   20.22    1.41
   6   0  -4    0.17    0.27
  -6   0   4   -0.09    0.14
   6   0  -2   -0.02    0.13
  -6   0   2    0.08    0.13
   6   0   0 1445.85   13.52
  -6   0   0 1443.10   13.76
  -6   0  -2   -0.26    0.31
   6   0   2    0.46    0.42
  -6   0  -4   -0.03    0.32
   6   0   4    0.20    0.29
   6   0   6   92.21    3.85
  -6   0  -6   91.41    3.86
  -6   0  -8    0.57    0.38
   6   0   8    0.10    0.31
  -6   0 -10    0.31    0.36
   6   0  10    0.28    0.33
  -6   0 -12  343.86    8.29
   6   0  12  334.45    8.13
  -6   0 -14    0.45    0.47
   6   0  14    0.46    0.24
  -6   0 -16   -0.25    0.49
   6   0  16    0.07    0.31
  -6   0 -18  761.38   13.70
   6   0  18  759.34   13.33
  -6   0 -20    0.45    0.57
   6   0  20    0.25    0.18
  -6   0 -22    0.04    0.26
   6   0  22   -0.60    0.73
  -6   0 -24  324.48    9.70
   6   0  24  318.56    9.34
  -6   0 -26   -0.41    0.64
   6   0  26   -0.47    0.64
   6   0  28    0.03    0.46
  -6   0 -28   -0.73    0.88
   6   0  30   81.18    5.06
  -6   0 -30   91.59    5.47
   6   0  32   -0.19    0.34
  -6   0 -32    0.12    0.58
   6   0  34    0.18    0.28
  -6   0 -34   -1.07    0.71
   6   0  36   60.58    4.58
  -6   0 -36   62.71    4.66
   6   0  38    1.22    0.78
  -6   0 -38   -0.34    0.61
  -6   0 -40   -0.27    0.65
   6  -1 -41    0.26    0.12
   6  -1 -39  183.97    4.91
   6  -1 -37   -0.27    0.38
   6  -1 -35   -0.45    0.53
   6  -1 -33   96.29    3.92
   6  -1 -31   -0.36    0.52
   6  -1 -29   -0.51    0.43
   6  -1 -27  302.87    6.99
   6  -1 -25   -0.37    0.45
   6  -1 -23   -0.20    0.26
   6  -1 -21  560.02    9.29
  -6  -1  11   -0.40    0.15
   6   1 -11    0.45    0.30
  -6  -1   9   32.43    1.62
   6   1  -9   31.55    1.57
   6   1  -7   -0.04    0.18
  -6  -1   7   -0.05    0.20
   6   1  -5   -0.09    0.16
  -6  -1   5    0.05    0.14
  -6  -1   3 1859.56   14.91
   6   1  -3 1884.38   14.75
   6   1  -1   -0.16    0.18
  -6  -1   1    0.12    0.36
   6  -1   1   -0.17    0.32
  -6  -1  -1    0.05    0.34
   6   1   1    0.35    0.34
   6  -1   3  892.14   11.69
   6   1   3  880.58   11.68
  -6  -1  -3  897.46   11.90
  -6   1  -5    0.49    0.44
   6  -1   5    0.05    0.27
  -6  -1  -5    0.50    0.68
   6   1   5   -0.45    0.32
   6  -1   7   -0.15    0.47
  -6   1  -7   -0.22    0.38
  -6  -1  -7    0.17    0.24
   6   1   7   -0.13    0.43
  -6   1  -9  290.28    7.24
   6  -1   9  292.99    7.24
   6   1   9  297.53    7.63
  -6  -1  -9  289.79    7.66
  -6  -1 -11   -0.15    0.32
   6  -1  11   -0.07    0.36
   6   1  11    0.07    0.18
  -6   1 -13    0.78    0.71
  -6  -1 -13   -0.59    0.48
   6  -1  13    0.08    0.28
   6   1  13    0.04    0.28
   6  -1  15   97.19    4.46
  -6   1 -15   95.99    4.54
   6   1  15   93.80    4.80
  -6  -1 -15   92.24    4.78
   6  -1  17    0.40    0.38
  -6  -1 -17    0.38    0.41
   6   1  17    0.08    0.32
  -6  -1 -19   -0.47    0.59
   6  -1  19   -0.18    0.34
   6   1  19   -0.11    0.39
  -6  -1 -21  556.54   12.84
  -6   1 -21  549.47   11.71
   6   1  21  539.33   12.52
   6  -1  21  546.73   11.45
  -6  -1 -23   -0.08    0.40
   6   1  23   -0.48    0.41
   6  -1  23    0.12    0.35
  -6  -1 -25   -0.09    0.21
  -6   1 -25    0.06    0.53
   6   1  25   -0.88    0.54
   6  -1  25   -0.64    0.41
  -6  -1 -27  330.41   10.56
  -6   1 -27  319.73    9.44
   6  -1  27  312.94    9.23
   6   1  27  313.94   10.35
  -6  -1 -29   -0.26    0.64
  -6   1 -29    0.56    0.63
   6   1  29   -0.38    0.43
   6  -1  29    0.52    0.58
  -6   1 -31   -0.60    0.21
  -6  -1 -31   -0.07    0.23
   6   1  31   -0.21    0.46
   6  -1  31   -0.98    0.75
  -6  -1 -33  177.44    8.23
   6  -1  33  168.95    7.11
   6   1  33  164.68    7.97
   6  -1  35    0.28    0.24
  -6  -1 -35   -0.16    0.30
   6  -1  37    0.79    0.73
   6   1  37    0.48    0.58
  -6  -1 -37    0.83    0.89
  -6  -1 -39   63.79    5.05
  -6  -1 -41   -0.31    0.30
   6  -2 -42   72.05    4.08
   6  -2 -40    0.22    0.28
   6  -2 -38   -0.17    0.43
   6  -2 -36   83.90    4.56
   6  -2 -34   -0.09    0.59
   6  -2 -32   -0.48    0.49
   6  -2 -30  444.26   10.36
   6  -2 -28   -0.15    0.36
   6  -2 -26   -0.20    0.46
   6  -2 -24  181.12    6.46
   6  -2 -22   -0.33    0.49
  -6  -2  14    0.13    0.17
   6   2 -12  730.61    8.05
  -6  -2  12  752.10    7.89
   6   2 -10   -0.20    0.22
  -6  -2  10   -0.28    0.28
   6   2  -8    0.68    0.29
  -6  -2   8    0.08    0.24
   6   2  -6   29.01    1.95
  -6  -2   6   31.90    2.02
   6   2  -4   -0.58    0.42
  -6  -2   4    0.02    0.31
   6   2  -2    0.02    0.30
  -6  -2   2    1.03    0.60
   6   2   0 1210.90   14.28
  -6  -2   0 1197.83   14.36
   6   2   2    1.05    0.67
  -6  -2  -2    0.62    0.79
   6   2   4    0.81    0.95
  -6  -2  -4   -0.05    0.49
   6   2   6 3582.28   27.48
  -6  -2  -6 3561.45   27.63
   6  -2   8    0.36    0.30
  -6  -2  -8    0.02    0.31
   6   2   8    0.31    0.70
   6  -2  10   -0.60    0.42
  -6  -2 -10    0.29    0.35
   6   2  10   -0.30    0.30
   6  -2  12 1196.39   15.93
   6   2  12 1219.43   17.78
  -6  -2 -12 1203.04   17.70
   6  -2  14   -0.37    0.39
   6   2  14   -1.34    0.76
  -6  -2 -14   -0.81    0.96
   6  -2  16   -0.33    0.49
  -6  -2 -16   -0.62    0.80
   6   2  16   -0.41    0.48
   6  -2  18  192.07    6.58
   6   2  18  204.47    7.97
  -6  -2 -18  187.21    7.59
   6  -2  20    0.11    0.27
  -6  -2 -20   -0.33    0.49
   6   2  20   -0.11    0.25
   6  -2  22   -0.28    0.30
  -6  -2 -22   -1.15    0.80
   6   2  22   -0.20    0.48
   6   2  24  348.16   11.24
   6  -2  24  330.70    8.98
  -6  -2 -24  338.35   10.93
  -6  -2 -26   -0.06    0.66
   6   2  26    0.66    0.69
   6  -2  26   -0.31    0.63
  -6  -2 -28    0.40    0.32
   6   2  28   -0.07    0.39
   6  -2  28   -0.05    0.59
  -6  -2 -30   76.73    5.55
   6   2  30   77.82    5.69
   6  -2  30   76.25    4.50
  -6  -2 -32   -0.23    0.53
   6   2  32    0.18    0.50
   6  -2  32   -0.07    0.30
  -6  -2 -34   -0.95    0.81
   6   2  34    0.64    0.52
   6  -2  34   -0.68    0.46
  -6  -2 -36  219.73    9.89
   6  -2  36  221.49    7.79
   6   2  36  220.43   10.12
  -6  -2 -38    1.76    1.14
  -6  -2 -40   -0.01    0.54
  -6  -2 -42   31.11    3.81
   6  -3 -43   -0.54    0.55
   6  -3 -41   -0.30    0.66
   6  -3 -39   28.26    3.07
   6  -3 -37   -0.88    0.89
   6  -3 -35   -0.42    0.42
   6  -3 -33   75.34    4.97
   6  -3 -31   -1.08    0.97
   6  -3 -29   -0.96    0.93
   6  -3 -27  435.40   11.78
   6  -3 -25   -0.37    0.68
   6  -3 -23   -0.23    0.51
   6  -3 -21   88.88    5.16
  -6  -3  19   -0.14    0.18
  -6  -3  17   -0.04    0.18
  -6  -3  15  723.42    8.90
  -6  -3  13   -0.14    0.26
  -6  -3  11    0.50    0.47
  -6  -3   9 1093.27   13.07
   6   3  -9 1074.23   13.42
   6   3  -7    0.17    0.31
  -6  -3   7    0.25    0.54
   6   3  -5    0.18    0.17
  -6  -3   5   -0.09    0.22
  -6  -3   3  454.63    9.47
   6   3  -3  458.04    9.64
   6   3  -1   -0.55    0.50
  -6  -3   1   -0.12    0.23
   6   3   1    0.02    0.21
  -6  -3  -1    1.17    0.71
  -6  -3  -3  976.76   15.43
   6   3   3  988.54   15.71
   6   3   5    1.05    0.64
  -6  -3  -5    0.08    0.50
   6   3   7   -0.26    0.29
  -6  -3  -7   -0.32    0.35
   6   3   9 1175.29   18.65
  -6  -3  -9 1157.17   18.32
   6   3  11    0.39    0.31
  -6  -3 -11   -0.30    0.37
   6  -3  13    0.73    0.61
   6   3  13   -0.57    0.76
  -6  -3 -13   -0.46    0.58
   6  -3  15   35.42    2.92
   6   3  15   32.41    3.31
  -6  -3 -15   30.58    3.15
   6  -3  17    0.61    0.50
   6   3  17   -0.38    0.64
  -6  -3 -17   -0.08    0.42
   6  -3  19   -0.04    0.23
   6   3  19    0.31    0.50
  -6  -3 -19   -0.55    0.84
   6  -3  21  136.62    5.86
   6   3  21  135.47    7.29
  -6  -3 -21  142.23    7.21
   6  -3  23    0.12    0.50
   6   3  23   -0.08    0.36
  -6  -3 -23   -0.03    0.61
   6  -3  25    0.00    0.50
  -6  -3 -25    0.12    0.58
   6   3  25   -0.85    0.70
   6   3  27   69.37    5.62
  -6  -3 -27   66.55    5.24
   6  -3  27   65.47    4.13
  -6  -3 -29    0.36    0.61
   6  -3  29    0.72    0.59
   6   3  29    0.15    0.58
  -6  -3 -31   -0.53    0.62
   6   3  31   -0.25    0.66
   6  -3  31   -0.44    0.33
  -6  -3 -33  100.87    6.94
   6   3  33   98.55    7.05
   6  -3  33   98.93    5.05
  -6  -3 -35    1.72    1.17
   6  -3  35    0.16    0.19
  -6  -3 -37   -0.69    0.84
  -6  -3 -39   78.17    6.45
  -6  -3 -41   -0.97    1.05
  -6  -3 -43    0.24    0.57
   6  -4 -44   -0.95    0.94
   6  -4 -42   70.19    5.43
   6  -4 -40   -0.16    0.84
   6  -4 -38   -0.21    0.69
   6  -4 -36  155.68    7.99
   6  -4 -34    0.44    0.57
   6  -4 -32   -1.27    1.13
   6  -4 -30  184.49    8.68
   6  -4 -28   -1.16    1.08
   6  -4 -26   -0.74    0.79
   6  -4 -24  365.70   11.73
  -6  -4  24  335.18    4.69
   6  -4 -22   -0.49    0.64
  -6  -4  22   -0.44    0.25
  -6  -4  20    0.12    0.15
  -6  -4  18   90.45    3.63
  -6  -4  16    0.06    0.16
  -6  -4  14   -0.10    0.30
  -6  -4  12  478.98    9.70
  -6  -4  10    0.51    0.38
  -6  -4   8    0.47    0.49
  -6  -4   6  761.75   13.51
   6   4  -6  737.32   13.63
   6   4  -4   -0.13    0.46
  -6  -4   4    0.03    0.35
  -6  -4   2   -0.82    0.94
   6   4  -2    0.51    0.46
  -6  -4   0  999.88   16.78
   6   4   0  992.17   16.84
   6   4   2   -0.34    0.28
  -6  -4  -2   -0.35    0.38
   6   4   4    1.45    1.10
  -6  -4  -4    0.96    0.73
   6   4   6 1087.15   18.73
  -6  -4  -6 1059.70   18.43
   6   4   8    0.38    0.68
  -6  -4  -8    0.24    0.34
   6   4  10    0.55    0.36
  -6  -4 -10    0.57    0.40
  -6  -4 -12  503.80   13.47
   6   4  12  514.02   13.86
   6   4  14    0.15    0.52
  -6  -4 -14    0.04    0.48
   6  -4  16   -0.68    0.82
   6   4  16   -0.81    0.77
  -6  -4 -16    0.33    0.38
   6  -4  18  158.00    6.76
   6   4  18  162.67    8.34
  -6  -4 -18  154.82    7.89
   6  -4  20    0.41    0.44
   6   4  20   -0.20    0.57
  -6  -4 -20   -0.15    0.52
   6  -4  22   -0.48    0.38
   6   4  22    0.76    0.62
  -6  -4 -22   -0.86    0.68
   6  -4  24  659.44   13.82
   6   4  24  653.97   17.86
  -6  -4 -24  650.20   17.00
   6  -4  26   -0.64    0.70
   6   4  26   -1.05    1.20
  -6  -4 -26   -1.15    1.23
   6  -4  28   -0.94    0.63
   6   4  28   -0.65    1.03
  -6  -4 -28    1.29    1.02
  -6  -4 -30  322.99   12.68
   6  -4  30  314.10    9.34
  -6  -4 -32    0.54    0.70
   6  -4  32   -0.30    0.55
  -6  -4 -34    0.51    0.49
   6  -4  34    0.55    0.31
  -6  -4 -36  113.87    7.95
  -6  -4 -38   -0.82    0.67
  -6  -4 -40   -0.11    0.77
  -6  -4 -42  128.94    8.82
   6  -5 -43   -0.61    0.79
   6  -5 -41   -0.16    0.35
   6  -5 -39   57.75    5.45
   6  -5 -37    1.48    1.09
   6  -5 -35    0.43    0.74
   6  -5 -33    4.36    1.27
   6  -5 -31   -1.59    1.06
   6  -5 -29   -1.32    1.09
   6  -5 -27  185.66    9.27
  -6  -5  27  176.40    4.13
   6  -5 -25   -1.47    1.25
  -6  -5  25   -0.77    0.43
   6  -5 -23   -0.77    0.76
  -6  -5  23   -0.43    0.43
  -6  -5  21  210.15    6.24
   6  -5 -21  221.10   10.00
  -6  -5  19    0.52    0.48
  -6  -5  17    0.59    0.42
  -6  -5  15 1140.75   16.67
  -6  -5  13   -0.82    0.65
  -6  -5  11    0.30    0.73
  -6  -5   9 1031.81   17.09
  -6  -5   7    0.65    0.70
  -6  -5   5   -0.03    0.40
  -6  -5   3  573.47   13.63
  -6  -5   1   -0.75    0.65
  -6  -5  -1    0.55    0.82
   6   5   1    0.30    0.69
  -6  -5  -3 1133.94   20.18
   6   5   3 1105.12   20.24
  -6  -5  -5    0.54    0.54
   6   5   5    0.13    0.34
   6   5   7   -0.14    0.28
  -6  -5  -7   -4.57    1.32
   6   5   9  542.41   15.04
  -6  -5  -9  528.34   14.37
   6   5  11   -0.01    0.68
  -6  -5 -11   -0.47    0.46
   6   5  13    0.01    0.42
  -6  -5 -13    0.50    0.61
   6   5  15  321.00   12.16
  -6  -5 -15  311.05   11.70
   6   5  17   -0.43    0.33
  -6  -5 -17    0.65    1.12
   6  -5  19   -0.13    0.43
   6   5  19    0.55    0.62
  -6  -5 -19    0.69    0.63
   6  -5  21  354.75   10.81
   6   5  21  374.51   13.99
  -6  -5 -21  368.68   13.34
   6  -5  23   -1.20    1.02
  -6  -5 -23    1.25    0.89
   6  -5  25    0.23    0.63
  -6  -5 -25   -0.33    0.75
   6  -5  27   25.87    2.87
  -6  -5 -27   23.67    3.43
   6  -5  29    0.36    0.48
  -6  -5 -29    0.51    0.45
   6  -5  31    0.20    0.43
  -6  -5 -31   -0.46    0.46
  -6  -5 -33  180.03   10.26
   6  -5  33  177.98    7.23
  -6  -5 -35   -0.37    0.73
  -6  -5 -37    0.66    0.67
  -6  -5 -39  105.48    8.24
  -6  -5 -41   -0.26    0.34
  -6  -5 -43   -0.76    1.00
   6  -6 -44   -1.00    0.77
   6  -6 -42   64.83    6.25
   6  -6 -40   -0.78    1.07
   6  -6 -38    0.67    0.88
   6  -6 -36  102.84    7.67
   6  -6 -34    0.37    0.79
   6  -6 -32   -1.66    1.65
  -6  -6  30   36.36    2.16
   6  -6 -30   34.22    4.33
  -6  -6  30   33.83    2.02
   6  -6 -28   -0.95    1.07
  -6  -6  28   -0.63    0.58
   6  -6 -26   -0.74    0.69
  -6  -6  26   -0.07    0.37
  -6  -6  24   25.97    2.40
   6  -6 -24   26.23    3.70
  -6  -6  22   -0.11    0.29
   6  -6 -22    0.96    0.83
  -6  -6  20    0.47    0.46
  -6  -6  18  337.04    9.84
  -6  -6  16   -0.03    0.44
  -6  -6  14    0.01    0.45
  -6  -6  12  302.30   10.04
  -6  -6  10   -0.93    0.89
  -6  -6   8   -0.22    0.36
  -6  -6   6  546.35   14.22
  -6  -6   4   -0.06    0.77
  -6  -6   2    0.12    0.54
  -6  -6   0  366.60   12.37
  -6  -6  -2    0.22    0.70
  -6  -6  -4    1.19    1.06
  -6  -6  -6   82.81    6.03
  -6  -6  -8    0.84    0.84
  -6  -6 -10   -0.88    1.04
  -6  -6 -12  193.98    9.72
  -6  -6 -14   -0.06    0.34
  -6  -6 -16   -0.10    0.57
  -6  -6 -18  167.70    9.43
  -6  -6 -20   -0.64    1.18
   6  -6  22   -1.71    1.19
  -6  -6 -22   -1.29    1.46
   6  -6  24   96.27    6.03
  -6  -6 -24  103.64    7.71
   6  -6  26   -1.17    0.88
  -6  -6 -26   -0.90    0.93
   6  -6  28   -0.01    0.65
  -6  -6 -28    0.65    0.58
   6  -6  30  242.30    9.30
  -6  -6 -30  241.40   12.30
   6  -6  32    0.63    0.65
  -6  -6 -32   -1.20    1.36
  -6  -6 -34   -0.67    0.86
  -6  -6 -36  119.18    8.99
  -6  -6 -38   -0.26    0.58
  -6  -6 -40    0.11    0.75
  -6  -6 -42   11.35    2.85
  -6  -6 -44    0.16    1.21
   6  -7 -45   20.68    3.71
   6  -7 -43   -1.46    1.54
   6  -7 -41   -0.97    0.88
   6  -7 -39   39.94    5.12
   6  -7 -37   -0.80    1.24
   6  -7 -35   -0.95    1.27
  -6  -7  33  131.50    4.30
   6  -7 -33  137.46    9.46
  -6  -7  33  128.86    4.12
   6  -7 -31    0.89    0.42
  -6  -7  31   -0.90    0.57
   6  -7 -29   -0.80    1.01
  -6  -7  29   -0.63    0.47
   6  -7 -27   35.03    4.60
  -6  -7  27   26.92    2.70
  -6  -7  25   -0.27    0.32
   6  -7 -25    0.99    1.17
   6  -7 -23   -0.11    0.70
  -6  -7  23   -0.01    0.36
   6  -7 -21  269.31   12.55
  -6  -7  21  257.64    9.26
  -6  -7  19   -1.02    0.77
  -6  -7  17   -0.32    0.58
  -6  -7  15  167.71    7.93
  -6  -7  13   -0.59    0.85
  -6  -7  11    0.82    0.74
  -6  -7   9  590.33   15.67
  -6  -7   7   -0.77    1.03
  -6  -7   5   -0.60    0.85
  -6  -7   3  254.51   10.85
  -6  -7   1   -1.17    1.10
  -6  -7  -1    0.58    0.70
  -6  -7  -3  172.06    9.32
  -6  -7  -5   -0.25    0.81
  -6  -7  -7    1.28    0.86
  -6  -7  -9  354.86   13.89
  -6  -7 -11   -0.91    1.25
  -6  -7 -13   -0.50    0.46
  -6  -7 -15  432.72   15.58
  -6  -7 -17   -0.25    0.71
  -6  -7 -19   -0.49    0.71
  -6  -7 -21  118.34    8.55
  -6  -7 -23    1.43    1.38
   6  -7  25   -0.72    0.77
  -6  -7 -25    0.72    0.39
   6  -7  27  445.38   13.68
  -6  -7 -27  449.57   17.27
   6  -7  29   -1.21    1.04
  -6  -7 -29    0.40    0.50
   6  -7  31   -1.43    0.72
  -6  -7 -31   -1.38    1.65
  -6  -7 -33  113.06    9.02
  -6  -7 -35   -0.08    0.43
  -6  -7 -37   -2.10    1.75
  -6  -7 -39   25.46    4.49
  -6  -7 -41   -1.99    1.71
  -6  -7 -43   -2.32    1.33
   6  -8 -44    0.11    0.73
   6  -8 -42   21.65    4.03
   6  -8 -40   -0.81    1.09
   6  -8 -38   -0.94    1.27
   6  -8 -36   22.31    4.08
   6  -8 -34   -1.59    1.54
   6  -8 -32   -1.56    1.30
  -6  -8  32    0.29    0.26
   6  -8 -30  145.62   10.22
  -6  -8  30  146.43    6.49
   6  -8 -28    1.55    1.21
  -6  -8  28    0.92    0.56
   6  -8 -26   -0.47    0.84
  -6  -8  26    0.47    0.63
   6  -8 -24  177.80   11.01
  -6  -8  24  176.68    8.19
  -6  -8  22   -0.06    0.37
   6  -8 -22    1.03    1.12
  -6  -8  20   -0.31    0.41
   6  -8 -20    0.29    1.06
  -6  -8  18  151.48    8.06
   6  -8 -18  159.61   10.18
  -6  -8  16   -0.88    1.22
  -6  -8  14   -0.51    0.84
  -6  -8  12  279.98   11.53
  -6  -8  10   -1.37    1.42
  -6  -8   8   -0.08    0.34
  -6  -8   6  182.01    9.65
  -6  -8   4   -0.78    1.17
  -6  -8   2   -0.28    0.87
  -6  -8   0  110.63    7.77
  -6  -8  -2    0.16    0.72
  -6  -8  -4   -0.44    0.79
  -6  -8  -6  462.17   16.57
  -6  -8  -8   -1.22    1.37
  -6  -8 -10   -0.99    1.24
  -6  -8 -12  191.05   10.89
  -6  -8 -14   -0.29    0.64
  -6  -8 -16    0.44    1.15
  -6  -8 -18  131.89    9.38
  -6  -8 -20   -0.25    0.55
  -6  -8 -22    0.91    1.41
  -6  -8 -24  217.23   12.39
   6  -8  26    1.13    0.48
  -6  -8 -26    2.34    1.89
   6  -8  28   -0.75    0.70
  -6  -8 -28   -1.74    1.24
  -6  -8 -30  161.42   11.08
  -6  -8 -32    0.09    0.68
  -6  -8 -34    1.48    1.31
  -6  -8 -36   21.63    4.16
  -6  -8 -38    0.39    0.42
  -6  -8 -40   -1.57    1.67
  -6  -8 -42   37.52    5.70
  -6  -8 -44   -0.55    1.20
   6  -9 -45    8.86    2.50
   6  -9 -43   -0.88    1.42
   6  -9 -41    1.22    0.75
   6  -9 -39    3.57    1.48
   6  -9 -37   -0.99    1.07
   6  -9 -35    0.73    1.03
   6  -9 -33   17.11    3.85
   6  -9 -31   -2.37    2.04
  -6  -9  31   -1.68    0.92
   6  -9 -29   -2.42    1.79
  -6  -9  29   -0.23    0.47
  -6  -9  27  102.89    6.51
   6  -9 -27   94.04    8.52
  -6  -9  25    1.87    1.17
   6  -9 -25   -0.17    0.69
  -6  -9  23    0.77    0.89
   6  -9 -23    0.05    0.71
   6  -9 -21   49.80    6.22
  -6  -9  21   49.17    4.89
  -6  -9  19   -1.03    0.96
   6  -9 -19   -0.87    1.26
   6  -9 -17   -1.70    1.43
  -6  -9  17   -0.35    0.54
  -6  -9  15   83.96    6.67
  -6  -9  13   -0.97    1.21
  -6  -9  11    0.03    0.69
  -6  -9   9   46.09    5.10
  -6  -9   7    0.23    0.82
  -6  -9   5   -0.43    0.72
  -6  -9   3  100.93    7.90
  -6  -9   1    0.78    0.72
  -6  -9  -1   -0.12    0.56
  -6  -9  -3  148.50    9.85
  -6  -9  -5   -0.24    0.64
  -6  -9  -7   -1.48    1.04
  -6  -9  -9  160.15   10.56
  -6  -9 -11    0.70    0.42
  -6  -9 -13   -1.11    1.20
  -6  -9 -15   35.35    5.03
  -6  -9 -17   -0.78    0.88
  -6  -9 -19    0.93    1.53
  -6  -9 -21   86.07    8.21
  -6  -9 -23   -0.16    0.67
  -6  -9 -25   -0.23    0.90
  -6  -9 -27   59.42    6.98
  -6  -9 -29   -0.27    0.51
  -6  -9 -31   -0.75    1.32
  -6  -9 -33    4.79    2.04
  -6  -9 -35    0.35    0.76
  -6  -9 -37   -2.34    1.76
  -6  -9 -39    5.50    2.36
  -6  -9 -41    0.39    0.65
  -6  -9 -43    3.77    2.17
   6 -10 -44    0.03    0.62
   6 -10 -42   12.59    3.42
   6 -10 -40    3.54    2.03
   6 -10 -38   -0.82    1.34
   6 -10 -36    8.88    2.85
   6 -10 -34   -0.74    1.27
   6 -10 -32    0.53    1.50
  -6 -10  30   33.09    3.79
   6 -10 -30   34.94    5.67
   6 -10 -28    0.80    1.04
  -6 -10  28   -0.38    0.39
   6 -10 -26   -1.84    1.69
  -6 -10  26    0.36    0.55
   6 -10 -24  118.90   10.09
  -6 -10  24  124.66    8.16
  -6 -10  22   -1.83    1.11
   6 -10 -22    1.01    0.70
  -6 -10  20   -0.77    0.99
   6 -10 -20   -1.48    1.42
   6 -10 -18  143.17   10.92
  -6 -10  18  136.83    8.95
  -6 -10  16   -3.20    2.01
   6 -10 -16   -0.01    0.91
   6 -10 -14   -0.83    1.69
  -6 -10  14   -2.12    1.75
  -6 -10  12   52.86    5.74
  -6 -10  10   -0.34    0.92
  -6 -10   8   -0.09    0.81
  -6 -10   6    8.06    2.16
  -6 -10   4   -1.40    1.27
  -6 -10   2   -1.19    1.05
  -6 -10   0  106.80    8.73
  -6 -10  -2   -2.06    1.68
  -6 -10  -4    0.97    0.96
  -6 -10  -6  146.26   10.42
  -6 -10  -8   -0.31    0.86
  -6 -10 -10   -0.83    0.56
  -6 -10 -12  131.80   10.04
  -6 -10 -14   -1.61    1.03
  -6 -10 -16   -0.54    1.10
  -6 -10 -18  134.35   10.45
  -6 -10 -20    0.16    0.54
  -6 -10 -22    1.16    1.32
  -6 -10 -24   45.95    6.32
  -6 -10 -26    0.66    0.96
  -6 -10 -28   -0.02    0.76
  -6 -10 -30   32.36    5.57
  -6 -10 -32   -1.21    1.07
  -6 -10 -34    0.09    0.62
  -6 -10 -36   39.95    6.30
  -6 -10 -38   -0.16    1.23
  -6 -10 -40   -0.84    1.18
  -6 -10 -42   24.43    5.04
   6 -11 -43    1.45    1.54
   6 -11 -41    2.67    1.86
   6 -11 -39   18.56    4.33
   6 -11 -37   -2.61    1.62
   6 -11 -35    0.56    0.97
   6 -11 -33   21.50    4.62
   6 -11 -31    0.02    1.20
   6 -11 -29   -0.68    1.28
  -6 -11  29   -0.96    0.89
   6 -11 -27   10.33    2.92
  -6 -11  27   13.18    2.76
   6 -11 -25    0.68    1.12
  -6 -11  25   -0.48    1.82
   6 -11 -23   -0.25    0.87
  -6 -11  23   -1.71    1.27
   6 -11 -21  109.68   10.07
  -6 -11  21  111.01    8.44
  -6 -11  19   -3.24    1.69
   6 -11 -19   -0.44    1.42
  -6 -11  17   -0.72    1.22
   6 -11 -17    0.25    0.94
   6 -11 -15   46.82    6.53
  -6 -11  15   41.59    5.40
  -6 -11  13   -1.40    1.09
   6 -11 -13   -1.29    1.73
  -6 -11  11   -0.36    0.71
   6 -11 -11   -0.04    1.05
  -6 -11   9   58.38    6.53
  -6 -11   7   -0.61    1.16
  -6 -11   5   -1.27    1.41
  -6 -11   3   40.28    5.57
  -6 -11   1   -0.71    0.67
  -6 -11  -1    0.89    0.97
  -6 -11  -3  164.14   11.56
  -6 -11  -5   -1.43    1.53
  -6 -11  -7   -1.14    1.68
  -6 -11  -9   43.47    6.13
  -6 -11 -11    0.11    0.71
  -6 -11 -13   -0.83    1.81
  -6 -11 -15   71.70    8.09
  -6 -11 -17    0.94    1.32
  -6 -11 -19    1.99    2.02
  -6 -11 -21   20.19    4.31
  -6 -11 -23   -1.83    1.49
  -6 -11 -25   -0.76    0.88
  -6 -11 -27   17.12    3.99
  -6 -11 -29   -0.21    1.43
  -6 -11 -31   -1.05    1.47
  -6 -11 -33   34.82    6.05
  -6 -11 -35   -2.07    1.77
  -6 -11 -37   -0.29    0.66
   6 -12 -36    9.46    3.31
   6 -12 -34   -0.77    1.16
   6 -12 -32    0.43    0.79
   6 -12 -30    0.84    1.10
   6 -12 -28   -0.32    0.92
  -6 -12  26   -0.14    0.88
   6 -12 -26   -1.00    1.17
   6 -12 -24   15.44    4.03
  -6 -12  24   15.70    3.24
  -6 -12  22   -1.90    1.32
   6 -12 -22   -1.08    1.46
   6 -12 -20   -2.04    2.04
  -6 -12  20   -0.84    1.23
   6 -12 -18   47.25    6.76
  -6 -12  18   32.69    4.85
  -6 -12  16    0.13    0.87
   6 -12 -16   -2.40    1.66
  -6 -12  14    1.39    1.16
   6 -12 -14    0.05    1.01
  -6 -12  12   10.68    2.97
   6 -12 -12    8.94    3.03
  -6 -12  10    2.26    2.02
   6 -12 -10    2.28    1.86
   6 -12  -8    0.86    1.51
  -6 -12   8    1.27    0.78
  -6 -12   6   69.47    7.70
  -6 -12   4   -1.81    1.47
  -6 -12   2   -0.91    1.21
  -6 -12   0   37.38    5.71
  -6 -12  -2   -1.63    1.43
  -6 -12  -4   -0.85    0.93
  -6 -12  -6   29.73    5.11
  -6 -12  -8   -3.63    2.04
  -6 -12 -10   -2.21    1.91
  -6 -12 -12   16.47    3.88
  -6 -12 -14    2.07    1.23
  -6 -12 -16    0.45    0.58
  -6 -12 -18   10.19    3.19
  -6 -12 -20    0.63    1.15
  -6 -12 -22    0.04    1.17
  -6 -12 -24    2.74    1.51
  -6 -12 -26    0.66    1.23
  -6 -12 -28    1.62    1.72
  -6 -12 -30   12.80    3.74
   6 -13 -29   -0.31    1.11
   6 -13 -27    9.24    3.35
  -6 -13  25   -1.12    1.26
   6 -13 -25   -3.13    2.45
  -6 -13  23    0.40    0.45
   6 -13 -23   -3.45    2.60
   6 -13 -21   18.78    4.57
  -6 -13  21   22.14    4.17
  -6 -13  19   -2.66    1.69
   6 -13 -19   -1.84    1.68
   6 -13 -17   -3.02    1.72
  -6 -13  17   -1.94    1.60
  -6 -13  15   17.85    3.97
   6 -13 -15   21.38    4.71
  -6 -13  13   -1.15    1.19
   6 -13 -13   -0.31    0.79
   6 -13 -11   -1.61    1.35
  -6 -13  11   -2.26    1.79
   6 -13  -9   29.79    5.49
  -6 -13   9   38.65    5.94
   6 -13  -7   -0.75    0.71
  -6 -13   7   -1.21    1.38
   6 -13  -5   -1.82    1.86
  -6 -13   5   -3.39    2.49
   6 -13  -3   54.58    7.58
  -6 -13   3   55.67    7.20
   6 -13  -1   -2.90    2.35
  -6 -13   1   -0.38    1.30
  -6 -13  -1   -2.32    2.10
  -6 -13  -3   45.87    6.60
  -6 -13  -5   -1.36    1.47
  -6 -13  -7   -0.17    0.85
  -6 -13  -9   18.83    4.28
  -6 -13 -11   -2.02    2.13
  -6 -13 -13    0.95    0.79
  -6 -13 -15   19.27    4.48
  -6 -13 -17    0.00    0.58
  -6 -13 -19   -1.68    0.68
  -6 -13 -21   13.80    4.14
   6 -13  23   -1.71    1.62
  -6 -13 -23    4.05    2.50
   6 -13  25   -0.71    1.29
  -6 -14  22    0.11    0.66
  -6 -14  20    0.11    1.15
   6 -14 -18   11.98    3.40
  -6 -14  18   17.39    3.99
   6 -14 -16    1.90    1.67
  -6 -14  16    2.44    2.00
   6 -14 -14   -1.23    2.02
  -6 -14  14   -2.33    1.24
  -6 -14  12    8.02    2.89
   6 -14 -12   12.45    3.83
  -6 -14  10   -1.00    0.95
   6 -14 -10   -2.80    2.69
  -6 -14   8    0.20    0.64
   6 -14  -8   -0.81    1.53
  -6 -14   6   13.69    3.62
   6 -14  -6   23.05    5.09
  -6 -14   4    0.53    1.18
   6 -14  -4    0.98    1.01
  -6 -14   2   -0.79    0.58
   6 -14  -2    0.20    1.27
  -6 -14   0   25.61    5.07
   6 -14   0   25.35    5.26
   6 -14   2   -0.58    1.16
  -6 -14  -2   -1.61    1.30
  -6 -14  -4   -2.44    1.65
   6 -14   4   -1.41    1.78
   6 -14   6   13.54    4.05
  -6 -14  -6   14.58    3.91
  -6 -14  -8    0.63    1.07
   6 -14   8   -1.37    1.50
   6 -14  10   -0.15    1.03
  -6 -14 -10    0.46    1.34
   6 -14  12   18.92    4.33
  -6 -14 -12   15.65    3.99
   6 -14  14   -0.39    1.07
  -6 -14 -14    1.34    1.01
   6 -14  16    1.12    1.63
   6 -14  18   15.79    4.02
   6 -14  20   -2.23    1.55
   6 -14  22   -0.04    0.71
  -6 -15  21    7.41    2.67
  -6 -15  19   -1.19    1.27
  -6 -15  17    0.86    1.04
  -6 -15  15    5.55    2.40
  -6 -15  13    0.34    0.79
  -6 -15  11   -4.40    2.46
  -6 -15   9    5.04    2.44
  -6 -15   7    0.29    0.68
  -6 -15   5   -0.41    1.21
  -6 -15   3    6.15    2.46
   6 -15  -3    6.52    2.65
  -6 -15   1   -0.51    1.66
   6 -15  -1    1.21    1.02
   6 -15   1    2.58    1.68
  -6 -15  -1    1.21    0.99
   6 -15   3   10.35    3.47
  -6 -15  -3   13.78    3.95
   6 -15   5    0.59    1.65
   6 -15   7   -0.42    0.71
   6 -15   9    2.20    1.54
   6 -15  11   -0.20    1.35
   6 -15  13    0.74    0.90
   6 -15  15    7.48    3.16
   6 -15  17   -0.26    0.73
   6 -15  19   -2.99    1.89
   6 -15  21    5.87    2.50
   7   0 -27    0.16    0.21
   7   0 -25    0.25    0.26
   7   0 -23    0.63    0.34
   7   0 -21   -0.04    0.12
   7   0 -13   -0.22    0.31
   7   0 -11   -0.73    0.47
   7   0  -9    0.04    0.46
   7   0  -7   -0.09    0.17
  -7   0   5    0.00    0.34
   7   0  -5    0.26    0.28
  -7   0   3   -0.02    0.48
   7   0  -3   44.22    2.98
   7   0  -1    0.06    0.26
  -7   0   1   -0.10    0.33
  -7   0  -1    0.86    0.59
   7   0   1    0.05    0.24
  -7   0  -3   -0.53    0.61
   7   0   3   -0.03    0.17
  -7   0  -5   -0.56    0.50
   7   0   5    0.45    0.40
  -7   0  -7    0.33    0.42
   7   0   7    0.61    0.34
  -7   0  -9    0.50    0.49
   7   0   9    0.03    0.30
  -7   0 -11   -0.01    0.53
   7   0  11    0.33    0.24
  -7   0 -13   -0.18    0.50
   7   0  13    0.94    0.78
  -7   0 -15    0.82    0.78
   7   0  15    0.74    0.54
  -7   0 -17    0.19    1.00
   7   0  17   -0.53    0.42
  -7   0 -19   -0.31    0.51
   7   0  19    1.15    0.76
  -7   0 -21    1.98    1.29
   7   0  21   -0.94    0.71
  -7   0 -23    1.49    1.08
   7   0  23    0.55    0.45
  -7   0 -25   -0.16    0.52
   7   0  25    0.10    0.60
  -7   0 -27    0.84    0.86
   7   0  27   -0.39    0.41
  -7   0 -29    0.20    0.25
   7   0  29   -0.20    0.33
   7   0  31    1.04    0.71
  -7   0 -31   -0.15    0.62
   7   0  33   -0.27    0.62
  -7   0 -33   -0.09    0.49
   7   0  35   -0.81    0.97
  -7   0 -35   -0.21    0.46
   7   0  37   -0.55    0.79
  -7   0 -37   -0.67    0.91
  -7   0 -39   -0.26    0.36
   7  -1 -40    0.73    0.35
   7  -1 -38    3.78    0.66
   7  -1 -36   -0.18    0.22
   7  -1 -34    0.01    0.31
   7  -1 -32   -0.17    0.37
   7  -1 -30   -0.46    0.47
   7  -1 -28    0.23    0.33
   7  -1 -26    7.78    1.10
   7  -1 -24   -0.01    0.26
   7  -1 -22    0.06    0.27
   7   1 -14   95.63    2.47
  -7  -1  12   -0.10    0.20
   7   1 -12    0.45    0.29
  -7  -1  10    1.35    0.51
   7   1 -10    0.46    0.27
  -7  -1   8   64.61    2.63
   7   1  -8   67.43    2.65
   7   1  -6   -0.55    0.33
  -7  -1   6   -0.04    0.30
  -7  -1   4   -0.16    0.28
   7   1  -4   -0.38    0.30
  -7  -1   2 1102.42   12.75
   7   1  -2 1092.74   12.40
   7  -1   0    0.10    0.22
   7   1   0    0.12    0.34
  -7  -1   0   -0.21    0.21
  -7  -1  -2   -0.18    0.24
   7   1   2   -0.29    0.15
   7  -1   4    0.61    0.46
  -7   1  -4    0.38    0.33
  -7  -1  -4    0.81    0.36
   7   1   4    0.26    0.36
   7  -1   6   -0.19    0.35
  -7   1  -6   -0.49    0.35
  -7  -1  -6    0.06    0.34
   7   1   6    0.19    0.36
   7  -1   8    0.27    0.22
  -7  -1  -8   -0.22    0.37
   7   1   8    0.01    0.20
  -7   1 -10    0.89    0.79
  -7  -1 -10    0.55    0.30
   7  -1  10   -0.02    0.20
   7   1  10    0.73    0.21
   7  -1  12    0.89    0.56
  -7  -1 -12    0.90    0.68
  -7   1 -14    0.97    0.73
   7  -1  14   -0.63    0.47
  -7  -1 -14   -0.79    0.76
   7   1  14   -0.20    0.56
  -7  -1 -16  283.85    8.91
  -7   1 -16  284.42    8.29
   7   1  16  287.73    8.88
   7  -1  16  285.48    8.16
  -7  -1 -18    0.65    0.78
   7  -1  18    1.54    0.82
   7   1  18    1.27    0.86
  -7  -1 -20    0.63    0.84
   7  -1  20    0.25    0.56
   7   1  20   -0.35    0.43
  -7  -1 -22   37.00    3.47
  -7   1 -22   36.07    3.20
   7   1  22   32.53    3.20
   7  -1  22   33.09    2.98
  -7   1 -24   -0.05    0.46
  -7  -1 -24    0.22    0.31
   7  -1  24   -0.22    0.30
   7   1  24   -0.10    0.61
  -7  -1 -26    0.94    1.17
  -7   1 -26   -0.30    0.53
   7   1  26    0.47    0.28
   7  -1  26    0.21    0.54
  -7  -1 -28    0.35    0.54
  -7   1 -28    0.50    0.68
   7   1  28    0.23    0.32
   7  -1  28    0.54    0.63
  -7   1 -30    0.08    0.52
  -7  -1 -30   -0.43    0.41
   7   1  30   -0.27    0.53
   7  -1  30   -0.84    0.73
   7   1  32   -0.19    0.34
   7  -1  32    0.07    0.31
  -7  -1 -34   21.49    3.00
   7  -1  34   23.51    2.74
   7   1  34   20.34    2.93
   7  -1  36   -0.05    0.40
   7   1  36   -0.28    0.62
  -7  -1 -36   -0.49    0.43
   7   1  38   -1.05    0.90
  -7  -1 -38   -0.20    0.37
  -7  -1 -40   14.56    2.52
  -7  -1 -42    0.20    0.40
   7  -2 -43    0.49    0.42
   7  -2 -41   -0.22    0.49
   7  -2 -39    0.55    0.70
   7  -2 -37    0.18    0.45
   7  -2 -35    8.55    1.39
   7  -2 -33    0.72    0.55
   7  -2 -31    1.51    0.78
   7  -2 -29   48.33    3.44
   7  -2 -27   -0.17    0.26
   7  -2 -25   -0.86    0.80
   7  -2 -23  242.99    7.58
  -7  -2  15    0.52    0.27
   7   2 -15    0.02    0.17
  -7  -2  13    0.05    0.18
   7   2 -13   -0.28    0.25
  -7  -2  11    4.23    0.69
   7   2 -11    3.81    0.63
  -7  -2   9    0.01    0.23
   7   2  -9    0.17    0.20
  -7  -2   7    0.27    0.34
   7   2  -7    0.18    0.34
   7   2  -5 1438.07   14.72
  -7  -2   5 1441.59   14.70
   7   2  -3   -0.53    0.34
  -7  -2   3   -0.09    0.29
   7   2  -1    0.40    0.28
  -7  -2   1   -0.20    0.30
   7   2   1   -0.13    0.28
  -7  -2  -1   -0.20    0.46
   7   2   3   -0.53    0.42
  -7  -2  -3   -0.44    0.58
  -7  -2  -5    0.00    0.34
   7   2   5    1.56    0.96
   7  -2   7   12.82    1.66
   7   2   7   14.14    1.80
  -7  -2  -7   12.54    1.69
   7  -2   9    0.84    0.82
  -7  -2  -9    0.39    0.37
   7   2   9    0.09    0.37
   7  -2  11    0.86    0.92
   7   2  11   -0.03    0.30
  -7  -2 -11   -0.45    0.35
   7  -2  13    0.07    0.36
  -7  -2 -13   -0.71    0.83
   7   2  13    0.44    0.67
   7  -2  15    0.94    0.53
  -7  -2 -15    0.23    0.42
   7   2  15    0.83    0.64
  -7  -2 -17   -0.34    0.76
   7  -2  17   -0.92    0.73
   7   2  17   -0.17    0.38
   7  -2  19   72.39    4.28
   7   2  19   68.96    4.81
  -7  -2 -19   68.24    4.74
   7  -2  21    0.63    0.62
  -7  -2 -21    0.18    0.62
   7   2  21    0.23    0.55
  -7  -2 -23    0.19    0.69
   7  -2  23    0.19    0.28
   7   2  23    0.35    0.62
  -7  -2 -25  239.87    9.52
   7   2  25  238.40    9.81
   7  -2  25  229.36    7.89
  -7  -2 -27    0.19    0.34
   7   2  27   -0.06    0.61
   7  -2  27   -0.74    0.73
  -7  -2 -29   -0.25    0.76
   7   2  29   -0.43    0.68
   7  -2  29   -0.24    0.26
  -7  -2 -31   66.33    5.38
   7   2  31   59.57    5.13
   7  -2  31   60.81    4.22
   7   2  33   -0.12    0.35
   7  -2  33    0.24    0.52
  -7  -2 -35    1.84    1.32
   7   2  35   -1.28    0.98
   7  -2  35    1.50    0.89
  -7  -2 -37    0.55    0.84
   7   2  37    1.10    0.61
  -7  -2 -39   -0.25    0.41
  -7  -2 -41   -0.09    0.43
   7  -3 -42    0.13    0.23
   7  -3 -40   -0.64    0.78
   7  -3 -38   25.00    2.91
   7  -3 -36    0.49    0.71
   7  -3 -34    0.40    0.60
   7  -3 -32   -0.86    0.88
   7  -3 -30   -0.88    0.81
   7  -3 -28   -0.08    0.51
   7  -3 -26   70.48    4.64
   7  -3 -24    0.74    0.65
  -7  -3  20  518.51    5.68
  -7  -3  18    0.06    0.18
  -7  -3  16   -0.12    0.30
  -7  -3  14   42.29    2.28
   7   3 -12    0.11    0.20
  -7  -3  12   -0.05    0.21
   7   3 -10   -0.09    0.31
  -7  -3  10   -0.02    0.32
   7   3  -8  506.69    9.55
  -7  -3   8  509.98    9.55
   7   3  -6    0.50    0.48
  -7  -3   6    0.13    0.27
   7   3  -4   -0.27    0.29
  -7  -3   4   -0.24    0.41
   7   3  -2   -0.03    0.48
  -7  -3   2   -0.65    0.67
   7   3   0    0.26    0.19
  -7  -3   0   -0.48    0.48
   7   3   2   -0.21    0.49
  -7  -3  -2    0.38    0.50
   7   3   4  101.52    5.21
  -7  -3  -4  102.12    5.19
   7   3   6   -0.22    0.57
  -7  -3  -6    0.12    0.32
   7   3   8   -0.60    0.71
  -7  -3  -8   -0.11    0.49
   7   3  10    7.65    1.40
  -7  -3 -10    5.17    1.20
   7   3  12   -0.49    0.28
  -7  -3 -12    0.21    0.53
   7  -3  14   -0.02    0.29
   7   3  14    0.05    0.21
  -7  -3 -14   -0.22    0.51
   7  -3  16    0.41    0.38
   7   3  16   -0.04    0.41
  -7  -3 -16   -0.77    0.92
   7  -3  18    0.82    0.68
   7   3  18    1.18    0.93
  -7  -3 -18    0.38    0.70
   7  -3  20   -0.27    0.35
   7   3  20   -0.40    0.79
  -7  -3 -20   -0.22    0.58
   7  -3  22   41.00    3.40
   7   3  22   42.29    4.19
  -7  -3 -22   40.27    3.97
   7  -3  24    0.10    0.44
   7   3  24    0.04    0.65
   7  -3  26   -0.11    0.47
  -7  -3 -26   -0.01    0.43
   7   3  26    0.35    0.53
   7   3  28  125.17    7.68
  -7  -3 -28  130.45    7.61
   7  -3  28  126.40    6.05
  -7  -3 -30    1.90    1.58
   7   3  30    1.24    0.92
   7  -3  30    1.51    0.94
  -7  -3 -32    0.38    0.38
   7   3  32    0.42    0.61
   7  -3  32    0.03    0.31
  -7  -3 -34   52.50    5.14
   7   3  34   54.06    5.36
   7  -3  34   52.45    3.91
  -7  -3 -36    0.65    0.95
   7  -3  36    0.53    0.43
  -7  -3 -38    1.59    1.40
  -7  -3 -40    0.24    0.36
  -7  -3 -42   -0.91    0.84
   7  -4 -43    1.32    0.93
   7  -4 -41   -1.51    1.01
   7  -4 -39   -1.41    1.16
   7  -4 -37    1.68    1.29
   7  -4 -35   15.55    2.50
   7  -4 -33   -0.57    0.79
   7  -4 -31   -0.01    0.42
   7  -4 -29   18.14    2.61
   7  -4 -27    2.54    1.47
   7  -4 -25   -0.36    0.59
   7  -4 -23   25.56    3.17
  -7  -4  23   26.37    1.51
  -7  -4  21    0.03    0.29
  -7  -4  19    0.07    0.29
  -7  -4  17   -0.35    0.39
  -7  -4  15   -0.09    0.25
  -7  -4  13    0.13    0.51
  -7  -4  11   85.45    4.21
   7   4  -9   -0.18    0.53
  -7  -4   9   -0.14    0.46
   7   4  -7    1.00    0.71
  -7  -4   7    0.09    0.41
   7   4  -5   -0.95    0.75
  -7  -4   5   -0.47    0.52
   7   4  -3    1.13    0.90
  -7  -4   3    1.27    0.95
   7   4  -1    1.05    0.67
  -7  -4   1    0.35    0.75
   7   4   1    3.04    0.86
  -7  -4  -1    2.75    0.83
   7   4   3    0.33    0.63
  -7  -4  -3    1.21    1.26
   7   4   5    0.58    0.94
  -7  -4  -5    2.11    1.32
   7   4   7  108.86    6.07
  -7  -4  -7  105.16    5.95
   7   4   9   -0.29    0.56
  -7  -4  -9    0.53    0.65
   7   4  11    1.12    0.62
  -7  -4 -11    0.60    0.66
   7   4  13   84.24    5.81
  -7  -4 -13   80.45    5.50
   7  -4  15    0.18    0.46
   7   4  15    0.84    0.71
  -7  -4 -15    0.26    0.53
   7  -4  17    0.50    0.66
   7   4  17   -0.83    0.63
  -7  -4 -17    0.40    0.75
   7  -4  19   -0.05    0.52
   7   4  19   -0.21    0.61
  -7  -4 -19   -0.64    0.73
   7  -4  21    0.32    0.59
   7   4  21    0.55    0.76
  -7  -4 -21   -0.06    0.37
   7  -4  23    0.85    0.94
   7   4  23    1.50    1.07
  -7  -4 -23    2.42    1.61
   7  -4  25    0.69    0.40
   7   4  25    0.45    0.57
  -7  -4 -25    0.78    0.48
  -7  -4 -27    0.45    0.78
   7  -4  27    0.32    0.35
   7   4  27    0.55    0.78
   7  -4  29    0.58    0.61
  -7  -4 -29    1.89    1.43
   7   4  29    1.69    1.12
   7   4  31   30.46    4.25
  -7  -4 -31   26.71    3.74
   7  -4  31   27.40    2.86
  -7  -4 -33   -0.68    0.65
   7  -4  33   -0.30    0.66
  -7  -4 -35    0.91    1.16
   7  -4  35    0.55    0.55
  -7  -4 -37   -0.02    0.66
  -7  -4 -39    1.37    1.33
  -7  -4 -41    2.23    1.47
  -7  -4 -43    0.85    0.68
   7  -5 -44    1.00    0.39
   7  -5 -42   -0.29    0.42
   7  -5 -40   -0.47    0.32
   7  -5 -38    4.32    1.54
   7  -5 -36    1.46    1.12
   7  -5 -34   -1.80    1.06
   7  -5 -32   10.11    2.25
   7  -5 -30    0.11    1.04
  -7  -5  28    0.06    0.12
  -7  -5  28   -0.43    0.22
   7  -5 -26    2.03    1.07
  -7  -5  26    1.92    0.40
   7  -5 -24    0.48    0.51
  -7  -5  24    0.42    0.31
  -7  -5  22    0.78    0.51
  -7  -5  20   13.91    1.65
  -7  -5  18    0.03    0.50
  -7  -5  16   -0.51    0.24
  -7  -5  14  115.55    5.31
  -7  -5  12    0.63    0.51
  -7  -5  10    1.87    1.04
  -7  -5   8    0.04    0.36
  -7  -5   6    0.89    0.86
  -7  -5   4   -0.14    0.23
   7   5  -4    0.55    0.71
  -7  -5   2   79.07    5.12
   7   5  -2   74.98    5.15
   7   5   0    0.42    0.89
  -7  -5   0    0.70    0.89
   7   5   2    0.67    1.13
  -7  -5  -2    0.71    1.04
   7   5   4   96.60    6.14
  -7  -5  -4   99.80    6.15
   7   5   6   -0.36    0.66
  -7  -5  -6    0.46    0.58
   7   5   8    1.51    0.91
  -7  -5  -8    1.12    1.02
   7   5  10    0.26    0.56
  -7  -5 -10   -0.10    0.79
   7   5  12    0.46    0.41
  -7  -5 -12   -0.82    0.62
   7   5  14    0.53    0.86
  -7  -5 -14   -0.16    0.91
   7   5  16  218.48   10.42
  -7  -5 -16  211.30    9.89
   7  -5  18    0.15    0.47
   7   5  18   -0.03    0.30
  -7  -5 -18    0.26    0.60
   7  -5  20    1.35    1.00
   7   5  20    0.57    0.92
  -7  -5 -20    0.89    0.96
   7  -5  22   -1.48    1.15
   7   5  22   -2.16    1.79
  -7  -5 -22    0.40    0.75
   7  -5  24    1.38    1.13
   7   5  24    1.42    1.50
  -7  -5 -24    2.88    1.96
   7  -5  26   -0.59    0.29
   7   5  26   -0.56    0.73
  -7  -5 -26   -1.26    1.53
   7  -5  28  103.17    5.89
  -7  -5 -28  103.31    7.59
   7  -5  30    0.84    0.79
  -7  -5 -30    0.40    1.04
  -7  -5 -32    1.52    1.66
   7  -5  32    1.18    0.67
  -7  -5 -34    6.27    1.97
  -7  -5 -36    2.81    1.94
  -7  -5 -38    0.40    0.97
  -7  -5 -40   19.12    3.61
  -7  -5 -42    0.79    1.07
  -7  -5 -44    1.52    1.64
   7  -6 -45    0.29    0.63
   7  -6 -43    1.94    1.42
   7  -6 -41    1.51    1.03
   7  -6 -39    0.52    0.70
   7  -6 -37    0.01    0.92
   7  -6 -35   58.78    5.85
   7  -6 -33    1.51    1.28
  -7  -6  31   -0.26    0.20
  -7  -6  31   -0.25    0.18
   7  -6 -31   -0.90    1.04
   7  -6 -29    3.25    1.23
  -7  -6  29    3.17    0.71
   7  -6 -27    0.83    1.28
  -7  -6  27   -0.17    0.29
   7  -6 -25   -1.11    1.23
  -7  -6  25   -0.25    0.32
   7  -6 -23   23.77    3.66
  -7  -6  23   20.15    2.13
  -7  -6  21    1.06    0.56
  -7  -6  19   -0.39    0.60
  -7  -6  17    2.11    0.92
  -7  -6  15    0.66    0.61
  -7  -6  13   -0.95    1.15
  -7  -6  11   -1.92    1.28
  -7  -6   9    1.88    1.21
  -7  -6   7    0.34    0.44
  -7  -6   5    1.07    0.56
  -7  -6   3    1.31    1.05
  -7  -6   1    0.24    0.44
  -7  -6  -1    1.01    0.81
  -7  -6  -3    1.73    1.44
  -7  -6  -5   -0.44    0.55
  -7  -6  -7  145.50    8.22
   7   6   7  140.09    8.16
   7   6   9    2.52    1.87
  -7  -6  -9    5.18    2.42
   7   6  11    0.78    0.93
  -7  -6 -11    0.68    1.35
  -7  -6 -13   77.33    6.24
   7   6  13   82.88    6.66
   7   6  15    3.09    1.71
  -7  -6 -15    1.77    1.61
  -7  -6 -17   -0.09    0.55
  -7  -6 -19    6.77    1.77
   7  -6  21    0.33    0.45
  -7  -6 -21    1.52    1.28
   7  -6  23    1.39    1.08
  -7  -6 -23    0.40    0.97
   7  -6  25   -0.60    0.66
  -7  -6 -25   -0.61    0.82
   7  -6  27   -0.06    0.49
  -7  -6 -27    1.71    1.16
   7  -6  29    0.21    0.36
  -7  -6 -29    1.72    1.43
   7  -6  31    0.23    0.29
  -7  -6 -31   -0.51    0.78
  -7  -6 -33    2.95    1.80
  -7  -6 -35    3.92    1.99
  -7  -6 -37    2.66    1.46
  -7  -6 -39    1.91    1.53
  -7  -6 -41    1.61    0.86
  -7  -6 -43   -0.70    1.25
   7  -7 -44    1.56    1.10
   7  -7 -42    1.16    1.33
   7  -7 -40    2.34    1.55
   7  -7 -38    0.90    1.03
   7  -7 -36   -0.64    0.67
  -7  -7  34    0.48    0.23
   7  -7 -34    0.65    1.13
   7  -7 -32   19.99    3.63
  -7  -7  32   19.47    1.71
   7  -7 -30   -0.02    0.75
  -7  -7  30    0.10    0.27
   7  -7 -28   -1.64    1.43
  -7  -7  28   -0.24    0.50
   7  -7 -26    1.40    1.12
  -7  -7  26    0.28    0.23
   7  -7 -24    1.21    0.99
  -7  -7  24   -0.57    0.70
  -7  -7  22    2.08    1.17
   7  -7 -22    4.12    1.88
  -7  -7  20   10.01    1.74
  -7  -7  18   -0.34    0.64
  -7  -7  16   -1.34    0.84
  -7  -7  14   -0.55    0.46
  -7  -7  12    1.71    1.28
  -7  -7  10   -0.25    0.62
  -7  -7   8    5.71    1.26
  -7  -7   6    0.81    1.05
  -7  -7   4    0.59    0.58
  -7  -7   2   19.62    3.00
  -7  -7   0    0.67    0.93
  -7  -7  -2   -0.08    0.55
  -7  -7  -4    6.58    1.90
  -7  -7  -6    2.27    1.64
  -7  -7  -8    1.88    1.71
  -7  -7 -10   36.61    4.45
  -7  -7 -12    0.02    1.10
  -7  -7 -14    3.57    1.88
  -7  -7 -16    3.38    1.33
  -7  -7 -18    2.14    1.59
  -7  -7 -20    0.88    1.01
  -7  -7 -22  116.02    8.67
   7  -7  24    0.84    0.67
  -7  -7 -24   -1.61    1.35
   7  -7  26    5.43    2.14
  -7  -7 -26    8.10    3.23
   7  -7  28   -1.74    1.08
  -7  -7 -28   -0.60    0.90
   7  -7  30    0.44    0.66
  -7  -7 -30    0.34    0.61
  -7  -7 -32    1.14    1.36
  -7  -7 -34    9.73    2.62
  -7  -7 -36   -1.03    1.17
  -7  -7 -38    0.65    0.89
  -7  -7 -40   -0.11    0.69
  -7  -7 -42    1.95    1.28
  -7  -7 -44    0.71    0.73
   7  -8 -45   -0.04    0.82
   7  -8 -43    0.50    0.87
   7  -8 -41    1.12    0.97
   7  -8 -39    0.19    0.97
   7  -8 -37   -2.56    1.95
   7  -8 -35    2.93    0.68
   7  -8 -33    0.08    0.62
  -7  -8  33    1.09    0.66
   7  -8 -31    2.71    1.77
  -7  -8  31   -0.19    0.38
   7  -8 -29    9.96    2.55
  -7  -8  29    7.32    1.56
   7  -8 -27    0.23    0.98
  -7  -8  27   -0.73    0.73
  -7  -8  25    1.46    0.96
   7  -8 -25    2.26    1.61
  -7  -8  23   39.08    3.89
   7  -8 -23   39.18    5.25
  -7  -8  21   -0.43    0.29
   7  -8 -21    1.17    1.19
  -7  -8  19    1.37    0.99
  -7  -8  17   -1.87    1.19
  -7  -8  15   -1.59    1.29
  -7  -8  13    0.74    0.69
  -7  -8  11    0.17    1.09
  -7  -8   9    2.58    1.67
  -7  -8   7    0.13    0.49
  -7  -8   5    0.77    0.71
  -7  -8   3    1.44    1.27
  -7  -8   1   -0.81    1.08
  -7  -8  -1   19.98    3.35
  -7  -8  -3    0.89    1.86
  -7  -8  -5    5.45    2.54
  -7  -8  -7   10.43    2.42
  -7  -8  -9    2.57    2.49
  -7  -8 -11    1.91    1.62
  -7  -8 -13   30.17    4.46
  -7  -8 -15    2.64    1.65
  -7  -8 -17    1.66    1.47
  -7  -8 -19   10.43    2.58
  -7  -8 -21   -0.17    0.95
  -7  -8 -23    4.47    2.23
   7  -8  25   22.50    3.31
  -7  -8 -25   23.85    4.25
   7  -8  27    0.61    0.62
  -7  -8 -27    0.92    1.45
   7  -8  29    2.51    1.45
  -7  -8 -29    3.10    2.32
  -7  -8 -31   -0.69    1.09
  -7  -8 -33   -0.88    1.20
  -7  -8 -35   -1.28    1.42
  -7  -8 -37   -1.75    1.42
  -7  -8 -39    1.21    1.00
  -7  -8 -41   -0.99    1.07
  -7  -8 -43   -0.70    1.16
   7  -9 -44    0.96    1.24
   7  -9 -42    2.87    1.84
   7  -9 -40   -0.08    0.67
   7  -9 -38    0.74    0.72
   7  -9 -36    0.40    1.03
   7  -9 -34   -1.52    0.98
   7  -9 -32    2.20    1.20
  -7  -9  32    1.62    0.70
   7  -9 -30    2.76    1.94
  -7  -9  30    0.02    0.48
   7  -9 -28    0.82    0.65
  -7  -9  28    0.51    0.56
   7  -9 -26    0.13    0.76
  -7  -9  26    0.19    0.88
  -7  -9  24    0.50    0.79
   7  -9 -24    3.07    1.86
  -7  -9  22   -2.54    1.44
   7  -9 -22   -0.53    0.71
   7  -9 -20   -2.02    1.84
  -7  -9  20   -1.12    1.03
  -7  -9  18   -1.16    0.97
  -7  -9  16    0.56    0.34
  -7  -9  14    2.99    0.95
  -7  -9  12    0.07    0.75
  -7  -9  10   -2.03    1.75
  -7  -9   8   -0.05    1.02
  -7  -9   6    0.10    0.46
  -7  -9   4    0.28    0.62
  -7  -9   2   11.22    2.59
  -7  -9   0    1.93    1.55
  -7  -9  -2    0.90    1.31
  -7  -9  -4   39.59    5.09
  -7  -9  -6    5.45    3.07
  -7  -9  -8    1.11    1.57
  -7  -9 -10    2.83    1.62
  -7  -9 -12    2.57    1.87
  -7  -9 -14   -0.70    1.25
  -7  -9 -16   -0.14    0.79
  -7  -9 -18    2.19    2.20
  -7  -9 -20    2.93    2.18
  -7  -9 -22    4.51    2.04
  -7  -9 -24    1.56    1.56
  -7  -9 -26    1.12    0.80
  -7  -9 -28   -0.05    0.50
  -7  -9 -30   -1.54    1.38
  -7  -9 -32    0.82    0.59
  -7  -9 -34   -2.85    1.90
  -7  -9 -36    2.83    1.87
  -7  -9 -38    1.34    1.01
  -7  -9 -40    5.62    2.40
  -7  -9 -42    3.62    2.20
  -7  -9 -44   -1.98    1.48
   7 -10 -45   -0.72    0.95
   7 -10 -43   -0.76    1.31
   7 -10 -41   -0.45    1.05
   7 -10 -39   -0.07    0.47
   7 -10 -37    0.98    0.92
   7 -10 -35    5.48    2.02
   7 -10 -33    2.43    1.74
   7 -10 -31   -0.39    1.08
  -7 -10  31    0.04    0.41
   7 -10 -29    4.15    2.20
  -7 -10  29    2.43    0.99
   7 -10 -27   -2.37    1.82
  -7 -10  27   -0.84    1.00
   7 -10 -25    2.04    1.83
  -7 -10  25    0.74    0.99
  -7 -10  23    0.10    0.38
   7 -10 -23    0.03    0.97
  -7 -10  21   -0.50    0.57
   7 -10 -21   -2.34    1.68
   7 -10 -19    3.94    2.06
  -7 -10  19    0.73    1.02
   7 -10 -17   15.77    3.21
  -7 -10  17   18.22    3.20
  -7 -10  15   -0.35    1.17
  -7 -10  13   -0.66    1.16
  -7 -10  11   11.32    2.62
  -7 -10   9    0.63    1.27
  -7 -10   7   -0.45    1.08
  -7 -10   5   17.33    3.44
  -7 -10   3    1.86    1.18
  -7 -10   1   -1.37    1.58
  -7 -10  -1   11.62    2.83
  -7 -10  -3    1.31    1.39
  -7 -10  -5    0.74    0.91
  -7 -10  -7   37.16    5.39
  -7 -10  -9    0.15    0.73
  -7 -10 -11    2.74    2.31
  -7 -10 -13   -0.31    0.80
  -7 -10 -15    2.60    1.59
  -7 -10 -17    4.17    2.73
  -7 -10 -19    9.69    2.88
  -7 -10 -21   -0.12    1.01
  -7 -10 -23    0.40    1.38
  -7 -10 -25    4.15    1.94
  -7 -10 -27   -0.23    1.05
  -7 -10 -29    0.80    1.26
  -7 -10 -31   -0.11    0.87
  -7 -10 -33   -0.26    0.66
  -7 -10 -35    1.11    1.80
  -7 -10 -37   -2.28    1.78
  -7 -10 -39    3.55    2.17
  -7 -10 -41    0.62    0.79
   7 -11 -42    1.57    1.76
   7 -11 -40    1.90    1.32
   7 -11 -38    2.48    1.77
   7 -11 -36   -0.37    0.82
   7 -11 -34   -1.21    1.36
   7 -11 -32   -0.16    1.44
   7 -11 -30   -0.09    0.90
   7 -11 -28    0.70    1.38
  -7 -11  28    1.18    1.25
   7 -11 -26   -0.39    1.24
  -7 -11  26   -0.73    1.11
   7 -11 -24   -0.50    1.11
  -7 -11  24   -1.38    1.22
  -7 -11  22    2.18    1.73
   7 -11 -22    6.19    2.64
  -7 -11  20   -1.09    1.25
   7 -11 -20   -0.76    1.11
   7 -11 -18   -2.31    2.11
  -7 -11  18   -0.54    0.73
   7 -11 -16   -0.14    1.21
  -7 -11  16   -0.12    0.72
   7 -11 -14    9.04    2.85
  -7 -11  14    7.67    2.27
  -7 -11  12   -0.26    0.94
  -7 -11  10    1.44    0.75
  -7 -11   8   28.21    4.59
  -7 -11   6   -0.61    0.96
  -7 -11   4   -1.64    1.35
  -7 -11   2   32.16    5.11
  -7 -11   0    0.43    0.63
  -7 -11  -2    1.80    1.64
  -7 -11  -4   -1.63    1.86
  -7 -11  -6    0.30    1.12
  -7 -11  -8    0.95    1.69
  -7 -11 -10   -1.24    0.75
  -7 -11 -12    0.36    1.11
  -7 -11 -14    3.70    2.19
  -7 -11 -16   -0.17    0.63
  -7 -11 -18    3.19    2.03
  -7 -11 -20   -1.03    1.09
  -7 -11 -22   -0.15    1.39
  -7 -11 -24   -1.68    1.88
  -7 -11 -26   -1.23    1.62
  -7 -11 -28   -0.04    0.52
  -7 -11 -30   -1.37    1.50
  -7 -11 -32    0.51    1.61
  -7 -11 -34   -0.54    1.33
  -7 -11 -36    0.47    0.75
   7 -12 -37   -1.70    1.33
   7 -12 -35    1.63    1.53
   7 -12 -33    0.40    1.38
   7 -12 -31   -2.95    2.29
   7 -12 -29   -2.51    2.15
   7 -12 -27   -0.33    0.92
  -7 -12  27    0.46    0.99
   7 -12 -25   -2.22    1.94
  -7 -12  25   -0.71    0.77
   7 -12 -23   -0.58    1.16
  -7 -12  23   -1.05    1.11
   7 -12 -21    0.52    0.79
  -7 -12  21   -1.70    1.30
  -7 -12  19    0.70    0.97
   7 -12 -19    1.46    0.72
  -7 -12  17   -1.80    1.48
   7 -12 -17    0.06    0.63
  -7 -12  15    2.56    1.54
   7 -12 -15   -0.65    0.68
   7 -12 -13   -1.64    1.79
  -7 -12  13   -1.03    1.21
   7 -12 -11    3.37    2.06
  -7 -12  11    2.01    1.34
  -7 -12   9    4.26    2.22
  -7 -12   7    1.56    1.59
  -7 -12   5   -3.82    2.44
  -7 -12   3   -0.25    0.77
  -7 -12   1   -1.83    0.97
  -7 -12  -1   -1.06    1.00
  -7 -12  -3    2.01    1.46
  -7 -12  -5    2.14    1.39
  -7 -12  -7   -0.68    2.06
  -7 -12  -9   -1.12    1.47
  -7 -12 -11   -1.78    1.75
  -7 -12 -13    1.57    1.78
  -7 -12 -15    1.38    1.38
  -7 -12 -17   -2.18    1.72
  -7 -12 -19    0.61    0.81
  -7 -12 -21    2.23    1.67
  -7 -12 -23    1.29    1.35
  -7 -12 -25    0.55    0.61
  -7 -12 -27    1.60    1.35
  -7 -12 -29   -1.79    1.67
   7 -13 -28   -0.61    1.23
   7 -13 -26    3.07    1.63
  -7 -13  26    1.72    1.23
   7 -13 -24    1.15    1.50
  -7 -13  24   -0.32    0.82
  -7 -13  22   -0.77    1.10
   7 -13 -22    0.69    1.22
   7 -13 -20    0.94    1.20
  -7 -13  20    0.94    1.10
  -7 -13  18    0.67    1.25
   7 -13 -18   -0.09    0.65
  -7 -13  16    0.52    1.18
   7 -13 -16   -1.29    1.95
  -7 -13  14   -0.71    1.09
   7 -13 -14   -1.59    1.16
  -7 -13  12    1.88    1.17
   7 -13 -12    0.12    1.24
  -7 -13  10   -0.74    1.09
   7 -13 -10    1.70    2.07
  -7 -13   8    6.94    2.47
   7 -13  -8    9.57    3.20
  -7 -13   6   -1.27    1.19
   7 -13  -6    1.52    1.83
   7 -13  -4    1.33    1.44
  -7 -13   4    0.65    1.38
  -7 -13   2   -0.92    2.28
  -7 -13   0   -1.75    2.16
  -7 -13  -2   -0.36    1.05
  -7 -13  -4   -1.58    2.01
  -7 -13  -6   -1.13    1.56
  -7 -13  -8    2.05    1.42
  -7 -13 -10   -0.61    1.79
  -7 -13 -12   -1.56    1.84
  -7 -13 -14    0.14    0.61
  -7 -13 -16   -0.98    1.41
  -7 -13 -18    0.24    1.03
  -7 -13 -20   -2.37    1.65
  -7 -13 -22   -0.13    0.71
  -7 -14  23    0.46    0.82
  -7 -14  21   -0.98    1.12
   7 -14 -19    0.30    0.57
  -7 -14  19    1.39    1.67
   7 -14 -17    1.00    1.45
  -7 -14  17    1.95    0.92
   7 -14 -15    0.86    0.69
  -7 -14  15    1.58    1.43
  -7 -14  13   -0.48    0.67
   7 -14 -13   -4.42    2.56
  -7 -14  11   -4.72    2.16
   7 -14 -11   -2.18    2.22
  -7 -14   9    2.39    1.99
   7 -14  -9    0.90    1.67
  -7 -14   7    0.42    1.22
   7 -14  -7    0.72    1.91
  -7 -14   5    3.76    1.93
   7 -14  -5   -1.31    1.11
   7 -14  -3   -0.15    1.04
  -7 -14   3    2.19    1.64
   7 -14  -1    2.72    1.90
  -7 -14   1    0.04    0.96
  -7 -14  -1    0.83    1.08
   7 -14   1   -0.13    0.84
   7 -14   3    0.14    1.23
  -7 -14  -3    4.60    2.50
   7 -14   5   -0.55    1.41
  -7 -14  -5    1.37    1.31
   7 -14   7    2.69    1.71
  -7 -14  -7    5.48    2.57
   7 -14   9    0.66    1.01
  -7 -14  -9    0.70    1.00
  -7 -14 -11   -0.74    1.60
   7 -14  13    0.71    1.07
  -7 -14 -13    0.40    1.08
   7 -14  15    0.70    1.25
   7 -14  17    0.12    1.11
   7 -14  19   -2.26    2.27
   7 -14  21    1.32    1.60
   7 -14  23    0.05    0.73
  -7 -15  20    0.26    0.66
  -7 -15  18    1.37    1.38
  -7 -15  16   -0.61    1.26
  -7 -15  14   -0.73    1.28
  -7 -15  12    1.19    0.86
  -7 -15  10    2.01    1.23
  -7 -15   8   -1.75    1.34
  -7 -15   6   -0.02    0.56
  -7 -15   4   -0.11    1.23
   7 -15  -2   -1.15    1.68
  -7 -15   2   -2.70    2.08
   7 -15   0   -0.64    1.34
  -7 -15   0   -0.78    1.23
   7 -15   2    6.07    2.95
  -7 -15  -2    1.17    1.14
   7 -15   4    2.67    1.73
   7 -15   6   -0.26    0.96
   7 -15   8    3.12    2.36
   7 -15  10    2.75    2.06
   7 -15  12   -1.02    1.38
   7 -15  14   -5.14    2.45
   7 -15  16    2.50    1.92
   7 -15  18    1.54    1.69
   7 -15  20    0.39    1.08
   8   0 -28   25.84    1.29
   8   0 -28   26.33    1.29
   8   0 -26   -0.47    0.31
   8   0 -24    0.04    0.15
   8   0 -16 1121.74   10.95
   8   0 -14   -0.55    0.41
   8   0 -12   -0.38    0.34
   8   0 -10 4281.41   23.28
   8   0  -8   -0.21    0.29
   8   0  -6    0.32    0.46
  -8   0   6    0.62    0.53
  -8   0   4 9969.59   38.80
   8   0  -4 9878.17   38.70
  -8   0   2    0.88    0.73
   8   0  -2    0.02    0.21
  -8   0   0   -0.04    0.36
   8   0   0   -0.76    0.61
  -8   0  -2  596.58   10.59
   8   0   2  594.26   10.34
  -8   0  -4   -0.42    0.38
   8   0   4    0.10    0.15
  -8   0  -6    0.30    0.76
   8   0   6   -0.07    0.23
  -8   0  -8  669.24   12.18
   8   0   8  663.11   11.90
  -8   0 -10    0.52    0.54
   8   0  10   -0.23    0.39
  -8   0 -12    0.30    0.33
   8   0  12   -0.43    0.45
  -8   0 -14  614.40   12.68
   8   0  14  598.90   12.23
  -8   0 -16    0.05    0.32
   8   0  16   -0.57    0.75
  -8   0 -18   -0.82    0.99
   8   0  18   -0.58    0.63
  -8   0 -20  637.47   14.02
   8   0  20  627.10   13.47
  -8   0 -22    0.32    0.28
   8   0  22    0.02    0.32
  -8   0 -24   -0.36    0.35
   8   0  24    0.52    0.34
  -8   0 -26  211.20    8.55
   8   0  26  202.01    8.20
  -8   0 -28    0.66    0.59
   8   0  28    0.12    0.41
  -8   0 -30    0.58    0.56
   8   0  30   -1.61    0.89
   8   0  32   27.45    3.18
  -8   0 -32   27.69    3.22
   8   0  34   -0.22    0.35
  -8   0 -34   -0.23    0.34
   8   0  36   -0.16    0.54
  -8   0 -36   -0.76    0.68
  -8   0 -38  265.67   10.42
  -8   0 -40    0.03    0.30
   8  -1 -39    0.00    0.18
   8  -1 -37   80.47    3.23
   8  -1 -35    0.01    0.34
   8  -1 -33   -0.37    0.32
   8  -1 -31  137.23    4.65
   8  -1 -29   -0.27    0.19
   8  -1 -27    0.47    0.33
   8  -1 -25  227.86    6.15
   8   1 -17   -0.07    0.10
   8   1 -15    0.32    0.32
  -8  -1  13 1208.64   10.77
   8   1 -13 1226.18   10.77
  -8  -1  11    0.34    0.33
   8   1 -11    0.72    0.48
  -8  -1   9   -0.57    0.37
   8   1  -9    0.24    0.34
  -8  -1   7    9.40    1.40
   8   1  -7    3.68    0.73
   8   1  -5   -0.02    0.31
  -8  -1   5    0.53    0.62
   8  -1  -3   -0.19    0.24
   8   1  -3   -0.54    0.43
  -8  -1   3   -0.12    0.36
   8  -1  -1    1.53    0.46
   8   1  -1    1.79    0.61
  -8  -1   1    2.41    0.59
   8  -1   1    0.01    0.61
   8   1   1   -0.06    0.24
  -8  -1  -1   -0.27    0.23
  -8   1  -3    0.72    0.48
   8  -1   3    1.55    0.71
   8   1   3    0.83    0.42
  -8  -1  -3    0.62    0.52
  -8   1  -5   95.67    4.44
   8  -1   5   98.92    4.47
  -8  -1  -5   97.04    4.57
   8   1   5   96.36    4.47
   8  -1   7    0.31    0.22
  -8   1  -7   -0.40    0.41
  -8  -1  -7    0.12    0.47
   8   1   7   -0.90    0.63
  -8   1  -9    0.09    0.38
   8  -1   9   -0.44    0.46
  -8  -1  -9    0.15    0.69
   8   1   9    0.03    0.17
  -8   1 -11 1299.77   17.72
   8  -1  11 1291.87   17.34
  -8  -1 -11 1313.98   18.56
   8   1  11 1334.01   18.19
  -8   1 -13    0.23    0.60
  -8  -1 -13    0.43    0.66
   8  -1  13   -0.77    0.60
   8   1  13   -0.12    0.33
   8  -1  15    0.04    0.30
  -8  -1 -15    0.25    0.28
   8   1  15   -0.02    0.38
  -8   1 -17 1269.09   18.66
  -8  -1 -17 1286.64   19.82
   8  -1  17 1264.35   18.08
   8   1  17 1283.47   19.39
   8  -1  19   -0.06    0.34
  -8  -1 -19    0.74    0.81
   8   1  19   -0.11    0.42
  -8   1 -21    0.52    0.71
  -8  -1 -21    0.18    0.27
   8  -1  21   -0.39    0.56
   8   1  21   -0.27    0.44
  -8  -1 -23  196.95    8.35
  -8   1 -23  194.28    7.75
   8   1  23  185.69    7.99
   8  -1  23  188.99    7.38
  -8   1 -25    0.69    0.64
  -8  -1 -25   -0.83    0.75
   8   1  25    0.89    0.78
   8  -1  25   -0.40    0.58
  -8  -1 -27    0.52    0.45
  -8   1 -27    0.46    0.50
   8   1  27   -0.13    0.37
   8  -1  27   -0.60    0.44
  -8  -1 -29    1.00    0.37
  -8   1 -29    0.78    0.54
   8   1  29    1.98    0.90
   8  -1  29    1.07    0.43
  -8  -1 -31   -0.13    0.51
  -8   1 -31   -0.39    0.63
   8   1  31   -0.39    0.37
   8  -1  31   -0.40    0.34
  -8  -1 -33    0.43    0.70
   8   1  33   -0.43    0.46
   8  -1  33   -0.05    0.58
  -8  -1 -35  182.10    8.93
   8  -1  35  181.83    8.03
   8   1  35  173.14    8.74
   8  -1  37    0.65    0.58
   8   1  37   -0.95    0.69
  -8  -1 -37    0.72    0.88
  -8  -1 -39   -0.21    0.51
  -8  -1 -41   66.48    5.55
   8  -2 -42   -0.65    0.50
   8  -2 -40  133.54    5.46
   8  -2 -38   -0.35    0.63
   8  -2 -36   -0.89    0.64
   8  -2 -34   66.52    4.01
   8  -2 -32   -0.01    0.33
   8  -2 -30    0.33    0.20
   8  -2 -28  134.91    5.70
   8  -2 -26   -0.51    0.66
   8   2 -18    0.34    0.24
  -8  -2  18   -0.71    0.32
  -8  -2  16  964.02    9.05
   8   2 -16  929.79    9.03
  -8  -2  14    0.28    0.22
   8   2 -14   -0.39    0.30
  -8  -2  12   -0.21    0.19
   8   2 -12   -0.25    0.32
   8   2 -10  564.32    8.72
  -8  -2  10  580.13    8.79
  -8  -2   8    0.13    0.19
   8   2  -8   -0.09    0.25
  -8  -2   6   -0.39    0.31
   8   2  -6    0.26    0.45
   8   2  -4  437.61    8.71
  -8  -2   4  433.03    8.71
  -8  -2   2   -0.02    0.45
   8   2  -2    0.16    0.33
  -8  -2   0   -0.33    0.61
   8   2   0   -0.13    0.37
   8   2   2  102.88    4.72
  -8  -2  -2  102.01    4.72
   8  -2   4    0.34    0.28
  -8  -2  -4   -0.28    0.68
   8   2   4    0.83    0.48
   8  -2   6    0.22    0.36
  -8  -2  -6   -0.39    0.70
   8   2   6    0.07    0.19
   8  -2   8  405.82    9.73
   8   2   8  421.61   10.54
  -8  -2  -8  395.84   10.16
   8  -2  10   -0.36    0.39
  -8  -2 -10    0.77    0.60
   8   2  10    0.06    0.29
   8  -2  12    0.12    0.41
  -8  -2 -12    0.00    0.34
   8   2  12   -0.07    0.17
   8  -2  14  412.00   10.36
   8   2  14  416.01   11.33
  -8  -2 -14  426.01   11.45
   8  -2  16   -0.67    0.74
  -8  -2 -16   -0.35    0.52
   8   2  16    0.21    0.28
  -8  -2 -18    0.82    0.33
   8  -2  18    0.24    0.34
   8   2  18   -0.72    0.65
   8  -2  20  432.85   11.20
   8   2  20  450.68   12.73
  -8  -2 -20  453.70   12.72
  -8  -2 -22    0.14    0.38
   8  -2  22    0.34    0.51
   8   2  22   -0.14    0.37
  -8  -2 -24    0.29    0.53
   8  -2  24   -0.72    0.86
   8   2  24   -0.35    0.62
  -8  -2 -26   58.73    4.98
   8   2  26   57.60    4.99
   8  -2  26   56.57    4.13
  -8  -2 -28    0.10    0.42
   8   2  28   -0.67    0.78
   8  -2  28    0.09    0.37
  -8  -2 -30   -0.43    0.30
   8   2  30   -0.64    0.48
   8  -2  30   -0.35    0.45
  -8  -2 -32  253.41   10.78
   8   2  32  230.12   10.39
   8  -2  32  238.62    8.80
  -8  -2 -34    1.12    1.12
   8   2  34    0.66    0.82
   8  -2  34    0.60    0.74
  -8  -2 -36   -0.84    0.77
   8   2  36   -1.04    0.88
   8  -2  36   -0.89    0.77
  -8  -2 -38   46.03    4.78
   8   2  38   41.77    4.63
  -8  -2 -40   -0.45    0.72
  -8  -2 -42    0.23    0.76
   8  -3 -43   34.18    3.24
   8  -3 -41   -0.51    0.81
   8  -3 -39   -0.56    0.33
   8  -3 -37  191.73    7.91
   8  -3 -35    0.05    0.50
   8  -3 -33   -3.69    1.10
   8  -3 -31  142.68    6.85
   8  -3 -29    0.05    0.66
   8  -3 -27   -0.78    0.46
   8  -3 -25  399.89   11.28
  -8  -3  21    0.43    0.25
  -8  -3  19 1036.05    9.79
  -8  -3  17    0.24    0.21
   8   3 -15   -0.15    0.21
  -8  -3  15   -0.85    0.59
   8   3 -13   43.58    2.63
  -8  -3  13   41.93    2.50
   8   3 -11   -0.18    0.14
  -8  -3  11    0.10    0.15
   8   3  -9   -0.19    0.30
  -8  -3   9    0.00    0.26
   8   3  -7 1229.65   15.75
  -8  -3   7 1228.48   15.37
   8   3  -5    0.18    0.35
  -8  -3   5    0.57    0.48
   8   3  -3   -0.28    0.17
  -8  -3   3    1.51    0.82
   8   3  -1  859.92   14.45
  -8  -3   1  872.10   14.39
   8   3   1   -0.39    0.47
  -8  -3  -1   -0.28    0.53
   8   3   3   -0.07    0.32
  -8  -3  -3   -0.35    0.66
   8   3   5  186.33    7.20
  -8  -3  -5  188.08    7.27
   8   3   7   -0.52    0.85
  -8  -3  -7   -0.66    0.74
   8  -3   9    0.33    0.42
   8   3   9   -0.90    0.71
  -8  -3  -9   -0.27    0.66
   8  -3  11 1101.69   17.38
   8   3  11 1108.77   19.18
  -8  -3 -11 1062.68   18.64
   8  -3  13    0.15    0.18
   8   3  13   -0.72    0.71
  -8  -3 -13   -0.71    0.67
   8  -3  15    0.25    0.54
   8   3  15   -0.10    0.26
  -8  -3 -15   -0.67    0.83
   8  -3  17  473.22   11.80
   8   3  17  479.50   13.63
  -8  -3 -17  486.71   13.52
  -8  -3 -19   -0.75    0.86
   8   3  19   -0.87    0.61
   8  -3  19   -0.67    0.52
  -8  -3 -21    0.48    0.62
   8  -3  21   -0.68    0.66
   8   3  21   -0.65    0.66
   8  -3  23  434.33   11.54
   8   3  23  441.93   14.03
  -8  -3 -23  427.97   13.53
   8  -3  25   -0.81    0.73
  -8  -3 -25   -0.66    0.69
   8   3  25   -0.60    0.74
   8  -3  27    0.64    0.52
  -8  -3 -27    0.81    1.09
   8   3  27    1.72    1.07
   8   3  29  526.80   16.23
  -8  -3 -29  522.69   15.91
   8  -3  29  521.04   12.75
  -8  -3 -31    0.85    0.83
   8   3  31   -0.28    0.40
  -8  -3 -33   -0.11    0.34
   8   3  33   -0.85    1.08
   8  -3  33   -1.48    0.90
  -8  -3 -35  120.58    8.07
   8   3  35  118.96    8.16
   8  -3  35  115.17    6.03
  -8  -3 -37   -0.27    0.56
  -8  -3 -39   -0.90    1.20
  -8  -3 -41   85.96    7.02
  -8  -3 -43   -1.01    0.33
   8  -4 -44    0.06    0.40
   8  -4 -42   -0.59    0.88
   8  -4 -40   23.05    3.10
   8  -4 -38    0.04    0.49
   8  -4 -36   -0.78    0.75
   8  -4 -34   60.28    4.98
   8  -4 -32   -0.09    0.67
   8  -4 -30   -0.92    1.03
   8  -4 -28  445.90   13.22
   8  -4 -26   -0.54    0.79
  -8  -4  24   -0.03    0.11
  -8  -4  22  393.05    6.60
  -8  -4  20   -0.33    0.31
  -8  -4  18   -0.34    0.32
  -8  -4  16  474.82    9.12
  -8  -4  14   -0.12    0.23
   8   4 -12    0.41    0.42
  -8  -4  12   -0.48    0.36
   8   4 -10  332.41    8.94
  -8  -4  10  336.33    8.65
   8   4  -8   -0.56    0.67
  -8  -4   8   -0.02    0.31
   8   4  -6    0.60    0.52
  -8  -4   6    1.50    0.80
   8   4  -4 1147.30   17.74
  -8  -4   4 1123.59   17.34
   8   4  -2   -0.36    0.45
  -8  -4   2    0.27    0.78
   8   4   0   -0.27    0.38
  -8  -4   0    0.38    0.61
  -8  -4  -2 1002.54   17.56
   8   4   2  997.90   18.02
   8   4   4    0.08    0.50
  -8  -4  -4   -0.03    0.25
   8   4   6    0.62    0.53
  -8  -4  -6    0.01    0.70
  -8  -4  -8  313.30   10.51
   8   4   8  326.53   10.87
   8   4  10    0.03    0.55
  -8  -4 -10   -0.60    0.78
   8   4  12   -0.61    0.49
  -8  -4 -12   -0.85    0.90
   8  -4  14  300.87    9.75
   8   4  14  306.48   11.33
  -8  -4 -14  291.69   10.83
   8  -4  16   -0.12    0.27
   8   4  16   -0.47    0.74
  -8  -4 -16   -0.53    0.82
   8  -4  18   -0.44    0.56
   8   4  18   -0.17    0.29
  -8  -4 -18   -0.43    0.71
   8  -4  20   53.07    4.21
   8   4  20   56.17    5.17
  -8  -4 -20   53.86    4.86
   8  -4  22   -0.23    0.30
   8   4  22   -0.20    0.57
  -8  -4 -22    0.18    0.66
   8  -4  24    0.85    0.50
   8   4  24   -0.95    0.90
  -8  -4 -24    1.88    1.41
   8  -4  26  184.97    7.85
   8   4  26  198.13   10.27
  -8  -4 -26  198.13    9.93
   8  -4  28   -1.28    0.89
  -8  -4 -28    0.29    0.71
   8   4  28   -0.55    0.98
   8  -4  30   -0.99    0.82
  -8  -4 -30    0.63    0.89
   8   4  30    0.52    0.71
   8   4  32  114.58    8.29
   8  -4  32  113.31    6.07
  -8  -4 -32  112.00    7.85
  -8  -4 -34    0.08    0.81
   8  -4  34   -0.54    0.71
  -8  -4 -36   -1.27    1.08
  -8  -4 -38   83.16    7.23
  -8  -4 -40   -0.35    0.87
  -8  -4 -42    0.50    1.00
   8  -5 -43   39.67    4.51
   8  -5 -41   -0.20    0.71
   8  -5 -39   -1.20    0.80
   8  -5 -37  133.52    8.11
   8  -5 -35    0.08    0.37
   8  -5 -33   -1.79    1.06
   8  -5 -31  262.84   11.16
   8  -5 -29   -0.66    1.00
  -8  -5  27   -0.17    0.21
   8  -5 -27   -0.08    0.62
   8  -5 -25  145.49    8.28
  -8  -5  25  142.05    4.41
  -8  -5  23    0.16    0.17
  -8  -5  21    0.32    0.37
  -8  -5  19   62.68    3.60
  -8  -5  17   -1.28    0.86
  -8  -5  15    0.67    0.75
  -8  -5  13  244.81    7.97
  -8  -5  11   -0.82    0.67
  -8  -5   9    1.48    0.88
   8   5  -7  493.54   12.68
  -8  -5   7  489.01   12.18
   8   5  -5   -0.69    0.57
  -8  -5   5    0.41    0.62
   8   5  -3   -0.87    0.57
  -8  -5   3    0.73    0.86
   8   5  -1  578.94   14.42
  -8  -5   1  577.52   14.02
   8   5   1   -2.09    0.90
  -8  -5  -1    0.38    0.29
   8   5   3    0.08    0.64
  -8  -5  -3    0.29    0.53
  -8  -5  -5   25.82    3.18
   8   5   5   24.27    3.20
   8   5   7    0.37    0.67
  -8  -5  -7    0.27    0.32
   8   5   9   -0.82    0.62
  -8  -5  -9   -0.35    0.47
  -8  -5 -11  339.14   12.18
   8   5  11  343.21   12.46
   8   5  13   -1.07    1.16
  -8  -5 -13    0.06    0.99
   8   5  15    0.15    0.66
  -8  -5 -15   -0.24    0.51
   8  -5  17  114.05    6.47
   8   5  17  120.23    7.86
  -8  -5 -17  104.46    7.05
   8  -5  19    0.12    0.49
   8   5  19   -0.43    0.55
  -8  -5 -19    0.73    0.54
   8  -5  21   -0.64    0.77
   8   5  21   -0.62    1.15
  -8  -5 -21   -1.36    1.07
   8  -5  23  659.06   15.82
   8   5  23  666.01   19.46
  -8  -5 -23  661.81   18.60
   8  -5  25   -0.31    0.68
   8   5  25   -0.63    0.74
  -8  -5 -25   -1.30    1.11
   8  -5  27   -1.18    0.88
   8   5  27   -0.08    0.69
  -8  -5 -27    0.04    0.47
   8  -5  29  289.72   10.33
  -8  -5 -29  311.95   13.40
  -8  -5 -31    0.27    0.88
   8  -5  31   -0.20    0.58
  -8  -5 -33    0.70    0.94
   8  -5  33   -0.09    0.36
  -8  -5 -35  181.35   10.80
  -8  -5 -37   -0.90    1.11
  -8  -5 -39   -0.73    1.15
  -8  -5 -41   36.77    5.11
  -8  -5 -43    1.40    0.97
   8  -6 -44   -0.56    1.13
   8  -6 -42   -0.27    0.71
   8  -6 -40   33.14    4.41
   8  -6 -38   -0.32    0.61
   8  -6 -36    0.43    0.33
   8  -6 -34  105.28    7.79
   8  -6 -32   -0.57    1.05
  -8  -6  30    0.35    0.27
   8  -6 -30    0.31    0.63
   8  -6 -28  184.89   10.12
  -8  -6  28  175.33    5.32
   8  -6 -26   -1.19    1.22
  -8  -6  26   -0.20    0.36
  -8  -6  24   -0.09    0.40
  -8  -6  22  124.77    5.53
  -8  -6  20   -0.97    0.87
  -8  -6  18   -0.01    0.62
  -8  -6  16  372.56   10.61
  -8  -6  14   -0.73    0.65
  -8  -6  12   -0.44    0.92
  -8  -6  10  992.20   18.57
  -8  -6   8   -0.39    0.52
  -8  -6   6   -0.78    0.91
  -8  -6   4  498.55   13.84
  -8  -6   2   -0.03    0.51
   8   6   0   -0.95    1.33
  -8  -6   0   -0.80    1.07
   8   6   2  495.41   14.95
  -8  -6  -2  498.12   14.55
   8   6   4   -0.73    0.68
  -8  -6  -4   -0.33    0.61
   8   6   6    0.95    0.89
  -8  -6  -6   -0.69    0.67
  -8  -6  -8  755.94   18.70
   8   6   8  791.47   19.80
   8   6  10    1.03    1.06
  -8  -6 -10   -0.52    0.94
   8   6  12   -0.02    0.27
  -8  -6 -12   -1.49    1.05
  -8  -6 -14  483.84   15.67
   8   6  14  490.35   16.46
   8   6  16   -0.48    1.23
  -8  -6 -16   -0.11    0.41
   8   6  18    0.11    0.45
  -8  -6 -18   -1.37    0.96
   8  -6  20  352.88   12.10
   8   6  20  355.06   14.64
  -8  -6 -20  360.24   14.24
   8  -6  22    0.13    0.66
  -8  -6 -22    0.82    0.77
   8  -6  24   -0.31    0.80
  -8  -6 -24    0.82    0.82
   8  -6  26  120.70    7.11
  -8  -6 -26  119.43    8.55
   8  -6  28   -2.09    1.41
  -8  -6 -28   -1.65    1.55
   8  -6  30   -0.45    0.46
  -8  -6 -30   -1.99    1.58
   8  -6  32  201.67    8.88
  -8  -6 -32  205.77   11.80
  -8  -6 -34    0.60    0.56
  -8  -6 -36   -0.13    0.58
  -8  -6 -38   83.60    7.84
  -8  -6 -40   -0.37    1.04
  -8  -6 -42   -0.57    0.47
  -8  -6 -44   85.19    8.24
   8  -7 -45    0.32    0.99
   8  -7 -43   52.63    5.94
   8  -7 -41    0.47    0.99
   8  -7 -39   -1.17    1.20
   8  -7 -37   51.50    5.83
   8  -7 -35    0.50    1.07
  -8  -7  33   -0.07    0.20
   8  -7 -33   -1.22    1.11
   8  -7 -31   95.19    7.77
  -8  -7  31   92.71    4.05
   8  -7 -29   -1.08    1.29
  -8  -7  29   -0.40    0.54
   8  -7 -27    0.11    0.42
  -8  -7  27   -0.68    0.55
  -8  -7  25   53.43    3.90
   8  -7 -25   56.52    5.92
  -8  -7  23   -1.59    1.13
  -8  -7  21   -0.51    0.82
  -8  -7  19   46.04    3.98
  -8  -7  17   -0.26    0.71
  -8  -7  15    1.40    0.91
  -8  -7  13  532.54   14.43
  -8  -7  11   -1.11    0.94
  -8  -7   9    0.77    0.33
  -8  -7   7  547.07   15.42
  -8  -7   5   -1.04    1.26
  -8  -7   3   -0.43    0.86
  -8  -7   1  142.24    8.25
  -8  -7  -1   -0.12    0.75
  -8  -7  -3   -0.19    0.79
  -8  -7  -5  390.84   14.11
  -8  -7  -7   -0.84    0.92
  -8  -7  -9    0.21    0.71
  -8  -7 -11  271.14   12.26
  -8  -7 -13   -0.08    0.84
  -8  -7 -15    0.00    0.58
  -8  -7 -17  180.87   10.36
  -8  -7 -19   -0.28    0.70
  -8  -7 -21    1.26    1.16
   8  -7  23   54.83    5.11
  -8  -7 -23   60.60    6.36
   8  -7  25    2.50    1.53
  -8  -7 -25    0.58    0.98
   8  -7  27   -1.31    1.10
  -8  -7 -27   -0.72    1.51
   8  -7  29  106.45    6.93
  -8  -7 -29  101.84    8.49
  -8  -7 -31   -1.07    1.30
  -8  -7 -33   -0.77    0.71
  -8  -7 -35   35.82    5.29
  -8  -7 -37   -0.23    0.47
  -8  -7 -39   -0.63    1.24
  -8  -7 -41   63.45    7.28
  -8  -7 -43   -1.23    0.84
   8  -8 -44   -1.42    0.93
   8  -8 -42    0.93    1.19
   8  -8 -40   49.11    6.05
   8  -8 -38   -0.48    0.85
   8  -8 -36   -1.49    1.38
   8  -8 -34   77.76    7.59
   8  -8 -32    0.65    0.92
  -8  -8  32    0.02    0.60
   8  -8 -30    0.85    0.91
  -8  -8  30   -0.27    0.54
   8  -8 -28   39.33    5.39
  -8  -8  28   43.46    3.72
   8  -8 -26    0.15    0.88
  -8  -8  26   -0.75    0.70
   8  -8 -24    1.70    1.13
  -8  -8  24    0.09    0.26
   8  -8 -22   40.72    5.22
  -8  -8  22   36.94    3.72
  -8  -8  20   -1.51    1.15
  -8  -8  18   -0.84    0.97
  -8  -8  16   10.89    2.13
  -8  -8  14   -0.47    0.78
  -8  -8  12   -0.03    0.56
  -8  -8  10  378.90   13.62
  -8  -8   8   -0.42    0.42
  -8  -8   6    0.33    0.50
  -8  -8   4  233.08   11.16
  -8  -8   2   -0.91    1.01
  -8  -8   0    0.27    0.65
  -8  -8  -2  133.16    8.74
  -8  -8  -4    1.42    1.36
  -8  -8  -6    1.21    0.99
  -8  -8  -8  412.17   15.67
  -8  -8 -10    0.50    0.87
  -8  -8 -12    0.14    1.07
  -8  -8 -14  163.24   10.25
  -8  -8 -16    1.04    1.40
  -8  -8 -18   -1.25    1.34
  -8  -8 -20   95.93    8.29
  -8  -8 -22   -0.28    1.11
   8  -8  24   -0.34    0.79
  -8  -8 -24   -0.38    1.20
   8  -8  26  118.72    7.90
  -8  -8 -26  127.11    9.70
   8  -8  28   -0.09    0.49
  -8  -8 -28   -0.75    1.25
  -8  -8 -30   -0.43    0.90
  -8  -8 -32    2.91    0.81
  -8  -8 -34   -0.26    1.09
  -8  -8 -36   -0.50    0.66
  -8  -8 -38   45.95    6.39
  -8  -8 -40   -0.34    0.80
  -8  -8 -42    0.54    0.75
  -8  -8 -44   31.43    5.51
   8  -9 -45    1.37    1.04
   8  -9 -43   28.75    4.99
   8  -9 -41   -0.47    0.95
   8  -9 -39   -0.80    0.94
   8  -9 -37   46.40    6.22
   8  -9 -35   -0.71    0.91
   8  -9 -33   -1.31    1.40
   8  -9 -31   75.38    7.82
  -8  -9  31   75.77    5.17
   8  -9 -29    0.73    1.12
  -8  -9  29   -0.06    0.40
   8  -9 -27    1.00    0.73
  -8  -9  27   -1.00    0.70
   8  -9 -25   80.12    7.87
  -8  -9  25   73.83    5.62
   8  -9 -23   -0.60    1.09
  -8  -9  23   -0.68    0.71
  -8  -9  21   -1.17    1.32
   8  -9 -21   -1.14    1.41
  -8  -9  19   84.66    6.45
  -8  -9  17   -0.56    1.07
  -8  -9  15   -0.40    1.13
  -8  -9  13  101.21    7.39
  -8  -9  11   -0.92    1.26
  -8  -9   9   -2.39    1.84
  -8  -9   7  107.68    7.93
  -8  -9   5    0.36    0.75
  -8  -9   3    0.59    0.54
  -8  -9   1  161.24    9.95
  -8  -9  -1    0.90    0.90
  -8  -9  -3    1.32    1.60
  -8  -9  -5  278.46   13.49
  -8  -9  -7    0.48    0.89
  -8  -9  -9   -0.57    1.12
  -8  -9 -11  261.99   13.48
  -8  -9 -13   -0.02    0.75
  -8  -9 -15   -0.99    1.69
  -8  -9 -17  228.31   13.08
  -8  -9 -19    2.68    1.92
  -8  -9 -21   -0.32    1.15
  -8  -9 -23   75.45    7.94
  -8  -9 -25    0.96    1.21
  -8  -9 -27   -0.37    0.75
  -8  -9 -29   41.63    5.98
  -8  -9 -31   -2.26    1.95
  -8  -9 -33   -1.68    1.62
  -8  -9 -35   59.71    7.47
  -8  -9 -37    0.01    1.16
  -8  -9 -39   -0.95    1.78
  -8  -9 -41   34.87    5.89
  -8  -9 -43    1.82    1.79
   8 -10 -44    1.05    1.12
   8 -10 -42    1.83    1.62
   8 -10 -40   11.87    3.33
   8 -10 -38   -1.26    0.79
   8 -10 -36   -0.08    0.62
   8 -10 -34   50.77    6.80
   8 -10 -32   -1.02    1.39
   8 -10 -30   -1.83    1.84
  -8 -10  30   -0.64    0.82
   8 -10 -28    5.22    2.11
  -8 -10  28    6.53    1.63
   8 -10 -26    1.12    1.57
  -8 -10  26    0.08    0.79
   8 -10 -24   -0.14    1.15
  -8 -10  24    0.77    0.87
  -8 -10  22   56.35    5.46
   8 -10 -22   54.23    6.82
  -8 -10  20   -2.04    1.59
   8 -10 -20   -0.97    1.12
  -8 -10  18   -0.07    0.93
  -8 -10  16   47.23    5.26
  -8 -10  14   -2.33    1.69
  -8 -10  12   -0.87    1.08
  -8 -10  10   83.64    7.27
  -8 -10   8   -1.57    1.70
  -8 -10   6   -1.85    1.36
  -8 -10   4  105.42    8.39
  -8 -10   2   -2.17    1.76
  -8 -10   0   -0.97    0.80
  -8 -10  -2  112.69    9.02
  -8 -10  -4    0.21    0.83
  -8 -10  -6    0.41    0.74
  -8 -10  -8   73.12    7.47
  -8 -10 -10   -0.71    1.65
  -8 -10 -12   -0.88    0.90
  -8 -10 -14  110.74    9.57
  -8 -10 -16    3.69    2.43
  -8 -10 -18    0.45    1.12
  -8 -10 -20   24.18    4.55
  -8 -10 -22    1.02    0.62
  -8 -10 -24   -0.18    0.74
  -8 -10 -26    3.29    1.87
  -8 -10 -28    0.59    1.21
  -8 -10 -30    0.02    0.64
  -8 -10 -32   29.88    5.31
  -8 -10 -34    0.66    0.67
  -8 -10 -36    1.42    1.45
  -8 -10 -38    8.21    2.77
  -8 -10 -40   -1.08    1.78
   8 -11 -43    2.00    1.49
   8 -11 -41   -2.09    1.69
   8 -11 -39   -1.50    1.54
   8 -11 -37   12.38    3.23
   8 -11 -35   -1.44    1.74
   8 -11 -33    2.40    1.17
   8 -11 -31   16.60    4.04
   8 -11 -29    0.61    0.96
  -8 -11  29    1.53    1.03
   8 -11 -27   -1.27    1.92
  -8 -11  27   -1.46    1.27
   8 -11 -25    2.98    1.26
  -8 -11  25    3.51    1.58
   8 -11 -23    2.85    1.80
  -8 -11  23    0.38    0.46
  -8 -11  21   -0.73    0.78
   8 -11 -21   -0.25    0.86
  -8 -11  19   39.63    5.05
   8 -11 -19   41.99    6.20
   8 -11 -17   -1.81    1.35
  -8 -11  17   -0.85    1.38
  -8 -11  15   -0.64    1.34
  -8 -11  13   35.57    4.91
  -8 -11  11    0.51    0.94
  -8 -11   9    1.61    1.35
  -8 -11   7   43.04    5.62
  -8 -11   5    0.91    0.55
  -8 -11   3    0.51    0.80
  -8 -11   1   38.37    5.41
  -8 -11  -1   -1.84    1.38
  -8 -11  -3    0.05    0.71
  -8 -11  -5   54.19    6.65
  -8 -11  -7   -3.85    1.80
  -8 -11  -9   -0.85    1.62
  -8 -11 -11   31.46    5.10
  -8 -11 -13    1.02    1.42
  -8 -11 -15   -0.68    1.13
  -8 -11 -17   48.32    6.69
  -8 -11 -19    0.16    0.76
  -8 -11 -21   -0.01    1.51
  -8 -11 -23    8.96    2.98
  -8 -11 -25   -1.48    1.01
  -8 -11 -27    1.26    1.32
  -8 -11 -29   26.19    5.20
  -8 -11 -31   -0.93    1.37
  -8 -11 -33   -0.55    0.84
  -8 -11 -35    8.30    3.04
   8 -12 -36   -4.04    2.54
   8 -12 -34   12.94    3.85
   8 -12 -32   -2.19    1.47
   8 -12 -30   -2.90    1.97
   8 -12 -28   29.01    5.57
   8 -12 -26   -0.77    1.45
  -8 -12  26   -0.50    0.52
   8 -12 -24   -1.91    2.09
  -8 -12  24   -0.14    1.01
   8 -12 -22   10.78    3.18
  -8 -12  22    9.42    2.56
  -8 -12  20   -1.74    1.43
   8 -12 -20   -1.75    1.93
   8 -12 -18   -0.16    0.89
  -8 -12  18   -2.17    1.65
  -8 -12  16   49.99    6.13
   8 -12 -16   49.23    7.01
   8 -12 -14   -2.19    2.14
  -8 -12  14   -0.06    1.01
   8 -12 -12    0.24    0.60
  -8 -12  12   -1.04    1.05
  -8 -12  10   83.87    8.30
  -8 -12   8   -0.39    0.98
  -8 -12   6   -2.26    1.89
  -8 -12   4   24.29    4.44
  -8 -12   2    0.52    0.64
  -8 -12   0   -0.15    1.03
  -8 -12  -2   63.66    7.50
  -8 -12  -4   -3.04    2.31
  -8 -12  -6   -7.06    2.53
  -8 -12  -8   22.39    4.53
  -8 -12 -10    1.03    0.85
  -8 -12 -12   -1.94    1.58
  -8 -12 -14   28.14    5.32
  -8 -12 -16   -0.86    0.76
  -8 -12 -18   -1.29    1.57
  -8 -12 -20   45.34    7.00
  -8 -12 -22   -2.40    1.55
  -8 -12 -24    0.84    1.48
  -8 -12 -26   29.01    5.71
  -8 -12 -28   -2.03    2.04
   8 -13 -29   -2.45    2.14
   8 -13 -27   -1.28    1.77
   8 -13 -25    9.72    3.30
  -8 -13  25   10.41    2.68
   8 -13 -23   -2.28    1.89
  -8 -13  23   -2.69    1.75
   8 -13 -21   -3.12    2.05
  -8 -13  21   -1.59    1.27
   8 -13 -19    5.88    2.27
  -8 -13  19    7.92    2.32
  -8 -13  17   -2.24    1.54
   8 -13 -17    0.47    1.21
  -8 -13  15    0.38    0.90
   8 -13 -15   -0.65    1.45
   8 -13 -13   18.04    4.64
  -8 -13  13   19.88    4.09
  -8 -13  11   -1.52    0.62
   8 -13 -11   -0.46    1.59
  -8 -13   9    0.33    0.58
   8 -13  -9   -1.17    0.66
  -8 -13   7   39.74    6.03
  -8 -13   5   -0.34    0.64
  -8 -13   3   -1.47    1.22
  -8 -13   1    7.31    2.59
  -8 -13  -1   -1.12    1.68
  -8 -13  -3   -2.53    2.13
  -8 -13  -5    6.95    2.66
  -8 -13  -7   -3.18    2.04
  -8 -13  -9    0.21    0.80
  -8 -13 -11    1.16    0.53
  -8 -13 -13   -0.53    1.12
  -8 -13 -15    1.36    0.91
  -8 -13 -17   15.19    4.10
  -8 -13 -19    1.00    0.56
  -8 -13 -21   -0.98    1.28
  -8 -14  22    7.27    2.47
  -8 -14  20   -0.84    1.52
   8 -14 -18   -0.19    0.96
  -8 -14  18   -1.55    1.52
   8 -14 -16    6.55    2.40
  -8 -14  16    5.89    2.23
   8 -14 -14   -0.86    0.68
  -8 -14  14   -0.85    1.34
   8 -14 -12   -1.78    2.10
  -8 -14  12   -2.84    1.95
   8 -14 -10   13.84    4.00
  -8 -14  10   14.92    3.90
   8 -14  -8    0.52    1.07
  -8 -14   8    0.01    0.98
   8 -14  -6   -0.57    0.99
  -8 -14   6    0.76    1.05
  -8 -14   4   12.85    3.74
   8 -14  -4   13.13    4.18
   8 -14  -2   -0.43    1.93
  -8 -14   2   -0.73    0.67
   8 -14   0   -1.02    1.47
  -8 -14   0   -1.14    0.94
  -8 -14  -2   14.28    4.08
  -8 -14  -4   -1.10    1.19
  -8 -14  -6    1.99    1.73
  -8 -14  -8    3.34    1.57
  -8 -14 -10   -1.84    2.01
  -8 -14 -12   -0.69    1.11
   8 -14  22   -0.11    0.69
  -8 -15  21   -2.04    1.73
  -8 -15  19    9.89    3.11
  -8 -15  17   -0.01    0.72
  -8 -15  15    0.16    0.58
  -8 -15  13   10.10    3.27
  -8 -15  11   -1.03    1.03
  -8 -15   9   -1.78    1.79
  -8 -15   7    5.79    2.20
  -8 -15   5   -1.23    1.52
  -8 -15   3   -0.24    1.12
   8 -15  -1   17.11    4.55
  -8 -15   1   15.61    4.36
   8 -15   1    1.87    2.20
  -8 -15  -1   -0.11    1.22
   8 -15   3    1.85    1.86
   8 -15   5   16.98    4.58
   8 -15   7    1.77    1.39
   8 -15   9    2.01    1.68
   8 -15  11   17.50    4.63
   8 -15  13    2.70    1.73
   8 -15  15    2.78    2.50
   8 -15  17   16.02    4.45
   8 -15  19   -0.60    0.99
   9   0 -29    0.05    0.10
   9   0 -29   -0.07    0.09
   9   0 -27    0.19    0.10
   9   0 -27    0.02    0.10
   9   0 -25   -0.39    0.32
   9   0 -25    0.11    0.23
   9   0 -23   -0.15    0.16
   9   0 -21   -0.11    0.16
   9   0 -19   -0.19    0.21
   9   0 -17   -0.38    0.33
   9   0 -15   -0.44    0.38
   9   0 -13   -0.17    0.45
   9   0 -11    2.46    0.79
   9   0  -9    0.02    0.16
   9   0  -7    1.88    1.42
  -9   0   7   -0.49    0.51
  -9   0   5    1.91    0.94
   9   0  -5   63.33    3.75
   9   0  -3    1.05    0.59
  -9   0   3    1.64    0.75
  -9   0   1   -0.37    0.35
   9   0  -1    2.14    1.59
  -9   0  -1   -0.36    0.38
   9   0   1   -0.33    0.41
  -9   0  -3    2.05    0.93
   9   0   3    0.49    0.34
  -9   0  -5   -0.12    0.18
   9   0   5   -0.12    0.27
  -9   0  -7    0.82    0.59
   9   0   7   -0.50    0.42
  -9   0  -9    0.84    0.56
   9   0   9    1.77    0.82
  -9   0 -11   -0.54    0.53
   9   0  11   -0.48    0.47
  -9   0 -13    0.54    0.71
   9   0  13    0.20    0.44
  -9   0 -15    0.90    0.83
   9   0  15    0.63    0.71
  -9   0 -17   -0.22    0.68
   9   0  17   -1.29    0.83
  -9   0 -19    1.76    1.53
   9   0  19    0.15    0.42
  -9   0 -21   -0.41    0.49
   9   0  21    0.94    0.84
  -9   0 -23    2.73    1.49
   9   0  23    0.90    0.93
  -9   0 -25    0.30    0.89
   9   0  25   -0.24    0.61
  -9   0 -27    0.84    0.84
   9   0  27   -0.41    0.56
  -9   0 -29   -0.56    0.49
   9   0  29   -0.98    0.90
  -9   0 -31   -0.63    0.82
   9   0  31   -0.07    0.54
   9   0  33    0.06    0.48
  -9   0 -33    0.57    0.60
   9   0  35    0.19    0.46
  -9   0 -35    1.54    1.30
   9   0  37    0.23    0.68
  -9   0 -37    1.21    1.04
  -9   0 -39    0.03    0.59
  -9   0 -41   -0.14    0.37
   9  -1 -40   -0.46    0.27
   9  -1 -40   -0.16    0.18
   9  -1 -38    0.00    0.18
   9  -1 -36   -0.20    0.33
   9  -1 -34   -0.44    0.34
   9  -1 -32   -0.19    0.22
   9  -1 -30   46.03    2.76
   9  -1 -28   -0.09    0.21
   9  -1 -26   -0.50    0.45
   9   1 -20    0.00    0.13
   9   1 -18   76.12    2.47
   9   1 -16    0.49    0.45
   9   1 -14    0.34    0.33
  -9  -1  12  523.82    8.04
   9   1 -12  521.90    8.07
  -9  -1  10   -0.29    0.27
   9   1 -10    0.97    0.51
  -9  -1   8   -0.39    0.41
   9   1  -8    0.46    0.38
   9   1  -6 3527.65   23.72
  -9  -1   6 3563.37   23.93
   9  -1  -4   -0.46    0.28
  -9  -1   4    0.58    0.58
   9   1  -4   -0.31    0.22
   9  -1  -2   -0.34    0.45
  -9  -1   2    0.34    0.48
   9   1  -2   -0.16    0.37
   9  -1   0  248.79    7.11
  -9  -1   0  257.16    7.28
   9   1   0  261.13    7.13
   9   1   2   -0.01    0.43
  -9  -1  -2   -0.19    0.56
   9  -1   4   -0.04    0.28
  -9   1  -4    0.33    0.38
   9   1   4   -0.31    0.32
  -9  -1  -4   -0.57    0.60
  -9   1  -6   -0.56    0.64
   9  -1   6   -0.01    0.29
   9   1   6    1.24    0.69
  -9  -1  -6    0.01    0.55
   9  -1   8    0.10    0.47
  -9   1  -8    0.32    0.93
  -9  -1  -8   -0.11    0.47
   9   1   8   -0.58    0.50
  -9  -1 -10    0.15    0.50
   9  -1  10    0.02    0.50
   9   1  10    0.17    0.42
   9  -1  12   -0.22    0.45
  -9  -1 -12    0.38    0.47
   9   1  12    0.65    0.82
  -9   1 -14    1.08    0.84
  -9  -1 -14    0.63    0.50
   9  -1  14   -0.51    0.20
   9   1  14   -0.44    0.49
   9  -1  16    0.89    0.79
  -9  -1 -16    1.30    0.98
   9   1  16    1.22    0.81
  -9   1 -18  388.43   10.85
  -9  -1 -18  376.21   11.19
   9   1  18  392.85   11.25
   9  -1  18  373.82   10.41
  -9   1 -20    2.26    1.13
   9  -1  20    0.49    0.52
  -9  -1 -20    0.64    0.82
   9   1  20    0.05    0.43
  -9   1 -22    0.00    0.69
  -9  -1 -22    0.11    0.31
   9  -1  22   -0.55    0.55
   9   1  22   -0.23    0.40
  -9  -1 -24   78.49    5.39
  -9   1 -24   81.20    5.26
   9   1  24   80.51    5.50
   9  -1  24   82.15    5.12
  -9  -1 -26    0.88    0.73
  -9   1 -26    1.12    1.04
   9  -1  26   -0.11    0.29
   9   1  26   -0.55    0.75
  -9   1 -28    0.24    0.44
  -9  -1 -28   -0.17    0.48
   9   1  28   -0.11    0.45
   9  -1  28    0.01    0.26
  -9  -1 -30   23.96    3.25
  -9   1 -30   21.74    2.87
   9   1  30   25.99    3.32
   9  -1  30   21.68    2.79
  -9  -1 -32    2.15    1.48
  -9   1 -32    1.26    1.09
   9   1  32   -0.15    0.61
   9  -1  32    0.58    0.84
  -9  -1 -34   -0.75    0.70
   9   1  34   -1.24    0.90
   9  -1  34    0.20    0.32
   9  -1  36    2.78    1.04
   9   1  36    6.04    1.76
  -9  -1 -36    5.15    1.64
  -9  -1 -38    1.39    1.32
  -9  -1 -40    0.48    0.84
   9  -2 -43   -0.89    0.42
   9  -2 -41    0.08    0.29
   9  -2 -39   -0.30    0.54
   9  -2 -37   -0.48    0.48
   9  -2 -35   -0.41    0.29
   9  -2 -33   17.70    2.03
   9  -2 -31   -0.02    0.36
   9  -2 -29   -1.19    0.70
   9  -2 -27   23.34    2.38
   9   2 -19   -0.43    0.25
   9   2 -17   -0.03    0.16
  -9  -2  17   -0.35    0.28
  -9  -2  15  229.47    5.15
   9   2 -15  222.02    5.04
  -9  -2  13   -0.24    0.27
   9   2 -13    0.22    0.16
  -9  -2  11    0.03    0.23
   9   2 -11   -0.21    0.31
  -9  -2   9    4.96    0.86
   9   2  -9    4.44    0.81
  -9  -2   7    0.04    0.33
   9   2  -7   -0.24    0.31
  -9  -2   5   -0.56    0.56
   9   2  -5    0.28    0.28
  -9  -2   3  362.45    8.55
   9   2  -3  367.95    8.47
  -9  -2   1   -0.60    0.58
   9   2  -1    0.41    0.47
  -9  -2  -1   -0.86    0.80
   9   2   1   -0.03    0.38
   9  -2   3    0.04    0.25
  -9  -2  -3   -0.50    0.64
   9   2   3   -0.47    0.66
   9  -2   5    2.09    1.63
  -9  -2  -5    0.76    0.87
   9   2   5    0.32    0.75
  -9  -2  -7   -0.07    0.51
   9   2   7    0.49    0.49
   9  -2   9   77.01    4.49
   9   2   9   80.71    4.84
  -9  -2  -9   79.77    4.79
   9  -2  11    0.00    0.41
  -9  -2 -11   -0.26    0.32
   9   2  11   -0.40    0.67
   9  -2  13    0.91    0.80
  -9  -2 -13    1.45    1.10
   9   2  13   -0.06    0.51
   9  -2  15   -0.35    0.77
  -9  -2 -15   -0.25    0.36
   9   2  15    0.39    0.74
   9  -2  17    0.25    0.61
  -9  -2 -17    1.67    1.28
   9   2  17    0.62    0.72
  -9  -2 -19   -0.77    0.43
   9  -2  19    0.26    0.45
   9   2  19    0.22    0.52
  -9  -2 -21   54.71    4.62
   9  -2  21   57.63    4.24
   9   2  21   57.43    4.71
  -9  -2 -23   -0.14    0.71
   9  -2  23   -0.56    0.59
   9   2  23   -0.94    1.01
   9  -2  25   -0.79    0.83
  -9  -2 -25    0.30    0.45
   9   2  25   -1.15    0.78
  -9  -2 -27   23.97    3.22
   9   2  27   29.37    3.65
   9  -2  27   31.53    3.28
  -9  -2 -29    0.35    1.10
   9   2  29    0.59    0.47
   9  -2  29    1.31    0.93
  -9  -2 -31   -0.25    1.11
   9   2  31    0.26    0.29
   9  -2  31   -0.43    0.28
  -9  -2 -33  226.00   10.51
   9  -2  33  213.47    8.67
   9   2  33  208.91   10.29
  -9  -2 -35   -0.09    0.77
   9   2  35   -0.97    0.49
   9  -2  35    0.76    0.76
  -9  -2 -37   -1.02    1.27
   9   2  37   -1.24    1.22
  -9  -2 -39    3.37    1.10
  -9  -2 -41    2.57    1.60
   9  -3 -42   -0.02    0.55
   9  -3 -40   -0.43    0.55
   9  -3 -38   -0.05    0.73
   9  -3 -36   -0.54    0.60
   9  -3 -34   -0.70    0.52
   9  -3 -32   -0.15    0.59
   9  -3 -30   -1.29    0.98
   9  -3 -28    0.91    1.05
  -9  -3  22    0.08    0.10
  -9  -3  20   -0.61    0.50
  -9  -3  18   15.52    1.43
  -9  -3  16    0.18    0.33
   9   3 -16   -0.10    0.19
  -9  -3  14   -0.20    0.21
   9   3 -14   -0.29    0.27
   9   3 -12  177.83    5.71
  -9  -3  12  180.34    5.56
   9   3 -10    0.08    0.28
  -9  -3  10    0.13    0.44
   9   3  -8    0.94    0.58
  -9  -3   8    0.22    0.39
   9   3  -6   99.53    4.65
  -9  -3   6   99.46    4.64
  -9  -3   4    0.02    0.40
   9   3  -4   -0.77    0.70
  -9  -3   2   -0.63    0.54
   9   3  -2   -0.39    0.42
  -9  -3   0    0.37    0.32
   9   3   0   -0.30    0.40
  -9  -3  -2    0.78    0.79
   9   3   2    0.01    0.22
   9   3   4    0.03    0.49
  -9  -3  -4   -0.60    0.70
  -9  -3  -6    2.16    0.28
   9   3   6    2.57    0.92
   9  -3   8    0.85    1.09
  -9  -3  -8   -0.38    0.53
   9   3   8    0.47    0.64
   9   3  10    0.95    0.93
  -9  -3 -10    0.96    1.05
   9  -3  12   -0.21    0.42
  -9  -3 -12    0.21    0.73
   9   3  12   -0.09    0.60
   9  -3  14    0.54    0.68
   9   3  14    0.51    0.66
  -9  -3 -14    0.18    0.41
  -9  -3 -16    0.44    0.55
   9   3  16    0.91    0.78
   9  -3  16    0.42    0.52
  -9  -3 -18   -0.56    0.65
   9   3  18   -0.37    0.67
   9  -3  18   -1.00    0.74
   9  -3  20   -0.04    0.42
  -9  -3 -20   -0.11    0.43
   9   3  20    0.16    0.41
  -9  -3 -22    0.81    1.32
   9  -3  22    0.79    0.61
   9   3  22   -1.11    0.87
   9  -3  24   -0.60    0.62
  -9  -3 -24    0.38    0.31
   9   3  24   -0.49    0.69
   9  -3  26   -0.12    0.31
   9   3  26   -0.61    0.63
  -9  -3 -28    2.77    1.84
   9  -3  28    1.87    1.08
   9   3  28   -0.44    0.84
   9  -3  30    5.37    1.16
  -9  -3 -30    6.32    1.73
   9   3  30    7.37    1.90
  -9  -3 -32   -0.75    0.70
   9   3  32   -0.74    1.05
   9  -3  32   -1.80    1.08
   9   3  34   -1.03    0.87
   9  -3  34    0.22    0.26
  -9  -3 -36    7.86    1.91
   9   3  36    7.40    2.12
  -9  -3 -38   -0.69    0.82
  -9  -3 -40   -1.07    0.79
  -9  -3 -42    0.87    0.54
   9  -4 -43   -0.17    0.37
   9  -4 -41    0.35    0.26
   9  -4 -39   27.74    3.39
   9  -4 -37    0.80    0.90
   9  -4 -35    0.27    0.46
   9  -4 -33   -0.79    0.94
   9  -4 -31    0.02    0.61
   9  -4 -29    0.24    0.64
   9  -4 -27    6.97    1.66
  -9  -4  25   -0.44    0.22
  -9  -4  23   -0.02    0.11
  -9  -4  21   22.46    1.76
  -9  -4  19    0.18    0.32
  -9  -4  17    0.23    0.21
  -9  -4  15   40.21    2.76
   9   4 -13    0.56    0.52
  -9  -4  13    0.79    0.53
   9   4 -11   -0.34    0.45
  -9  -4  11    0.03    0.21
  -9  -4   9   72.53    4.16
   9   4  -9   69.32    4.21
   9   4  -7    0.45    0.45
  -9  -4   7    0.10    0.41
   9   4  -5    0.21    0.43
  -9  -4   5    0.58    0.76
   9   4  -3    0.02    0.26
  -9  -4   3   -0.04    0.32
   9   4  -1    0.46    0.68
  -9  -4   1    1.09    0.88
   9   4   1   -0.02    0.60
  -9  -4  -1    1.73    1.05
   9   4   3   -0.47    0.59
  -9  -4  -3   -0.10    0.71
   9   4   5   -0.58    0.81
  -9  -4  -5    0.46    0.42
   9   4   7   -0.54    0.39
  -9  -4  -7    0.12    0.42
   9   4   9   98.63    6.17
  -9  -4  -9   90.33    5.80
   9   4  11    0.75    0.99
  -9  -4 -11    2.24    1.39
   9  -4  13    1.06    0.66
   9   4  13    0.51    0.73
  -9  -4 -13   -1.15    0.61
   9  -4  15    0.75    0.35
   9   4  15    0.77    0.80
  -9  -4 -15    0.49    0.31
   9  -4  17    0.02    0.40
   9   4  17   -0.07    0.53
  -9  -4 -17   -0.15    0.49
   9  -4  19   -0.50    0.60
   9   4  19    0.89    0.85
  -9  -4 -19   -0.78    0.79
   9  -4  21    0.40    0.52
   9   4  21   -0.29    0.68
  -9  -4 -21    0.07    0.49
   9  -4  23    6.69    2.07
   9   4  23    8.72    2.81
  -9  -4 -23   13.32    3.32
   9  -4  25    0.29    0.39
  -9  -4 -25    2.47    1.45
   9   4  25    1.94    1.26
   9  -4  27   -0.59    0.75
  -9  -4 -27    0.07    0.79
   9   4  27   -0.20    0.58
   9  -4  29   -0.71    0.58
  -9  -4 -29    0.57    0.94
   9   4  29    1.30    1.18
   9  -4  31    0.06    0.38
  -9  -4 -31   -0.05    0.31
   9   4  31   -0.33    0.66
   9  -4  33   -0.03    0.27
  -9  -4 -33    0.68    0.71
   9   4  33    0.22    1.03
  -9  -4 -35    0.25    0.66
  -9  -4 -37   -0.09    0.80
  -9  -4 -39    0.44    0.33
  -9  -4 -41   -0.36    0.94
  -9  -4 -43    0.93    1.24
   9  -5 -44    1.33    1.20
   9  -5 -42    0.15    0.49
   9  -5 -40    0.48    0.76
   9  -5 -38    0.77    0.95
   9  -5 -36   35.05    4.22
   9  -5 -34    1.04    0.96
   9  -5 -32    1.93    1.51
   9  -5 -30    3.81    1.49
  -9  -5  28    0.24    0.19
   9  -5 -28    1.45    1.24
  -9  -5  26    0.28    0.29
  -9  -5  24   13.12    1.44
  -9  -5  22    0.27    0.19
  -9  -5  20    0.21    0.33
  -9  -5  18   11.81    1.65
  -9  -5  16    2.27    1.16
  -9  -5  14    0.57    0.72
  -9  -5  12   24.81    2.63
   9   5 -10    1.13    0.95
  -9  -5  10    0.83    0.93
   9   5  -8    0.76    0.85
  -9  -5   8    0.05    0.50
   9   5  -6   -0.31    0.67
  -9  -5   6   -0.48    0.87
   9   5  -4   -0.27    0.22
  -9  -5   4    0.34    0.75
   9   5  -2    0.16    0.30
  -9  -5   2    0.65    0.84
   9   5   0    6.55    1.47
  -9  -5   0    3.98    1.06
   9   5   2    1.20    0.89
  -9  -5  -2    1.00    1.19
   9   5   4    0.55    0.73
  -9  -5  -4    0.69    0.90
   9   5   6   70.68    5.51
  -9  -5  -6   66.78    5.21
   9   5   8    1.54    1.38
  -9  -5  -8    2.20    1.68
   9   5  10    0.72    0.70
  -9  -5 -10    0.04    0.62
   9   5  12   24.55    3.35
  -9  -5 -12   24.91    3.31
   9   5  14   -0.04    0.63
  -9  -5 -14    1.14    0.93
   9  -5  16    0.27    0.46
   9   5  16    0.54    0.28
  -9  -5 -16   -1.02    0.93
   9  -5  18   83.19    5.67
   9   5  18   92.03    7.00
  -9  -5 -18   89.35    6.67
   9  -5  20    1.74    1.29
   9   5  20    3.21    1.88
  -9  -5 -20    4.35    2.10
   9  -5  22    2.26    1.42
   9   5  22    3.83    2.44
  -9  -5 -22    5.98    2.81
   9  -5  24   -1.07    0.94
   9   5  24    0.46    0.75
  -9  -5 -24   -0.27    0.43
   9  -5  26    0.37    0.32
   9   5  26   -0.30    0.44
  -9  -5 -26   -1.01    1.32
  -9  -5 -28    2.85    1.80
   9  -5  28    1.66    1.20
   9   5  28    1.08    1.02
  -9  -5 -30   -0.76    1.01
   9  -5  30    0.19    0.52
  -9  -5 -32    0.89    1.13
   9  -5  32   -0.52    0.57
  -9  -5 -34    2.05    1.79
  -9  -5 -36    0.25    0.38
  -9  -5 -38    0.73    0.58
  -9  -5 -40    1.47    1.51
  -9  -5 -42    7.17    2.15
   9  -6 -45    0.44    0.97
   9  -6 -43   -0.39    0.42
   9  -6 -41    1.28    1.21
   9  -6 -39   14.39    2.88
   9  -6 -37    0.79    1.05
   9  -6 -35    1.06    1.11
   9  -6 -33   -0.48    1.09
  -9  -6  31    0.25    0.15
   9  -6 -31    1.61    1.35
  -9  -6  29    1.34    0.54
   9  -6 -29    2.80    1.66
   9  -6 -27    5.03    1.67
  -9  -6  27    2.14    0.55
  -9  -6  25   -0.04    0.28
  -9  -6  23   -0.38    0.61
  -9  -6  21    1.01    0.28
  -9  -6  19    0.07    0.59
  -9  -6  17    0.42    0.53
  -9  -6  15   27.65    3.00
  -9  -6  13    1.63    1.24
  -9  -6  11    3.74    1.64
  -9  -6   9    0.33    0.63
  -9  -6   7    0.87    0.72
  -9  -6   5    0.67    0.69
   9   6  -3    8.42    1.92
  -9  -6   3    6.53    1.59
   9   6  -1   -0.87    0.98
  -9  -6   1   -0.45    0.50
   9   6   1    0.73    0.75
  -9  -6  -1    0.49    1.00
  -9  -6  -3  229.65   10.21
   9   6   3  233.99   10.53
   9   6   5    0.01    0.65
  -9  -6  -5    2.21    1.13
   9   6   7    3.15    1.75
  -9  -6  -7    3.93    1.74
   9   6   9   50.69    5.13
  -9  -6  -9   49.59    4.92
   9   6  11    1.11    0.93
  -9  -6 -11    0.69    0.74
   9   6  13    3.10    1.88
  -9  -6 -13    1.38    1.45
   9   6  15   15.61    2.94
  -9  -6 -15   10.31    2.32
   9   6  17    0.56    1.03
  -9  -6 -17    2.35    1.54
   9  -6  19    2.94    1.43
   9   6  19    2.59    1.82
  -9  -6 -19    2.83    1.68
   9  -6  21   83.86    6.02
   9   6  21   84.11    7.33
  -9  -6 -21   77.08    6.65
   9  -6  23   -0.04    0.65
  -9  -6 -23   -0.92    0.66
   9  -6  25    0.29    0.70
  -9  -6 -25    0.87    1.13
   9  -6  27   -1.28    1.28
  -9  -6 -27   -1.32    1.94
   9  -6  29    0.30    0.71
  -9  -6 -29    1.00    0.97
  -9  -6 -31    1.63    1.46
   9  -6  31    0.57    0.87
  -9  -6 -33    2.66    1.63
  -9  -6 -35    1.88    1.63
  -9  -6 -37    2.03    1.75
  -9  -6 -39    3.45    1.68
  -9  -6 -41    1.04    1.06
  -9  -6 -43    1.70    1.62
   9  -7 -44   -0.31    0.77
   9  -7 -42    2.36    1.51
   9  -7 -40   -0.33    0.66
   9  -7 -38    1.19    1.18
   9  -7 -36    1.42    1.23
   9  -7 -34    0.76    0.76
  -9  -7  32    0.06    0.21
   9  -7 -32    0.52    0.63
   9  -7 -30    4.86    1.81
  -9  -7  30    5.46    1.04
   9  -7 -28    0.71    1.44
  -9  -7  28    0.26    0.59
   9  -7 -26   -0.79    0.84
  -9  -7  26   -0.28    0.50
  -9  -7  24   18.63    2.32
  -9  -7  22    0.88    0.63
  -9  -7  20    0.09    0.60
  -9  -7  18   -1.31    0.90
  -9  -7  16    1.41    1.00
  -9  -7  14    1.53    1.32
  -9  -7  12   -0.65    0.71
  -9  -7  10    0.17    0.83
  -9  -7   8   -0.26    0.38
  -9  -7   6    1.54    0.40
  -9  -7   4    0.12    0.69
  -9  -7   2    0.18    0.44
  -9  -7   0   27.19    3.66
  -9  -7  -2    0.04    1.24
  -9  -7  -4    1.82    1.50
  -9  -7  -6   67.64    5.93
  -9  -7  -8    3.83    1.88
  -9  -7 -10    2.57    1.54
  -9  -7 -12   13.72    2.68
  -9  -7 -14    6.09    2.61
  -9  -7 -16    1.74    1.30
  -9  -7 -18    7.64    2.18
  -9  -7 -20   -0.59    0.76
   9  -7  22   -1.50    1.29
  -9  -7 -22   -1.74    1.50
   9  -7  24  137.01    8.23
  -9  -7 -24  137.51    9.62
   9  -7  26    2.71    1.48
  -9  -7 -26    1.63    1.96
   9  -7  28    0.98    0.80
  -9  -7 -28    0.38    0.47
   9  -7  30   -1.10    1.03
  -9  -7 -30   -1.51    1.48
  -9  -7 -32    0.84    1.41
  -9  -7 -34    1.32    1.19
  -9  -7 -36    2.91    1.38
  -9  -7 -38    1.14    1.06
  -9  -7 -40    1.96    1.57
  -9  -7 -42   -2.20    1.83
  -9  -7 -44   -1.25    1.20
   9  -8 -45    2.62    1.37
   9  -8 -43    1.35    1.48
   9  -8 -41    1.11    1.26
   9  -8 -39   -1.41    1.18
   9  -8 -37   -1.11    1.05
   9  -8 -35   -0.56    0.48
   9  -8 -33    8.96    2.75
  -9  -8  33    6.98    1.24
   9  -8 -31    1.45    1.61
  -9  -8  31    0.52    1.38
   9  -8 -29   -0.91    1.06
  -9  -8  29    0.05    0.55
  -9  -8  27   21.06    2.69
   9  -8 -27   24.97    4.22
   9  -8 -25    8.33    3.23
  -9  -8  25    3.20    1.53
  -9  -8  23    1.47    1.13
  -9  -8  21    4.83    1.38
  -9  -8  19    0.47    0.71
  -9  -8  17   -0.81    1.04
  -9  -8  15   -1.23    0.96
  -9  -8  13    1.44    1.33
  -9  -8  11    1.35    1.42
  -9  -8   9   25.43    3.44
  -9  -8   7   -0.58    0.71
  -9  -8   5    0.85    0.94
  -9  -8   3    2.00    0.65
  -9  -8   1    2.10    1.95
  -9  -8  -1    2.55    1.78
  -9  -8  -3    1.37    0.99
  -9  -8  -5    7.05    2.99
  -9  -8  -7    4.78    2.43
  -9  -8  -9   17.80    3.31
  -9  -8 -11    0.37    1.38
  -9  -8 -13    2.25    1.67
  -9  -8 -15   44.67    5.50
  -9  -8 -17    0.35    0.57
  -9  -8 -19    0.19    0.78
  -9  -8 -21   29.93    4.65
   9  -8  23    1.22    0.87
  -9  -8 -23    0.30    0.48
   9  -8  25    2.70    1.54
  -9  -8 -25    0.62    1.05
   9  -8  27    1.27    0.73
  -9  -8 -27   -0.06    1.00
  -9  -8 -29    0.56    0.97
  -9  -8 -31    0.63    0.70
  -9  -8 -33   -0.84    1.12
  -9  -8 -35    0.11    0.56
  -9  -8 -37    1.72    1.90
  -9  -8 -39   -0.66    1.17
  -9  -8 -41    0.23    1.30
  -9  -8 -43    1.57    1.31
   9  -9 -44    1.31    1.39
   9  -9 -42    0.16    0.87
   9  -9 -40   -2.13    1.46
   9  -9 -38   -1.35    1.43
   9  -9 -36    0.89    0.70
   9  -9 -34   -0.10    1.35
   9  -9 -32    0.44    0.83
  -9  -9  32    0.22    0.35
   9  -9 -30    2.90    1.87
  -9  -9  30    0.45    0.45
   9  -9 -28   -0.34    0.88
  -9  -9  28    1.24    0.90
   9  -9 -26    0.57    1.16
  -9  -9  26   -0.09    0.30
   9  -9 -24    1.53    0.69
  -9  -9  24    2.03    1.15
  -9  -9  22    2.40    1.41
  -9  -9  20    0.89    0.77
  -9  -9  18   -2.47    1.61
  -9  -9  16   -1.05    1.12
  -9  -9  14   -0.38    0.69
  -9  -9  12    2.03    0.75
  -9  -9  10   -1.50    1.44
  -9  -9   8   -0.08    0.99
  -9  -9   6   33.39    4.43
  -9  -9   4    1.52    1.72
  -9  -9   2    0.20    1.05
  -9  -9   0   -1.79    1.31
  -9  -9  -2    2.50    1.82
  -9  -9  -4    1.97    2.11
  -9  -9  -6    6.08    2.13
  -9  -9  -8    0.85    1.39
  -9  -9 -10    5.46    2.45
  -9  -9 -12   10.44    2.81
  -9  -9 -14   -1.07    0.98
  -9  -9 -16    2.42    2.31
  -9  -9 -18   77.24    7.75
  -9  -9 -20    1.48    1.21
  -9  -9 -22   -0.69    0.67
  -9  -9 -24   13.12    3.14
  -9  -9 -26    1.02    0.64
  -9  -9 -28    0.63    0.77
  -9  -9 -30   -1.57    1.88
  -9  -9 -32    0.57    1.01
  -9  -9 -34   -0.45    0.78
  -9  -9 -36    0.45    0.63
  -9  -9 -38    0.11    0.85
  -9  -9 -40    0.22    0.94
  -9  -9 -42    2.59    1.88
   9 -10 -45    1.63    1.23
   9 -10 -43   -2.19    1.49
   9 -10 -41    1.80    1.92
   9 -10 -39    0.49    0.95
   9 -10 -37    0.85    1.03
   9 -10 -35    1.13    0.59
   9 -10 -33    3.73    1.98
   9 -10 -31   -0.03    0.79
   9 -10 -29    0.75    1.07
  -9 -10  29    0.41    0.62
   9 -10 -27    1.62    1.45
  -9 -10  27    0.52    0.78
   9 -10 -25    1.11    2.12
  -9 -10  25    1.92    1.39
   9 -10 -23   -0.25    0.84
  -9 -10  23   -0.25    0.53
   9 -10 -21   -0.75    1.32
  -9 -10  21    0.52    0.92
  -9 -10  19    0.47    0.79
  -9 -10  17   -1.67    1.67
  -9 -10  15   -2.60    1.92
  -9 -10  13   -0.12    0.98
  -9 -10  11    1.38    0.94
  -9 -10   9   40.85    5.07
  -9 -10   7   -1.05    1.04
  -9 -10   5    0.96    0.84
  -9 -10   3   12.62    2.92
  -9 -10   1    2.04    1.63
  -9 -10  -1    0.54    1.16
  -9 -10  -3    7.44    2.43
  -9 -10  -5    4.77    2.33
  -9 -10  -7    0.90    1.26
  -9 -10  -9    0.04    1.15
  -9 -10 -11    1.54    1.30
  -9 -10 -13    2.52    1.92
  -9 -10 -15   56.14    6.81
  -9 -10 -17    4.07    2.59
  -9 -10 -19   -0.45    0.86
  -9 -10 -21    2.16    1.38
  -9 -10 -23    0.15    1.17
  -9 -10 -25   -0.88    1.30
  -9 -10 -27    1.60    1.00
  -9 -10 -29    1.62    1.79
  -9 -10 -31   -0.50    0.73
  -9 -10 -33   -0.27    1.00
  -9 -10 -35    0.26    0.89
  -9 -10 -37    0.33    0.71
  -9 -10 -39   -1.39    1.19
   9 -11 -42    1.96    1.78
   9 -11 -40    0.09    0.63
   9 -11 -38   -1.16    1.29
   9 -11 -36    3.31    1.86
   9 -11 -34    2.53    1.94
   9 -11 -32    0.49    1.15
   9 -11 -30   -1.19    1.35
   9 -11 -28   -2.34    1.66
  -9 -11  28    1.97    1.14
   9 -11 -26   -1.23    0.69
  -9 -11  26   -0.19    0.79
   9 -11 -24    0.78    0.66
  -9 -11  24   -1.49    1.12
   9 -11 -22   -1.03    1.05
  -9 -11  22    1.39    1.34
   9 -11 -20   -2.44    1.65
  -9 -11  20    0.77    1.11
   9 -11 -18    6.24    1.70
  -9 -11  18    4.77    1.64
  -9 -11  16   -1.02    1.34
  -9 -11  14   -2.50    1.51
  -9 -11  12   -1.11    1.68
  -9 -11  10    1.66    1.41
  -9 -11   8   -0.76    0.69
  -9 -11   6   13.98    3.13
  -9 -11   4   -1.07    1.19
  -9 -11   2   -2.78    2.21
  -9 -11   0   22.60    4.27
  -9 -11  -2    3.37    2.24
  -9 -11  -4   -0.65    0.55
  -9 -11  -6   -0.10    1.06
  -9 -11  -8   -2.81    1.98
  -9 -11 -10    0.49    1.16
  -9 -11 -12   22.08    4.52
  -9 -11 -14    2.17    1.89
  -9 -11 -16    3.18    1.74
  -9 -11 -18    0.04    0.51
  -9 -11 -20    3.25    2.45
  -9 -11 -22   -0.37    1.11
  -9 -11 -24    0.32    1.09
  -9 -11 -26    1.15    1.89
  -9 -11 -28   -1.31    1.02
  -9 -11 -30   -0.10    1.01
  -9 -11 -32    0.29    1.36
  -9 -11 -34    0.45    1.47
   9 -12 -37   -1.44    1.58
   9 -12 -35    2.69    2.06
   9 -12 -33    3.10    1.98
   9 -12 -31    2.00    1.42
   9 -12 -29   -0.48    0.85
   9 -12 -27   -1.15    1.85
  -9 -12  27   -0.56    0.63
   9 -12 -25   -2.42    2.17
  -9 -12  25    0.50    0.42
   9 -12 -23   -2.74    1.91
  -9 -12  23   -1.11    1.42
   9 -12 -21    0.02    1.07
  -9 -12  21   -0.99    1.47
   9 -12 -19    1.38    1.63
  -9 -12  19   -0.34    0.93
   9 -12 -17    0.39    1.30
  -9 -12  17    0.62    0.98
   9 -12 -15   -1.89    1.22
  -9 -12  15    0.66    0.44
  -9 -12  13   -0.99    0.92
  -9 -12  11    0.97    1.39
  -9 -12   9    2.95    1.78
  -9 -12   7   -0.62    1.59
  -9 -12   5   -0.20    1.14
  -9 -12   3   -2.99    2.02
  -9 -12   1   -1.57    1.82
  -9 -12  -1   -1.50    1.27
  -9 -12  -3   -0.63    1.54
  -9 -12  -5   -1.65    1.64
  -9 -12  -7   -1.85    1.88
  -9 -12  -9    1.19    0.49
  -9 -12 -11    1.60    1.26
  -9 -12 -13    1.88    1.81
  -9 -12 -15    0.38    0.73
  -9 -12 -17    3.13    2.14
  -9 -12 -19    0.39    1.59
  -9 -12 -21    1.94    2.09
  -9 -12 -23    0.01    1.64
  -9 -12 -25   -0.17    1.22
  -9 -12 -27   -0.64    1.48
   9 -13 -28    1.20    1.13
   9 -13 -26   -1.41    1.53
   9 -13 -24   -0.34    1.59
  -9 -13  24    1.41    1.21
   9 -13 -22    1.24    1.61
  -9 -13  22   -1.59    1.24
   9 -13 -20   -2.95    2.06
  -9 -13  20   -1.28    1.35
   9 -13 -18   -0.45    0.98
  -9 -13  18    0.24    0.65
   9 -13 -16    0.71    1.30
  -9 -13  16   -1.22    1.37
   9 -13 -14   -0.12    0.59
  -9 -13  14   -1.52    1.58
   9 -13 -12    2.84    2.50
  -9 -13  12    3.41    1.86
  -9 -13  10    1.35    1.53
  -9 -13   8    3.84    2.35
  -9 -13   6    0.35    0.68
  -9 -13   4   -1.54    1.20
  -9 -13   2    0.30    0.99
  -9 -13   0   -2.53    2.19
  -9 -13  -2   -1.99    1.64
  -9 -13  -4    0.15    0.77
  -9 -13  -6    1.86    1.58
  -9 -13  -8    0.67    1.18
  -9 -13 -10   -4.47    1.98
  -9 -13 -12   -0.53    1.11
  -9 -13 -14    4.00    2.35
  -9 -13 -16    1.52    1.45
  -9 -13 -18   -1.00    1.83
  -9 -13 -20    5.14    2.84
  -9 -14  23    0.01    0.76
  -9 -14  21    0.74    1.12
  -9 -14  19    0.85    0.71
   9 -14 -17    2.77    1.90
  -9 -14  17   -3.91    2.13
   9 -14 -15   -0.54    1.96
  -9 -14  15   -1.53    1.51
   9 -14 -13   -1.22    1.88
  -9 -14  13    1.58    0.75
   9 -14 -11    0.47    1.02
  -9 -14  11   -1.64    1.56
   9 -14  -9    0.23    1.53
  -9 -14   9    1.51    0.89
   9 -14  -7    2.65    1.84
  -9 -14   7    0.27    1.01
   9 -14  -5    2.47    1.91
  -9 -14   5   -1.60    1.38
  -9 -14   3    1.33    1.21
  -9 -14   1    0.28    1.30
  -9 -14  -1   -0.91    1.53
  -9 -14  -3    0.20    0.50
  -9 -14  -5   -1.10    0.67
  -9 -14  -7   -1.83    1.54
  -9 -14  -9    1.77    1.46
  -9 -14 -11   -1.67    1.46
  -9 -15  20    0.80    0.94
  -9 -15  18   -0.49    0.96
  -9 -15  16   -2.33    2.02
  -9 -15  14   -0.75    1.71
  -9 -15  12   -0.81    1.36
  -9 -15  10   -1.93    2.03
  -9 -15   8   -0.45    1.35
  -9 -15   6   -0.15    1.82
  -9 -15   4    0.26    1.49
  -9 -15   2   -2.58    2.36
   9 -15   0    3.07    2.14
  -9 -15   0   -1.48    1.53
   9 -15   2    0.55    0.95
   9 -15   4    0.28    1.11
   9 -15   6    0.23    1.15
   9 -15   8   -1.81    1.84
   9 -15  10    4.26    2.44
   9 -15  12   -0.69    1.16
   9 -15  14   -0.50    1.32
   9 -15  16    1.13    1.33
   9 -15  18   -0.58    1.28
  10   0 -30   -0.10    0.13
  10   0 -30    0.16    0.13
  10   0 -28    0.12    0.11
  10   0 -28    0.19    0.19
  10   0 -26  138.23    3.83
  10   0 -26  140.42    3.77
  10   0 -24   -0.19    0.23
  10   0 -22    0.25    0.20
  10   0 -20  219.99    5.34
  10   0 -18   -0.31    0.25
  10   0 -16   -0.08    0.16
  10   0 -14  761.75   10.82
  10   0 -12   -0.16    0.28
  10   0 -10    0.03    0.31
 -10   0   8 2159.71   19.40
  10   0  -8 2143.96   19.25
  10   0  -6    5.02    1.17
 -10   0   6   -0.29    0.43
 -10   0   4    1.85    1.68
  10   0  -4    0.20    0.51
 -10   0   2 4201.26   29.64
  10   0  -2 4149.14   29.22
 -10   0   0    0.39    0.45
  10   0   0    0.12    0.24
 -10   0  -2    0.04    0.21
  10   0   2    0.03    0.42
 -10   0  -4  287.02    8.37
  10   0   4  292.21    8.25
 -10   0  -6    0.19    0.49
  10   0   6    0.64    0.70
 -10   0  -8    0.04    0.41
  10   0   8   -0.03    0.18
 -10   0 -10  329.30    9.61
  10   0  10  322.34    9.30
 -10   0 -12   -0.16    0.22
  10   0  12   -0.17    0.32
 -10   0 -14   -0.09    0.25
  10   0  14    0.00    0.25
 -10   0 -16   30.68    3.13
  10   0  16   28.60    2.96
 -10   0 -18   -0.49    0.79
  10   0  18    0.06    0.31
 -10   0 -20    0.15    0.45
  10   0  20   -0.38    0.45
 -10   0 -22  447.06   12.78
  10   0  22  438.82   12.37
 -10   0 -24   -0.13    0.38
  10   0  24   -0.83    0.93
 -10   0 -26   -0.59    0.81
  10   0  26   -0.62    0.64
 -10   0 -28   14.73    2.47
  10   0  28   12.82    2.20
 -10   0 -30   -0.45    0.27
  10   0  30   -0.17    0.24
 -10   0 -32   -0.21    0.33
  10   0  32   -0.52    0.76
  10   0  34  481.12   14.49
 -10   0 -34  494.30   14.94
  10   0  36   -0.03    0.45
 -10   0 -36    0.02    0.43
 -10   0 -38   -0.34    0.39
 -10   0 -40   23.43    3.22
  10  -1 -39   -1.28    0.48
  10  -1 -39   -0.25    0.22
  10  -1 -37   -0.56    0.30
  10  -1 -35   37.52    2.29
  10  -1 -33   -0.05    0.15
  10  -1 -31    0.29    0.17
  10  -1 -29   14.67    1.60
  10  -1 -27   -0.50    0.46
  10   1 -21   -0.07    0.19
  10   1 -19   -0.14    0.21
  10   1 -17  542.60    7.80
  10   1 -15    0.28    0.36
 -10  -1  13    0.02    0.29
  10   1 -13    1.03    0.56
 -10  -1  11 1088.39   13.03
  10   1 -11 1098.37   13.00
 -10  -1   9   -0.42    0.53
  10   1  -9   -0.01    0.44
  10  -1  -7    0.15    0.24
 -10  -1   7   -0.14    0.27
  10   1  -7    0.45    0.58
  10  -1  -5 3474.73   26.68
 -10  -1   5 3498.13   25.88
  10   1  -5 3533.68   25.69
  10  -1  -3   -0.92    0.68
 -10  -1   3    0.33    0.26
  10   1  -3   -0.55    0.43
  10  -1  -1    0.08    0.40
 -10  -1   1   -0.04    0.38
  10   1  -1   -0.10    0.23
  10  -1   1 3585.58   29.03
 -10   1  -1 3567.40   28.89
 -10  -1  -1 3638.29   28.98
  10   1   1 3633.40   28.39
  10  -1   3   -0.06    0.32
 -10   1  -3   -0.24    0.42
 -10  -1  -3   -0.18    0.22
  10   1   3    0.31    0.28
 -10   1  -5   -0.44    0.47
  10  -1   5   -0.86    0.74
  10   1   5    0.12    0.25
 -10  -1  -5    0.83    0.49
 -10   1  -7  363.11    9.70
 -10  -1  -7  347.40    9.74
  10  -1   7  351.86    9.52
  10   1   7  350.03    9.57
 -10   1  -9    0.35    0.34
  10  -1   9   -0.12    0.38
 -10  -1  -9   -0.14    0.25
  10   1   9   -0.12    0.49
 -10   1 -11    1.65    1.04
 -10  -1 -11   -0.57    0.66
  10  -1  11    0.50    0.53
  10   1  11   -0.19    0.57
 -10   1 -13   35.43    3.25
  10  -1  13   34.12    3.15
 -10  -1 -13   31.86    3.14
  10   1  13   28.89    2.96
 -10   1 -15    0.86    0.72
 -10  -1 -15    0.29    0.71
  10  -1  15    0.55    0.45
  10   1  15    0.28    0.60
  10  -1  17    0.08    0.31
 -10  -1 -17    0.30    0.70
  10   1  17   -0.37    0.55
 -10   1 -19  381.76   11.29
 -10  -1 -19  385.78   11.88
  10  -1  19  365.33   10.90
  10   1  19  386.11   11.62
 -10   1 -21   -0.10    0.25
 -10  -1 -21   -0.65    0.86
  10  -1  21    0.11    0.62
  10   1  21   -0.53    0.77
 -10  -1 -23   -0.77    0.63
  10  -1  23   -0.39    0.59
  10   1  23    0.14    0.32
 -10  -1 -25  229.18    9.69
 -10   1 -25  229.12    9.25
  10   1  25  222.32    9.40
  10  -1  25  227.47    8.96
 -10  -1 -27    1.35    1.05
 -10   1 -27    0.78    0.73
  10  -1  27   -0.02    0.48
  10   1  27   -0.75    0.63
 -10   1 -29    0.26    0.29
 -10  -1 -29   -0.08    0.32
  10   1  29   -0.42    1.04
  10  -1  29    0.39    0.48
 -10  -1 -31  287.53   11.58
 -10   1 -31  277.66   10.62
  10   1  31  282.27   11.43
  10  -1  31  280.99   10.59
 -10  -1 -33   -0.25    0.61
  10   1  33   -1.14    1.05
  10  -1  33    0.57    0.38
 -10  -1 -35    0.64    0.84
  10   1  35   -0.15    0.55
  10  -1  35   -0.10    0.29
 -10  -1 -37  199.52   10.02
  10   1  37  185.74    9.65
 -10  -1 -39    0.04    0.58
 -10  -1 -41    0.02    0.85
  10  -2 -42   -1.19    0.69
  10  -2 -40   -0.71    0.46
  10  -2 -38   19.18    2.14
  10  -2 -36   -0.40    0.48
  10  -2 -34   -0.44    0.59
  10  -2 -32  165.78    6.50
  10  -2 -30   -0.66    0.52
  10  -2 -28   -0.98    0.91
  10   2 -20  340.19    5.37
 -10  -2  18    0.32    0.23
  10   2 -18   -0.08    0.16
 -10  -2  16   -0.23    0.16
  10   2 -16   -0.45    0.28
 -10  -2  14  240.63    5.89
  10   2 -14  231.96    5.69
 -10  -2  12    0.11    0.30
  10   2 -12    0.11    0.28
 -10  -2  10    0.08    0.25
  10   2 -10    0.02    0.23
 -10  -2   8  781.95   12.06
  10   2  -8  758.24   11.74
 -10  -2   6   -0.28    0.42
  10   2  -6    0.23    0.36
 -10  -2   4   -0.73    0.69
  10   2  -4    1.74    0.84
 -10  -2   2  982.76   14.98
  10   2  -2  991.10   14.98
 -10  -2   0    0.48    0.57
  10   2   0   -0.07    0.50
  10  -2   2    0.22    0.29
  10   2   2   -0.15    0.26
  10  -2   4 1635.82   20.75
 -10  -2  -4 1651.11   21.17
  10   2   4 1674.43   21.06
  10  -2   6   -0.30    0.46
  10   2   6   -0.66    0.42
  10  -2   8    0.40    0.48
 -10  -2  -8    0.06    0.87
  10   2   8    0.23    0.36
  10  -2  10   91.16    5.12
  10   2  10   92.00    5.34
 -10  -2 -10   94.03    5.44
  10  -2  12   -0.15    0.27
 -10  -2 -12    0.26    0.76
  10   2  12    0.32    0.36
  10  -2  14   -0.32    0.52
 -10  -2 -14    0.11    0.44
  10   2  14   -0.07    0.26
  10  -2  16  859.05   16.34
  10   2  16  855.15   17.58
 -10  -2 -16  886.75   17.99
 -10  -2 -18    0.43    0.58
  10  -2  18   -0.64    0.52
  10   2  18   -0.22    0.48
 -10  -2 -20   -0.38    0.34
  10  -2  20   -0.23    0.32
  10   2  20   -0.29    0.32
 -10  -2 -22  146.27    7.85
  10   2  22  139.72    7.61
  10  -2  22  145.22    7.04
 -10  -2 -24    0.00    0.68
  10  -2  24   -1.15    0.88
  10   2  24   -0.20    0.47
 -10  -2 -26   -0.62    0.58
  10  -2  26   -1.34    0.84
  10   2  26   -0.69    0.30
 -10  -2 -28  362.11   12.95
  10   2  28  352.33   13.01
  10  -2  28  363.57   11.49
 -10  -2 -30   -0.74    1.00
  10   2  30    0.12    0.49
  10  -2  30   -0.83    0.92
  10   2  32    0.19    0.61
  10  -2  32   -0.80    0.62
 -10  -2 -34   95.23    7.04
  10   2  34   82.93    6.62
  10  -2  34   86.16    5.79
  10   2  36   -1.18    0.91
 -10  -2 -36    1.06    0.80
 -10  -2 -38   -0.43    0.68
 -10  -2 -40  133.56    8.71
 -10  -2 -42   -0.14    0.51
  10  -3 -43   -0.55    0.71
  10  -3 -41   42.95    3.70
  10  -3 -39    0.21    0.23
  10  -3 -37    0.24    0.23
  10  -3 -35    9.49    1.78
  10  -3 -33   -0.43    0.76
  10  -3 -31   -0.13    0.32
  10  -3 -29  554.30   13.56
 -10  -3  21   -0.04    0.20
 -10  -3  19   -1.13    0.53
  10   3 -19   -0.08    0.13
 -10  -3  17  122.71    4.31
  10   3 -17  119.42    4.29
 -10  -3  15   -0.36    0.34
  10   3 -15   -0.27    0.34
 -10  -3  13   -0.09    0.42
  10   3 -13    0.55    0.50
  10   3 -11  235.58    6.87
 -10  -3  11  234.73    6.74
 -10  -3   9   -0.28    0.20
  10   3  -9   -0.13    0.20
 -10  -3   7   -0.48    0.34
  10   3  -7   -0.12    0.27
  10   3  -5  992.68   15.49
 -10  -3   5  988.76   15.40
 -10  -3   3    0.39    0.66
  10   3  -3    0.36    0.39
  10   3  -1    0.59    0.56
 -10  -3   1    0.73    0.34
  10   3   1  351.19    9.92
 -10  -3  -1  351.00   10.02
  10   3   3    0.46    0.54
 -10  -3  -3    0.04    0.60
  10   3   5   -0.38    0.19
 -10  -3  -5   -0.44    0.48
  10  -3   7  453.85   11.71
  10   3   7  446.38   12.13
 -10  -3  -7  443.90   12.11
 -10  -3  -9   -0.88    0.40
  10   3   9   -0.46    0.46
  10  -3  11    1.25    0.69
 -10  -3 -11    0.24    0.34
  10   3  11   -0.68    0.78
  10  -3  13  190.93    7.93
  10   3  13  198.79    8.65
 -10  -3 -13  192.15    8.51
  10  -3  15   -0.07    0.19
 -10  -3 -15   -0.69    0.92
  10   3  15    0.33    0.37
 -10  -3 -17    0.45    0.60
  10  -3  17    0.14    0.40
  10   3  17    0.00    0.58
  10  -3  19  140.67    6.90
  10   3  19  149.42    8.11
 -10  -3 -19  140.44    7.74
 -10  -3 -21   -0.61    0.42
  10  -3  21   -0.04    0.43
  10   3  21   -0.47    0.86
  10  -3  23    0.22    0.50
 -10  -3 -23   -0.54    0.38
  10  -3  25  299.65   10.40
  10   3  25  298.03   12.24
 -10  -3 -25  303.65   12.08
 -10  -3 -27   -0.33    0.62
  10  -3  27   -0.84    0.58
  10   3  27    0.25    0.62
 -10  -3 -29   -0.55    0.74
  10  -3  29   -0.60    0.80
  10   3  29   -0.43    0.80
 -10  -3 -31   39.52    4.61
  10   3  31   39.11    4.66
  10  -3  31   38.14    3.73
 -10  -3 -33   -0.44    0.70
  10   3  33   -0.45    0.38
  10  -3  33   -0.33    0.61
 -10  -3 -35   -1.29    1.30
  10   3  35    1.02    1.04
  10  -3  35    0.48    0.57
 -10  -3 -37   51.03    5.45
 -10  -3 -39   -0.70    0.68
 -10  -3 -41   -0.10    0.65
  10  -4 -44   54.27    4.67
  10  -4 -42   -1.23    0.90
  10  -4 -40    0.02    0.76
  10  -4 -38  147.31    7.80
  10  -4 -36   -0.85    0.72
  10  -4 -34   -1.00    1.12
  10  -4 -32  168.58    8.28
  10  -4 -30   -0.30    0.78
 -10  -4  24   -0.18    0.26
 -10  -4  22    0.45    0.29
 -10  -4  20   62.68    3.21
 -10  -4  18   -0.05    0.30
  10   4 -16    0.28    0.38
 -10  -4  16   -0.62    0.65
  10   4 -14  356.13    9.11
 -10  -4  14  362.14    8.81
  10   4 -12   -0.02    0.27
 -10  -4  12    0.07    0.22
  10   4 -10   -0.53    0.40
 -10  -4  10   -0.22    0.34
  10   4  -8  557.75   12.34
 -10  -4   8  564.17   12.08
  10   4  -6    0.34    0.28
 -10  -4   6   -0.09    0.28
  10   4  -4   -0.52    0.46
 -10  -4   4    0.75    0.56
  10   4  -2  567.69   13.30
 -10  -4   2  565.48   13.16
  10   4   0    0.26    0.40
 -10  -4   0    0.83    0.85
  10   4   2    0.07    0.37
 -10  -4  -2    0.25    0.53
  10   4   4  226.56    9.02
 -10  -4  -4  220.55    8.82
  10   4   6    0.00    0.58
 -10  -4  -6   -0.58    0.57
  10   4   8   -0.08    0.49
 -10  -4  -8   -0.24    0.47
  10   4  10  748.62   17.55
 -10  -4 -10  708.36   16.71
  10  -4  12    0.09    0.61
  10   4  12   -0.33    0.57
 -10  -4 -12   -0.66    0.59
  10  -4  14   -0.02    0.39
  10   4  14   -0.88    1.19
 -10  -4 -14   -0.40    0.97
  10  -4  16  144.70    7.28
  10   4  16  138.46    8.07
 -10  -4 -16  132.16    7.65
  10  -4  18    0.05    0.35
  10   4  18   -0.78    0.78
 -10  -4 -18   -0.71    0.63
 -10  -4 -20   -0.15    0.72
  10  -4  20   -0.45    0.75
  10   4  20    0.01    0.42
  10  -4  22 1636.66   25.10
  10   4  22 1668.34   29.62
 -10  -4 -22 1636.60   28.46
  10  -4  24    0.59    0.26
 -10  -4 -24    0.46    0.72
  10   4  24   -0.07    0.83
  10  -4  26   -0.61    0.73
 -10  -4 -26   -0.25    0.30
  10   4  26    1.07    1.05
  10  -4  28  141.58    7.44
  10   4  28  140.53    9.01
 -10  -4 -28  143.64    8.95
 -10  -4 -30   -0.21    0.96
  10  -4  30    0.13    0.37
  10   4  30   -0.19    1.07
 -10  -4 -32   -1.20    1.38
  10  -4  32   -1.07    0.63
  10   4  32   -0.06    0.69
 -10  -4 -34  123.59    8.79
  10  -4  34  111.94    6.55
 -10  -4 -36   -0.22    0.39
 -10  -4 -38   -0.55    0.96
 -10  -4 -40   60.81    6.40
 -10  -4 -42   -1.43    1.32
  10  -5 -43    0.00    0.62
  10  -5 -41   19.41    3.15
  10  -5 -39   -1.69    1.17
  10  -5 -37    0.67    0.63
  10  -5 -35   87.92    6.61
  10  -5 -33   -1.53    0.95
  10  -5 -31    0.07    0.71
  10  -5 -29  165.65    9.00
 -10  -5  27    0.26    0.21
 -10  -5  25    0.05    0.24
 -10  -5  23  314.85    7.56
 -10  -5  21   -0.03    0.32
 -10  -5  19    0.84    0.56
 -10  -5  17  949.23   15.20
 -10  -5  15    0.41    0.45
  10   5 -13    0.53    0.67
 -10  -5  13    0.30    0.59
 -10  -5  11  538.14   12.63
  10   5 -11  517.48   12.78
  10   5  -9   -0.73    0.59
 -10  -5   9   -0.04    0.38
  10   5  -7   -0.20    0.32
 -10  -5   7   -0.42    0.87
  10   5  -5  225.79    8.87
 -10  -5   5  229.57    8.85
  10   5  -3   -0.48    0.65
 -10  -5   3    0.24    0.47
  10   5  -1   -0.65    0.75
 -10  -5   1   -0.30    0.47
 -10  -5  -1  555.81   14.52
  10   5   1  558.22   14.93
  10   5   3    0.67    0.71
 -10  -5  -3    0.03    0.55
  10   5   5    0.14    0.54
 -10  -5  -5   -0.23    0.51
  10   5   7  728.71   18.18
 -10  -5  -7  731.08   17.62
  10   5   9    0.18    0.29
 -10  -5  -9    0.13    0.82
  10   5  11    0.40    0.53
 -10  -5 -11   -0.89    0.91
  10   5  13  314.99   12.53
 -10  -5 -13  287.07   11.73
  10  -5  15   -0.24    0.22
  10   5  15   -0.29    0.84
 -10  -5 -15   -0.86    0.98
  10  -5  17    0.45    0.35
  10   5  17    0.28    0.62
 -10  -5 -17   -0.15    0.44
  10  -5  19  645.81   16.26
  10   5  19  664.09   19.02
 -10  -5 -19  656.36   18.52
  10  -5  21   -0.25    0.67
  10   5  21    0.22    0.64
 -10  -5 -21    0.90    1.08
  10  -5  23    0.33    0.58
  10   5  23   -0.13    0.57
 -10  -5 -23   -0.71    1.16
  10  -5  25   20.12    2.84
  10   5  25   22.92    3.90
 -10  -5 -25   21.77    3.52
  10  -5  27   -0.34    0.63
 -10  -5 -27   -0.81    1.02
 -10  -5 -29    0.59    0.77
  10  -5  29    0.53    0.71
  10  -5  31  146.81    7.81
 -10  -5 -31  139.33    9.43
 -10  -5 -33   -1.01    1.26
 -10  -5 -35    0.94    0.88
 -10  -5 -37   62.79    6.66
 -10  -5 -39    1.03    1.13
 -10  -5 -41   -1.18    1.28
 -10  -5 -43   96.02    8.55
  10  -6 -44   35.47    4.52
  10  -6 -42   -1.99    1.22
  10  -6 -40    1.05    1.00
  10  -6 -38   79.26    6.90
  10  -6 -36   -0.43    0.86
  10  -6 -34   -2.39    1.53
  10  -6 -32  130.45    8.61
 -10  -6  30   -0.27    0.24
  10  -6 -30    0.86    0.94
 -10  -6  28    0.52    0.29
  10  -6 -28   -1.07    1.24
 -10  -6  26   38.29    2.81
 -10  -6  24    0.01    0.35
 -10  -6  22    0.12    0.45
 -10  -6  20  419.85   10.79
 -10  -6  18    0.28    0.40
 -10  -6  16    0.63    0.70
 -10  -6  14  570.21   13.69
 -10  -6  12   -0.32    0.30
 -10  -6  10    0.50    0.77
 -10  -6   8  239.84    9.54
  10   6  -6    0.22    0.29
 -10  -6   6   -0.42    0.51
  10   6  -4   -0.16    0.47
 -10  -6   4    0.72    0.81
  10   6  -2   97.94    6.57
 -10  -6   2   96.74    6.30
  10   6   0   -3.66    1.30
 -10  -6   0   -1.20    1.13
  10   6   2   -0.34    0.40
 -10  -6  -2   -0.60    0.60
 -10  -6  -4  189.71    9.42
  10   6   4  191.64    9.69
  10   6   6   -0.23    0.41
 -10  -6  -6   -0.14    0.38
  10   6   8   -0.56    0.29
 -10  -6  -8    0.63    0.91
  10   6  10  238.29   11.26
 -10  -6 -10  216.31   10.65
  10   6  12   -0.14    0.56
 -10  -6 -12   -0.56    0.88
  10   6  14    1.02    1.08
 -10  -6 -14   -0.43    0.95
  10   6  16  403.00   15.66
 -10  -6 -16  385.68   14.51
  10  -6  18    0.33    0.33
  10   6  18   -0.70    0.86
 -10  -6 -18   -0.87    0.47
  10  -6  20    0.41    0.45
  10   6  20   -0.79    1.23
 -10  -6 -20   -0.31    0.36
  10  -6  22   25.14    3.38
 -10  -6 -22   29.49    4.20
  10  -6  24   -0.13    0.31
 -10  -6 -24    0.32    0.92
  10  -6  26   -1.57    1.06
 -10  -6 -26   -1.81    1.70
  10  -6  28  232.55   10.30
 -10  -6 -28  231.81   12.45
  10  -6  30    0.47    0.56
 -10  -6 -30   -0.69    1.24
 -10  -6 -32   -0.20    0.92
 -10  -6 -34   76.91    7.53
 -10  -6 -36    0.54    0.92
 -10  -6 -38    1.79    1.30
 -10  -6 -40   31.43    5.00
 -10  -6 -42    1.82    1.12
  10  -7 -45    0.33    0.83
  10  -7 -43   -0.52    1.00
  10  -7 -41   26.91    4.28
  10  -7 -39   -0.33    0.53
  10  -7 -37    0.86    0.83
  10  -7 -35   67.02    6.61
 -10  -7  33   -0.72    0.37
  10  -7 -33   -0.56    0.93
 -10  -7  31    0.52    0.51
  10  -7 -31   -0.06    1.09
  10  -7 -29  115.71    8.62
 -10  -7  29  111.47    5.04
  10  -7 -27    1.20    1.06
 -10  -7  27   -0.68    0.41
 -10  -7  25   -0.23    0.36
 -10  -7  23  158.61    7.09
 -10  -7  21   -0.28    0.46
 -10  -7  19   -0.16    0.49
 -10  -7  17  279.50   10.10
 -10  -7  15   -0.95    0.44
 -10  -7  13    0.37    0.62
 -10  -7  11  272.49   10.72
 -10  -7   9    0.23    0.97
 -10  -7   7    0.01    0.72
 -10  -7   5  126.29    7.67
 -10  -7   3    0.44    0.30
 -10  -7   1   -0.21    0.74
 -10  -7  -1  182.95    9.52
  10   7   1  184.15    9.90
  10   7   3   -0.83    0.94
 -10  -7  -3   -0.08    0.93
  10   7   5   -1.05    1.04
 -10  -7  -5    0.43    0.49
  10   7   7  431.56   15.97
 -10  -7  -7  431.67   15.30
  10   7   9   -1.20    0.80
 -10  -7  -9   -0.76    1.04
  10   7  11    0.68    1.10
 -10  -7 -11    0.07    0.64
  10   7  13  488.54   17.70
 -10  -7 -13  486.89   17.18
 -10  -7 -15   -0.39    0.69
 -10  -7 -17   -0.31    0.90
 -10  -7 -19   42.12    5.14
  10  -7  21   -0.95    0.94
 -10  -7 -21   -1.70    1.71
  10  -7  23    0.52    1.05
 -10  -7 -23    2.16    1.29
  10  -7  25  238.77   11.05
 -10  -7 -25  242.03   13.01
  10  -7  27    0.37    0.57
 -10  -7 -27   -1.79    1.55
  10  -7  29    0.30    0.56
 -10  -7 -29    0.32    0.88
 -10  -7 -31  105.49    9.03
 -10  -7 -33   -0.82    1.03
 -10  -7 -35   -0.79    1.18
 -10  -7 -37   68.26    7.55
 -10  -7 -39    1.14    1.28
 -10  -7 -41   -2.56    1.48
 -10  -7 -43   22.30    4.54
  10  -8 -44   35.27    5.23
  10  -8 -42    1.40    1.30
  10  -8 -40    0.32    0.85
  10  -8 -38    5.68    2.06
  10  -8 -36   -0.62    1.21
  10  -8 -34   -1.06    0.70
  10  -8 -32  115.94    9.18
 -10  -8  32  116.60    5.34
  10  -8 -30   -1.22    1.53
 -10  -8  30   -1.30    1.07
  10  -8 -28   -1.43    1.45
 -10  -8  28   -0.60    0.64
  10  -8 -26  261.15   13.56
 -10  -8  26  247.83    9.33
 -10  -8  24    0.28    0.64
 -10  -8  22    0.44    0.45
 -10  -8  20   77.42    5.64
 -10  -8  18   -0.47    0.37
 -10  -8  16   -0.38    0.51
 -10  -8  14  198.90    9.57
 -10  -8  12    0.40    0.45
 -10  -8  10    0.80    0.65
 -10  -8   8  120.35    7.79
 -10  -8   6   -0.46    0.51
 -10  -8   4   -0.09    0.74
 -10  -8   2  267.47   12.03
 -10  -8   0   -0.86    0.97
 -10  -8  -2   -3.16    1.36
 -10  -8  -4  541.89   18.00
 -10  -8  -6    1.77    1.29
 -10  -8  -8   -0.87    0.64
 -10  -8 -10  188.26   10.96
 -10  -8 -12   -0.12    0.75
 -10  -8 -14   -0.58    0.82
 -10  -8 -16   81.60    7.54
 -10  -8 -18   -0.50    0.95
 -10  -8 -20   -0.78    0.46
  10  -8  22   97.00    7.41
 -10  -8 -22   92.84    8.31
  10  -8  24   -1.88    1.31
 -10  -8 -24   -1.05    1.15
  10  -8  26   -1.19    1.02
 -10  -8 -26   -1.03    0.60
  10  -8  28  109.77    7.84
 -10  -8 -28  113.56    9.58
 -10  -8 -30    0.48    0.47
 -10  -8 -32   -1.33    1.34
 -10  -8 -34   69.57    7.79
 -10  -8 -36    2.46    1.89
 -10  -8 -38   -0.68    0.95
 -10  -8 -40   20.36    4.37
 -10  -8 -42   -2.03    1.87
  10  -9 -45   -1.08    1.53
  10  -9 -43   -1.81    1.54
  10  -9 -41   12.82    3.36
  10  -9 -39    0.75    1.12
  10  -9 -37   -2.84    1.62
  10  -9 -35   13.55    3.43
  10  -9 -33   -0.72    0.71
  10  -9 -31    0.91    1.17
 -10  -9  31   -0.15    0.65
  10  -9 -29   81.19    8.25
 -10  -9  29   76.21    5.35
  10  -9 -27   -3.22    2.04
 -10  -9  27   -1.01    0.79
  10  -9 -25    0.94    1.35
 -10  -9  25    1.81    1.05
 -10  -9  23  136.81    7.90
 -10  -9  21   -0.23    0.68
 -10  -9  19   -1.00    1.08
 -10  -9  17   -0.36    0.88
 -10  -9  15   -0.96    1.22
 -10  -9  13   -0.27    0.45
 -10  -9  11   64.95    6.03
 -10  -9   9   -1.54    1.24
 -10  -9   7    0.93    1.09
 -10  -9   5  190.66   10.70
 -10  -9   3    1.18    1.01
 -10  -9   1    0.46    0.92
 -10  -9  -1  198.68   11.21
 -10  -9  -3   -0.17    0.51
 -10  -9  -5    0.49    0.75
 -10  -9  -7  159.95   10.44
 -10  -9  -9    0.13    0.52
 -10  -9 -11    0.69    1.13
 -10  -9 -13    6.10    2.02
 -10  -9 -15    1.05    1.01
 -10  -9 -17    1.05    1.82
 -10  -9 -19   64.20    7.21
 -10  -9 -21   -1.81    1.75
 -10  -9 -23    0.12    0.70
 -10  -9 -25   40.29    5.81
 -10  -9 -27   -2.12    1.56
 -10  -9 -29   -1.46    1.70
 -10  -9 -31   22.42    4.56
 -10  -9 -33   -1.99    1.81
 -10  -9 -35   -3.58    2.40
 -10  -9 -37    3.41    1.83
 -10  -9 -39    1.02    0.90
 -10  -9 -41    0.04    1.30
  10 -10 -44   11.58    3.48
  10 -10 -42   -0.08    1.25
  10 -10 -40   -3.25    1.94
  10 -10 -38   18.32    4.30
  10 -10 -36   -1.70    1.41
  10 -10 -34   -2.95    2.22
  10 -10 -32   22.11    4.46
  10 -10 -30   -1.04    1.37
 -10 -10  30   -1.54    1.20
  10 -10 -28   -0.69    0.93
 -10 -10  28    0.40    0.39
  10 -10 -26  110.96    9.86
 -10 -10  26  110.77    7.42
  10 -10 -24   -0.57    1.05
 -10 -10  24    0.09    0.70
 -10 -10  22    0.11    0.54
 -10 -10  20   62.84    5.94
 -10 -10  18   -0.65    1.16
 -10 -10  16   -2.72    1.76
 -10 -10  14   -1.72    1.56
 -10 -10  12   -2.26    1.36
 -10 -10  10   -1.21    1.22
 -10 -10   8   25.08    4.02
 -10 -10   6   -1.78    1.30
 -10 -10   4    2.09    1.18
 -10 -10   2  144.04    9.95
 -10 -10   0    0.34    0.97
 -10 -10  -2    1.13    1.28
 -10 -10  -4  126.53    9.65
 -10 -10  -6   -0.48    1.57
 -10 -10  -8   -0.78    1.33
 -10 -10 -10   86.03    8.19
 -10 -10 -12    1.03    1.21
 -10 -10 -14    2.95    1.94
 -10 -10 -16  105.17    9.35
 -10 -10 -18   -0.57    0.48
 -10 -10 -20    1.37    1.32
 -10 -10 -22   54.73    7.04
 -10 -10 -24   -0.20    0.69
 -10 -10 -26   -1.04    1.30
 -10 -10 -28   64.86    7.93
 -10 -10 -30   -1.31    1.45
 -10 -10 -32   -0.14    0.92
 -10 -10 -34   11.52    3.50
 -10 -10 -36    2.47    1.65
 -10 -10 -38   -1.95    1.85
  10 -11 -43   -0.73    0.79
  10 -11 -41    9.85    3.27
  10 -11 -39   -0.76    0.96
  10 -11 -37    2.00    1.57
  10 -11 -35   25.47    5.16
  10 -11 -33   -1.16    1.47
  10 -11 -31   -1.62    1.34
  10 -11 -29   14.96    3.79
 -10 -11  29   16.46    2.99
  10 -11 -27    0.72    0.84
 -10 -11  27   -1.08    0.82
  10 -11 -25    0.36    1.21
 -10 -11  25   -1.14    0.88
 -10 -11  23   65.56    6.29
  10 -11 -23   65.02    7.85
  10 -11 -21   -1.93    1.63
 -10 -11  21    0.18    0.63
 -10 -11  19    0.76    0.83
 -10 -11  17   28.96    4.31
 -10 -11  15   -1.88    1.50
 -10 -11  13   -1.93    1.25
 -10 -11  11   30.94    4.67
 -10 -11   9   -0.70    0.54
 -10 -11   7   -0.83    0.91
 -10 -11   5   45.96    6.03
 -10 -11   3    1.53    1.45
 -10 -11   1    0.80    1.05
 -10 -11  -1  130.53   10.19
 -10 -11  -3    2.35    1.22
 -10 -11  -5   -1.71    1.82
 -10 -11  -7   22.57    4.34
 -10 -11  -9    1.37    0.72
 -10 -11 -11    0.02    0.68
 -10 -11 -13   81.07    8.69
 -10 -11 -15    1.92    1.53
 -10 -11 -17   -0.88    1.55
 -10 -11 -19   42.37    6.47
 -10 -11 -21    0.56    1.18
 -10 -11 -23    0.00    1.22
 -10 -11 -25   55.66    7.55
 -10 -11 -27   -1.12    1.32
 -10 -11 -29   -2.10    1.86
 -10 -11 -31   12.13    3.56
 -10 -11 -33    0.50    1.36
  10 -12 -36    1.36    1.48
  10 -12 -34    1.78    1.60
  10 -12 -32    6.91    2.62
  10 -12 -30   -1.58    1.61
  10 -12 -28   -0.31    1.49
  10 -12 -26    6.12    2.45
 -10 -12  26    4.42    1.51
  10 -12 -24   -1.73    1.33
 -10 -12  24   -2.37    1.56
  10 -12 -22   -1.18    1.61
 -10 -12  22   -1.27    1.16
  10 -12 -20   28.93    5.51
 -10 -12  20   25.13    4.21
  10 -12 -18    3.38    2.37
 -10 -12  18    0.18    0.68
 -10 -12  16   -0.55    0.86
 -10 -12  14   11.47    2.88
 -10 -12  12    0.37    0.86
 -10 -12  10    1.08    0.53
 -10 -12   8   47.75    6.21
 -10 -12   6   -0.04    0.51
 -10 -12   4   -1.30    1.97
 -10 -12   2   10.85    2.96
 -10 -12   0   -2.08    2.16
 -10 -12  -2   -0.49    0.70
 -10 -12  -4   16.99    3.98
 -10 -12  -6   -2.28    2.04
 -10 -12  -8   -1.73    1.17
 -10 -12 -10    4.72    2.01
 -10 -12 -12   -0.64    1.25
 -10 -12 -14   -1.33    1.47
 -10 -12 -16   33.10    5.69
 -10 -12 -18   -0.82    0.75
 -10 -12 -20   -0.02    0.97
 -10 -12 -22   23.49    5.06
 -10 -12 -24    0.80    1.83
 -10 -12 -26   -0.85    1.71
  10 -13 -27   -1.73    1.34
  10 -13 -25    1.72    1.31
 -10 -13  25   -1.93    1.60
  10 -13 -23   14.58    3.98
 -10 -13  23   12.38    2.94
  10 -13 -21    0.03    0.76
 -10 -13  21   -1.84    1.46
  10 -13 -19   -0.55    0.79
 -10 -13  19    0.75    0.64
  10 -13 -17   19.80    4.67
 -10 -13  17   18.15    3.83
  10 -13 -15    0.00    1.18
 -10 -13  15   -2.61    1.64
  10 -13 -13    2.44    2.40
 -10 -13  13   -1.04    1.28
 -10 -13  11   23.02    4.48
 -10 -13   9   -0.18    0.81
 -10 -13   7    0.83    0.58
 -10 -13   5   27.73    5.03
 -10 -13   3   -2.08    2.10
 -10 -13   1   -2.01    1.75
 -10 -13  -1   15.78    3.88
 -10 -13  -3    1.07    1.32
 -10 -13  -5   -1.77    0.91
 -10 -13  -7   13.05    3.66
 -10 -13  -9   -0.05    0.72
 -10 -13 -11    1.46    1.56
 -10 -13 -13   20.71    4.89
 -10 -13 -15   -0.77    1.37
 -10 -13 -17    1.53    1.55
 -10 -13 -19   36.06    6.45
 -10 -14  22    2.41    1.70
 -10 -14  20   16.15    3.78
 -10 -14  18   -0.68    1.27
  10 -14 -16    1.28    0.68
 -10 -14  16   -0.63    0.49
  10 -14 -14    9.37    3.35
 -10 -14  14   11.50    3.07
  10 -14 -12    5.34    3.02
 -10 -14  12   -1.90    1.59
  10 -14 -10    2.50    2.03
 -10 -14  10   -1.30    1.03
  10 -14  -8   12.64    4.09
 -10 -14   8   14.63    3.78
 -10 -14   6    1.42    0.69
 -10 -14   4   -0.57    1.52
 -10 -14   2   18.25    4.38
 -10 -14   0   -2.14    2.41
 -10 -14  -2   -1.88    1.65
 -10 -14  -4    6.08    2.36
 -10 -14  -6    0.25    0.71
 -10 -14  -8    0.39    0.96
 -10 -14 -10   21.91    5.01
 -10 -15  21   -1.56    1.59
 -10 -15  19    2.50    1.97
 -10 -15  17    1.11    0.95
 -10 -15  15   -3.45    1.98
 -10 -15  13   -1.76    1.57
 -10 -15  11    5.33    2.62
 -10 -15   9   -4.37    2.20
 -10 -15   7   -2.39    1.84
 -10 -15   5    5.46    2.17
 -10 -15   3   -2.27    1.67
 -10 -15   1   -1.02    1.50
  10 -15  19   -2.73    2.22
  11   0 -31   -0.03    0.08
  11   0 -31   -0.22    0.22
  11   0 -29   -0.38    0.23
  11   0 -29   -0.02    0.10
  11   0 -27   -0.09    0.22
  11   0 -25   -0.07    0.19
  11   0 -23    0.52    0.58
  11   0 -21   -0.10    0.28
  11   0 -19   -0.17    0.31
  11   0 -17    0.29    0.50
  11   0 -15    0.97    0.51
  11   0 -13    0.34    0.17
  11   0 -11   -0.07    0.67
  11   0  -9    6.29    1.72
 -11   0   7    0.05    0.38
  11   0  -7    0.83    0.59
 -11   0   5   -0.35    0.28
  11   0  -5    8.53    1.86
 -11   0   3    0.04    0.51
  11   0  -3    9.29    2.34
  11   0  -1    0.10    0.28
 -11   0   1    0.80    1.00
 -11   0  -1   -0.16    0.41
  11   0   1    0.19    0.47
 -11   0  -3   -0.31    0.39
  11   0   3    0.00    0.22
 -11   0  -5    3.00    1.28
  11   0   5   -0.14    0.38
 -11   0  -7   -0.22    0.22
  11   0   7    0.76    0.73
 -11   0  -9   -0.03    0.33
  11   0   9   -0.06    0.21
 -11   0 -11    1.16    0.60
  11   0  11    0.44    0.21
 -11   0 -13    0.35    0.38
  11   0  13   -0.55    0.51
 -11   0 -15   -0.66    0.67
  11   0  15   -0.30    0.39
 -11   0 -17   -0.36    0.50
  11   0  17   -0.46    0.22
 -11   0 -19    2.47    1.79
  11   0  19    0.98    0.97
 -11   0 -21    2.15    1.43
  11   0  21    0.67    0.79
 -11   0 -23    0.54    0.82
  11   0  23    0.62    0.60
 -11   0 -25    2.14    1.23
  11   0  25    0.80    0.81
 -11   0 -27   -0.85    0.69
  11   0  27   -0.76    0.79
 -11   0 -29   -0.71    0.90
  11   0  29    1.27    1.02
 -11   0 -31    0.76    1.01
  11   0  31   -0.05    0.55
 -11   0 -33    1.72    1.42
  11   0  33    1.09    1.12
 -11   0 -35    0.38    0.44
  11   0  35    0.49    0.66
 -11   0 -37    1.10    1.17
 -11   0 -39   -1.29    1.25
  11  -1 -38   -0.43    0.21
  11  -1 -38   -0.40    0.29
  11  -1 -36   -0.33    0.30
  11  -1 -34    0.18    0.24
  11  -1 -32   -0.18    0.17
  11  -1 -30   -0.31    0.44
  11   1 -24   -0.14    0.18
  11   1 -22    8.08    0.87
  11   1 -20    1.30    0.65
  11   1 -18    0.65    0.55
  11   1 -16   71.12    3.22
 -11  -1  14   -0.10    0.24
  11   1 -14    1.03    0.75
 -11  -1  12    0.08    0.43
  11   1 -12    0.68    0.62
 -11  -1  10   87.19    3.99
  11   1 -10   86.65    3.99
  11  -1  -8   -0.74    0.73
 -11  -1   8   -0.40    0.29
  11   1  -8   -0.15    0.19
 -11  -1   6    0.97    0.80
  11  -1  -6   -0.17    0.53
  11   1  -6   -0.06    0.46
  11  -1  -4   48.50    3.34
 -11  -1   4   64.24    3.98
  11   1  -4   60.15    3.67
  11  -1  -2    0.06    0.50
  11   1  -2   -0.37    0.54
 -11  -1   2   -0.07    0.31
  11   1   0    0.21    0.46
 -11  -1   0    0.28    0.63
  11  -1   2   13.85    1.91
 -11   1  -2   12.94    1.91
 -11  -1  -2   12.76    1.87
  11   1   2   20.39    2.35
  11  -1   4    0.63    0.71
 -11   1  -4    0.45    0.78
  11   1   4    0.27    0.44
 -11  -1  -4    0.13    0.34
 -11   1  -6    0.62    1.14
  11  -1   6   -0.76    0.54
  11   1   6    0.20    0.21
 -11  -1  -6    0.48    0.71
 -11   1  -8    0.27    0.78
  11  -1   8   -0.27    0.51
 -11  -1  -8    0.19    0.22
  11   1   8    1.08    0.65
  11  -1  10    0.24    0.55
 -11  -1 -10   -0.30    0.32
  11   1  10    0.23    0.49
 -11   1 -12    0.68    0.75
 -11  -1 -12   -0.55    0.69
  11  -1  12   -0.03    0.38
  11   1  12   -0.30    0.68
 -11   1 -14    0.63    1.01
  11  -1  14   -0.27    0.49
 -11  -1 -14   -0.30    0.75
  11   1  14    0.42    0.50
 -11  -1 -16   -0.19    0.55
  11  -1  16   -0.23    0.23
  11   1  16   -0.03    0.34
  11  -1  18    0.89    0.69
 -11  -1 -18   -0.36    0.42
  11   1  18   -0.38    0.40
 -11   1 -20   12.34    2.19
  11  -1  20   11.85    2.07
 -11  -1 -20    8.91    1.85
  11   1  20   10.75    1.95
 -11   1 -22    0.86    0.85
 -11  -1 -22   -0.37    0.45
  11  -1  22    0.40    0.54
  11   1  22   -0.23    0.65
 -11  -1 -24    0.67    0.89
 -11   1 -24    0.26    0.56
  11  -1  24    0.42    0.75
  11   1  24    1.24    0.78
 -11  -1 -26   59.37    5.16
 -11   1 -26   65.59    5.15
  11   1  26   60.72    5.13
  11  -1  26   59.73    4.80
 -11   1 -28    1.05    0.88
 -11  -1 -28    0.55    0.85
  11   1  28   -0.58    0.82
  11  -1  28   -0.15    0.53
 -11  -1 -30    0.78    1.07
 -11   1 -30    1.27    0.86
  11   1  30    0.34    1.02
  11  -1  30    0.54    0.89
 -11  -1 -32   49.74    5.04
 -11   1 -32   46.29    4.48
  11   1  32   46.84    4.74
  11  -1  32   51.52    4.67
 -11  -1 -34    0.79    1.39
  11   1  34    0.88    0.97
  11  -1  34    1.23    0.95
  11   1  36   -0.74    0.75
  11  -1  36    0.37    0.53
 -11  -1 -38    9.90    2.36
 -11  -1 -40   -0.21    0.68
  11  -2 -41   -0.10    0.42
  11  -2 -39   -0.50    0.50
  11  -2 -37   10.58    1.58
  11  -2 -35    0.30    0.42
  11  -2 -33    0.57    0.41
  11  -2 -31    3.10    0.91
  11   2 -23    0.05    0.13
  11   2 -21    0.19    0.20
 -11  -2  19   32.78    1.97
  11   2 -19   28.73    1.84
 -11  -2  17   -0.33    0.30
  11   2 -17    0.17    0.27
 -11  -2  15   -0.08    0.25
  11   2 -15    0.14    0.26
 -11  -2  13  179.04    5.56
  11   2 -13  177.23    5.45
 -11  -2  11    0.15    0.17
  11   2 -11   -0.25    0.41
 -11  -2   9   -0.05    0.35
  11   2  -9   -0.12    0.26
 -11  -2   7  353.17    8.78
  11   2  -7  351.82    8.58
 -11  -2   5   -0.47    0.38
  11   2  -5    0.47    0.61
 -11  -2   3   -0.34    0.41
  11   2  -3    0.40    0.53
  11   2  -1  112.67    5.34
 -11  -2   1  107.99    5.25
  11  -2   1    0.61    0.58
 -11  -2  -1   -0.28    0.35
  11   2   1    0.75    0.55
  11  -2   3    0.89    1.20
 -11  -2  -3    0.19    0.82
  11   2   3    0.48    0.64
  11  -2   5   -0.16    0.48
 -11  -2  -5    0.02    0.31
  11   2   5    0.72    0.79
 -11  -2  -7    0.06    0.37
  11   2   7   -0.03    0.21
  11  -2   9    0.05    0.51
 -11  -2  -9   -0.38    0.32
  11   2   9    0.47    0.62
  11  -2  11  282.65    9.42
 -11  -2 -11  287.27    9.98
  11   2  11  286.32    9.89
  11  -2  13    2.02    1.39
 -11  -2 -13    0.76    1.20
  11   2  13    2.43    1.23
 -11  -2 -15    1.76    1.38
  11  -2  15    0.36    0.55
  11   2  15    0.41    0.53
 -11  -2 -17   -0.93    0.75
  11  -2  17   -0.30    0.56
  11   2  17    0.25    0.46
 -11  -2 -19    0.15    0.47
  11  -2  19   -0.53    0.70
  11   2  19   -0.35    0.25
 -11  -2 -21   -0.50    0.66
  11  -2  21   -0.93    0.43
  11   2  21   -0.28    0.65
 -11  -2 -23   -0.22    0.68
  11  -2  23   -0.80    0.69
  11   2  23   -0.47    0.46
  11  -2  25    0.57    0.62
 -11  -2 -25    0.18    0.68
  11   2  25    0.43    0.54
 -11  -2 -27   -1.05    0.33
  11  -2  27    0.34    0.82
  11   2  27   -0.67    0.93
 -11  -2 -29    0.51    0.53
  11   2  29   -0.29    0.75
  11  -2  29    0.27    0.63
 -11  -2 -31   -0.44    0.35
  11   2  31    1.15    0.91
  11  -2  31   -0.65    0.89
 -11  -2 -33   -0.44    0.44
  11   2  33   -0.73    0.81
  11  -2  33   -0.44    0.62
 -11  -2 -35   -0.43    0.44
  11   2  35    0.47    0.71
  11  -2  35   -0.18    0.58
 -11  -2 -37    1.21    0.99
  11   2  37   -0.79    0.75
 -11  -2 -39    0.14    0.85
 -11  -2 -41   -1.18    0.95
  11  -3 -42   -0.09    0.38
  11  -3 -40    2.53    1.14
  11  -3 -38   -0.62    0.59
  11  -3 -36   -0.12    0.60
  11  -3 -34    3.20    0.96
  11  -3 -32    1.50    1.00
  11  -3 -30    2.10    1.35
 -11  -3  22   37.69    2.04
  11   3 -20   -0.31    0.30
 -11  -3  20   -0.30    0.14
 -11  -3  18   -0.42    0.39
  11   3 -18   -0.49    0.46
 -11  -3  16  141.41    5.01
  11   3 -16  135.52    4.92
 -11  -3  14   -0.30    0.37
  11   3 -14   -0.15    0.42
 -11  -3  12    0.66    0.40
  11   3 -12    0.50    0.47
  11   3 -10  227.44    7.07
 -11  -3  10  226.66    7.12
 -11  -3   8    0.35    0.67
  11   3  -8    0.49    0.71
 -11  -3   6    0.65    0.45
  11   3  -6   -0.08    0.44
 -11  -3   4    1.76    0.57
  11   3  -4    1.83    0.46
 -11  -3   2    0.17    0.66
  11   3  -2    1.10    0.75
 -11  -3   0   -0.26    0.69
  11   3   0    0.34    0.39
 -11  -3  -2   -0.48    0.87
  11   3   2    0.12    0.19
 -11  -3  -4   -0.37    0.67
  11   3   4    0.01    0.28
  11  -3   6   -0.04    0.72
 -11  -3  -6   -0.52    0.79
  11   3   6   -0.10    0.33
  11  -3   8  227.40    8.60
  11   3   8  227.72    8.97
 -11  -3  -8  221.67    8.88
 -11  -3 -10    3.41    1.63
  11   3  10    0.82    1.26
  11  -3  12    0.87    0.69
 -11  -3 -12   -0.85    0.74
  11   3  12   -0.47    0.55
  11  -3  14   72.19    5.04
  11   3  14   69.95    5.32
 -11  -3 -14   69.36    5.26
  11  -3  16    0.84    0.88
 -11  -3 -16    1.53    1.33
  11   3  16   -0.31    0.63
  11  -3  18    0.33    0.49
 -11  -3 -18    0.67    0.93
  11   3  18    0.68    0.58
  11  -3  20    0.35    0.43
 -11  -3 -20    0.86    0.90
  11   3  20   -0.19    0.77
  11  -3  22    1.26    0.88
 -11  -3 -22    0.44    0.88
  11   3  22    0.16    0.39
  11  -3  24   -0.69    0.71
 -11  -3 -24   -0.73    0.82
  11   3  24   -0.18    0.46
  11  -3  26    8.08    1.79
 -11  -3 -26    6.60    1.75
  11   3  26    8.84    2.09
  11  -3  28   -0.16    0.43
 -11  -3 -28    0.65    1.16
  11   3  28    0.07    0.48
 -11  -3 -30   -1.13    1.14
  11  -3  30   -0.59    0.30
  11   3  30    0.11    0.64
 -11  -3 -32   45.96    5.17
  11   3  32   46.17    5.21
  11  -3  32   46.41    4.32
 -11  -3 -34   -0.12    0.65
  11   3  34    0.57    0.80
  11  -3  34   -0.31    0.29
 -11  -3 -36   -0.01    0.46
 -11  -3 -38   -0.55    1.04
 -11  -3 -40    1.67    1.38
 -11  -3 -42    1.16    1.04
  11  -4 -43    1.88    0.76
  11  -4 -41    0.42    0.36
  11  -4 -39    0.24    0.84
  11  -4 -37   -0.63    0.56
  11  -4 -35   -0.42    0.71
  11  -4 -33    0.44    0.73
  11  -4 -31    5.62    1.40
 -11  -4  25    7.42    0.89
 -11  -4  23   -0.43    0.39
 -11  -4  21   -0.61    0.42
 -11  -4  19    2.79    0.76
 -11  -4  17    0.12    0.33
  11   4 -17    0.08    0.47
  11   4 -15   -0.05    0.21
 -11  -4  15   -0.30    0.67
  11   4 -13   -0.47    0.59
 -11  -4  13   -0.05    0.52
  11   4 -11    0.74    0.64
 -11  -4  11    0.41    0.55
  11   4  -9    0.11    0.60
 -11  -4   9   -0.21    0.23
  11   4  -7   75.19    4.71
 -11  -4   7   74.69    4.59
  11   4  -5   -0.07    0.46
 -11  -4   5    0.92    0.84
  11   4  -3    0.30    0.30
 -11  -4   3    0.80    0.64
  11   4  -1   -0.53    0.70
 -11  -4   1    0.64    0.42
  11   4   1    1.71    1.06
 -11  -4  -1    1.44    1.16
  11   4   3   -0.10    0.23
 -11  -4  -3    0.35    0.28
  11   4   5    6.92    1.56
 -11  -4  -5    7.17    1.58
  11   4   7    0.87    0.92
 -11  -4  -7    1.79    1.51
  11   4   9    0.52    0.89
 -11  -4  -9    1.12    1.05
  11  -4  11  183.17    8.22
  11   4  11  193.15    9.14
 -11  -4 -11  185.82    8.80
  11  -4  13    1.00    0.98
  11   4  13    0.03    0.40
 -11  -4 -13    0.48    0.56
  11  -4  15    0.69    0.43
  11   4  15   -0.85    0.90
 -11  -4 -15   -1.25    0.94
  11  -4  17   38.80    3.95
  11   4  17   45.85    4.80
 -11  -4 -17   41.82    4.46
  11  -4  19    0.50    0.79
  11   4  19    0.77    1.06
  11  -4  21    4.84    2.02
  11   4  21    6.63    2.62
 -11  -4 -21   12.08    3.28
 -11  -4 -23    0.84    0.68
  11   4  23   -1.31    1.26
  11  -4  23   -0.04    0.52
 -11  -4 -25   -0.50    0.36
  11  -4  25    0.03    0.35
  11   4  25    0.37    0.51
 -11  -4 -27    0.76    1.31
  11  -4  27    0.64    0.76
  11   4  27    0.65    0.72
  11  -4  29    2.34    0.93
 -11  -4 -29    0.66    0.75
  11   4  29    0.11    0.57
 -11  -4 -31   -1.46    0.88
  11  -4  31    0.23    0.43
  11  -4  33   -0.10    0.53
 -11  -4 -33    0.84    1.33
 -11  -4 -35    6.58    1.90
 -11  -4 -37   -0.30    1.00
 -11  -4 -39   -0.44    0.88
 -11  -4 -41   -0.43    1.20
 -11  -4 -43   -0.42    0.90
  11  -5 -44    0.42    1.12
  11  -5 -42    0.78    0.75
  11  -5 -40    0.11    0.84
  11  -5 -38    1.14    1.22
  11  -5 -36   -0.95    0.73
  11  -5 -34   -1.22    1.01
  11  -5 -32   -0.43    0.97
  11  -5 -30    1.06    0.89
 -11  -5  28   -0.12    0.21
 -11  -5  26    0.07    0.25
 -11  -5  24    0.89    0.64
 -11  -5  22   16.73    1.90
 -11  -5  20   -0.63    0.45
 -11  -5  18    0.79    0.75
 -11  -5  16   47.67    3.52
  11   5 -14    0.76    0.67
 -11  -5  14    0.47    0.37
  11   5 -12    0.61    0.61
 -11  -5  12   -0.43    0.73
  11   5 -10    0.96    0.30
 -11  -5  10    0.94    0.50
  11   5  -8    0.10    0.59
 -11  -5   8    0.13    0.51
  11   5  -6    0.58    0.63
 -11  -5   6   -0.48    0.42
  11   5  -4   -0.24    0.49
 -11  -5   4    0.37    0.36
  11   5  -2    0.40    0.48
 -11  -5   2    0.10    0.33
  11   5   0    1.05    1.01
 -11  -5   0    0.88    0.98
  11   5   2   18.61    2.77
 -11  -5  -2   18.16    2.56
  11   5   4    0.30    0.76
 -11  -5  -4    1.03    1.21
  11   5   6    0.92    1.05
 -11  -5  -6    1.74    1.26
  11   5   8   38.07    4.21
 -11  -5  -8   36.86    4.00
  11   5  10   -0.09    0.60
 -11  -5 -10    0.99    0.82
  11   5  12    1.17    1.14
 -11  -5 -12    0.66    0.98
  11  -5  14   23.28    3.06
  11   5  14   20.61    3.14
 -11  -5 -14   19.93    3.09
  11  -5  16    2.55    1.48
  11   5  16    2.20    1.44
 -11  -5 -16    1.32    1.23
  11  -5  18    3.76    1.58
  11   5  18    2.25    1.72
 -11  -5 -18    6.03    2.52
  11  -5  20   -0.58    0.82
  11   5  20   -0.54    1.08
 -11  -5 -20    1.83    0.96
  11  -5  22    1.49    1.02
  11   5  22   -0.11    0.59
 -11  -5 -22    1.21    0.94
 -11  -5 -24   -0.25    0.75
  11   5  24    1.37    0.91
  11  -5  24    0.01    0.54
  11  -5  26   -0.26    0.50
 -11  -5 -26   -1.22    1.13
 -11  -5 -28    1.72    1.82
  11  -5  28    0.89    0.80
 -11  -5 -30    0.48    0.94
  11  -5  30    1.26    1.08
  11  -5  32    0.48    0.24
 -11  -5 -32    0.45    0.42
 -11  -5 -34    1.75    1.47
 -11  -5 -36    0.17    1.00
 -11  -5 -38    8.74    2.72
 -11  -5 -40    0.07    0.72
 -11  -5 -42    2.38    1.82
  11  -6 -45    0.16    0.77
  11  -6 -43   -0.08    0.32
  11  -6 -41    0.78    0.91
  11  -6 -39    1.00    0.95
  11  -6 -37   29.24    4.10
  11  -6 -35   -0.85    0.95
  11  -6 -33   -0.99    0.89
 -11  -6  31   -0.11    0.28
  11  -6 -31   -0.10    1.12
 -11  -6  29   -0.68    0.44
  11  -6 -29    0.16    0.52
 -11  -6  27    0.16    0.40
 -11  -6  25   11.38    1.62
 -11  -6  23    1.78    1.01
 -11  -6  21    2.42    1.12
 -11  -6  19   20.66    2.47
 -11  -6  17    1.08    0.98
 -11  -6  15   -0.01    0.26
 -11  -6  13    6.81    1.54
 -11  -6  11    2.25    1.33
  11   6  -9    0.25    0.64
 -11  -6   9    0.74    0.64
  11   6  -7   -0.30    0.70
 -11  -6   7   -0.49    0.91
  11   6  -5    0.21    0.80
 -11  -6   5    1.37    1.14
  11   6  -3   -0.24    0.39
 -11  -6   3   -0.20    0.66
 -11  -6   1   19.39    2.84
  11   6  -1   17.33    2.83
  11   6   1   -0.74    0.79
 -11  -6  -1   -0.57    0.59
  11   6   3    0.03    0.41
 -11  -6  -3    0.75    0.71
  11   6   5  192.74    9.88
 -11  -6  -5  181.64    9.40
  11   6   7    2.50    1.76
 -11  -6  -7    1.25    1.65
  11   6   9    0.34    0.85
 -11  -6  -9   -0.10    0.80
  11   6  11    9.45    2.21
 -11  -6 -11    9.95    2.07
  11   6  13    4.93    2.52
 -11  -6 -13    3.32    2.34
  11   6  15    1.68    1.55
 -11  -6 -15    3.29    1.73
  11  -6  17    0.95    0.63
  11   6  17    0.59    0.29
 -11  -6 -17    0.27    0.71
  11  -6  19   -0.66    0.97
  11   6  19   -0.90    1.39
 -11  -6 -19   -0.38    0.48
  11  -6  21   -0.13    0.29
 -11  -6 -21   -1.52    1.36
  11  -6  23  102.75    7.13
 -11  -6 -23  106.39    8.17
  11  -6  25    1.66    1.20
 -11  -6 -25    0.08    1.24
  11  -6  27    0.89    1.10
 -11  -6 -27    0.78    0.82
  11  -6  29    0.13    0.51
 -11  -6 -29   -1.01    1.57
 -11  -6 -31    4.05    1.96
  11  -6  31    1.39    0.87
 -11  -6 -33    0.20    0.37
 -11  -6 -35   10.78    2.72
 -11  -6 -37    0.53    1.55
 -11  -6 -39    1.01    1.11
 -11  -6 -41    5.10    2.19
 -11  -6 -43    2.26    1.39
  11  -7 -44    1.91    1.29
  11  -7 -42   -0.42    0.89
  11  -7 -40    4.08    1.94
  11  -7 -38    0.94    1.24
  11  -7 -36    2.49    1.80
 -11  -7  34    3.59    0.53
  11  -7 -34    2.55    1.15
 -11  -7  32    0.00    0.29
  11  -7 -32   -0.31    0.88
 -11  -7  30    1.43    0.74
  11  -7 -30   -0.48    0.56
 -11  -7  28    5.53    1.18
 -11  -7  26    0.15    0.38
 -11  -7  24    0.72    0.71
 -11  -7  22    3.26    1.02
 -11  -7  20    1.30    1.02
 -11  -7  18    1.24    1.05
 -11  -7  16    0.22    0.33
 -11  -7  14    3.34    1.65
 -11  -7  12    0.75    0.75
 -11  -7  10   -0.41    0.85
 -11  -7   8    3.12    1.84
 -11  -7   6   -0.37    0.58
 -11  -7   4   16.06    2.81
  11   7  -2    1.11    1.11
 -11  -7   2    2.26    1.29
  11   7   0    0.00    0.62
 -11  -7   0    0.57    1.16
  11   7   2   22.23    3.47
 -11  -7  -2   20.64    3.27
  11   7   4    0.42    0.93
 -11  -7  -4    0.00    0.73
  11   7   6    2.24    1.64
 -11  -7  -6    3.48    1.83
  11   7   8    8.33    2.19
 -11  -7  -8    6.99    2.15
  11   7  10    1.44    1.56
 -11  -7 -10    2.51    1.95
  11   7  12    5.86    2.41
 -11  -7 -12    3.69    2.40
 -11  -7 -14   -1.48    1.18
 -11  -7 -16   -0.44    0.85
 -11  -7 -18   -0.77    1.01
  11  -7  20    2.43    0.86
 -11  -7 -20    3.29    1.08
  11  -7  22    0.80    1.02
 -11  -7 -22   -0.77    0.64
  11  -7  24    2.90    1.70
 -11  -7 -24   -1.41    0.74
  11  -7  26   -0.68    0.45
 -11  -7 -26   -1.18    1.59
  11  -7  28    2.46    1.49
 -11  -7 -28    2.67    2.03
 -11  -7 -30    2.10    0.98
 -11  -7 -32    1.96    1.23
 -11  -7 -34    0.04    0.92
 -11  -7 -36   -0.36    0.88
 -11  -7 -38    1.06    1.29
 -11  -7 -40   -0.90    1.09
 -11  -7 -42    1.25    1.34
  11  -8 -45    1.92    1.48
  11  -8 -43   -0.56    0.53
  11  -8 -41    0.70    1.12
  11  -8 -39    0.23    0.91
  11  -8 -37    0.44    0.69
  11  -8 -35    1.31    1.43
 -11  -8  33    0.94    0.65
  11  -8 -33    4.40    2.35
  11  -8 -31   -1.15    1.45
 -11  -8  31   -0.96    0.81
  11  -8 -29    0.96    0.81
 -11  -8  29   -0.82    0.74
 -11  -8  27    1.54    0.97
 -11  -8  25   30.11    3.28
 -11  -8  23   -1.00    0.71
 -11  -8  21    0.94    0.78
 -11  -8  19    4.11    1.18
 -11  -8  17   -0.65    0.37
 -11  -8  15    0.36    0.67
 -11  -8  13   -0.49    0.72
 -11  -8  11    1.76    1.34
 -11  -8   9    0.92    0.83
 -11  -8   7    8.39    2.06
 -11  -8   5    2.93    1.68
 -11  -8   3    2.01    1.57
 -11  -8   1    7.98    2.24
 -11  -8  -1    1.19    1.11
 -11  -8  -3    3.02    2.13
 -11  -8  -5   -0.58    0.99
 -11  -8  -7    1.28    1.37
 -11  -8  -9    1.38    1.43
 -11  -8 -11   25.41    4.09
 -11  -8 -13    0.39    0.52
 -11  -8 -15   -0.47    1.25
 -11  -8 -17   23.40    4.12
 -11  -8 -19    2.29    1.88
  11  -8  21   -0.33    0.76
 -11  -8 -21   -1.28    1.20
  11  -8  23   -0.50    0.72
 -11  -8 -23   -2.35    1.85
  11  -8  25    1.17    1.36
 -11  -8 -25    0.25    1.05
  11  -8  27    0.33    0.70
 -11  -8 -27    2.28    1.65
 -11  -8 -29   11.11    2.94
 -11  -8 -31   -0.60    0.85
 -11  -8 -33    2.64    1.49
 -11  -8 -35    0.15    0.75
 -11  -8 -37   -1.55    1.77
 -11  -8 -39   -2.55    1.79
 -11  -8 -41    1.59    1.46
 -11  -8 -43    3.17    2.00
  11  -9 -44    1.59    0.76
  11  -9 -42   -0.54    1.11
  11  -9 -40    4.60    1.93
  11  -9 -38   -0.17    0.78
  11  -9 -36    0.04    0.72
  11  -9 -34   -1.02    1.20
  11  -9 -32    6.17    2.69
 -11  -9  32    0.86    0.98
  11  -9 -30    0.91    1.21
 -11  -9  30    0.31    0.74
  11  -9 -28   -2.15    1.28
 -11  -9  28   -0.41    0.70
  11  -9 -26    3.57    2.20
 -11  -9  26   -0.27    0.65
 -11  -9  24    0.95    0.86
 -11  -9  22   20.20    3.07
 -11  -9  20    0.18    0.77
 -11  -9  18   -0.66    0.87
 -11  -9  16    0.15    0.53
 -11  -9  14   -0.19    0.66
 -11  -9  12   -0.51    0.90
 -11  -9  10    9.38    2.14
 -11  -9   8    3.58    1.74
 -11  -9   6    1.56    1.38
 -11  -9   4   27.24    3.97
 -11  -9   2    3.26    2.05
 -11  -9   0    1.73    1.68
 -11  -9  -2   16.95    3.33
 -11  -9  -4    0.63    1.45
 -11  -9  -6    1.15    1.35
 -11  -9  -8   -0.25    1.01
 -11  -9 -10    0.14    0.65
 -11  -9 -12   -0.17    0.42
 -11  -9 -14   37.88    5.39
 -11  -9 -16   10.74    3.64
 -11  -9 -18   -1.08    1.32
 -11  -9 -20    5.30    2.19
 -11  -9 -22    0.06    1.15
 -11  -9 -24   -0.48    0.92
 -11  -9 -26    0.79    0.73
 -11  -9 -28    3.21    2.33
 -11  -9 -30   -1.18    1.29
 -11  -9 -32   -2.47    1.82
 -11  -9 -34   -0.94    0.92
 -11  -9 -36    1.01    1.12
 -11  -9 -38   -2.56    2.19
 -11  -9 -40   -0.43    0.87
 -11  -9 -42    4.48    2.65
  11 -10 -45   -1.81    1.46
  11 -10 -43    2.66    1.25
  11 -10 -41    0.29    0.59
  11 -10 -39    0.50    0.82
  11 -10 -37    1.03    0.79
  11 -10 -35   -0.75    1.20
  11 -10 -33    1.62    1.30
  11 -10 -31   -0.01    0.75
  11 -10 -29    0.32    0.74
 -11 -10  29    0.66    0.87
  11 -10 -27    3.23    2.13
 -11 -10  27    0.22    0.54
  11 -10 -25   -0.74    0.69
 -11 -10  25   -0.18    0.43
 -11 -10  23    0.20    0.79
 -11 -10  21    1.20    1.14
 -11 -10  19   -1.24    1.32
 -11 -10  17   -0.46    0.90
 -11 -10  15   -2.99    1.91
 -11 -10  13    4.38    1.48
 -11 -10  11    1.70    1.63
 -11 -10   9   -0.58    0.85
 -11 -10   7   12.04    2.68
 -11 -10   5    3.27    2.22
 -11 -10   3    1.04    1.25
 -11 -10   1   -0.03    1.11
 -11 -10  -1    0.89    1.53
 -11 -10  -3   -0.55    0.78
 -11 -10  -5    9.39    2.77
 -11 -10  -7   -1.54    1.16
 -11 -10  -9    0.19    0.73
 -11 -10 -11   34.58    5.38
 -11 -10 -13    3.43    2.29
 -11 -10 -15    1.28    2.04
 -11 -10 -17    4.12    1.67
 -11 -10 -19    2.04    1.66
 -11 -10 -21    1.20    1.07
 -11 -10 -23    4.90    2.16
 -11 -10 -25   -1.14    1.50
 -11 -10 -27    1.32    0.65
 -11 -10 -29   -0.62    1.48
 -11 -10 -31   -2.51    1.92
 -11 -10 -33   -1.27    1.56
 -11 -10 -35    2.64    1.03
 -11 -10 -37    4.47    2.89
  11 -11 -42   -0.12    1.26
  11 -11 -40    1.68    1.53
  11 -11 -38    3.40    2.33
  11 -11 -36    0.29    0.78
  11 -11 -34   -0.41    0.55
  11 -11 -32   -2.03    1.85
  11 -11 -30   -1.74    1.41
  11 -11 -28   -3.03    1.97
 -11 -11  28   -0.59    0.87
  11 -11 -26   -0.32    0.87
 -11 -11  26    0.76    0.33
  11 -11 -24    2.51    2.20
 -11 -11  24    0.80    1.22
  11 -11 -22    0.32    0.75
 -11 -11  22   -1.74    1.39
 -11 -11  20    2.82    1.54
 -11 -11  18    0.57    0.91
 -11 -11  16   -1.04    1.25
 -11 -11  14   -1.13    1.54
 -11 -11  12   -1.15    1.65
 -11 -11  10   27.33    4.46
 -11 -11   8    0.06    0.74
 -11 -11   6   -0.14    1.00
 -11 -11   4   14.30    3.13
 -11 -11   2    0.62    0.88
 -11 -11   0    2.33    1.69
 -11 -11  -2    9.40    2.53
 -11 -11  -4   -2.11    1.49
 -11 -11  -6   -1.36    1.59
 -11 -11  -8   11.24    3.16
 -11 -11 -10    3.72    2.08
 -11 -11 -12    0.17    1.11
 -11 -11 -14   13.87    3.35
 -11 -11 -16    2.00    1.69
 -11 -11 -18    1.90    1.59
 -11 -11 -20    0.02    0.46
 -11 -11 -22   -0.45    1.68
 -11 -11 -24    1.46    1.86
 -11 -11 -26    0.63    1.03
 -11 -11 -28   -1.06    1.42
 -11 -11 -30    0.99    1.53
 -11 -11 -32   -1.62    1.91
  11 -12 -37    0.96    0.59
  11 -12 -35   -0.91    1.27
  11 -12 -33    0.79    1.35
  11 -12 -31   -2.55    1.75
  11 -12 -29    1.01    1.02
  11 -12 -27   -1.69    2.05
 -11 -12  27    0.46    0.62
  11 -12 -25   -1.34    1.82
 -11 -12  25   -0.65    0.84
  11 -12 -23    2.01    1.59
 -11 -12  23   -0.65    1.18
  11 -12 -21    1.27    1.42
 -11 -12  21   -0.15    0.56
  11 -12 -19   -0.21    1.31
 -11 -12  19   -0.05    0.58
 -11 -12  17    1.80    1.44
 -11 -12  15    0.03    0.89
 -11 -12  13   -1.63    1.83
 -11 -12  11    1.64    1.35
 -11 -12   9   -0.63    0.61
 -11 -12   7    1.03    0.88
 -11 -12   5   -1.40    1.47
 -11 -12   3   -2.23    1.88
 -11 -12   1   -0.39    1.20
 -11 -12  -1    0.73    0.95
 -11 -12  -3   -1.77    1.72
 -11 -12  -5    7.43    2.50
 -11 -12  -7    1.80    1.91
 -11 -12  -9   -0.38    1.27
 -11 -12 -11    7.24    2.56
 -11 -12 -13    0.31    1.49
 -11 -12 -15    3.96    1.89
 -11 -12 -17   -0.47    0.83
 -11 -12 -19    0.57    1.60
 -11 -12 -21    0.78    0.88
 -11 -12 -23    2.12    1.75
 -11 -12 -25   -2.95    0.61
  11 -13 -28   -2.08    1.76
  11 -13 -26    0.39    0.97
  11 -13 -24    2.78    1.86
 -11 -13  24    1.43    1.19
  11 -13 -22    0.21    1.58
 -11 -13  22    0.90    0.96
  11 -13 -20    4.18    2.58
 -11 -13  20    1.14    1.10
  11 -13 -18   -0.76    1.10
 -11 -13  18   -0.37    1.06
  11 -13 -16    0.21    0.82
 -11 -13  16   -1.59    1.41
 -11 -13  14   -0.71    0.50
 -11 -13  12   -1.44    1.63
 -11 -13  10    2.02    0.86
 -11 -13   8    1.74    1.19
 -11 -13   6    1.59    1.58
 -11 -13   4   -0.22    1.36
 -11 -13   2   -0.69    1.67
 -11 -13   0   -1.77    1.69
 -11 -13  -2   -0.55    1.19
 -11 -13  -4    3.67    2.36
 -11 -13  -6    0.32    0.96
 -11 -13  -8    6.01    2.32
 -11 -13 -10    1.38    1.29
 -11 -13 -12   -0.77    1.40
 -11 -13 -14   -0.61    0.99
 -11 -13 -16    3.55    2.18
 -11 -13 -18    1.57    2.17
 -11 -14  23    4.20    2.10
 -11 -14  21    0.35    1.00
 -11 -14  19    2.27    1.69
  11 -14 -17   -1.01    0.71
 -11 -14  17   -0.25    0.72
  11 -14 -15    0.39    0.63
 -11 -14  15   -0.09    1.02
  11 -14 -13   -0.10    1.22
 -11 -14  13   -2.09    1.79
  11 -14 -11    2.05    1.74
 -11 -14  11   -1.10    1.19
 -11 -14   9   -2.13    1.60
 -11 -14   7    4.72    2.31
 -11 -14   5   -0.81    1.13
 -11 -14   3   -0.44    0.66
 -11 -14   1   -0.61    1.57
 -11 -14  -1    0.43    0.66
 -11 -14  -3   -0.41    0.99
 -11 -14  -5    1.94    2.03
 -11 -14  -7    0.10    0.99
 -11 -14  -9    2.31    2.14
 -11 -15  20    1.20    1.02
 -11 -15  18    0.70    1.30
 -11 -15  16    1.58    1.59
 -11 -15  14    0.63    1.38
 -11 -15  12   -0.67    1.41
 -11 -15  10    0.80    1.21
 -11 -15   8   -0.17    1.02
 -11 -15   6    2.82    1.71
 -11 -15   4   -4.49    2.91
 -11 -15   2    0.73    0.62
  12   0 -32   -0.36    0.22
  12   0 -32   -0.20    0.18
  12   0 -30    6.56    0.80
  12   0 -30    7.31    0.86
  12   0 -28    0.12    0.28
  12   0 -26    0.06    0.26
  12   0 -24  386.87    7.62
  12   0 -22    0.04    0.17
  12   0 -20    0.49    0.50
  12   0 -18  481.70    9.24
  12   0 -16   -0.21    0.32
  12   0 -14    0.28    0.33
  12   0 -12  765.74   12.45
  12   0 -10   -0.35    0.38
  12   0  -8    0.09    0.57
 -12   0   8   -1.11    0.58
 -12   0   6 2263.40   22.85
  12   0  -6 2268.99   22.68
 -12   0   4   -0.33    0.51
  12   0  -4   -0.34    0.22
  12   0  -2    0.11    0.32
 -12   0   2    1.51    1.30
 -12   0   0  195.49    7.26
  12   0   0  197.98    7.08
 -12   0  -2    0.77    0.50
  12   0   2   -0.12    0.48
 -12   0  -4    0.07    0.29
  12   0   4   -0.15    0.30
 -12   0  -6 1302.19   19.75
  12   0   6 1352.97   19.95
 -12   0  -8    1.35    0.94
  12   0   8   -0.09    0.27
 -12   0 -10   -1.07    0.84
  12   0  10   -0.13    0.19
 -12   0 -12   27.80    3.08
  12   0  12   28.85    3.06
 -12   0 -14   -0.11    0.26
  12   0  14   -0.95    0.59
 -12   0 -16    0.13    0.31
  12   0  16   -0.49    0.56
 -12   0 -18  706.80   16.46
  12   0  18  705.81   16.16
 -12   0 -20    0.23    0.34
  12   0  20   -0.42    0.72
 -12   0 -22   -0.04    0.42
  12   0  22   -0.11    0.61
 -12   0 -24  301.66   11.49
  12   0  24  300.71   11.08
 -12   0 -26   -0.54    0.94
  12   0  26   -1.20    0.93
 -12   0 -28   -0.70    0.52
  12   0  28   -0.95    0.86
 -12   0 -30  288.69   11.81
  12   0  30  275.40   11.24
 -12   0 -32   -0.48    0.44
  12   0  32   -1.03    1.06
 -12   0 -34    0.31    0.41
  12   0  34   -1.07    0.95
 -12   0 -36  211.91   10.44
  12   0  36  195.31    9.91
 -12   0 -38   -0.14    0.55
 -12   0 -40   -0.59    0.89
  12  -1 -39   91.66    3.09
  12  -1 -39   89.98    2.96
  12  -1 -37   -0.86    0.53
  12  -1 -37   -0.01    0.29
  12  -1 -35   -0.09    0.41
  12  -1 -35   -0.99    0.58
  12  -1 -33   43.91    2.81
  12  -1 -31   -0.44    0.47
  12   1 -25   -0.13    0.11
  12   1 -23   -0.16    0.15
  12   1 -21  474.29    7.82
  12   1 -19   -0.04    0.21
  12   1 -17    0.06    0.33
 -12  -1  15  350.71    7.81
  12   1 -15  340.46    7.71
 -12  -1  13   -0.66    0.31
  12   1 -13    0.73    0.60
  12  -1 -11   -0.06    0.32
  12   1 -11   -0.06    0.24
  12  -1  -9    5.48    1.12
 -12  -1   9    7.86    1.30
  12   1  -9    6.56    1.22
  12  -1  -7    0.39    0.30
 -12  -1   7   -0.05    0.28
  12   1  -7    0.59    0.60
 -12  -1   5   -0.33    0.60
  12  -1  -5    0.19    0.18
  12   1  -5    0.29    0.37
  12  -1  -3  334.06    9.31
 -12  -1   3  335.88    9.12
  12   1  -3  343.04    9.13
  12  -1  -1   -0.03    0.71
 -12  -1   1   -0.37    0.68
  12   1  -1   -0.05    0.27
  12  -1   1    0.52    0.62
 -12   1  -1    0.26    0.36
 -12  -1  -1   -0.06    0.36
  12   1   1    0.24    0.44
 -12   1  -3  408.01   10.81
  12  -1   3  401.77   10.65
 -12  -1  -3  412.06   10.90
  12   1   3  407.21   10.56
 -12   1  -5    0.40    0.49
  12  -1   5   -0.09    0.38
 -12  -1  -5   -0.36    0.64
  12   1   5   -0.65    0.56
  12  -1   7    0.25    0.40
 -12   1  -7    0.65    0.55
 -12  -1  -7    0.33    0.50
  12   1   7    0.07    0.26
 -12   1  -9  613.69   13.91
 -12  -1  -9  601.83   14.15
  12  -1   9  607.37   13.87
  12   1   9  612.13   14.03
 -12   1 -11    0.31    0.80
  12  -1  11    0.01    0.36
 -12  -1 -11   -0.40    0.39
  12   1  11   -0.27    0.54
 -12   1 -13    0.34    0.47
 -12  -1 -13   -0.42    0.55
  12  -1  13   -0.23    0.53
  12   1  13   -0.62    0.67
 -12   1 -15  473.92   13.00
 -12  -1 -15  477.63   13.45
  12  -1  15  475.04   12.83
  12   1  15  474.81   13.15
 -12   1 -17    1.04    0.83
  12  -1  17    0.38    0.74
 -12  -1 -17   -0.32    0.48
  12   1  17   -0.02    0.44
 -12   1 -19    0.69    0.84
  12  -1  19    0.02    0.68
 -12  -1 -19   -0.04    0.48
  12   1  19   -0.02    0.35
 -12   1 -21  236.12    9.61
 -12  -1 -21  226.08    9.76
  12  -1  21  225.93    9.26
  12   1  21  216.32    9.45
 -12   1 -23    0.12    0.50
 -12  -1 -23   -0.46    0.34
  12  -1  23   -0.73    0.98
  12   1  23   -0.48    0.84
 -12  -1 -25   -0.05    0.38
 -12   1 -25    0.88    0.94
  12  -1  25   -0.30    0.54
  12   1  25   -0.07    0.55
 -12  -1 -27  174.33    9.15
 -12   1 -27  170.79    8.66
  12   1  27  167.87    8.81
  12  -1  27  162.60    8.17
 -12   1 -29   -0.65    0.82
 -12  -1 -29   -0.21    0.47
  12   1  29    0.18    0.50
  12  -1  29   -0.26    0.44
 -12  -1 -31   -0.16    0.77
 -12   1 -31    0.46    0.54
  12   1  31   -0.63    0.74
  12  -1  31   -0.22    0.39
 -12  -1 -33  240.44   11.25
  12   1  33  235.39   11.07
  12  -1  33  244.65   10.45
 -12  -1 -35    0.12    0.82
  12   1  35    0.14    0.52
  12  -1  35   -1.02    0.84
 -12  -1 -37    0.07    0.92
 -12  -1 -39   93.81    7.31
 -12  -1 -41    0.13    0.48
  12  -2 -42   97.07    4.38
  12  -2 -40   -0.72    0.66
  12  -2 -38    0.08    0.33
  12  -2 -36  110.68    5.31
  12  -2 -34   -0.56    0.62
  12  -2 -32   -1.13    0.90
  12   2 -24  131.27    3.27
  12   2 -22    0.01    0.13
  12   2 -20   -0.09    0.18
 -12  -2  18  447.85    8.33
  12   2 -18  436.68    8.08
 -12  -2  16    0.13    0.19
  12   2 -16    0.37    0.37
 -12  -2  14    0.40    0.28
  12   2 -14   -0.79    0.52
 -12  -2  12   46.25    3.03
  12   2 -12   42.99    2.93
 -12  -2  10   -0.43    0.70
  12   2 -10    0.04    0.43
 -12  -2   8   -0.18    0.37
  12   2  -8    0.08    0.42
 -12  -2   6  954.31   15.35
  12   2  -6  954.52   14.94
 -12  -2   4    0.14    0.25
  12   2  -4    0.79    0.77
  12  -2  -2   -0.43    0.54
 -12  -2   2    0.27    0.25
  12   2  -2    0.10    0.43
  12  -2   0  181.56    7.29
 -12  -2   0  188.55    7.39
  12   2   0  185.13    7.18
  12  -2   2    0.31    0.20
 -12  -2  -2   -0.05    0.42
  12   2   2   -0.38    0.48
  12  -2   4    0.27    0.33
 -12  -2  -4   -0.20    0.46
  12   2   4   -0.13    0.47
  12  -2   6  445.85   11.85
 -12  -2  -6  436.06   12.12
  12   2   6  455.60   12.01
  12  -2   8   -0.45    0.75
 -12  -2  -8   -0.05    0.49
  12   2   8    0.29    0.32
  12  -2  10   -0.35    0.31
 -12  -2 -10    0.50    1.16
  12   2  10    0.34    0.77
 -12  -2 -12 1257.64   21.73
  12  -2  12 1259.43   20.73
  12   2  12 1276.07   21.74
  12  -2  14    0.66    0.61
 -12  -2 -14   -0.09    0.83
  12   2  14   -0.42    0.50
 -12  -2 -16    0.04    0.59
  12  -2  16   -1.25    0.89
  12   2  16    0.15    0.29
  12  -2  18   44.92    4.07
 -12  -2 -18   45.71    4.41
  12   2  18   44.33    4.27
  12  -2  20   -0.74    0.81
 -12  -2 -20   -0.31    0.60
  12   2  20   -0.49    0.82
 -12  -2 -22   -0.73    0.81
  12  -2  22   -0.36    0.74
  12   2  22   -0.38    0.56
 -12  -2 -24  235.94   10.63
  12   2  24  232.20   10.50
  12  -2  24  232.11    9.56
  12  -2  26    0.00    0.43
 -12  -2 -26    0.06    0.66
  12   2  26   -1.20    1.01
 -12  -2 -28   -1.08    1.35
  12   2  28   -0.24    0.81
  12  -2  28   -0.65    0.86
 -12  -2 -30   76.73    6.39
  12   2  30   77.84    6.49
  12  -2  30   76.07    5.70
 -12  -2 -32   -0.58    0.77
  12   2  32    1.62    1.25
  12  -2  32   -1.37    0.99
 -12  -2 -34   -0.02    0.66
  12   2  34   -0.72    0.32
  12  -2  34   -1.11    0.91
 -12  -2 -36  159.62    9.71
  12   2  36  153.72    9.54
 -12  -2 -38    1.06    0.93
 -12  -2 -40    1.40    1.37
 -12  -2 -42   66.54    6.44
  12  -3 -43   -0.82    0.65
  12  -3 -41   -0.20    0.49
  12  -3 -39  136.12    6.72
  12  -3 -37   -0.19    0.45
  12  -3 -35    0.64    0.55
  12  -3 -33  161.70    7.54
  12   3 -23   -0.24    0.19
 -12  -3  23   -0.09    0.12
 -12  -3  21   81.95    3.46
  12   3 -21   79.40    3.45
  12   3 -19   -0.44    0.31
 -12  -3  19   -0.49    0.43
 -12  -3  17    0.43    0.31
  12   3 -17    0.91    0.52
 -12  -3  15  193.03    6.30
  12   3 -15  183.08    6.08
 -12  -3  13   -0.45    0.38
  12   3 -13   -0.60    0.53
 -12  -3  11   -0.03    0.37
  12   3 -11   -0.29    0.24
  12   3  -9  958.56   15.29
 -12  -3   9  945.51   15.30
 -12  -3   7    0.23    0.32
  12   3  -7    0.64    0.23
 -12  -3   5   -0.51    0.57
  12   3  -5    0.34    0.44
  12   3  -3  989.16   16.88
 -12  -3   3  988.23   16.93
 -12  -3   1    0.29    1.04
  12   3  -1    0.68    0.68
 -12  -3  -1    0.12    0.43
  12   3   1    0.54    0.65
  12   3   3  125.67    6.51
 -12  -3  -3  121.58    6.37
  12  -3   5   -0.72    0.65
 -12  -3  -5   -0.20    0.55
  12   3   5    0.64    0.55
  12  -3   7    0.30    0.63
 -12  -3  -7    0.48    1.08
  12   3   7    0.02    0.37
  12  -3   9 1661.36   23.98
  12   3   9 1753.27   25.77
 -12  -3  -9 1670.86   25.06
  12  -3  11    0.22    0.40
 -12  -3 -11    1.09    0.97
  12   3  11    1.45    1.06
  12  -3  13   -0.07    0.22
 -12  -3 -13    0.12    0.52
  12   3  13   -1.09    0.87
  12  -3  15  445.39   13.07
  12   3  15  461.64   14.13
 -12  -3 -15  445.57   13.84
  12  -3  17   -0.09    0.22
 -12  -3 -17    0.14    0.37
  12   3  17   -0.30    0.75
 -12  -3 -19    0.31    0.45
  12  -3  19    0.07    0.39
  12   3  19    0.70    0.93
  12  -3  21  447.38   13.39
  12   3  21  438.62   14.74
 -12  -3 -21  431.47   14.51
 -12  -3 -23   -1.08    1.15
  12  -3  23   -0.46    0.81
  12   3  23   -0.86    1.06
 -12  -3 -25   -0.46    1.14
  12  -3  25   -0.38    0.72
  12   3  25   -1.48    1.17
 -12  -3 -27   95.93    7.28
  12   3  27   89.46    7.12
  12  -3  27   89.62    6.14
  12  -3  29   -0.51    0.50
 -12  -3 -29   -0.21    0.62
  12   3  29   -0.79    0.78
  12  -3  31   -0.34    0.81
 -12  -3 -31    0.74    0.92
  12   3  31   -0.94    1.01
 -12  -3 -33  138.63    9.18
  12   3  33  142.37    9.38
  12  -3  33  150.35    8.04
 -12  -3 -35   -0.90    0.81
 -12  -3 -37   -1.59    1.48
 -12  -3 -39  123.31    9.05
 -12  -3 -41   -0.19    0.48
  12  -4 -44   -0.86    0.78
  12  -4 -42   14.11    2.45
  12  -4 -40   -1.64    1.30
  12  -4 -38   -0.78    0.73
  12  -4 -36   42.97    4.26
  12  -4 -34   -0.22    0.52
  12  -4 -32   -0.24    0.45
 -12  -4  26   -0.22    0.29
 -12  -4  24  110.89    3.99
 -12  -4  22   -0.35    0.49
 -12  -4  20   -0.03    0.31
  12   4 -20    0.58    0.47
  12   4 -18  276.05    7.91
 -12  -4  18  282.52    7.79
 -12  -4  16    0.31    0.24
  12   4 -16   -0.66    0.64
 -12  -4  14    0.36    0.49
  12   4 -14   -0.11    0.41
  12   4 -12  442.98   11.04
 -12  -4  12  442.65   10.73
  12   4 -10   -0.35    0.56
 -12  -4  10   -0.45    0.84
  12   4  -8    0.53    0.68
 -12  -4   8    0.34    0.59
  12   4  -6  597.55   13.74
 -12  -4   6  606.55   13.64
 -12  -4   4    0.80    0.85
  12   4  -4    0.69    0.53
  12   4  -2    0.31    0.66
 -12  -4   2    1.39    1.00
  12   4   0  857.20   17.33
 -12  -4   0  843.63   17.23
 -12  -4  -2    0.33    0.55
  12   4   2    0.32    0.30
 -12  -4  -4   -0.08    1.08
  12   4   4    0.52    0.63
  12   4   6 1080.42   20.77
 -12  -4  -6 1052.21   20.62
  12   4   8    0.18    0.51
 -12  -4  -8   -0.41    0.72
  12  -4  10   -0.90    0.46
  12   4  10   -0.30    0.52
 -12  -4 -10    0.22    0.56
  12  -4  12  370.63   12.13
  12   4  12  387.08   13.27
 -12  -4 -12  384.40   13.15
 -12  -4 -14   -0.82    0.91
  12   4  14   -1.24    1.23
  12  -4  14   -0.33    0.72
 -12  -4 -16    0.71    0.87
  12  -4  16    0.57    0.76
  12   4  16    0.38    0.26
  12  -4  18  427.81   13.36
  12   4  18  438.57   15.15
 -12  -4 -18  434.41   14.67
 -12  -4 -20    0.79    1.16
  12   4  20    1.04    1.02
  12  -4  20   -1.08    0.95
 -12  -4 -22    0.63    0.60
  12   4  22   -0.73    1.07
  12  -4  22    0.18    0.44
  12  -4  24   10.97    2.15
 -12  -4 -24   10.26    2.30
  12   4  24   11.22    2.58
  12  -4  26   -0.91    0.59
 -12  -4 -26    0.06    0.86
  12   4  26    0.39    0.92
  12  -4  28   -0.34    0.46
 -12  -4 -28    0.46    0.49
 -12  -4 -30   91.78    7.51
  12  -4  30   92.91    6.41
 -12  -4 -32    0.13    0.66
  12  -4  32   -0.18    0.41
 -12  -4 -34   -0.73    0.66
 -12  -4 -36   65.93    6.71
 -12  -4 -38   -0.34    0.51
 -12  -4 -40   -0.78    1.07
 -12  -4 -42   83.92    7.82
  12  -5 -43   -0.44    0.36
  12  -5 -41   -1.19    1.23
  12  -5 -39   90.52    6.82
  12  -5 -37   -1.11    1.00
  12  -5 -35   -1.57    1.27
  12  -5 -33   74.35    6.13
  12  -5 -31   -0.22    0.71
 -12  -5  29   -0.48    0.31
 -12  -5  27  134.46    4.43
 -12  -5  25    0.11    0.27
 -12  -5  23    0.78    0.56
 -12  -5  21   83.00    4.36
 -12  -5  19    0.10    0.43
  12   5 -17    0.95    0.91
 -12  -5  17   -0.21    0.75
  12   5 -15  272.96    9.29
 -12  -5  15  276.19    8.88
  12   5 -13    0.18    0.22
 -12  -5  13   -0.34    0.79
  12   5 -11    0.41    0.47
 -12  -5  11   -0.74    0.61
  12   5  -9  483.66   12.93
 -12  -5   9  494.68   12.74
  12   5  -7   -0.34    0.56
 -12  -5   7    0.26    0.81
  12   5  -5   -0.03    0.31
 -12  -5   5    0.36    0.30
  12   5  -3  107.90    6.53
 -12  -5   3  105.70    6.30
  12   5  -1    0.76    0.67
 -12  -5   1    1.76    0.96
  12   5   1   -0.17    0.67
 -12  -5  -1   -0.35    0.73
  12   5   3  378.01   13.15
 -12  -5  -3  373.67   12.53
  12   5   5    0.55    0.90
 -12  -5  -5    0.64    1.17
  12   5   7   -0.39    0.86
 -12  -5  -7   -0.96    0.94
  12   5   9  166.62    9.13
 -12  -5  -9  145.87    8.29
  12   5  11    0.35    0.50
 -12  -5 -11   -0.94    1.13
  12  -5  13   -0.50    0.54
  12   5  13   -0.32    0.61
 -12  -5 -13   -0.50    0.70
  12  -5  15  445.99   14.10
  12   5  15  456.70   15.85
 -12  -5 -15  432.11   14.97
  12  -5  17    0.08    0.38
  12   5  17   -0.06    0.61
 -12  -5 -17   -0.83    1.35
  12  -5  19   -0.70    0.79
  12   5  19    0.08    0.52
 -12  -5 -19   -1.10    1.33
  12  -5  21  191.97    9.39
  12   5  21  209.90   11.26
 -12  -5 -21  190.66   10.48
 -12  -5 -23   -1.03    1.19
  12   5  23   -0.86    0.43
  12  -5  23   -0.84    0.82
  12  -5  25   -1.49    1.14
 -12  -5 -25   -0.13    1.04
  12  -5  27  186.47    9.33
 -12  -5 -27  196.35   11.20
  12  -5  29   -1.12    0.84
 -12  -5 -29   -0.30    0.84
 -12  -5 -31   -0.31    0.68
  12  -5  31    0.09    0.59
 -12  -5 -33  109.84    8.81
 -12  -5 -35    0.50    0.60
 -12  -5 -37   -2.02    1.67
 -12  -5 -39   26.44    4.52
 -12  -5 -41    0.18    0.82
 -12  -5 -43   -1.87    1.71
  12  -6 -44   -0.11    0.69
  12  -6 -42   39.88    4.82
  12  -6 -40   -1.55    1.14
  12  -6 -38   -0.79    0.98
  12  -6 -36   32.36    4.26
  12  -6 -34   -1.51    1.61
  12  -6 -32   -1.86    1.45
 -12  -6  32   -0.21    0.22
 -12  -6  30   40.17    2.43
 -12  -6  28   -0.39    0.41
 -12  -6  26   -0.37    0.41
 -12  -6  24  269.48    8.25
 -12  -6  22   -0.28    0.53
 -12  -6  20   -0.91    0.78
 -12  -6  18  377.59   10.82
 -12  -6  16   -0.06    0.33
 -12  -6  14   -0.47    0.56
  12   6 -12  538.91   14.63
 -12  -6  12  554.97   14.16
  12   6 -10    0.18    0.28
 -12  -6  10    0.12    0.36
  12   6  -8    0.56    0.40
 -12  -6   8   -0.53    0.77
 -12  -6   6  383.77   12.55
  12   6  -6  368.61   12.75
  12   6  -4   -0.16    0.49
 -12  -6   4   -0.06    0.27
  12   6  -2   -1.15    0.94
 -12  -6   2   -0.61    0.49
  12   6   0  224.37   10.37
 -12  -6   0  225.25   10.12
  12   6   2    0.04    0.54
 -12  -6  -2   -0.59    0.56
  12   6   4    1.18    1.19
 -12  -6  -4    0.63    0.86
  12   6   6  694.50   19.02
 -12  -6  -6  667.86   18.24
  12   6   8    1.43    1.30
 -12  -6  -8    0.35    0.55
  12   6  10    0.62    0.86
 -12  -6 -10   -2.25    1.38
  12   6  12  671.22   19.74
 -12  -6 -12  650.87   18.84
  12   6  14   -0.29    0.59
 -12  -6 -14   -1.44    1.27
  12  -6  16   -0.76    1.17
  12   6  16   -1.24    1.31
 -12  -6 -16   -0.36    1.15
  12  -6  18   12.07    2.38
 -12  -6 -18   11.44    2.54
  12  -6  20   -0.64    0.29
 -12  -6 -20    0.35    0.70
  12  -6  22   -0.16    0.65
 -12  -6 -22    1.67    1.40
  12  -6  24  306.06   12.46
 -12  -6 -24  296.22   14.03
  12  -6  26   -1.87    1.11
 -12  -6 -26   -2.20    1.79
  12  -6  28   -0.41    0.47
 -12  -6 -28    0.91    0.99
  12  -6  30  137.83    8.27
 -12  -6 -30  134.02    9.89
 -12  -6 -32   -1.46    1.48
 -12  -6 -34   -0.21    0.82
 -12  -6 -36   63.73    7.19
 -12  -6 -38   -0.48    1.05
 -12  -6 -40   -1.56    1.81
 -12  -6 -42   34.20    5.52
  12  -7 -45   24.52    4.03
  12  -7 -43   -0.99    0.96
  12  -7 -41   -0.73    1.18
  12  -7 -39   27.51    4.33
  12  -7 -37   -0.12    0.84
  12  -7 -35   -1.39    1.21
 -12  -7  33   49.67    2.68
  12  -7 -33   52.76    5.86
 -12  -7  31   -0.35    0.35
  12  -7 -31   -0.57    1.08
 -12  -7  29   -0.02    0.35
 -12  -7  27   61.94    4.15
 -12  -7  25   -1.03    0.74
 -12  -7  23   -0.05    0.32
 -12  -7  21  201.23    8.32
 -12  -7  19   -0.56    0.63
 -12  -7  17    0.56    0.66
 -12  -7  15  390.60   12.59
 -12  -7  13    0.83    0.43
 -12  -7  11    0.22    0.44
 -12  -7   9  480.84   14.69
  12   7  -7    0.90    1.01
 -12  -7   7   -0.21    0.42
  12   7  -5    1.01    0.78
 -12  -7   5    0.49    0.49
  12   7  -3  124.44    8.09
 -12  -7   3  132.54    8.14
  12   7  -1   -0.38    0.37
 -12  -7   1    1.12    1.02
  12   7   1   -1.43    0.92
 -12  -7  -1   -0.82    0.81
 -12  -7  -3  130.22    8.38
  12   7   3  131.17    8.81
  12   7   5   -1.00    1.30
 -12  -7  -5   -0.25    0.53
  12   7   7    2.69    1.85
 -12  -7  -7    0.13    0.49
  12   7   9  340.15   14.67
 -12  -7  -9  330.65   13.89
 -12  -7 -11   -0.34    0.88
 -12  -7 -13   -0.24    0.78
 -12  -7 -15   16.73    3.24
 -12  -7 -17    0.55    0.94
  12  -7  19   -1.32    1.24
 -12  -7 -19    0.06    0.78
  12  -7  21  100.90    7.46
 -12  -7 -21  102.32    8.45
  12  -7  23    1.52    1.27
 -12  -7 -23   -0.45    0.74
  12  -7  25   -0.51    0.46
 -12  -7 -25   -1.27    1.36
  12  -7  27  201.11   10.50
 -12  -7 -27  212.28   12.72
  12  -7  29   -1.17    1.11
 -12  -7 -29    0.50    0.48
 -12  -7 -31    2.43    1.67
 -12  -7 -33   33.60    5.31
 -12  -7 -35   -0.94    1.02
 -12  -7 -37   -1.03    1.54
 -12  -7 -39   12.91    3.53
 -12  -7 -41   10.82    3.06
 -12  -7 -43    0.64    1.34
  12  -8 -44   -0.02    0.87
  12  -8 -42   19.23    4.01
  12  -8 -40   -1.01    1.18
  12  -8 -38   -0.72    0.86
  12  -8 -36   57.72    6.54
  12  -8 -34   -0.25    0.72
 -12  -8  32    0.43    0.44
  12  -8 -32   -1.67    1.60
  12  -8 -30   36.84    5.09
 -12  -8  30   45.64    3.65
 -12  -8  28   -0.33    0.48
 -12  -8  26    0.25    0.33
 -12  -8  24   36.06    3.67
 -12  -8  22   -0.92    0.98
 -12  -8  20   -0.05    0.41
 -12  -8  18   96.08    6.55
 -12  -8  16    0.66    0.46
 -12  -8  14    0.72    0.85
 -12  -8  12  309.60   12.37
 -12  -8  10    0.09    0.46
 -12  -8   8   -0.50    1.03
 -12  -8   6  235.32   11.28
 -12  -8   4    0.55    0.94
 -12  -8   2    0.14    0.43
 -12  -8   0   58.98    5.85
 -12  -8  -2   -0.13    0.36
 -12  -8  -4   -1.07    1.00
 -12  -8  -6  138.78    9.37
 -12  -8  -8    0.18    0.94
 -12  -8 -10   -0.89    1.02
 -12  -8 -12   27.01    4.30
 -12  -8 -14   -0.14    0.97
 -12  -8 -16    0.20    0.95
 -12  -8 -18  170.78   11.12
  12  -8  20    1.04    0.99
 -12  -8 -20   -0.45    1.44
  12  -8  22   -1.31    0.81
 -12  -8 -22   -2.70    1.61
  12  -8  24  104.84    8.05
 -12  -8 -24   95.28    8.62
  12  -8  26   -1.11    0.80
 -12  -8 -26   -0.25    0.97
 -12  -8 -28    0.54    0.44
 -12  -8 -30   37.72    5.69
 -12  -8 -32   -2.67    1.77
 -12  -8 -34   -2.46    1.79
 -12  -8 -36   21.72    4.49
 -12  -8 -38   -0.67    0.63
 -12  -8 -40    0.61    0.63
 -12  -8 -42   25.96    5.20
  12  -9 -45    5.62    2.09
  12  -9 -43    0.06    0.87
  12  -9 -41    0.20    0.53
  12  -9 -39   22.55    4.48
  12  -9 -37   -2.08    1.57
  12  -9 -35   -0.86    0.90
  12  -9 -33   91.60    8.76
  12  -9 -31    0.70    0.94
 -12  -9  31   -1.81    0.98
  12  -9 -29   -1.34    1.54
 -12  -9  29   -0.24    0.41
 -12  -9  27   62.04    5.09
 -12  -9  25    0.21    0.37
 -12  -9  23    0.11    0.57
 -12  -9  21   45.83    4.71
 -12  -9  19   -0.99    0.82
 -12  -9  17   -1.33    1.07
 -12  -9  15  124.28    8.21
 -12  -9  13   -1.21    0.82
 -12  -9  11    1.01    0.78
 -12  -9   9  109.29    7.98
 -12  -9   7    0.05    0.52
 -12  -9   5   -0.93    1.32
 -12  -9   3   99.10    7.84
 -12  -9   1    0.78    1.28
 -12  -9  -1   -0.04    0.59
 -12  -9  -3  165.18   10.63
 -12  -9  -5   -0.71    1.05
 -12  -9  -7   -0.78    1.25
 -12  -9  -9   67.53    6.99
 -12  -9 -11    0.18    0.78
 -12  -9 -13    0.69    0.81
 -12  -9 -15  345.90   16.39
 -12  -9 -17   -0.81    1.16
 -12  -9 -19   -1.56    1.11
 -12  -9 -21   57.84    6.95
 -12  -9 -23   -1.64    1.72
 -12  -9 -25    0.61    0.85
 -12  -9 -27   78.19    8.40
 -12  -9 -29   -1.64    1.67
 -12  -9 -31   -1.82    1.62
 -12  -9 -33   47.76    6.86
 -12  -9 -35   -0.76    1.48
 -12  -9 -37   -0.95    1.60
 -12  -9 -39   45.31    6.87
 -12  -9 -41   -0.30    0.73
  12 -10 -44   -1.62    1.44
  12 -10 -42    6.53    2.68
  12 -10 -40   -0.31    0.99
  12 -10 -38   -0.02    0.81
  12 -10 -36   28.66    5.17
  12 -10 -34    0.85    0.75
  12 -10 -32   -1.45    1.41
  12 -10 -30   18.55    4.15
 -12 -10  30   15.83    2.61
  12 -10 -28    1.97    1.36
 -12 -10  28    0.77    0.34
  12 -10 -26    1.49    1.57
 -12 -10  26   -0.28    0.65
 -12 -10  24   44.80    4.89
 -12 -10  22    0.01    0.35
 -12 -10  20   -1.01    1.05
 -12 -10  18   66.96    6.23
 -12 -10  16   -2.09    1.60
 -12 -10  14    0.05    0.59
 -12 -10  12  109.63    8.30
 -12 -10  10    0.17    0.53
 -12 -10   8    0.51    0.55
 -12 -10   6  111.79    8.73
 -12 -10   4   -0.40    0.52
 -12 -10   2   -1.17    1.12
 -12 -10   0   74.36    7.40
 -12 -10  -2    0.05    0.80
 -12 -10  -4   -0.09    0.57
 -12 -10  -6   46.67    6.01
 -12 -10  -8    1.56    0.50
 -12 -10 -10    2.29    1.62
 -12 -10 -12  137.04   10.69
 -12 -10 -14    0.47    0.79
 -12 -10 -16   -0.02    1.11
 -12 -10 -18   27.78    4.92
 -12 -10 -20   -0.20    1.23
 -12 -10 -22    2.32    2.00
 -12 -10 -24   22.57    4.56
 -12 -10 -26   -0.56    1.38
 -12 -10 -28   -0.87    1.46
 -12 -10 -30   11.29    3.25
 -12 -10 -32   -1.83    2.04
 -12 -10 -34   -2.21    1.73
 -12 -10 -36   35.48    6.29
  12 -11 -43   -0.90    1.01
  12 -11 -41   -1.01    1.34
  12 -11 -39   13.19    3.65
  12 -11 -37    0.13    0.89
  12 -11 -35   -0.05    0.66
  12 -11 -33    8.11    2.75
  12 -11 -31   -1.47    1.43
  12 -11 -29    0.15    1.02
 -12 -11  29   -0.31    0.84
  12 -11 -27    5.30    1.94
 -12 -11  27   10.57    2.47
  12 -11 -25    2.48    1.91
 -12 -11  25    0.91    0.87
 -12 -11  23   -1.82    1.46
 -12 -11  21   48.16    5.46
 -12 -11  19   -1.69    1.43
 -12 -11  17    0.48    0.87
 -12 -11  15   42.82    5.36
 -12 -11  13   -2.07    1.54
 -12 -11  11    0.00    0.85
 -12 -11   9   15.92    3.49
 -12 -11   7    0.61    1.08
 -12 -11   5    2.77    1.58
 -12 -11   3   14.08    3.36
 -12 -11   1    0.84    0.94
 -12 -11  -1   -0.14    1.11
 -12 -11  -3   52.79    6.67
 -12 -11  -5   -1.41    1.35
 -12 -11  -7   -0.32    0.78
 -12 -11  -9   97.28    9.32
 -12 -11 -11    0.30    0.71
 -12 -11 -13    0.02    0.95
 -12 -11 -15   34.56    5.68
 -12 -11 -17    0.30    0.76
 -12 -11 -19    0.45    0.89
 -12 -11 -21   28.11    5.31
 -12 -11 -23   -1.64    1.92
 -12 -11 -25   -1.08    1.59
 -12 -11 -27    6.72    2.68
 -12 -11 -29    1.33    0.87
 -12 -11 -31   -1.66    1.36
  12 -12 -36    2.43    1.21
  12 -12 -34   -1.43    1.71
  12 -12 -32   -1.38    1.45
  12 -12 -30    7.92    2.70
  12 -12 -28   -1.11    1.68
  12 -12 -26   -0.35    0.73
 -12 -12  26   -1.18    1.18
  12 -12 -24   19.63    4.64
 -12 -12  24   20.52    3.81
  12 -12 -22   -3.35    1.92
 -12 -12  22   -0.37    0.37
 -12 -12  20    0.41    1.11
 -12 -12  18   64.62    6.99
 -12 -12  16   -0.43    0.57
 -12 -12  14   -2.03    1.63
 -12 -12  12   43.08    5.85
 -12 -12  10    0.18    1.21
 -12 -12   8   -0.52    0.89
 -12 -12   6    2.75    1.37
 -12 -12   4   -0.94    1.58
 -12 -12   2   -1.98    1.72
 -12 -12   0   69.48    7.88
 -12 -12  -2   -1.65    1.12
 -12 -12  -4   -0.54    1.07
 -12 -12  -6   62.96    7.69
 -12 -12  -8   -1.70    1.51
 -12 -12 -10   -0.51    1.20
 -12 -12 -12   36.91    6.18
 -12 -12 -14    2.38    1.79
 -12 -12 -16   -0.89    1.96
 -12 -12 -18   56.90    7.85
 -12 -12 -20    0.20    0.63
 -12 -12 -22    0.17    0.52
 -12 -12 -24   18.39    4.69
  12 -13 -27   15.24    4.33
  12 -13 -25   -2.24    1.65
 -12 -13  25   -0.71    0.93
  12 -13 -23   -1.60    1.41
 -12 -13  23    0.85    0.94
  12 -13 -21   21.72    4.99
 -12 -13  21   16.73    3.64
  12 -13 -19    0.08    1.51
 -12 -13  19    0.57    0.62
 -12 -13  17   -0.41    0.45
 -12 -13  15   21.13    4.25
 -12 -13  13    0.10    0.66
 -12 -13  11    0.49    0.79
 -12 -13   9   23.71    4.69
 -12 -13   7    2.33    1.70
 -12 -13   5   -0.79    0.90
 -12 -13   3    0.76    0.66
 -12 -13   1   -0.12    1.03
 -12 -13  -1    2.28    1.97
 -12 -13  -3   45.86    6.72
 -12 -13  -5   -1.54    1.49
 -12 -13  -7   -1.39    1.79
 -12 -13  -9   16.92    4.06
 -12 -13 -11   -1.56    1.58
 -12 -13 -13    0.10    0.68
 -12 -13 -15   24.62    5.29
 -12 -13 -17    0.87    1.31
 -12 -14  22   -2.05    1.28
 -12 -14  20    4.71    2.20
 -12 -14  18   10.47    3.08
  12 -14 -16   -0.47    1.74
 -12 -14  16   -2.20    1.76
  12 -14 -14   -3.49    2.51
 -12 -14  14   -1.22    1.63
 -12 -14  12   10.86    3.41
 -12 -14  10   -1.16    1.41
 -12 -14   8    2.49    1.63
 -12 -14   6   12.10    3.54
 -12 -14   4   -2.59    1.93
 -12 -14   2    1.72    1.55
 -12 -14   0   11.81    3.86
 -12 -14  -2   -2.91    2.19
 -12 -14  -4    2.20    1.90
 -12 -14  -6   13.34    4.04
 -12 -14  -8   -1.73    1.68
 -12 -15  21    9.53    3.00
 -12 -15  19   -3.75    2.15
 -12 -15  17   -1.33    1.14
 -12 -15  15   10.58    3.37
 -12 -15  13   -1.94    1.60
 -12 -15  11   -1.42    1.69
 -12 -15   9    6.01    2.71
 -12 -15   7   -2.71    1.94
 -12 -15   5    0.99    1.02
 -12 -15   3   21.02    4.72
  13   0 -33    1.05    0.44
  13   0 -33    0.29    0.27
  13   0 -31   -0.15    0.27
  13   0 -31    0.30    0.27
  13   0 -29    0.50    0.30
  13   0 -27    0.33    0.52
  13   0 -25    0.23    0.27
  13   0 -23   -0.31    0.32
  13   0 -21    0.08    0.43
  13   0 -19    1.21    0.63
  13   0 -17   -0.14    0.33
  13   0 -15    0.85    0.92
  13   0 -13    3.14    1.02
  13   0 -11    0.05    0.43
  13   0  -9    0.28    0.47
 -13   0   9   -0.39    0.45
 -13   0   7    0.35    0.68
  13   0  -7   11.12    2.10
  13   0  -5    0.10    0.38
 -13   0   5    0.16    0.48
  13   0  -3    2.19    1.27
 -13   0   3    0.32    0.66
 -13   0   1    0.52    0.57
  13   0  -1   -0.18    0.43
 -13   0  -1    3.97    1.53
  13   0   1    1.44    0.41
 -13   0  -3    0.68    0.66
  13   0   3    0.65    0.70
 -13   0  -5   -0.15    0.63
  13   0   5    0.29    0.61
 -13   0  -7    1.77    1.21
  13   0   7   -0.27    0.44
 -13   0  -9    0.26    0.54
  13   0   9   -0.36    0.44
 -13   0 -11   -0.22    0.37
  13   0  11    0.00    0.40
 -13   0 -13   -0.71    0.44
  13   0  13   -0.37    0.58
 -13   0 -15    2.80    1.60
  13   0  15    1.23    0.96
 -13   0 -17    1.03    1.67
  13   0  17    1.45    1.10
 -13   0 -19    2.96    1.28
  13   0  19    2.74    1.54
 -13   0 -21    4.51    2.34
  13   0  21    0.66    0.79
 -13   0 -23    0.73    1.04
  13   0  23   -0.60    0.46
 -13   0 -25   -0.26    0.73
  13   0  25    0.20    0.51
 -13   0 -27    0.11    0.59
  13   0  27    0.47    0.70
 -13   0 -29    2.26    1.57
  13   0  29    0.11    0.44
 -13   0 -31    0.08    0.50
  13   0  31    1.56    1.17
 -13   0 -33    0.83    0.83
  13   0  33   -0.18    0.70
 -13   0 -35    1.75    1.33
  13   0  35    1.27    1.12
 -13   0 -37   -0.92    1.10
 -13   0 -39   -0.82    1.08
  13  -1 -40   -0.07    0.16
  13  -1 -40    0.49    0.30
  13  -1 -38    2.79    0.59
  13  -1 -38    2.08    0.45
  13  -1 -36   -0.11    0.23
  13  -1 -36   -0.06    0.16
  13  -1 -34   -0.18    0.45
  13  -1 -34   -0.22    0.43
  13  -1 -32   12.36    1.53
  13  -1 -32   12.54    1.54
  13   1 -28    0.04    0.08
  13   1 -26   15.83    1.26
  13   1 -24    0.32    0.34
  13   1 -22    0.88    0.51
  13   1 -20    1.79    0.60
  13   1 -18    2.64    1.08
  13  -1 -16   -0.69    0.69
  13   1 -16    0.68    0.56
 -13  -1  14   88.11    4.22
  13  -1 -14   90.45    4.65
  13   1 -14   89.93    4.28
  13  -1 -12    0.03    0.30
 -13  -1  12    0.22    0.23
  13  -1 -10    0.03    0.27
 -13  -1  10    0.08    0.28
  13   1 -10    0.31    0.33
  13  -1  -8  154.14    6.36
 -13  -1   8  162.78    6.30
  13   1  -8  160.64    6.20
  13  -1  -6    0.31    0.67
 -13  -1   6    0.14    0.26
  13   1  -6    0.43    1.04
  13  -1  -4    0.00    0.29
 -13  -1   4   -0.46    0.72
  13   1  -4    0.14    0.54
  13  -1  -2  257.50    8.46
 -13  -1   2  252.48    8.44
  13   1  -2  257.08    8.31
 -13  -1   0    1.09    0.74
 -13   1   0    0.61    1.48
  13   1   0    0.78    0.69
  13  -1   2    1.69    0.89
 -13   1  -2    0.04    1.03
 -13  -1  -2   -0.25    0.55
  13   1   2    0.07    0.34
 -13   1  -4   84.99    5.22
  13  -1   4   78.37    4.90
 -13  -1  -4   78.46    4.94
  13   1   4   83.53    5.00
  13  -1   6    0.08    0.52
 -13   1  -6   -0.27    0.46
  13   1   6   -0.13    0.69
 -13  -1  -6   -0.72    0.63
 -13   1  -8    1.07    1.22
  13   1   8    0.30    0.32
  13  -1   8   -0.21    0.35
 -13  -1  -8    0.19    0.38
  13   1  10   -0.18    0.45
  13  -1  10    0.01    0.24
 -13   1 -12   -0.02    0.44
 -13  -1 -12   -1.04    1.16
  13  -1  12    0.20    0.35
  13   1  12   -1.23    0.92
 -13  -1 -14   -0.08    0.55
  13  -1  14   -0.13    0.38
  13   1  14   -0.24    0.73
 -13   1 -16    3.27    1.51
  13  -1  16    0.36    0.74
 -13  -1 -16    0.15    0.63
  13   1  16    1.24    1.28
 -13   1 -18    5.54    2.24
 -13  -1 -18    1.85    1.65
  13  -1  18    1.14    1.00
  13   1  18    1.73    1.28
 -13   1 -20    0.85    0.87
 -13  -1 -20    0.19    0.58
  13  -1  20    0.81    0.85
  13   1  20    0.11    0.39
 -13   1 -22   42.70    4.33
 -13  -1 -22   42.65    4.40
  13  -1  22   44.78    4.29
  13   1  22   44.30    4.46
 -13  -1 -24    2.69    1.76
 -13   1 -24    3.97    1.77
  13  -1  24    1.27    1.15
  13   1  24    0.20    0.33
 -13   1 -26   -0.14    0.86
 -13  -1 -26   -0.06    0.57
  13  -1  26    0.38    0.54
  13   1  26    0.29    0.55
 -13  -1 -28    5.53    1.66
 -13   1 -28    3.49    1.04
  13  -1  28    6.89    1.75
  13   1  28    6.36    1.86
 -13   1 -30    0.93    0.93
 -13  -1 -30   -0.34    0.31
  13   1  30   -0.30    0.86
  13  -1  30    0.40    0.63
 -13   1 -32    0.68    1.34
 -13  -1 -32    1.04    1.27
  13   1  32    1.10    0.85
  13  -1  32   -0.86    0.82
 -13  -1 -34    1.02    0.91
  13   1  34    0.60    0.58
  13  -1  34    2.54    1.19
 -13  -1 -36    0.52    1.00
  13   1  36    0.46    0.71
 -13  -1 -38   -0.61    0.93
 -13  -1 -40    6.25    2.02
  13  -2 -41    5.18    1.04
  13  -2 -39    0.04    0.54
  13  -2 -37   -0.04    0.35
  13  -2 -35    7.60    1.40
  13  -2 -33    0.44    0.58
  13   2 -25   -0.04    0.11
  13   2 -23   18.53    1.51
  13   2 -21   -0.27    0.12
 -13  -2  19   -0.07    0.31
  13   2 -19    0.69    0.46
 -13  -2  17    0.27    0.39
  13   2 -17   -0.06    0.30
 -13  -2  15    0.14    0.41
  13   2 -15    0.31    0.58
 -13  -2  13    0.46    0.39
  13   2 -13   -0.18    0.31
 -13  -2  11   42.51    3.10
  13   2 -11   42.48    3.05
 -13  -2   9   -0.80    0.69
  13   2  -9   -0.52    0.40
 -13  -2   7    0.34    0.68
  13   2  -7    1.32    0.81
 -13  -2   5  636.90   13.15
  13   2  -5  621.21   12.80
  13  -2  -3    0.29    0.67
 -13  -2   3   -0.12    0.41
  13   2  -3    0.70    0.90
  13  -2  -1   -0.63    0.73
 -13  -2   1    0.17    0.52
  13   2  -1    0.40    0.47
  13  -2   1    3.90    0.98
 -13  -2  -1    2.72    0.97
  13   2   1    3.59    1.02
  13  -2   3    0.13    0.98
 -13  -2  -3   -0.12    0.64
  13   2   3    0.67    0.51
 -13  -2  -5   -0.35    0.45
  13   2   5   -0.15    0.41
  13  -2   7    0.44    0.28
 -13  -2  -7    0.13    0.54
  13   2   7    0.70    0.85
  13  -2   9    1.22    1.06
 -13  -2  -9    0.38    0.92
  13   2   9   -0.20    0.54
  13  -2  11    1.82    1.19
 -13  -2 -11    0.65    1.02
  13   2  11    1.22    0.90
 -13  -2 -13  375.20   12.44
  13  -2  13  369.98   11.64
  13   2  13  377.58   12.22
  13  -2  15    0.33    0.57
 -13  -2 -15    0.27    0.51
  13   2  15    0.40    0.32
  13  -2  17    0.09    0.71
 -13  -2 -17   -0.74    0.88
  13   2  17   -0.15    0.36
 -13  -2 -19   -0.26    0.68
  13  -2  19   -0.17    0.66
  13   2  19    0.42    0.70
 -13  -2 -21   -0.59    0.88
  13  -2  21   -0.39    0.47
  13   2  21   -0.32    0.75
 -13  -2 -23   -0.04    0.60
  13  -2  23    1.33    0.92
  13   2  23    0.25    0.28
 -13  -2 -25    0.42    0.43
  13  -2  25    1.96    0.86
  13   2  25   -0.24    0.98
 -13  -2 -27   -0.91    0.59
  13  -2  27   -0.52    0.63
  13   2  27   -0.41    0.76
 -13  -2 -29    0.94    1.15
  13   2  29    0.25    0.68
  13  -2  29   -0.85    0.79
 -13  -2 -31  108.47    7.98
  13   2  31  106.98    7.82
  13  -2  31  107.53    6.95
 -13  -2 -33    0.50    0.90
  13   2  33   -0.68    1.12
  13  -2  33    0.56    0.73
 -13  -2 -35    0.27    0.53
  13   2  35   -1.27    1.01
 -13  -2 -37    0.11    0.72
 -13  -2 -39    1.40    1.20
 -13  -2 -41    0.73    0.89
  13  -3 -42   -0.14    0.26
  13  -3 -40    0.19    0.68
  13  -3 -38   26.18    3.01
  13  -3 -36    0.51    0.73
  13  -3 -34    0.38    0.70
 -13  -3  24   -0.01    0.19
  13   3 -24   -0.43    0.34
 -13  -3  22   -0.07    0.25
  13   3 -22    0.29    0.25
 -13  -3  20    2.97    0.74
  13   3 -20    2.10    0.62
 -13  -3  18   -0.11    0.30
  13   3 -18    0.57    0.40
 -13  -3  16   -0.03    0.28
  13   3 -16   -0.33    0.43
 -13  -3  14  135.85    5.67
  13   3 -14  137.04    5.56
 -13  -3  12    0.19    0.29
  13   3 -12    0.08    0.43
 -13  -3  10    0.90    0.66
  13   3 -10   -0.27    0.22
  13   3  -8  202.02    7.37
 -13  -3   8  203.71    7.50
 -13  -3   6   -0.31    0.32
  13   3  -6    0.25    0.55
 -13  -3   4   -0.01    0.51
  13   3  -4    0.39    0.30
 -13  -3   2   -0.48    0.70
  13   3  -2    0.60    0.42
 -13  -3   0   -0.40    0.44
  13   3   0   -0.10    0.32
  13  -3   2   -0.46    0.90
 -13  -3  -2   -0.46    0.79
  13   3   2   -0.22    0.53
  13  -3   4   -0.16    0.50
 -13  -3  -4   -0.09    0.70
  13   3   4    0.00    0.54
 -13  -3  -6    0.31    0.88
  13   3   6    0.81    0.77
  13  -3   8    5.69    2.02
 -13  -3  -8    3.28    1.50
  13   3   8    1.15    1.22
  13  -3  10  266.23   10.14
  13   3  10  276.13   10.69
 -13  -3 -10  271.54   10.52
  13  -3  12    2.16    1.22
 -13  -3 -12    0.02    0.73
  13   3  12    0.19    0.72
  13  -3  14    1.44    1.10
 -13  -3 -14    1.30    1.00
  13   3  14   -0.33    0.52
  13  -3  16   58.40    4.83
  13   3  16   54.63    5.00
 -13  -3 -16   57.56    5.15
  13  -3  18    1.37    0.89
 -13  -3 -18    0.19    0.43
  13   3  18   -0.74    0.88
 -13  -3 -20    0.43    0.57
  13  -3  20    1.02    0.81
  13   3  20   -0.41    0.72
 -13  -3 -22   -1.24    0.84
  13  -3  22   -0.25    0.37
  13   3  22   -1.30    1.67
  13  -3  24   -0.58    0.53
 -13  -3 -24   -0.13    0.78
  13   3  24    0.03    0.44
  13  -3  26    1.22    0.79
 -13  -3 -26    0.30    0.45
  13   3  26    0.93    1.02
  13  -3  28   -0.15    0.41
 -13  -3 -28   -0.43    1.02
  13   3  28    0.74    0.86
  13  -3  30    0.71    0.66
 -13  -3 -30    1.12    1.20
  13   3  30   -0.57    0.88
 -13  -3 -32    0.62    0.99
  13  -3  32    0.85    0.68
 -13  -3 -34   -1.59    1.36
  13  -3  34   -0.69    0.85
 -13  -3 -36   -1.28    1.35
 -13  -3 -38    1.69    1.17
 -13  -3 -40    1.12    0.90
 -13  -3 -42   -1.00    1.01
  13  -4 -43   -0.26    0.84
  13  -4 -41   -1.37    0.97
  13  -4 -39    1.33    0.82
  13  -4 -37   -0.79    0.86
  13  -4 -35    9.03    1.95
  13  -4 -33    1.32    1.08
 -13  -4  27   -0.46    0.26
 -13  -4  25   -0.06    0.18
 -13  -4  23   23.22    1.98
 -13  -4  21   -0.04    0.37
  13   4 -21    0.11    0.30
 -13  -4  19    0.02    0.26
  13   4 -19    0.78    0.69
  13   4 -17   66.25    4.09
 -13  -4  17   67.78    4.04
 -13  -4  15   -0.03    0.29
  13   4 -15    0.30    0.49
 -13  -4  13   -0.02    0.56
  13   4 -13    0.31    0.41
  13   4 -11   28.91    2.87
 -13  -4  11   29.70    2.89
 -13  -4   9    0.61    0.57
  13   4  -9    0.09    0.29
 -13  -4   7    0.32    0.68
  13   4  -7   -0.50    0.72
  13   4  -5    5.39    1.21
 -13  -4   5    4.17    1.09
 -13  -4   3    1.61    1.13
  13   4  -3    0.27    0.67
 -13  -4   1   -0.11    0.39
  13   4  -1    1.41    1.05
  13   4   1    0.11    0.52
 -13  -4  -1   -0.07    0.54
 -13  -4  -3   -0.26    0.57
  13   4   3   -0.91    0.89
 -13  -4  -5    2.63    1.35
  13   4   5    1.01    1.16
  13  -4   7   78.15    5.56
  13   4   7   74.87    5.65
 -13  -4  -7   75.39    5.68
  13  -4   9    0.56    0.97
 -13  -4  -9    0.75    1.22
  13   4   9   -0.02    0.41
  13  -4  11    0.58    0.56
 -13  -4 -11    0.99    0.78
  13   4  11   -0.58    0.49
 -13  -4 -13    0.18    0.54
  13   4  13   -0.78    0.95
  13  -4  13    0.37    0.65
 -13  -4 -15    0.60    0.98
  13   4  15    0.97    1.21
  13  -4  15    2.10    1.26
 -13  -4 -17    0.82    1.22
  13   4  17    2.08    1.27
  13  -4  17    0.49    1.08
 -13  -4 -19    0.48    0.37
  13   4  19   -0.63    1.10
  13  -4  19   -0.49    0.84
 -13  -4 -21    2.00    1.52
  13   4  21    0.87    0.98
  13  -4  21    1.62    1.09
  13  -4  23   -0.90    0.56
 -13  -4 -23    0.33    0.39
  13   4  23    0.44    0.28
 -13  -4 -25    0.33    0.59
  13  -4  25   -0.22    0.50
  13   4  25   -1.01    0.95
 -13  -4 -27    1.33    1.52
  13  -4  27   -0.26    0.55
  13  -4  29   -0.03    0.54
 -13  -4 -29   -0.18    0.65
  13  -4  31    5.43    1.56
 -13  -4 -31    5.07    1.76
 -13  -4 -33    0.99    1.25
  13  -4  33    1.76    1.14
 -13  -4 -35    0.50    0.66
 -13  -4 -37   10.68    2.79
 -13  -4 -39   -1.09    0.72
 -13  -4 -41   -0.17    0.68
  13  -5 -44   -1.04    0.67
  13  -5 -42   -1.94    1.44
  13  -5 -40    0.34    0.35
  13  -5 -38   10.46    2.28
  13  -5 -36   -1.19    1.38
  13  -5 -34   -0.69    0.85
 -13  -5  30    0.52    0.30
 -13  -5  28    0.16    0.30
 -13  -5  26   70.84    3.60
 -13  -5  24    0.17    0.23
 -13  -5  22   -0.75    0.53
 -13  -5  20    0.00    0.51
 -13  -5  18    0.50    0.59
  13   5 -18    1.43    0.94
  13   5 -16   -0.09    0.45
 -13  -5  16   -2.10    1.31
  13   5 -14   42.32    3.71
 -13  -5  14   44.07    3.62
  13   5 -12    0.26    0.37
 -13  -5  12   -0.06    0.37
  13   5 -10   -0.06    0.40
 -13  -5  10    0.97    0.74
  13   5  -8    7.85    1.66
 -13  -5   8    6.24    1.35
  13   5  -6    0.27    0.60
 -13  -5   6   -0.35    0.46
  13   5  -4   -0.45    0.63
 -13  -5   4   -0.06    0.39
  13   5  -2    0.34    0.88
 -13  -5   2    0.44    0.78
  13   5   0    4.49    2.15
 -13  -5   0    5.74    2.59
  13   5   2    1.22    1.09
 -13  -5  -2    0.71    1.07
  13   5   4  355.53   12.84
 -13  -5  -4  353.61   12.44
  13   5   6    0.11    0.54
 -13  -5  -6   -0.83    1.10
  13   5   8   -0.22    0.72
 -13  -5  -8    0.35    0.59
  13   5  10    9.18    2.24
 -13  -5 -10    7.34    1.77
  13  -5  12    1.53    1.54
  13   5  12    3.19    1.57
 -13  -5 -12    1.81    1.21
  13  -5  14    1.44    1.22
  13   5  14    0.27    0.93
 -13  -5 -14   -0.53    1.20
  13  -5  16    1.90    0.98
  13   5  16    1.01    0.86
 -13  -5 -16    2.03    0.74
 -13  -5 -18    0.64    0.67
  13   5  18    0.63    0.76
  13  -5  18    0.47    0.50
 -13  -5 -20    1.71    1.83
  13   5  20   -0.22    0.39
  13  -5  20    1.56    1.15
  13  -5  22   -0.41    0.44
 -13  -5 -22    0.12    1.13
  13  -5  24    0.20    0.50
 -13  -5 -24    1.17    1.49
 -13  -5 -26    2.07    1.71
  13  -5  26   -0.01    0.34
 -13  -5 -28   -0.76    1.18
  13  -5  28   -0.86    1.07
  13  -5  30   -0.75    0.81
 -13  -5 -30    0.80    0.93
 -13  -5 -32    0.29    0.40
 -13  -5 -34    3.58    1.49
 -13  -5 -36    0.90    0.96
 -13  -5 -38   -0.66    0.99
 -13  -5 -40    6.47    2.29
 -13  -5 -42   -0.88    1.03
  13  -6 -45   -0.25    0.84
  13  -6 -43    0.81    0.80
  13  -6 -41    9.06    2.42
  13  -6 -39   -0.90    1.28
  13  -6 -37   -1.30    1.03
  13  -6 -35   -1.90    1.57
  13  -6 -33   -1.04    1.22
 -13  -6  31   -0.17    0.33
 -13  -6  29   17.76    1.83
 -13  -6  27    0.47    0.59
 -13  -6  25    0.88    0.71
 -13  -6  23   10.83    1.76
 -13  -6  21   -0.60    0.67
 -13  -6  19    0.42    0.35
 -13  -6  17   34.95    3.39
  13   6 -15    1.11    1.02
 -13  -6  15    0.39    0.67
  13   6 -13    2.96    1.41
 -13  -6  13    0.76    0.93
  13   6 -11    3.17    1.13
 -13  -6  11    3.27    0.96
  13   6  -9    0.27    0.66
 -13  -6   9   -0.49    0.72
  13   6  -7    0.63    0.67
 -13  -6   7    0.38    0.90
  13   6  -5   -0.69    1.11
 -13  -6   5    0.80    0.71
  13   6  -3    0.65    1.02
 -13  -6   3   -0.58    0.35
  13   6  -1    0.27    0.47
 -13  -6   1    0.03    0.52
  13   6   1    8.63    2.07
 -13  -6  -1    8.03    1.91
  13   6   3    1.16    1.28
 -13  -6  -3    0.63    1.17
  13   6   5    1.40    1.71
 -13  -6  -5    1.71    1.54
  13   6   7   63.61    5.92
 -13  -6  -7   55.45    5.41
  13   6   9    0.87    0.37
 -13  -6  -9    0.32    0.67
  13   6  11    1.54    1.74
 -13  -6 -11    1.69    1.56
  13   6  13   -0.50    1.06
 -13  -6 -13   -0.58    1.17
  13  -6  15    0.69    0.85
  13   6  15   -0.44    0.98
 -13  -6 -15   -1.34    1.45
  13  -6  17   -0.72    0.71
 -13  -6 -17    0.33    0.80
  13  -6  19   69.24    5.95
 -13  -6 -19   62.38    6.29
  13  -6  21    2.90    1.61
 -13  -6 -21    4.19    2.16
 -13  -6 -23   -0.03    0.72
  13  -6  23    1.28    1.39
 -13  -6 -25   -0.79    0.77
  13  -6  25   -2.22    1.51
 -13  -6 -27    1.22    1.38
  13  -6  27    0.74    0.80
  13  -6  29    1.20    1.10
 -13  -6 -29    0.42    1.34
 -13  -6 -31   -0.74    1.48
 -13  -6 -33    1.96    1.57
 -13  -6 -35   -0.57    0.52
 -13  -6 -37    1.44    1.21
 -13  -6 -39    1.48    1.04
 -13  -6 -41   -0.37    0.75
 -13  -6 -43    2.26    1.66
  13  -7 -44    3.55    1.74
  13  -7 -42   -0.52    1.01
  13  -7 -40    0.06    1.02
  13  -7 -38    0.04    0.48
  13  -7 -36   -1.95    1.31
  13  -7 -34   -1.05    0.55
 -13  -7  34    0.20    0.17
 -13  -7  32    4.92    0.95
  13  -7 -32    6.53    2.03
 -13  -7  30    0.94    0.76
 -13  -7  28   -0.03    0.27
 -13  -7  26    1.38    0.53
 -13  -7  24    0.96    0.46
 -13  -7  22   -0.56    0.35
 -13  -7  20    9.20    1.80
 -13  -7  18    0.09    0.39
 -13  -7  16    1.87    1.18
 -13  -7  14   30.40    3.48
 -13  -7  12    0.05    0.55
  13   7 -10    1.42    1.31
 -13  -7  10    2.00    1.38
  13   7  -8    1.13    1.11
 -13  -7   8   -0.19    0.59
  13   7  -6    0.60    1.43
 -13  -7   6    2.09    1.53
  13   7  -4   -0.25    0.61
 -13  -7   4    0.06    0.70
  13   7  -2    5.13    1.57
 -13  -7   2    3.53    1.23
  13   7   0   -0.13    0.63
 -13  -7   0    0.38    0.58
  13   7   2   -0.77    1.02
 -13  -7  -2    0.48    0.89
  13   7   4   50.24    5.46
 -13  -7  -4   47.26    5.14
  13   7   6    3.76    2.07
 -13  -7  -6    3.26    2.20
  13   7   8    3.52    1.85
 -13  -7  -8    2.50    1.73
 -13  -7 -10    1.03    1.00
 -13  -7 -12   -1.39    1.27
 -13  -7 -14   -1.05    1.26
 -13  -7 -16   -1.03    1.48
  13  -7  18    2.20    1.61
 -13  -7 -18    2.22    2.17
  13  -7  20   -0.21    0.31
 -13  -7 -20    0.95    0.87
  13  -7  22   83.56    6.89
 -13  -7 -22   87.58    7.94
  13  -7  24    4.38    1.96
 -13  -7 -24    1.60    1.54
 -13  -7 -26    1.29    1.18
  13  -7  26    0.71    1.09
 -13  -7 -28    0.58    1.06
  13  -7  28    3.17    1.29
 -13  -7 -30    0.83    1.05
 -13  -7 -32   -1.02    1.19
 -13  -7 -34   -1.10    1.34
 -13  -7 -36    0.00    0.70
 -13  -7 -38   -0.41    0.65
 -13  -7 -40    0.09    0.99
 -13  -7 -42    1.85    1.48
  13  -8 -45    0.22    0.49
  13  -8 -43    3.57    1.99
  13  -8 -41   -2.08    1.71
  13  -8 -39   -1.89    1.06
  13  -8 -37    1.71    1.48
  13  -8 -35    0.72    0.57
 -13  -8  33    1.17    0.59
  13  -8 -33    0.21    0.53
 -13  -8  31    0.16    0.33
  13  -8 -31   -1.54    1.47
 -13  -8  29   26.05    2.93
 -13  -8  27    0.58    0.61
 -13  -8  25   -1.25    1.07
 -13  -8  23    2.68    0.89
 -13  -8  21   -0.25    0.53
 -13  -8  19   -0.11    0.37
 -13  -8  17    2.96    0.97
 -13  -8  15   -0.77    0.90
 -13  -8  13    1.68    1.45
 -13  -8  11   -0.49    0.89
 -13  -8   9   -0.80    0.56
 -13  -8   7    0.28    0.97
 -13  -8   5    1.80    1.01
 -13  -8   3    2.02    1.90
  13   8  -1   -0.59    0.80
 -13  -8   1    0.91    0.86
  13   8   1    1.51    0.60
 -13  -8  -1    2.53    1.10
 -13  -8  -3    0.97    1.55
 -13  -8  -5   -0.39    0.51
 -13  -8  -7   -0.84    1.37
 -13  -8  -9    0.26    1.05
 -13  -8 -11   -1.08    0.97
 -13  -8 -13   17.68    3.48
 -13  -8 -15    6.43    2.89
 -13  -8 -17    0.88    1.47
  13  -8  19    0.16    0.76
 -13  -8 -19   -1.10    1.66
  13  -8  21    1.20    0.75
 -13  -8 -21   -1.42    1.11
 -13  -8 -23    0.59    0.93
 -13  -8 -25    1.31    1.16
 -13  -8 -27    0.31    1.47
 -13  -8 -29   -1.23    1.68
 -13  -8 -31    3.51    1.96
 -13  -8 -33    0.59    1.02
 -13  -8 -35   -1.00    0.85
 -13  -8 -37   -0.80    1.34
 -13  -8 -39    1.95    1.82
 -13  -8 -41    2.96    1.82
  13  -9 -44   -3.84    2.25
  13  -9 -42    1.37    1.46
  13  -9 -40   -2.14    1.04
  13  -9 -38   -1.31    1.27
  13  -9 -36    0.13    1.20
  13  -9 -34    0.24    0.94
 -13  -9  32    0.60    0.67
  13  -9 -32   -1.56    1.40
  13  -9 -30   -0.56    0.77
 -13  -9  30   -0.40    0.51
 -13  -9  28   -0.97    0.92
 -13  -9  26   13.28    2.39
 -13  -9  24   -0.57    0.70
 -13  -9  22   -1.81    1.18
 -13  -9  20   -0.15    0.94
 -13  -9  18   -1.74    1.15
 -13  -9  16    1.59    1.23
 -13  -9  14   -0.35    0.58
 -13  -9  12    0.35    1.12
 -13  -9  10   -0.05    0.70
 -13  -9   8    4.49    1.39
 -13  -9   6    0.30    1.23
 -13  -9   4    1.22    1.15
 -13  -9   2   18.45    3.48
 -13  -9   0    2.81    1.97
 -13  -9  -2    2.31    1.68
 -13  -9  -4    3.28    1.28
 -13  -9  -6   -1.75    1.72
 -13  -9  -8    0.29    0.81
 -13  -9 -10   15.43    3.46
 -13  -9 -12    2.71    2.17
 -13  -9 -14    7.89    3.11
 -13  -9 -16    3.56    1.33
 -13  -9 -18   -0.89    1.18
 -13  -9 -20   -1.43    1.56
 -13  -9 -22    8.80    2.53
 -13  -9 -24   -1.42    1.44
 -13  -9 -26    0.28    1.06
 -13  -9 -28   -0.93    0.99
 -13  -9 -30   -0.80    1.14
 -13  -9 -32    2.42    1.57
 -13  -9 -34    1.67    1.14
 -13  -9 -36   -0.03    0.50
 -13  -9 -38    1.66    1.39
 -13  -9 -40    2.30    1.62
  13 -10 -45    0.68    1.06
  13 -10 -43   -0.64    1.23
  13 -10 -41    3.73    2.03
  13 -10 -39    1.50    1.44
  13 -10 -37   -0.94    0.80
  13 -10 -35   -2.03    1.59
  13 -10 -33    2.29    2.32
  13 -10 -31   -0.02    0.56
  13 -10 -29    1.67    1.30
 -13 -10  29    0.52    0.77
 -13 -10  27    0.20    0.69
 -13 -10  25    0.17    0.47
 -13 -10  23    4.41    1.57
 -13 -10  21   -0.46    0.82
 -13 -10  19   -0.61    0.54
 -13 -10  17   -0.65    1.18
 -13 -10  15   -0.74    1.00
 -13 -10  13   -0.15    0.98
 -13 -10  11   33.96    4.64
 -13 -10   9   -0.83    0.99
 -13 -10   7    3.20    1.81
 -13 -10   5   49.98    5.92
 -13 -10   3   -0.45    0.91
 -13 -10   1    0.86    0.70
 -13 -10  -1    3.06    1.23
 -13 -10  -3    2.34    1.69
 -13 -10  -5    0.59    0.68
 -13 -10  -7    0.62    1.15
 -13 -10  -9    4.39    2.56
 -13 -10 -11    0.82    1.69
 -13 -10 -13    3.65    1.51
 -13 -10 -15   -0.72    1.40
 -13 -10 -17    0.00    0.69
 -13 -10 -19   -0.77    1.33
 -13 -10 -21    1.45    0.97
 -13 -10 -23    0.87    1.57
 -13 -10 -25    0.65    0.89
 -13 -10 -27    3.16    2.35
 -13 -10 -29   -0.50    1.52
 -13 -10 -31   -0.73    1.24
 -13 -10 -33   -0.66    1.00
 -13 -10 -35    3.20    2.40
  13 -11 -42   -1.00    1.60
  13 -11 -40    0.95    1.38
  13 -11 -38   -1.13    1.43
  13 -11 -36    1.95    1.14
  13 -11 -34   -0.40    1.05
  13 -11 -32   -0.15    0.99
  13 -11 -30    0.35    1.15
  13 -11 -28    0.13    1.55
 -13 -11  28   -0.67    0.79
  13 -11 -26    1.96    1.94
 -13 -11  26    0.54    0.40
 -13 -11  24    1.83    1.04
 -13 -11  22    0.22    0.70
 -13 -11  20   -0.05    0.64
 -13 -11  18    1.59    1.07
 -13 -11  16   -0.21    0.97
 -13 -11  14    1.26    0.62
 -13 -11  12    0.42    1.14
 -13 -11  10   -1.87    1.68
 -13 -11   8    2.42    1.00
 -13 -11   6    1.63    1.54
 -13 -11   4   -1.37    1.39
 -13 -11   2    1.65    1.73
 -13 -11   0   -0.28    0.66
 -13 -11  -2    2.56    1.70
 -13 -11  -4    0.62    1.12
 -13 -11  -6    2.23    1.60
 -13 -11  -8    2.77    2.22
 -13 -11 -10   -0.57    0.88
 -13 -11 -12   -0.20    1.34
 -13 -11 -14    0.29    0.70
 -13 -11 -16    2.06    1.88
 -13 -11 -18    2.36    1.99
 -13 -11 -20    2.20    2.13
 -13 -11 -22    4.03    2.01
 -13 -11 -24    2.62    2.11
 -13 -11 -26   -2.43    2.14
 -13 -11 -28   -2.08    1.94
 -13 -11 -30    2.75    2.32
  13 -12 -35   -0.37    0.93
  13 -12 -33   -0.77    0.96
  13 -12 -31   -3.17    2.11
  13 -12 -29    0.83    1.40
  13 -12 -27   -1.19    1.58
 -13 -12  27    1.29    1.15
  13 -12 -25    0.47    1.03
 -13 -12  25   -1.22    1.09
  13 -12 -23    2.36    2.00
 -13 -12  23   -0.47    1.07
 -13 -12  21    1.77    1.44
 -13 -12  19    0.52    1.12
 -13 -12  17   -0.65    0.95
 -13 -12  15    1.22    0.95
 -13 -12  13    2.14    1.36
 -13 -12  11   -0.77    1.17
 -13 -12   9   -1.17    0.99
 -13 -12   7    0.25    0.85
 -13 -12   5   -1.14    0.99
 -13 -12   3    1.07    1.11
 -13 -12   1    3.13    2.14
 -13 -12  -1   -1.05    1.71
 -13 -12  -3    0.29    1.46
 -13 -12  -5    2.01    1.40
 -13 -12  -7    2.24    1.52
 -13 -12  -9    0.63    0.63
 -13 -12 -11    2.44    1.83
 -13 -12 -13   -0.23    1.28
 -13 -12 -15    1.28    1.53
 -13 -12 -17    1.72    2.25
 -13 -12 -19   -0.97    1.47
 -13 -12 -21   -0.32    0.87
 -13 -12 -23   -0.84    1.88
  13 -13 -26   -1.24    2.04
  13 -13 -24    2.23    2.05
 -13 -13  24    0.04    0.70
  13 -13 -22    1.91    1.82
 -13 -13  22   -1.58    1.19
  13 -13 -20    1.52    1.60
 -13 -13  20    1.44    0.80
 -13 -13  18    1.14    1.20
 -13 -13  16    2.91    1.64
 -13 -13  14    1.95    0.91
 -13 -13  12   -1.73    0.91
 -13 -13  10   -1.29    1.30
 -13 -13   8    2.21    1.52
 -13 -13   6    0.13    1.25
 -13 -13   4   -0.77    1.68
 -13 -13   2    0.75    1.48
 -13 -13   0    1.98    1.72
 -13 -13  -2    3.18    2.31
 -13 -13  -4   -1.46    1.56
 -13 -13  -6    1.01    0.52
 -13 -13  -8   -0.43    0.72
 -13 -13 -10    0.93    0.60
 -13 -13 -12    4.04    2.96
 -13 -13 -14   -1.93    1.91
 -13 -13 -16    3.24    2.28
 -13 -14  23   -2.97    1.90
 -13 -14  21    2.04    1.65
 -13 -14  19    0.65    1.09
 -13 -14  17   -0.21    0.81
  13 -14 -15    1.04    1.10
 -13 -14  15    2.74    1.61
 -13 -14  13    0.26    0.86
 -13 -14  11    0.05    0.78
 -13 -14   9    1.18    1.46
 -13 -14   7   -0.80    0.98
 -13 -14   5   -0.59    0.96
 -13 -14   3    1.86    1.91
 -13 -14   1   -0.79    1.93
 -13 -14  -1    3.11    2.15
 -13 -14  -3   -0.07    0.66
 -13 -14  -5   -0.03    1.50
 -13 -14  -7    1.20    1.57
 -13 -15  20    0.43    0.88
 -13 -15  18   -0.06    0.72
 -13 -15  16    0.64    0.68
 -13 -15  14    1.55    1.56
 -13 -15  12    3.87    2.25
 -13 -15  10    0.81    1.51
 -13 -15   8    2.47    1.67
 -13 -15   6    2.12    2.16
  14   0 -34  282.88    4.89
  14   0 -34  284.06    4.98
  14   0 -32   -0.24    0.24
  14   0 -32    0.31    0.34
  14   0 -30    0.27    0.23
  14   0 -28  243.30    6.33
  14   0 -26    0.20    0.30
  14   0 -24   -0.35    0.35
  14   0 -22  244.04    6.98
  14   0 -20    0.06    0.29
  14   0 -18   -0.18    0.25
  14   0 -16 1020.17   15.19
  14   0 -14   -0.12    0.24
  14   0 -12   -0.41    0.40
 -14   0  10   72.65    4.33
  14   0 -10   80.29    4.48
 -14   0   8   -0.46    0.49
  14   0  -8    0.08    0.43
 -14   0   6    1.80    1.07
  14   0  -6   -0.31    0.31
 -14   0   4  923.13   16.26
  14   0  -4  927.18   16.01
 -14   0   2    0.02    0.57
  14   0  -2    0.16    0.22
 -14   0   0    0.24    0.52
  14   0   0   -0.50    0.44
 -14   0  -2 1266.89   20.26
  14   0   2 1281.10   20.00
 -14   0  -4   -0.77    0.78
  14   0   4   -0.55    0.68
 -14   0  -6    0.01    0.30
  14   0   6    0.27    0.53
  14   0   8   36.23    3.55
 -14   0  -8   32.87    3.43
 -14   0 -10    0.09    0.36
  14   0  10   -0.40    0.43
 -14   0 -12    0.71    0.70
  14   0  12    0.49    0.70
 -14   0 -14  943.20   19.43
  14   0  14  914.77   18.90
 -14   0 -16    0.78    0.46
  14   0  16    0.45    0.62
 -14   0 -18   -0.66    0.38
  14   0  18    1.03    0.98
 -14   0 -20 1026.06   21.53
  14   0  20 1025.34   20.99
 -14   0 -22   -0.23    0.42
  14   0  22   -0.40    0.64
 -14   0 -24   -0.71    0.97
  14   0  24    0.85    0.65
 -14   0 -26  102.57    7.16
  14   0  26   96.84    6.78
 -14   0 -28   -0.35    0.72
  14   0  28    1.17    0.95
 -14   0 -30   -0.59    0.95
  14   0  30   -1.30    1.03
 -14   0 -32  176.63    9.78
  14   0  32  176.64    9.58
 -14   0 -34   -0.33    0.81
  14   0  34    1.58    1.27
 -14   0 -36   -0.08    0.30
 -14   0 -38   50.47    5.31
 -14   0 -40   -0.86    0.98
  14  -1 -39   -0.59    0.44
  14  -1 -39   -0.71    0.46
  14  -1 -37   96.21    3.98
  14  -1 -37   93.13    3.86
  14  -1 -35   -0.01    0.21
  14  -1 -35    0.10    0.30
  14  -1 -33    0.43    0.32
  14  -1 -33    0.41    0.39
  14  -1 -31  177.38    6.16
  14  -1 -29   -0.49    0.35
  14   1 -29   -0.38    0.34
  14  -1 -27   -0.78    0.77
  14   1 -27   -0.13    0.19
  14  -1 -25  121.87    5.32
  14   1 -25  124.01    4.17
  14  -1 -23   -1.30    0.91
  14   1 -23   -0.24    0.18
  14  -1 -21   -0.85    0.79
  14   1 -21   -0.10    0.24
  14  -1 -19  535.47   11.55
  14   1 -19  534.21   10.13
  14  -1 -17   -0.35    0.44
  14   1 -17    0.21    0.40
  14  -1 -15   -0.24    0.24
 -14  -1  15    0.59    0.49
  14   1 -15    0.91    0.53
  14  -1 -13  481.78   11.30
 -14  -1  13  492.88   10.82
  14   1 -13  496.62   10.70
 -14  -1  11    0.05    0.41
  14  -1 -11   -0.11    0.28
  14   1 -11   -0.09    0.28
 -14  -1   9   -0.08    0.27
  14  -1  -9   -0.29    0.41
  14   1  -9    0.16    0.43
  14  -1  -7 1219.75   18.59
  14   1  -7 1179.25   17.74
 -14  -1   7 1228.79   18.21
 -14  -1   5   -1.03    0.53
  14  -1  -5   -0.20    0.66
  14   1  -5    0.69    0.67
  14  -1  -3   -0.23    0.25
 -14  -1   3   -0.80    0.86
  14   1  -3   -0.12    0.30
 -14   1   1 1210.21   19.46
  14  -1  -1 1203.21   19.14
 -14  -1   1 1183.27   19.22
  14   1  -1 1180.48   18.58
 -14   1  -1    0.23    0.28
  14  -1   1    0.75    0.40
 -14  -1  -1   -0.50    0.24
  14   1   1   -0.09    0.49
 -14  -1  -3   -0.47    0.38
 -14   1  -3    0.31    0.39
  14  -1   3    0.26    0.62
  14   1   3    0.32    0.44
 -14   1  -5   95.75    5.75
  14  -1   5   97.38    5.78
 -14  -1  -5   89.08    5.55
  14   1   5   98.95    5.72
 -14  -1  -7   -0.19    0.52
 -14   1  -7    0.65    1.09
  14  -1   7    0.94    0.72
  14   1   7   -0.23    0.49
 -14   1  -9    0.23    0.66
  14  -1   9   -0.31    0.33
  14   1   9   -0.23    0.46
 -14  -1  -9    0.11    0.46
 -14   1 -11   33.62    3.58
  14  -1  11   31.79    3.45
 -14  -1 -11   24.10    3.00
  14   1  11   26.05    3.08
 -14   1 -13   -0.46    0.28
 -14  -1 -13   -0.72    0.79
  14  -1  13   -0.75    0.84
  14   1  13   -1.14    0.91
 -14   1 -15    0.81    1.06
 -14  -1 -15    0.66    0.77
  14  -1  15   -0.43    0.67
  14   1  15   -0.26    0.26
 -14   1 -17 1003.06   20.56
 -14  -1 -17 1013.42   21.24
  14  -1  17 1008.27   20.28
  14   1  17 1033.49   20.90
 -14   1 -19   -0.28    0.57
 -14  -1 -19   -0.09    0.37
  14  -1  19    0.02    0.44
  14   1  19   -0.08    0.49
 -14  -1 -21   -1.27    1.20
 -14   1 -21   -0.50    0.30
  14  -1  21    0.19    0.32
  14   1  21   -0.11    0.50
 -14   1 -23  518.32   15.40
 -14  -1 -23  501.94   15.88
  14  -1  23  498.61   14.87
  14   1  23  515.48   15.67
 -14  -1 -25   -0.18    0.57
 -14   1 -25    0.04    0.69
  14   1  25    0.55    0.39
  14  -1  25    0.00    0.69
 -14  -1 -27   -0.56    0.43
 -14   1 -27   -0.40    0.83
  14  -1  27   -0.53    0.39
  14   1  27   -0.52    0.83
 -14  -1 -29   68.69    6.15
 -14   1 -29   72.00    5.95
  14   1  29   71.64    6.15
  14  -1  29   73.95    5.96
 -14  -1 -31    0.40    0.89
 -14   1 -31   -0.62    1.10
  14   1  31    0.51    0.41
  14  -1  31   -0.13    0.57
 -14  -1 -33    0.68    1.05
  14   1  33   -0.70    0.95
  14  -1  33   -1.54    1.38
 -14  -1 -35  168.84   10.07
  14   1  35  166.80    9.87
  14  -1  35  164.50    9.19
 -14  -1 -37    0.86    0.66
 -14  -1 -39    0.44    0.66
 -14  -1 -41   62.67    6.21
  14  -2 -42   -0.52    0.64
  14  -2 -40   85.27    4.51
  14  -2 -38   -0.39    0.57
  14  -2 -36   -0.32    0.54
  14  -2 -34  120.18    5.84
  14   2 -28  227.33    3.87
  14   2 -26    0.07    0.17
  14   2 -24   -0.21    0.33
  14   2 -22  241.19    6.17
 -14  -2  20   -0.50    0.46
  14   2 -20    0.19    0.27
 -14  -2  18    0.22    0.43
  14   2 -18    0.01    0.30
 -14  -2  16  367.53    9.01
  14   2 -16  361.95    8.78
 -14  -2  14   -0.52    0.28
  14   2 -14    0.40    0.23
 -14  -2  12   -0.01    0.52
  14   2 -12    0.33    0.42
 -14  -2  10  743.12   13.76
  14   2 -10  749.39   13.63
 -14  -2   8   -0.14    0.38
  14   2  -8    2.06    0.99
  14  -2  -6    0.56    0.47
 -14  -2   6    0.82    0.68
  14   2  -6    1.32    0.91
  14  -2  -4 1104.48   18.82
 -14  -2   4 1099.22   18.06
  14   2  -4 1081.24   17.68
  14  -2  -2   -0.04    0.34
 -14  -2   2    0.22    0.27
  14   2  -2    0.89    0.79
  14  -2   0   -0.62    0.64
 -14  -2   0   -0.28    0.52
  14   2   0   -0.19    0.41
  14  -2   2  453.32   12.52
 -14  -2  -2  445.48   12.41
  14   2   2  460.89   12.26
  14  -2   4    1.20    1.00
 -14  -2  -4    0.80    0.62
  14   2   4    0.77    0.71
  14  -2   6    0.57    0.50
 -14  -2  -6    0.62    0.42
  14   2   6    0.48    0.43
 -14  -2  -8  759.41   17.23
  14  -2   8  749.27   16.78
  14   2   8  787.44   17.20
  14  -2  10   -0.24    0.50
 -14  -2 -10   -0.21    0.48
  14   2  10    0.06    0.73
  14  -2  12    0.29    0.59
 -14  -2 -12    1.13    1.21
  14   2  12    0.63    0.49
  14  -2  14  378.49   12.27
 -14  -2 -14  377.25   12.92
  14   2  14  390.81   12.93
 -14  -2 -16   -0.73    0.92
  14  -2  16   -1.59    1.36
  14   2  16   -0.96    0.85
 -14  -2 -18   -0.07    0.66
  14  -2  18   -0.45    0.72
  14   2  18   -0.19    0.75
  14  -2  20  352.32   12.32
 -14  -2 -20  345.46   13.00
  14   2  20  348.54   12.99
 -14  -2 -22   -1.42    1.45
  14  -2  22   -0.03    0.52
  14   2  22   -0.69    0.97
  14  -2  24    0.12    0.55
 -14  -2 -24   -0.92    0.91
  14   2  24   -0.82    0.86
 -14  -2 -26  136.04    8.52
  14   2  26  134.53    8.51
  14  -2  26  135.58    7.80
 -14  -2 -28   -0.05    0.32
  14  -2  28   -1.66    1.24
  14   2  28   -0.32    1.00
 -14  -2 -30    1.50    1.33
  14   2  30    0.31    1.02
  14  -2  30    0.05    0.55
 -14  -2 -32  139.51    9.22
  14   2  32  138.56    9.15
  14  -2  32  137.60    8.16
 -14  -2 -34   -0.44    0.40
  14  -2  34   -1.96    1.22
 -14  -2 -36   -1.26    1.13
 -14  -2 -38  134.11    9.34
 -14  -2 -40    1.25    1.37
  14  -3 -43   46.48    3.85
  14  -3 -41   -0.71    0.81
  14  -3 -39    0.22    0.41
  14  -3 -37   63.76    4.79
  14  -3 -35   -0.24    0.47
  14   3 -25   93.50    3.64
  14   3 -23    0.21    0.25
 -14  -3  23   -0.20    0.26
  14   3 -21   -0.39    0.45
 -14  -3  21    0.20    0.32
 -14  -3  19  203.83    6.61
  14   3 -19  203.10    6.48
 -14  -3  17   -0.09    0.44
  14   3 -17   -0.08    0.36
 -14  -3  15   -0.73    0.65
  14   3 -15   -0.42    0.30
 -14  -3  13  129.87    5.80
  14   3 -13  123.74    5.64
 -14  -3  11   -0.17    0.42
  14   3 -11   -0.18    0.29
 -14  -3   9    0.36    0.55
  14   3  -9    0.42    0.84
 -14  -3   7 1128.28   18.40
  14   3  -7 1154.48   18.40
 -14  -3   5   -0.24    0.34
  14   3  -5    1.24    0.77
 -14  -3   3    0.54    0.41
  14   3  -3    0.65    0.46
  14   3  -1  229.62    8.79
 -14  -3   1  228.13    8.89
  14  -3   1   -0.64    0.95
 -14  -3  -1    0.55    0.61
  14   3   1    0.63    0.60
  14  -3   3   -0.65    0.89
 -14  -3  -3    0.42    0.72
  14   3   3   -0.39    0.26
  14  -3   5 1025.77   19.71
  14   3   5 1029.64   20.03
 -14  -3  -5  969.70   19.54
  14  -3   7    1.24    0.81
 -14  -3  -7    0.48    0.60
  14   3   7   -0.34    0.47
  14  -3   9    1.05    0.91
 -14  -3  -9    1.13    1.09
  14   3   9    0.53    0.56
  14  -3  11  540.25   14.85
  14   3  11  565.71   15.80
 -14  -3 -11  542.12   15.36
  14  -3  13   -0.02    0.43
 -14  -3 -13   -0.72    0.74
  14   3  13    0.64    0.67
  14  -3  15    0.33    0.55
 -14  -3 -15    1.29    0.97
  14   3  15    0.86    0.85
 -14  -3 -17  138.49    8.27
  14  -3  17  156.07    8.19
  14   3  17  140.82    8.38
 -14  -3 -19   -0.80    1.45
  14  -3  19   -1.03    1.03
  14   3  19   -1.12    1.24
  14  -3  21   -1.06    0.55
 -14  -3 -21   -0.80    1.07
  14   3  21   -0.10    0.36
  14  -3  23   33.09    3.91
 -14  -3 -23   35.39    4.43
  14   3  23   34.74    4.38
  14  -3  25   -0.44    0.52
 -14  -3 -25   -0.19    0.62
  14   3  25    0.14    0.44
 -14  -3 -27   -1.63    1.34
  14  -3  27   -0.62    0.56
  14   3  27   -0.86    0.77
 -14  -3 -29  136.09    9.13
  14   3  29  132.34    9.14
  14  -3  29  128.49    7.80
 -14  -3 -31   -0.78    1.20
  14  -3  31   -1.45    1.15
 -14  -3 -33   -1.72    1.59
  14  -3  33   -0.80    0.83
 -14  -3 -35   64.49    6.54
 -14  -3 -37    0.45    1.06
 -14  -3 -39    0.16    0.83
 -14  -3 -41   80.16    7.66
  14  -4 -44   -0.43    0.51
  14  -4 -42   -0.96    1.06
  14  -4 -40   85.38    6.09
  14  -4 -38   -2.37    1.41
  14  -4 -36   -0.83    1.00
  14  -4 -34  124.29    7.45
 -14  -4  26   -0.21    0.13
  14   4 -24    0.29    0.24
 -14  -4  24   -0.35    0.34
 -14  -4  22   44.94    3.08
  14   4 -22   44.14    3.12
 -14  -4  20   -0.24    0.38
  14   4 -20   -0.23    0.41
 -14  -4  18   -0.03    0.36
  14   4 -18   -0.26    0.62
  14   4 -16  203.34    7.48
 -14  -4  16  204.35    7.35
 -14  -4  14   -0.22    0.43
  14   4 -14    0.36    0.57
 -14  -4  12   -0.18    0.39
  14   4 -12   -1.17    0.97
  14   4 -10  340.11   10.38
 -14  -4  10  339.71   10.29
 -14  -4   8   -0.79    0.84
  14   4  -8   -0.65    0.82
 -14  -4   6   -0.40    0.60
  14   4  -6    0.16    0.45
  14   4  -4  557.40   14.13
 -14  -4   4  549.96   13.98
 -14  -4   2    1.82    1.08
  14   4  -2   -0.43    0.37
 -14  -4   0    0.30    0.86
  14   4   0    0.18    0.56
  14   4   2  462.86   13.59
 -14  -4  -2  452.81   13.43
 -14  -4  -4    0.21    0.40
  14   4   4    0.33    0.62
  14  -4   6    0.10    0.31
 -14  -4  -6    0.45    0.85
  14   4   6    0.70    0.81
  14  -4   8  420.22   13.33
  14   4   8  405.01   13.50
 -14  -4  -8  391.28   13.31
  14  -4  10    0.11    0.48
 -14  -4 -10    0.31    0.44
  14   4  10    0.15    0.59
  14  -4  12   -0.14    0.34
 -14  -4 -12   -0.61    0.32
  14   4  12   -0.03    0.71
  14  -4  14  336.71   12.31
  14   4  14  339.73   13.19
 -14  -4 -14  335.33   13.00
 -14  -4 -16   -0.70    0.50
  14   4  16   -0.56    0.44
  14  -4  16    1.02    0.87
 -14  -4 -18    0.96    0.56
  14  -4  18   -0.95    0.81
  14   4  18    0.15    0.47
  14  -4  20  308.28   11.98
  14   4  20  322.23   13.65
 -14  -4 -20  303.74   13.02
 -14  -4 -22    0.50    0.69
  14  -4  22   -0.98    0.65
  14   4  22    0.85    0.87
 -14  -4 -24   -0.32    0.83
  14  -4  24   -2.23    1.42
  14   4  24   -1.05    0.71
  14  -4  26  189.01    9.56
 -14  -4 -26  186.30   10.77
 -14  -4 -28   -1.34    0.98
  14  -4  28   -0.81    1.08
 -14  -4 -30   -1.51    1.15
  14  -4  30   -0.26    0.66
 -14  -4 -32  128.62    9.46
  14  -4  32  131.44    8.07
 -14  -4 -34   -0.72    1.21
 -14  -4 -36    0.02    0.49
 -14  -4 -38   39.41    5.45
 -14  -4 -40   -0.74    0.92
 -14  -4 -42    1.06    0.86
  14  -5 -43   -0.49    0.84
  14  -5 -41   -1.52    1.07
  14  -5 -39   -0.93    0.72
  14  -5 -37   19.67    3.24
  14  -5 -35   -1.40    1.23
 -14  -5  29   -0.14    0.16
 -14  -5  27    0.00    0.23
 -14  -5  25  119.34    5.07
 -14  -5  23   -0.21    0.30
 -14  -5  21   -0.49    0.31
  14   5 -21   -0.52    0.53
  14   5 -19  372.57   10.69
 -14  -5  19  375.13   10.24
 -14  -5  17    0.26    0.70
  14   5 -17   -0.06    0.50
 -14  -5  15    0.15    0.59
  14   5 -15    0.05    0.28
  14   5 -13  243.07    9.25
 -14  -5  13  246.86    9.04
  14   5 -11   -0.46    0.58
 -14  -5  11   -0.55    1.04
  14   5  -9   -0.19    0.59
 -14  -5   9   -0.36    0.36
  14   5  -7  100.94    6.30
 -14  -5   7  100.48    6.12
  14   5  -5   -0.11    0.42
 -14  -5   5    0.62    0.62
  14   5  -3    1.61    1.29
 -14  -5   3    3.52    1.79
  14   5  -1 1851.23   28.50
 -14  -5   1 1843.03   27.85
  14   5   1   -0.33    0.72
 -14  -5  -1    2.82    1.63
  14   5   3    0.59    1.09
 -14  -5  -3    0.41    0.40
  14   5   5  239.07   10.73
 -14  -5  -5  233.67   10.42
  14   5   7   -2.47    1.12
 -14  -5  -7   -0.97    1.31
  14   5   9   -0.21    0.62
 -14  -5  -9   -0.29    0.54
  14  -5  11  539.81   16.04
  14   5  11  538.46   17.06
 -14  -5 -11  523.92   16.68
 -14  -5 -13   -2.30    1.69
  14   5  13   -0.88    1.11
  14  -5  13   -0.13    0.64
 -14  -5 -15   -1.76    1.55
  14  -5  15    1.80    0.86
  14   5  15   -1.67    1.18
  14  -5  17   67.12    5.81
  14   5  17   76.53    6.85
 -14  -5 -17   64.40    6.13
 -14  -5 -19    1.83    1.05
  14   5  19    1.32    1.34
  14  -5  19    1.43    1.30
  14  -5  21   -0.39    0.91
 -14  -5 -21    0.48    1.36
  14  -5  23  150.87    8.80
 -14  -5 -23  152.64    9.86
  14  -5  25   -0.90    0.52
 -14  -5 -25   -0.97    1.55
  14  -5  27    0.00    0.46
 -14  -5 -27   -0.87    1.38
  14  -5  29   81.28    6.48
 -14  -5 -29   85.94    7.78
  14  -5  31   -0.54    0.85
 -14  -5 -31   -0.95    1.09
 -14  -5 -33   -0.82    0.82
 -14  -5 -35   57.69    6.67
 -14  -5 -37   -0.78    0.92
 -14  -5 -39    0.07    1.11
 -14  -5 -41   62.67    7.23
  14  -6 -44   -0.37    0.33
  14  -6 -42    0.82    0.87
  14  -6 -40    5.10    1.67
  14  -6 -38   -1.03    1.14
  14  -6 -36   -1.10    1.62
  14  -6 -34   39.10    4.87
 -14  -6  32    0.16    0.24
 -14  -6  30   -0.06    0.16
 -14  -6  28  133.19    5.51
 -14  -6  26   -0.16    0.34
 -14  -6  24    0.01    0.22
 -14  -6  22   97.49    5.39
 -14  -6  20    0.64    0.62
 -14  -6  18   -0.76    0.89
  14   6 -16  177.77    8.33
 -14  -6  16  175.54    7.94
  14   6 -14    0.27    0.62
 -14  -6  14   -0.22    0.55
  14   6 -12    0.05    0.48
 -14  -6  12   -0.63    0.81
  14   6 -10  122.08    7.24
 -14  -6  10  122.58    7.08
  14   6  -8   -0.21    0.80
 -14  -6   8   -0.96    0.86
  14   6  -6   -0.35    0.34
 -14  -6   6   -0.17    0.35
  14   6  -4  138.69    8.09
 -14  -6   4  142.17    7.96
  14   6  -2   -0.06    0.45
 -14  -6   2    0.51    0.79
  14   6   0    0.05    0.35
 -14  -6   0    0.37    0.96
  14   6   2  305.32   12.76
 -14  -6  -2  319.44   12.60
  14   6   4    0.29    0.49
 -14  -6  -4   -0.24    0.38
  14   6   6    1.07    0.37
 -14  -6  -6    0.78    0.72
  14   6   8  162.31    9.68
 -14  -6  -8  156.88    9.19
  14   6  10    0.01    0.46
 -14  -6 -10   -0.59    1.32
  14   6  12   -0.75    1.44
 -14  -6 -12   -0.46    1.33
  14  -6  14   40.55    4.66
 -14  -6 -14   41.67    4.99
  14  -6  16   -1.04    0.90
 -14  -6 -16   -1.34    1.45
  14  -6  18   -0.83    0.93
 -14  -6 -18    1.45    1.31
  14  -6  20  321.66   13.41
 -14  -6 -20  320.13   14.53
  14  -6  22   -0.13    0.34
 -14  -6 -22    2.27    1.61
  14  -6  24    0.11    0.60
 -14  -6 -24    0.24    0.72
  14  -6  26  142.05    8.86
 -14  -6 -26  148.49   10.36
  14  -6  28   -0.46    0.82
 -14  -6 -28    0.74    1.20
 -14  -6 -30   -1.35    1.57
  14  -6  30   -0.59    0.65
 -14  -6 -32   33.19    5.28
 -14  -6 -34   -2.24    2.01
 -14  -6 -36   -0.12    1.25
 -14  -6 -38   18.59    4.05
 -14  -6 -40    0.45    1.07
 -14  -6 -42    0.44    0.54
  14  -7 -45    0.66    0.43
  14  -7 -43   23.82    4.18
  14  -7 -41   -0.16    0.68
  14  -7 -39   -1.32    1.30
  14  -7 -37   13.01    3.06
  14  -7 -35   -0.91    1.43
 -14  -7  33   -0.36    0.41
  14  -7 -33   -1.27    1.01
 -14  -7  31   67.41    3.96
 -14  -7  29   -0.14    0.37
 -14  -7  27    0.09    0.35
 -14  -7  25  102.68    5.78
 -14  -7  23   -0.63    0.69
 -14  -7  21    0.04    0.50
 -14  -7  19   46.95    4.28
 -14  -7  17    0.54    0.44
 -14  -7  15   -0.96    1.10
 -14  -7  13  115.59    7.11
  14   7 -11   -1.12    1.18
 -14  -7  11   -0.57    0.72
  14   7  -9    0.24    0.69
 -14  -7   9    0.64    0.71
  14   7  -7  246.79   11.41
 -14  -7   7  242.07   10.86
  14   7  -5    0.20    0.36
 -14  -7   5    0.04    0.83
  14   7  -3   -0.02    0.72
 -14  -7   3   -0.47    0.73
  14   7  -1   14.93    2.97
 -14  -7   1   16.23    3.08
  14   7   1   -0.55    0.71
 -14  -7  -1   -0.06    0.56
  14   7   3   -0.50    0.66
 -14  -7  -3   -0.78    1.24
  14   7   5  465.99   17.07
 -14  -7  -5  443.83   16.15
  14   7   7   -0.04    0.76
 -14  -7  -7   -0.28    1.10
 -14  -7  -9   -0.04    0.59
 -14  -7 -11   43.56    5.21
 -14  -7 -13   -0.98    1.02
 -14  -7 -15    0.26    0.98
  14  -7  17  313.33   13.54
 -14  -7 -17  313.50   14.66
  14  -7  19    0.69    0.57
 -14  -7 -19   -0.88    1.67
  14  -7  21    0.10    0.75
 -14  -7 -21   -0.33    0.62
  14  -7  23  187.33   10.69
 -14  -7 -23  177.72   11.59
  14  -7  25    0.45    0.70
 -14  -7 -25   -1.21    0.60
  14  -7  27    1.07    0.94
 -14  -7 -27    0.47    0.88
 -14  -7 -29   75.54    7.87
 -14  -7 -31   -2.79    1.91
 -14  -7 -33    0.27    0.78
 -14  -7 -35   37.61    5.79
 -14  -7 -37   -2.55    2.10
 -14  -7 -39    0.00    1.21
 -14  -7 -41   21.90    4.56
 -14  -7 -43    0.59    0.74
  14  -8 -44   -0.72    1.09
  14  -8 -42    1.52    1.24
  14  -8 -40   13.67    3.25
  14  -8 -38    0.26    0.87
  14  -8 -36   -1.26    1.07
  14  -8 -34   61.15    6.82
 -14  -8  32    0.22    0.26
  14  -8 -32   -2.72    1.76
 -14  -8  30   -0.80    0.55
 -14  -8  28   90.94    5.65
 -14  -8  26   -1.72    1.32
 -14  -8  24   -0.54    0.75
 -14  -8  22   48.98    4.54
 -14  -8  20   -0.94    1.02
 -14  -8  18   -0.43    0.87
 -14  -8  16   66.71    5.63
 -14  -8  14    0.65    0.71
 -14  -8  12    0.84    0.97
 -14  -8  10  141.55    8.65
 -14  -8   8   -0.35    0.56
 -14  -8   6    0.86    0.74
 -14  -8   4  182.88   10.23
  14   8  -4  177.04   10.39
  14   8  -2    0.08    0.66
 -14  -8   2    0.27    0.72
 -14  -8   0    0.80    1.07
 -14  -8  -2  169.97   10.27
 -14  -8  -4   -1.45    1.37
 -14  -8  -6   -1.92    1.15
 -14  -8  -8   73.28    6.99
 -14  -8 -10   -1.03    1.29
 -14  -8 -12    0.32    0.76
 -14  -8 -14  350.68   15.92
 -14  -8 -16   -0.52    1.00
 -14  -8 -18   -2.98    2.00
 -14  -8 -20   48.89    6.21
 -14  -8 -22   -1.49    1.25
 -14  -8 -24   -1.17    1.53
 -14  -8 -26  128.15   10.48
 -14  -8 -28   -1.98    1.96
 -14  -8 -30   -0.36    0.45
 -14  -8 -32   65.54    7.82
 -14  -8 -34    0.55    0.89
 -14  -8 -36   -0.86    1.11
 -14  -8 -38   26.23    5.08
 -14  -8 -40   -1.17    1.57
 -14  -8 -42    1.20    0.86
  14  -9 -45   -0.84    1.24
  14  -9 -43   17.84    4.10
  14  -9 -41   -1.92    1.70
  14  -9 -39   -0.09    0.83
  14  -9 -37   32.35    5.30
  14  -9 -35   -1.89    1.73
  14  -9 -33   -0.34    0.77
  14  -9 -31   19.82    4.08
 -14  -9  31   20.48    2.70
 -14  -9  29   -0.42    0.81
 -14  -9  27   -0.78    0.94
 -14  -9  25   46.33    4.59
 -14  -9  23   -1.33    1.11
 -14  -9  21    0.09    0.68
 -14  -9  19   -0.30    1.05
 -14  -9  17   -1.52    1.35
 -14  -9  15    2.11    1.16
 -14  -9  13  179.36   10.18
 -14  -9  11   -1.49    1.23
 -14  -9   9    0.17    0.63
 -14  -9   7  150.65    9.68
 -14  -9   5    0.23    0.63
 -14  -9   3    1.21    1.33
 -14  -9   1  120.07    8.97
 -14  -9  -1    0.27    1.06
 -14  -9  -3    0.38    1.04
 -14  -9  -5    8.09    2.17
 -14  -9  -7   -0.57    1.17
 -14  -9  -9   -0.94    0.46
 -14  -9 -11  151.71   10.73
 -14  -9 -13   -0.82    1.26
 -14  -9 -15   -1.56    1.40
 -14  -9 -17   20.59    4.00
 -14  -9 -19   -0.20    0.83
 -14  -9 -21   -0.84    0.90
 -14  -9 -23   35.75    5.65
 -14  -9 -25   -0.38    1.33
 -14  -9 -27   -0.18    0.76
 -14  -9 -29   26.43    4.97
 -14  -9 -31    0.64    0.86
 -14  -9 -33   -1.40    0.94
 -14  -9 -35   14.89    3.84
 -14  -9 -37   -1.55    1.11
 -14  -9 -39   -0.77    1.35
  14 -10 -44    1.42    1.31
  14 -10 -42    1.10    1.44
  14 -10 -40   22.26    4.77
  14 -10 -38   -0.93    1.41
  14 -10 -36   -1.61    1.89
  14 -10 -34   35.43    5.71
  14 -10 -32   -1.25    1.50
  14 -10 -30   -0.58    0.85
 -14 -10  30    0.10    0.65
 -14 -10  28   34.46    4.09
 -14 -10  26    0.57    0.43
 -14 -10  24   -0.69    1.06
 -14 -10  22   34.72    4.46
 -14 -10  20   -0.33    0.47
 -14 -10  18   -0.11    0.89
 -14 -10  16    0.39    0.37
 -14 -10  14   -0.97    1.15
 -14 -10  12    0.30    0.79
 -14 -10  10   88.96    7.75
 -14 -10   8    0.10    0.70
 -14 -10   6    1.48    0.77
 -14 -10   4   59.03    6.61
 -14 -10   2    1.55    1.20
 -14 -10   0   -0.97    1.23
 -14 -10  -2   70.78    7.34
 -14 -10  -4   -0.04    0.71
 -14 -10  -6    0.33    0.97
 -14 -10  -8  152.81   11.18
 -14 -10 -10    1.85    1.75
 -14 -10 -12    0.18    1.06
 -14 -10 -14   61.71    7.33
 -14 -10 -16   -1.85    2.01
 -14 -10 -18   -0.64    0.63
 -14 -10 -20   54.26    7.12
 -14 -10 -22    0.85    1.32
 -14 -10 -24   -0.91    1.49
 -14 -10 -26   58.36    7.63
 -14 -10 -28    0.53    1.07
 -14 -10 -30    1.05    0.51
 -14 -10 -32   36.49    6.28
 -14 -10 -34    1.37    1.45
  14 -11 -43    0.91    1.62
  14 -11 -41   -0.56    1.49
  14 -11 -39    0.74    0.73
  14 -11 -37   21.22    4.76
  14 -11 -35   -2.40    2.35
  14 -11 -33   -1.06    1.61
  14 -11 -31   20.35    4.49
  14 -11 -29    0.33    0.64
 -14 -11  29    0.08    0.64
  14 -11 -27   -1.32    1.23
 -14 -11  27    0.83    0.92
 -14 -11  25   27.16    4.00
 -14 -11  23    0.07    0.66
 -14 -11  21   -0.35    0.54
 -14 -11  19   42.93    5.37
 -14 -11  17    0.84    0.78
 -14 -11  15   -0.96    1.55
 -14 -11  13   21.01    3.86
 -14 -11  11    0.91    1.25
 -14 -11   9    2.06    1.72
 -14 -11   7  120.64    9.67
 -14 -11   5    0.34    1.24
 -14 -11   3   -0.61    1.05
 -14 -11   1   80.29    8.11
 -14 -11  -1   -0.27    1.03
 -14 -11  -3   -0.76    0.79
 -14 -11  -5   87.12    8.75
 -14 -11  -7   -0.02    0.97
 -14 -11  -9    0.72    1.20
 -14 -11 -11   18.80    4.16
 -14 -11 -13    1.39    1.65
 -14 -11 -15    0.03    1.28
 -14 -11 -17   63.67    7.98
 -14 -11 -19   -0.69    1.57
 -14 -11 -21    0.15    0.74
 -14 -11 -23   33.84    5.91
 -14 -11 -25   -0.08    1.03
 -14 -11 -27    0.28    0.65
  14 -12 -36   -2.12    2.03
  14 -12 -34   17.60    4.56
  14 -12 -32   -1.19    1.03
  14 -12 -30    0.30    1.02
  14 -12 -28   12.11    3.37
  14 -12 -26    1.59    1.84
 -14 -12  26   -0.49    0.98
 -14 -12  24    1.29    1.09
 -14 -12  22   28.26    4.48
 -14 -12  20   -0.35    0.86
 -14 -12  18    2.21    1.79
 -14 -12  16   14.26    3.46
 -14 -12  14   -0.49    0.88
 -14 -12  12   -0.18    0.78
 -14 -12  10   24.98    4.54
 -14 -12   8   -0.10    0.69
 -14 -12   6    1.23    1.75
 -14 -12   4   51.83    6.73
 -14 -12   2    1.59    1.60
 -14 -12   0    0.64    1.34
 -14 -12  -2   63.48    7.73
 -14 -12  -4    0.87    0.56
 -14 -12  -6   -0.74    1.33
 -14 -12  -8    1.62    1.72
 -14 -12 -10   -1.40    1.86
 -14 -12 -12   -1.60    1.62
 -14 -12 -14   40.37    6.39
 -14 -12 -16   -1.63    1.80
 -14 -12 -18   -0.55    1.52
 -14 -12 -20   24.29    5.15
 -14 -12 -22   -0.87    1.73
  14 -13 -27   -0.92    1.79
  14 -13 -25   22.13    5.06
 -14 -13  25   23.49    4.20
  14 -13 -23    2.44    1.93
 -14 -13  23    2.66    1.49
  14 -13 -21   -2.34    2.13
 -14 -13  21   -0.31    0.47
 -14 -13  19   14.93    3.51
 -14 -13  17    1.96    1.64
 -14 -13  15   -1.58    1.46
 -14 -13  13   18.33    4.05
 -14 -13  11   -1.48    1.42
 -14 -13   9    1.24    0.94
 -14 -13   7   19.28    4.22
 -14 -13   5    1.83    1.80
 -14 -13   3    1.88    0.88
 -14 -13   1   72.98    8.63
 -14 -13  -1    2.03    1.60
 -14 -13  -3    1.16    1.17
 -14 -13  -5    4.34    2.16
 -14 -13  -7   -1.39    1.81
 -14 -13  -9   -0.59    0.61
 -14 -13 -11   28.06    5.64
 -14 -13 -13    0.37    1.03
 -14 -13 -15   -1.83    1.56
 -14 -14  22   19.02    4.02
 -14 -14  20    0.00    0.49
 -14 -14  18   -1.40    1.04
 -14 -14  16    9.23    2.93
 -14 -14  14   -2.08    1.38
 -14 -14  12   -2.15    1.48
 -14 -14  10   22.86    4.76
 -14 -14   8   -0.16    0.56
 -14 -14   6    0.78    0.64
 -14 -14   4   18.49    4.55
 -14 -14   2    0.15    0.90
 -14 -14   0    0.20    0.80
 -14 -14  -2    7.56    3.06
 -14 -14  -4   -2.20    2.04
 -14 -14  -6    1.55    1.58
 -14 -15  21   -0.94    1.08
 -14 -15  19    9.29    3.06
 -14 -15  17   -2.64    1.60
 -14 -15  15    0.11    0.92
 -14 -15  13    4.08    2.12
 -14 -15  11    3.11    1.95
 -14 -15   9   -0.15    1.15
 -14 -15   7   13.80    4.05
  15   0 -35    0.80    0.37
  15   0 -35    0.00    0.23
  15   0 -33    0.16    0.15
  15   0 -31   -0.24    0.24
  15   0 -29    0.19    0.41
  15   0 -27    0.68    0.56
  15   0 -25    2.37    1.08
  15   0 -23    0.95    0.60
  15   0 -21    0.18    0.41
  15   0 -19    2.80    1.36
  15   0 -17    4.02    1.27
  15   0 -15    0.12    0.33
  15   0 -13    0.37    0.38
  15   0 -11    0.29    0.39
 -15   0   9    0.38    0.43
  15   0  -9   -0.07    0.29
 -15   0   7    0.39    0.81
  15   0  -7    6.08    2.11
 -15   0   5   -0.69    0.53
  15   0  -5    1.22    1.04
 -15   0   3    0.49    1.15
  15   0  -3   -0.34    0.50
 -15   0   1    0.78    1.18
  15   0  -1    9.44    2.25
 -15   0  -1    0.54    1.02
  15   0   1    1.54    1.50
 -15   0  -3    3.21    1.57
  15   0   3   -0.47    0.62
 -15   0  -5   -0.23    0.45
  15   0   5   -0.05    0.53
 -15   0  -7   -0.12    0.71
  15   0   7   -0.56    0.61
 -15   0  -9   -0.05    0.35
  15   0   9   -0.62    0.61
 -15   0 -11    0.14    0.71
  15   0  11    0.44    0.69
 -15   0 -13    1.60    1.75
  15   0  13   -0.27    0.41
 -15   0 -15    2.35    1.25
  15   0  15    3.19    1.23
 -15   0 -17    2.67    1.78
  15   0  17    0.37    0.71
 -15   0 -19    4.81    2.56
  15   0  19    1.69    1.23
 -15   0 -21    4.60    1.61
  15   0  21    5.04    1.92
 -15   0 -23    3.64    2.18
  15   0  23    0.97    1.00
 -15   0 -25    2.25    1.38
  15   0  25    0.46    0.56
 -15   0 -27    0.37    0.68
  15   0  27    1.01    0.74
 -15   0 -29    0.14    0.64
  15   0  29   -0.09    0.53
 -15   0 -31    1.63    1.16
  15   0  31   -0.29    0.40
 -15   0 -33    0.31    0.92
  15   0  33   -0.90    0.86
 -15   0 -35    0.23    0.87
 -15   0 -37   -1.21    1.07
 -15   0 -39   -0.54    0.75
  15  -1 -40    0.54    0.44
  15  -1 -40    0.08    0.22
  15  -1 -38   -0.29    0.41
  15  -1 -38   -0.02    0.35
  15  -1 -36    0.78    0.30
  15  -1 -36    1.07    0.29
  15  -1 -34    0.11    0.18
  15  -1 -32    0.70    0.52
  15  -1 -30    0.49    0.28
  15   1 -30    1.02    0.29
  15  -1 -28   -0.63    0.24
  15   1 -28    1.08    0.57
  15  -1 -26   -0.83    0.64
  15   1 -26    0.08    0.34
  15  -1 -24    2.00    0.53
  15   1 -24    4.13    0.88
  15  -1 -22   -0.36    0.37
  15   1 -22    2.53    1.21
  15  -1 -20   -1.23    1.06
  15   1 -20    1.57    0.91
  15  -1 -18   23.20    2.48
  15   1 -18   26.26    2.50
 -15  -1  16    0.26    0.32
  15  -1 -16   -0.22    0.40
  15   1 -16    0.87    0.76
  15  -1 -14   -0.72    0.28
 -15  -1  14    0.08    0.37
 -15  -1  12   32.18    2.89
  15  -1 -12   30.63    3.01
  15   1 -12   31.19    2.87
 -15  -1  10    0.66    0.45
  15  -1 -10    0.20    0.30
  15   1 -10   -0.15    0.28
  15  -1  -8   -0.17    0.24
 -15  -1   8   -0.39    0.30
  15  -1  -6   32.93    3.20
  15   1  -6   32.47    3.19
 -15  -1   6   38.56    3.60
 -15  -1   4    0.47    1.02
  15  -1  -4    1.79    1.48
  15   1  -4    2.99    1.51
 -15   1   2    0.86    0.93
  15  -1  -2    1.43    1.30
 -15  -1   2   -0.57    0.45
  15   1  -2    1.06    0.93
 -15  -1   0    6.40    1.36
  15  -1   0    7.22    1.57
 -15   1   0    5.26    1.36
  15   1   0    7.49    1.68
  15  -1   2    3.51    1.58
 -15   1  -2    0.51    1.77
 -15  -1  -2    0.57    0.70
  15   1   2    1.21    0.83
 -15  -1  -4    0.18    0.51
  15  -1   4    0.52    0.73
 -15   1  -4    0.32    0.69
  15   1   4    0.05    0.26
 -15   1  -6  293.90   10.46
  15  -1   6  281.73   10.10
 -15  -1  -6  286.16   10.33
  15   1   6  281.81   10.09
 -15   1  -8    2.34    2.43
 -15  -1  -8   -0.55    0.85
  15   1   8   -0.04    0.74
  15  -1   8    1.71    1.18
 -15  -1 -10   -0.93    0.93
 -15   1 -10    0.87    0.84
  15   1  10   -0.90    0.89
  15  -1  10    0.30    0.25
 -15   1 -12    0.10    0.60
 -15  -1 -12   -0.61    1.16
  15  -1  12   -0.31    0.90
  15   1  12    0.07    0.55
 -15  -1 -14    0.55    1.27
  15  -1  14   -0.26    0.71
  15   1  14    0.14    0.51
 -15  -1 -16    2.92    1.55
  15   1  16    2.01    1.22
 -15  -1 -18    0.77    0.82
 -15   1 -18    2.99    1.66
  15  -1  18    0.57    0.96
  15   1  18    2.80    1.54
 -15  -1 -20    0.39    1.21
 -15   1 -20    2.40    1.53
  15  -1  20    0.97    0.82
  15   1  20    0.22    0.59
 -15  -1 -22    1.34    1.61
  15  -1  22    1.06    1.18
  15   1  22   -0.63    0.99
 -15   1 -24   11.64    2.67
 -15  -1 -24    7.02    1.84
  15  -1  24    8.52    2.09
  15   1  24    9.21    2.26
 -15  -1 -26   -0.30    0.67
 -15   1 -26    1.52    1.04
  15   1  26    0.87    0.70
  15  -1  26    0.06    0.36
 -15   1 -28    0.22    0.71
 -15  -1 -28   -0.55    0.35
  15  -1  28    0.20    0.87
  15   1  28   -0.48    0.50
 -15  -1 -30   87.91    7.18
 -15   1 -30   92.61    7.02
  15   1  30   89.96    7.10
  15  -1  30   91.95    6.89
 -15  -1 -32    0.87    0.98
  15  -1  32    0.11    0.47
  15   1  32   -1.33    0.94
  15   1  34   -0.11    0.62
  15  -1  34    0.03    0.60
 -15  -1 -36    1.13    1.15
 -15  -1 -38   -1.33    0.95
 -15  -1 -40   -0.75    0.57
  15  -2 -41   -0.54    0.23
  15  -2 -39    4.50    1.07
  15  -2 -37    0.14    0.47
  15  -2 -35   -0.21    0.27
  15   2 -29   -0.05    0.11
  15   2 -27    3.16    0.61
  15   2 -25   -0.04    0.22
  15   2 -23    0.40    0.34
  15   2 -21   41.27    2.80
 -15  -2  19   -0.29    0.23
  15   2 -19   -0.15    0.24
 -15  -2  17    0.54    0.46
  15   2 -17    0.49    0.56
 -15  -2  15   44.17    3.33
  15   2 -15   43.74    3.22
 -15  -2  13   -0.07    0.41
  15   2 -13   -0.18    0.32
 -15  -2  11   -0.04    0.27
  15   2 -11    1.54    0.97
  15  -2  -9  342.90   10.51
 -15  -2   9  340.58    9.85
  15   2  -9  355.08    9.86
  15  -2  -7   -0.79    0.66
 -15  -2   7   -0.02    0.54
  15   2  -7   -0.11    0.36
  15  -2  -5   -1.18    0.84
 -15  -2   5    0.48    0.87
  15   2  -5   -0.12    0.25
  15  -2  -3  109.77    6.12
 -15  -2   3  113.10    6.14
  15   2  -3  114.08    6.03
  15  -2  -1   -0.53    0.40
 -15  -2   1   -0.44    0.30
  15   2  -1    0.39    0.60
  15  -2   1   -0.42    0.39
 -15  -2  -1    0.17    0.68
  15   2   1    0.01    0.42
  15  -2   3  229.43    9.26
 -15  -2  -3  236.18    9.40
  15   2   3  236.48    9.30
 -15  -2  -5   -0.26    0.84
  15   2   5    1.61    1.19
  15  -2   7    1.35    1.30
 -15  -2  -7    0.15    0.80
  15   2   7   -0.30    0.29
  15  -2   9   -0.14    0.75
 -15  -2  -9   -0.92    1.22
  15   2   9    0.54    0.70
  15  -2  11    1.39    1.21
 -15  -2 -11    0.50    0.82
  15   2  11   -0.16    0.52
  15  -2  13    0.66    0.78
 -15  -2 -13    0.06    0.61
  15   2  13   -0.91    1.04
  15  -2  15   10.09    1.85
 -15  -2 -15   10.23    2.07
  15   2  15   12.61    2.38
  15  -2  17   -0.12    0.24
 -15  -2 -17    0.29    0.49
  15   2  17    0.24    0.54
 -15  -2 -19    1.33    1.18
  15  -2  19    0.92    0.78
  15   2  19    1.06    0.83
  15  -2  21   -1.16    0.96
 -15  -2 -21   -2.10    1.56
  15   2  21    0.21    0.34
  15  -2  23    1.43    1.03
 -15  -2 -23   -0.87    0.81
  15   2  23   -0.63    0.59
  15  -2  25   -0.22    0.27
 -15  -2 -25    1.46    1.27
  15   2  25    0.67    0.92
 -15  -2 -27    0.38    0.67
  15  -2  27    0.40    0.69
  15   2  27   -0.94    1.16
 -15  -2 -29    0.47    1.46
  15   2  29    2.07    1.26
  15  -2  29    0.10    0.82
 -15  -2 -31   -0.30    0.78
  15  -2  31   -0.17    0.37
 -15  -2 -33   -0.02    1.01
  15  -2  33    0.03    0.67
 -15  -2 -35    0.88    1.00
 -15  -2 -37    2.47    1.66
 -15  -2 -39    8.84    2.54
 -15  -2 -41    1.44    1.26
  15  -3 -42    7.08    1.42
  15  -3 -40    1.94    1.03
  15  -3 -38   -1.01    0.99
  15  -3 -36    2.87    0.92
  15   3 -28    0.34    0.29
  15   3 -26   -0.14    0.27
 -15  -3  24   69.50    3.51
  15   3 -24   66.39    3.46
 -15  -3  22   -0.42    0.47
  15   3 -22    0.24    0.23
 -15  -3  20    0.20    0.21
  15   3 -20   -0.20    0.50
 -15  -3  18   69.64    4.11
  15   3 -18   67.67    3.98
 -15  -3  16   -0.04    0.41
  15   3 -16   -0.07    0.31
 -15  -3  14   -0.39    0.59
  15   3 -14    0.20    0.23
 -15  -3  12   13.66    2.14
  15   3 -12   13.64    1.98
 -15  -3  10    1.25    0.95
  15   3 -10    1.82    1.09
 -15  -3   8   -0.04    0.69
  15   3  -8    1.63    1.11
 -15  -3   6   98.42    5.69
  15   3  -6  102.28    5.74
 -15  -3   4    0.78    0.54
  15   3  -4    1.31    0.54
 -15  -3   2   -0.70    0.77
  15   3  -2   -0.30    0.35
  15  -3   0    5.57    1.31
 -15  -3   0    6.54    1.48
  15   3   0    6.19    1.47
  15  -3   2    0.46    1.01
 -15  -3  -2    0.60    1.15
  15   3   2    0.26    0.83
  15  -3   4    0.28    0.85
 -15  -3  -4   -0.47    0.47
  15   3   4   -0.46    0.55
  15  -3   6   -0.63    0.66
 -15  -3  -6   -0.13    0.78
  15   3   6   -0.60    0.47
  15  -3   8    2.64    1.80
 -15  -3  -8    1.71    1.37
  15   3   8    0.92    1.06
  15  -3  10    1.86    1.20
 -15  -3 -10    0.37    1.00
  15   3  10    0.36    0.61
 -15  -3 -12   30.86    3.85
  15  -3  12   32.44    3.72
  15   3  12   36.34    4.17
  15  -3  14   -0.19    0.38
 -15  -3 -14   -0.74    0.71
  15   3  14    0.48    0.76
  15  -3  16    1.33    0.96
 -15  -3 -16   -1.01    1.36
  15   3  16    0.65    0.29
 -15  -3 -18    0.23    0.72
  15  -3  18   -0.11    0.69
  15   3  18   -1.25    1.00
 -15  -3 -20   -0.49    1.18
  15  -3  20    0.50    0.46
  15   3  20   -0.83    1.15
  15  -3  22   -1.07    0.87
 -15  -3 -22    0.00    0.58
  15   3  22   -0.60    1.29
 -15  -3 -24   -2.12    1.45
  15  -3  24    0.34    0.75
  15   3  24    0.23    0.83
  15  -3  26    1.41    1.14
 -15  -3 -26    1.01    1.20
  15   3  26    2.21    1.27
  15  -3  28    0.52    0.60
 -15  -3 -28    2.14    1.60
  15  -3  30    7.53    2.03
 -15  -3 -30    5.32    1.77
 -15  -3 -32    1.54    1.48
  15  -3  32    2.92    1.42
 -15  -3 -34   -0.16    0.46
 -15  -3 -36    1.40    1.22
 -15  -3 -38    1.79    1.56
 -15  -3 -40    1.42    1.29
 -15  -3 -42    0.86    1.31
  15  -4 -43   -0.02    0.55
  15  -4 -41    0.46    0.56
  15  -4 -39   -1.17    1.11
  15  -4 -37   -0.47    0.65
 -15  -4  27   25.91    1.99
  15   4 -25   -0.02    0.20
 -15  -4  25   -0.32    0.24
  15   4 -23   -0.54    0.42
 -15  -4  23   -0.06    0.24
 -15  -4  21  110.39    5.16
  15   4 -21  102.70    5.09
 -15  -4  19    0.22    0.48
  15   4 -19    0.00    0.57
 -15  -4  17   -1.18    0.82
  15   4 -17   -0.55    0.58
 -15  -4  15    2.17    0.73
  15   4 -15    1.60    0.50
 -15  -4  13    0.18    0.24
  15   4 -13    0.20    0.31
 -15  -4  11   -0.87    0.92
  15   4 -11   -1.52    0.97
 -15  -4   9    0.10    0.75
  15   4  -9   -0.08    0.87
 -15  -4   7    0.90    0.99
  15   4  -7    1.31    1.03
 -15  -4   5    0.93    0.97
  15   4  -5    0.32    0.61
  15   4  -3   17.90    2.61
 -15  -4   3   19.74    2.78
 -15  -4   1    0.19    0.69
  15   4  -1   -0.20    0.52
 -15  -4  -1    0.11    0.81
  15   4   1    0.01    0.29
 -15  -4  -3   -0.71    1.07
  15   4   3   -1.12    0.91
  15  -4   5   -0.33    0.31
 -15  -4  -5    0.08    0.60
  15   4   5    0.48    0.80
  15  -4   7    0.42    0.87
 -15  -4  -7    0.44    0.82
  15   4   7    0.15    0.27
  15  -4   9   22.98    3.23
  15   4   9   22.92    3.30
 -15  -4  -9   22.45    3.31
  15  -4  11    2.10    1.49
 -15  -4 -11    1.62    1.25
  15   4  11    0.92    1.02
  15  -4  13    1.70    1.10
 -15  -4 -13    0.10    0.50
  15   4  13    0.39    0.54
  15  -4  15  238.92   10.65
  15   4  15  248.66   11.61
 -15  -4 -15  229.46   11.00
 -15  -4 -17    1.90    1.02
  15   4  17   -0.83    1.11
  15  -4  17   -0.28    0.73
 -15  -4 -19    0.89    1.10
  15   4  19    0.90    1.09
  15  -4  19    2.47    1.39
 -15  -4 -21    7.49    1.91
  15   4  21    9.35    2.50
  15  -4  21    9.38    2.23
 -15  -4 -23   -0.13    0.63
  15  -4  23   -0.84    0.73
  15  -4  25   -0.19    0.34
 -15  -4 -25   -0.49    0.69
  15  -4  27   -0.06    0.51
 -15  -4 -27   -1.71    1.63
  15  -4  29    0.19    0.78
 -15  -4 -29    0.00    0.93
 -15  -4 -31    0.96    1.11
  15  -4  31   -0.08    0.44
 -15  -4 -33    1.40    0.62
 -15  -4 -35    0.57    0.81
 -15  -4 -37    0.62    0.72
 -15  -4 -39    0.11    0.63
 -15  -4 -41    0.72    1.36
  15  -5 -44   -1.49    1.24
  15  -5 -42   -0.65    1.15
  15  -5 -40   -0.32    0.35
  15  -5 -38   -0.38    0.75
  15  -5 -36    1.80    0.43
 -15  -5  30   11.65    1.23
 -15  -5  28    0.01    0.34
 -15  -5  26   -0.61    0.46
 -15  -5  24    8.84    1.43
 -15  -5  22   -1.15    0.71
  15   5 -22    0.38    0.52
 -15  -5  20    0.12    0.42
  15   5 -20   -0.43    0.48
  15   5 -18   16.36    2.28
 -15  -5  18   16.52    2.28
 -15  -5  16    0.54    0.67
  15   5 -16   -0.74    0.52
 -15  -5  14    0.23    0.51
  15   5 -14    0.38    0.68
  15   5 -12   18.50    2.60
 -15  -5  12   20.03    2.60
 -15  -5  10   -0.77    0.89
  15   5 -10    0.53    0.41
  15   5  -8   -0.98    0.61
 -15  -5   8   -0.29    0.85
  15   5  -6   21.54    2.98
 -15  -5   6   18.81    2.70
  15   5  -4    0.46    0.89
 -15  -5   4    1.79    1.23
  15   5  -2    5.20    2.25
 -15  -5   2    6.05    2.22
  15   5   0    0.19    0.65
 -15  -5   0   -0.35    0.54
  15   5   2    0.15    0.49
 -15  -5  -2   -1.45    1.40
  15   5   4   -0.47    0.51
 -15  -5  -4    0.60    0.54
  15   5   6    4.92    1.45
 -15  -5  -6    4.68    1.10
 -15  -5  -8   -0.38    0.67
  15   5   8    0.22    0.84
  15  -5   8    0.01    0.52
 -15  -5 -10    1.53    1.43
  15   5  10    0.59    0.79
  15  -5  10    1.52    1.33
 -15  -5 -12    1.10    0.62
  15   5  12    0.61    0.80
  15  -5  12    1.43    0.60
 -15  -5 -14   -0.56    0.95
  15   5  14   -0.37    0.50
  15  -5  14    0.26    0.82
 -15  -5 -16    0.10    0.80
  15  -5  16   -0.69    0.94
  15   5  16    0.81    0.78
  15  -5  18  131.92    8.33
 -15  -5 -18  124.11    8.73
 -15  -5 -20    2.08    1.90
  15  -5  20    3.33    1.88
 -15  -5 -22    1.20    1.55
  15  -5  22   -0.49    0.91
 -15  -5 -24   -0.42    1.12
  15  -5  24    1.37    0.35
 -15  -5 -26    0.10    0.87
  15  -5  26   -0.26    0.57
  15  -5  28   -0.37    0.74
 -15  -5 -28   -0.26    0.89
  15  -5  30   -0.59    0.72
 -15  -5 -30   -1.60    1.34
 -15  -5 -32    1.13    1.16
 -15  -5 -34    0.31    0.77
 -15  -5 -36    2.05    0.93
 -15  -5 -38    1.68    1.65
 -15  -5 -40    0.70    1.11
 -15  -5 -42    1.84    1.23
  15  -6 -43   -0.07    0.40
  15  -6 -41   -0.98    0.59
  15  -6 -39    2.31    0.97
  15  -6 -37   -0.60    0.99
  15  -6 -35   -0.20    0.97
 -15  -6  33   13.90    1.17
 -15  -6  31    0.87    0.43
 -15  -6  29   -0.31    0.45
 -15  -6  27    4.79    1.13
 -15  -6  25    0.96    0.48
 -15  -6  23    0.09    0.52
 -15  -6  21   78.39    5.06
 -15  -6  19    0.57    0.53
  15   6 -19    0.43    0.50
  15   6 -17    0.02    0.31
 -15  -6  17   -0.50    0.99
  15   6 -15    2.13    0.68
 -15  -6  15    1.68    0.38
  15   6 -13    0.17    0.73
 -15  -6  13    0.07    0.35
  15   6 -11   -0.18    0.57
 -15  -6  11   -1.11    1.13
  15   6  -9   16.34    2.68
 -15  -6   9   14.12    2.36
  15   6  -7   -0.01    0.57
 -15  -6   7   -0.19    0.38
  15   6  -5   -0.06    0.82
 -15  -6   5   -0.07    0.66
  15   6  -3   -0.57    1.05
 -15  -6   3    0.51    0.31
  15   6  -1    0.01    0.29
 -15  -6   1   -0.30    0.63
  15   6   1    2.54    1.53
 -15  -6  -1   -0.53    0.44
  15   6   3    0.21    0.42
 -15  -6  -3   -0.49    1.20
  15   6   5    1.15    0.95
 -15  -6  -5   -0.29    0.37
  15   6   7   -0.57    1.33
 -15  -6  -7   -1.32    1.16
  15   6   9   13.64    2.77
 -15  -6  -9    9.88    2.06
  15   6  11   -0.29    0.55
 -15  -6 -11   -0.31    0.92
  15  -6  13    1.53    1.07
 -15  -6 -13   -0.50    1.16
  15  -6  15    9.94    2.33
 -15  -6 -15   12.32    2.94
  15  -6  17    0.52    0.96
 -15  -6 -17    3.28    2.51
  15  -6  19    2.94    1.63
 -15  -6 -19    4.16    2.19
  15  -6  21   28.14    4.01
 -15  -6 -21   26.74    4.20
 -15  -6 -23    0.48    0.64
  15  -6  23   -0.59    1.08
 -15  -6 -25    0.52    1.11
  15  -6  25   -0.84    0.85
 -15  -6 -27    0.54    0.72
  15  -6  27    0.46    0.51
  15  -6  29   -0.58    0.57
 -15  -6 -29    0.48    1.39
 -15  -6 -31    0.52    0.70
 -15  -6 -33   -0.67    1.39
 -15  -6 -35    1.64    1.29
 -15  -6 -37    0.62    0.63
 -15  -6 -39    3.63    1.62
 -15  -6 -41    0.07    1.04
  15  -7 -44    1.74    1.19
  15  -7 -42    3.97    1.73
  15  -7 -40   -2.38    1.42
  15  -7 -38   -1.87    1.55
  15  -7 -36    7.86    2.21
  15  -7 -34   -1.54    1.36
 -15  -7  34    0.12    0.22
 -15  -7  32   -0.40    0.39
 -15  -7  30   -0.23    0.41
 -15  -7  28    0.29    0.70
 -15  -7  26   -0.96    0.76
 -15  -7  24    3.13    1.03
 -15  -7  22   -0.18    0.46
 -15  -7  20    0.84    0.51
 -15  -7  18    0.31    0.42
 -15  -7  16   -0.34    0.70
  15   7 -14    0.31    0.68
 -15  -7  14   -0.84    0.73
  15   7 -12    6.98    1.78
 -15  -7  12    7.15    1.66
  15   7 -10    0.54    1.05
 -15  -7  10    1.20    1.25
  15   7  -8    1.93    1.28
 -15  -7   8   -0.36    0.34
  15   7  -6   -0.87    1.05
 -15  -7   6   -1.99    1.40
  15   7  -4   -0.44    0.96
 -15  -7   4   -0.26    0.73
  15   7  -2    0.21    0.65
 -15  -7   2   -1.36    1.11
  15   7   0   49.21    5.34
 -15  -7   0   47.74    5.12
  15   7   2    0.79    1.13
 -15  -7  -2   -0.41    0.36
  15   7   4    4.45    2.18
 -15  -7  -4    1.88    1.33
 -15  -7  -6    0.55    0.99
 -15  -7  -8    0.07    0.72
 -15  -7 -10   -1.57    1.01
 -15  -7 -12    9.88    2.56
  15  -7  14    1.79    1.48
 -15  -7 -14    1.67    1.73
  15  -7  16    3.13    1.66
 -15  -7 -16    4.05    2.29
  15  -7  18   10.19    2.45
 -15  -7 -18    7.58    2.22
  15  -7  20    1.10    0.43
 -15  -7 -20   -0.40    0.98
 -15  -7 -22   -0.29    0.74
  15  -7  22    2.73    1.65
 -15  -7 -24    6.13    1.93
  15  -7  24    4.94    1.75
 -15  -7 -26    3.14    2.04
 -15  -7 -28    0.30    1.05
 -15  -7 -30    4.72    2.01
 -15  -7 -32    0.88    1.42
 -15  -7 -34   -0.69    0.49
 -15  -7 -36    0.96    1.35
 -15  -7 -38    0.66    1.20
 -15  -7 -40    1.94    1.60
 -15  -7 -42   -0.41    1.20
  15  -8 -45    0.73    0.62
  15  -8 -43    0.22    0.58
  15  -8 -41   -0.59    0.95
  15  -8 -39   -0.38    1.23
  15  -8 -37    3.03    1.48
  15  -8 -35   -1.08    1.16
 -15  -8  33    2.15    0.72
  15  -8 -33    2.49    1.38
 -15  -8  31    0.17    0.28
 -15  -8  29    0.23    0.30
 -15  -8  27    6.60    1.71
 -15  -8  25   -1.43    1.17
 -15  -8  23   -0.96    0.96
 -15  -8  21   13.46    2.44
 -15  -8  19    0.57    0.85
 -15  -8  17    0.06    0.56
 -15  -8  15   10.58    2.15
 -15  -8  13   -0.50    0.42
 -15  -8  11    0.10    0.58
 -15  -8   9   -0.05    0.75
  15   8  -7    0.24    0.92
 -15  -8   7    0.08    0.53
  15   8  -5   -0.97    0.65
 -15  -8   5    0.75    0.87
  15   8  -3   12.53    2.89
 -15  -8   3   12.39    2.51
 -15  -8   1   -0.61    1.17
 -15  -8  -1    0.13    0.57
 -15  -8  -3   18.61    3.39
 -15  -8  -5   -0.05    0.54
 -15  -8  -7    0.46    0.85
 -15  -8  -9   -0.63    1.30
 -15  -8 -11    1.91    1.48
 -15  -8 -13    2.11    2.59
 -15  -8 -15   12.50    2.92
 -15  -8 -17   -1.45    1.78
 -15  -8 -19    1.17    0.82
 -15  -8 -21   -0.56    1.29
 -15  -8 -23   -0.01    1.12
 -15  -8 -25    0.90    1.43
 -15  -8 -27    4.59    2.10
 -15  -8 -29    0.68    0.96
 -15  -8 -31    1.02    1.33
 -15  -8 -33   -1.07    1.67
 -15  -8 -35   -0.43    1.31
 -15  -8 -37    1.01    0.79
 -15  -8 -39    0.44    1.71
 -15  -8 -41    1.11    1.64
  15  -9 -44    0.30    1.53
  15  -9 -42    2.58    1.22
  15  -9 -40   -0.50    1.16
  15  -9 -38    0.15    0.79
  15  -9 -36   -1.81    1.42
  15  -9 -34    0.68    0.91
  15  -9 -32   -0.80    1.31
 -15  -9  30   -0.22    0.67
 -15  -9  28   -1.28    0.96
 -15  -9  26    0.00    0.54
 -15  -9  24    5.17    1.35
 -15  -9  22   -1.16    1.04
 -15  -9  20   -1.55    1.00
 -15  -9  18    5.21    1.75
 -15  -9  16    0.47    1.02
 -15  -9  14    2.25    1.58
 -15  -9  12   -1.07    1.00
 -15  -9  10    0.10    0.46
 -15  -9   8    0.44    0.96
 -15  -9   6   37.86    4.82
 -15  -9   4    2.11    1.69
 -15  -9   2    1.23    1.31
 -15  -9   0    7.92    2.33
 -15  -9  -2    1.81    1.33
 -15  -9  -4    0.17    1.01
 -15  -9  -6    0.99    0.91
 -15  -9  -8    4.87    2.93
 -15  -9 -10    2.19    1.67
 -15  -9 -12   24.08    4.33
 -15  -9 -14   -0.12    0.69
 -15  -9 -16   -1.72    1.77
 -15  -9 -18   -1.31    1.91
 -15  -9 -20    0.67    1.58
 -15  -9 -22    1.32    1.18
 -15  -9 -24    1.10    1.27
 -15  -9 -26    3.00    2.20
 -15  -9 -28    1.14    0.55
 -15  -9 -30   -0.68    1.56
 -15  -9 -32    2.12    1.72
 -15  -9 -34    0.29    1.05
 -15  -9 -36    0.35    0.76
 -15  -9 -38    0.34    1.30
  15 -10 -43    3.66    2.33
  15 -10 -41    2.44    1.72
  15 -10 -39   -0.84    0.97
  15 -10 -37    0.90    0.63
  15 -10 -35   -0.40    0.54
  15 -10 -33   -0.26    0.65
  15 -10 -31   -0.77    0.86
 -15 -10  29    1.39    0.89
 -15 -10  27   -0.31    0.55
 -15 -10  25    0.45    0.93
 -15 -10  23   -0.61    0.37
 -15 -10  21   -1.43    1.14
 -15 -10  19    2.23    1.45
 -15 -10  17   -0.88    1.21
 -15 -10  15    1.76    1.27
 -15 -10  13    2.75    1.86
 -15 -10  11    0.97    0.75
 -15 -10   9    8.26    2.32
 -15 -10   7   -0.72    1.19
 -15 -10   5   -0.91    1.31
 -15 -10   3   -0.55    1.16
 -15 -10   1    0.24    1.10
 -15 -10  -1    1.17    0.79
 -15 -10  -3   30.34    4.98
 -15 -10  -5    2.52    2.49
 -15 -10  -7    1.08    1.12
 -15 -10  -9   24.60    4.46
 -15 -10 -11   -1.37    1.78
 -15 -10 -13    0.22    0.95
 -15 -10 -15   -1.09    1.68
 -15 -10 -17    0.51    0.78
 -15 -10 -19    1.17    0.97
 -15 -10 -21    4.56    1.98
 -15 -10 -23    1.09    1.87
 -15 -10 -25    1.02    1.47
 -15 -10 -27   -2.22    1.87
 -15 -10 -29    0.91    0.96
 -15 -10 -31    2.45    1.85
 -15 -10 -33    0.94    1.26
  15 -11 -42   -1.13    1.27
  15 -11 -40   -0.45    1.16
  15 -11 -38   -0.09    0.97
  15 -11 -36    0.06    0.93
  15 -11 -34   -0.85    1.36
  15 -11 -32   -1.48    0.66
  15 -11 -30   -1.03    1.66
 -15 -11  28   -1.99    1.45
 -15 -11  26    0.10    0.70
 -15 -11  24    0.44    0.71
 -15 -11  22    1.83    1.20
 -15 -11  20    0.54    0.91
 -15 -11  18    0.73    0.84
 -15 -11  16   -1.56    1.29
 -15 -11  14   -1.73    1.21
 -15 -11  12   38.56    5.42
 -15 -11  10    0.70    1.45
 -15 -11   8    3.68    2.21
 -15 -11   6    0.58    0.94
 -15 -11   4   -1.85    1.57
 -15 -11   2    1.87    1.71
 -15 -11   0   -1.40    1.06
 -15 -11  -2    2.30    1.63
 -15 -11  -4    1.51    1.95
 -15 -11  -6    0.95    0.86
 -15 -11  -8    0.02    0.65
 -15 -11 -10   -0.07    0.99
 -15 -11 -12   -2.73    2.00
 -15 -11 -14    1.29    1.13
 -15 -11 -16    1.94    2.06
 -15 -11 -18   -0.10    0.82
 -15 -11 -20   -1.76    1.41
 -15 -11 -22    3.09    1.83
 -15 -11 -24    0.73    0.70
 -15 -11 -26    0.37    0.74
  15 -12 -35   -2.34    1.69
  15 -12 -33   -0.32    0.66
  15 -12 -31    2.49    1.72
  15 -12 -29    0.56    1.11
  15 -12 -27    0.70    0.91
 -15 -12  27    1.09    0.75
 -15 -12  25    0.66    0.96
 -15 -12  23    1.23    1.24
 -15 -12  21   -0.95    1.07
 -15 -12  19    3.64    1.97
 -15 -12  17   -3.10    1.92
 -15 -12  15   -1.29    1.49
 -15 -12  13    0.92    1.08
 -15 -12  11    0.14    0.55
 -15 -12   9    7.94    2.52
 -15 -12   7    0.67    1.37
 -15 -12   5    2.08    1.91
 -15 -12   3    0.76    1.28
 -15 -12   1    1.73    1.73
 -15 -12  -1    2.13    1.97
 -15 -12  -3    1.56    0.69
 -15 -12  -5    0.54    0.57
 -15 -12  -7   -0.23    1.22
 -15 -12  -9    0.95    1.06
 -15 -12 -11   -0.11    1.43
 -15 -12 -13   -0.10    1.36
 -15 -12 -15    0.38    1.44
 -15 -12 -17    1.48    1.51
 -15 -12 -19    0.83    1.44
 -15 -12 -21   -0.46    1.28
  15 -13 -26   -2.57    1.96
  15 -13 -24    0.30    1.05
 -15 -13  24    0.06    0.49
 -15 -13  22   -0.59    1.22
 -15 -13  20    2.28    1.35
 -15 -13  18    2.52    1.81
 -15 -13  16    0.14    0.90
 -15 -13  14    1.68    1.70
 -15 -13  12    4.65    1.88
 -15 -13  10    0.30    1.00
 -15 -13   8    0.13    0.92
 -15 -13   6    2.62    1.60
 -15 -13   4   -0.30    1.23
 -15 -13   2    1.43    1.51
 -15 -13   0    1.71    1.17
 -15 -13  -2    0.50    0.99
 -15 -13  -4    0.64    1.29
 -15 -13  -6    0.66    1.53
 -15 -13  -8    2.71    2.37
 -15 -13 -10    2.22    1.59
 -15 -13 -12    0.80    1.45
 -15 -13 -14    0.94    1.52
 -15 -14  23    0.17    0.58
 -15 -14  21   -1.35    1.34
 -15 -14  19   -0.93    1.61
 -15 -14  17   -0.75    0.57
 -15 -14  15    0.33    1.11
 -15 -14  13   -0.98    0.84
 -15 -14  11    0.52    1.18
 -15 -14   9    2.26    1.72
 -15 -14   7    1.13    1.39
 -15 -14   5    1.14    1.44
 -15 -14   3   -0.11    0.77
 -15 -14   1   -3.08    1.82
 -15 -14  -1   -0.58    0.82
 -15 -14  -3    1.52    1.27
 -15 -14  -5    3.22    2.13
 -15 -15  20    4.68    2.39
 -15 -15  18    1.23    1.13
 -15 -15  16    1.22    1.79
 -15 -15  14   -1.55    1.84
 -15 -15  12   -1.32    1.67
 -15 -15  10   -0.73    1.08
 -15 -15   8   -0.74    0.69
  16   0 -36    0.37    0.25
  16   0 -36    0.00    0.18
  16   0 -34    0.22    0.17
  16   0 -32   78.94    3.64
  16   0 -30   -0.94    0.59
  16   0 -28    0.08    0.20
  16   0 -26  473.01   10.23
  16   0 -24    0.35    0.38
  16   0 -22    0.22    0.32
  16   0 -20  993.03   15.86
  16   0 -18    0.98    0.71
  16   0 -16   -0.16    0.54
  16   0 -14   68.80    4.40
  16   0 -12    0.63    0.56
 -16   0  10   -0.49    0.48
  16   0 -10   -0.56    0.64
 -16   0   8 1818.74   23.76
  16   0  -8 1820.07   23.54
 -16   0   6    0.62    0.55
  16   0  -6   -0.40    0.58
 -16   0   4   -0.58    0.34
  16   0  -4   -0.45    0.32
 -16   0   2 2453.48   29.27
  16   0  -2 2515.04   29.09
 -16   0   0    0.32    0.48
  16   0   0    0.11    0.27
 -16   0  -2   -0.40    0.57
  16   0   2   -0.38    0.46
 -16   0  -4  426.70   12.75
  16   0   4  432.74   12.72
 -16   0  -6    0.05    0.70
  16   0   6   -0.60    0.84
 -16   0  -8    0.66    0.61
  16   0   8   -0.02    0.27
 -16   0 -10  486.11   14.50
  16   0  10  492.24   14.23
 -16   0 -12    0.76    0.43
  16   0  12    0.48    0.67
 -16   0 -14   -0.15    0.35
  16   0  14   -0.04    0.69
 -16   0 -16  648.17   17.52
  16   0  16  657.67   17.09
 -16   0 -18   -0.07    0.94
  16   0  18   -0.42    0.35
 -16   0 -20   -0.67    0.88
  16   0  20   -0.60    0.77
 -16   0 -22  581.04   17.33
  16   0  22  598.72   17.19
 -16   0 -24   -0.15    0.52
  16   0  24   -0.74    1.03
 -16   0 -26   -1.40    1.10
  16   0  26   -0.67    0.61
 -16   0 -28   85.53    6.92
  16   0  28   88.77    6.88
 -16   0 -30   -0.77    1.09
  16   0  30   -0.78    0.54
 -16   0 -32   -1.04    1.39
  16   0  32    0.12    0.70
 -16   0 -34  125.59    8.80
 -16   0 -36   -1.73    1.44
 -16   0 -38   -0.66    0.56
  16  -1 -41   81.95    3.04
  16  -1 -39   -0.03    0.18
  16  -1 -39   -0.03    0.29
  16  -1 -37   -0.68    0.56
  16  -1 -37   -0.99    0.53
  16  -1 -35   89.88    4.45
  16  -1 -33    0.36    0.46
  16   1 -33    0.04    0.15
  16  -1 -31   -0.03    0.18
  16   1 -31    0.02    0.18
  16  -1 -29  211.75    7.35
  16   1 -29  217.61    5.69
  16  -1 -27   -0.30    0.22
  16   1 -27   -0.33    0.36
  16  -1 -25   -0.17    0.58
  16   1 -25   -0.17    0.42
  16  -1 -23  537.77   12.19
  16   1 -23  541.14   10.67
  16  -1 -21   -0.53    0.59
  16   1 -21    0.02    0.24
  16  -1 -19   -0.50    0.40
  16   1 -19    0.41    0.24
  16  -1 -17  249.23    8.61
  16   1 -17  250.98    7.96
  16  -1 -15   -0.37    0.65
 -16  -1  15   -0.70    0.82
  16   1 -15    0.40    0.60
  16  -1 -13    0.21    0.20
 -16  -1  13    1.01    0.34
  16   1 -13    1.01    0.75
  16  -1 -11    9.72    1.81
 -16  -1  11   12.05    1.89
  16   1 -11   10.00    1.70
  16  -1  -9   -0.63    0.75
 -16  -1   9   -0.42    0.60
  16   1  -9   -0.04    0.25
  16  -1  -7   -0.18    0.53
 -16  -1   7   -0.17    0.56
  16   1  -7    0.54    0.73
  16  -1  -5 1876.39   25.28
  16   1  -5 1863.50   24.32
 -16  -1   5 1937.13   25.21
 -16  -1   3    0.41    0.44
  16  -1  -3   -0.17    0.26
  16   1  -3    0.19    0.49
 -16   1   1    0.31    0.79
 -16  -1   1   -0.71    1.17
  16  -1  -1    0.03    0.39
  16   1  -1    0.10    0.31
 -16   1  -1 1106.31   20.24
  16  -1   1 1132.07   20.37
 -16  -1  -1 1131.78   20.50
  16   1   1 1132.98   20.01
  16  -1   3   -0.48    0.30
 -16  -1  -3   -0.48    0.68
 -16   1  -3    0.53    0.76
  16   1   3   -0.37    0.50
 -16   1  -5   -0.55    0.60
  16  -1   5    0.63    0.58
 -16  -1  -5    2.34    1.46
  16   1   5    1.63    1.11
 -16   1  -7 1283.76   22.73
  16  -1   7 1264.03   22.31
 -16  -1  -7 1271.55   22.85
  16   1   7 1285.67   22.37
 -16  -1  -9    1.22    1.15
 -16   1  -9    0.35    1.57
  16  -1   9    0.59    0.71
  16   1   9   -0.02    0.28
 -16  -1 -11   -0.43    0.39
 -16   1 -11   -0.08    0.65
  16  -1  11    0.08    0.67
  16   1  11   -0.37    0.60
 -16   1 -13  712.68   17.73
 -16  -1 -13  708.15   18.02
  16  -1  13  715.36   17.72
  16   1  13  700.96   17.58
 -16  -1 -15   -0.04    0.64
 -16   1 -15    0.43    0.47
  16  -1  15   -0.72    0.98
  16   1  15   -0.17    0.39
 -16  -1 -17   -0.80    1.28
 -16   1 -17    0.27    0.79
  16  -1  17   -0.26    0.59
  16   1  17   -0.01    0.45
 -16   1 -19  405.85   14.00
 -16  -1 -19  396.48   14.24
  16  -1  19  396.03   13.55
  16   1  19  411.02   14.16
 -16  -1 -21   -1.41    1.39
 -16   1 -21   -0.88    1.16
  16  -1  21   -0.32    0.28
  16   1  21    1.96    1.09
 -16   1 -23   -0.50    0.50
 -16  -1 -23   -1.60    1.55
  16  -1  23   -0.35    0.81
  16   1  23   -0.42    0.63
 -16  -1 -25  153.26    9.26
 -16   1 -25  167.23    9.40
  16   1  25  165.66    9.52
  16  -1  25  163.63    9.13
 -16  -1 -27   -0.14    0.34
 -16   1 -27   -0.85    1.12
  16  -1  27   -0.45    0.88
  16   1  27   -0.01    0.35
 -16   1 -29    0.35    0.96
 -16  -1 -29    1.58    1.28
  16  -1  29    0.01    0.62
  16   1  29    0.35    0.47
 -16   1 -31  191.51   10.43
 -16  -1 -31  196.89   11.08
  16   1  31  183.82   10.45
  16  -1  31  189.76   10.17
 -16  -1 -33   -0.53    0.55
  16  -1  33    0.16    0.55
 -16  -1 -35   -0.14    0.92
 -16  -1 -37   64.20    6.44
 -16  -1 -39   -1.17    1.26
  16  -2 -42    0.54    0.38
  16  -2 -40    0.40    0.53
  16  -2 -40    0.78    0.59
  16  -2 -38   92.02    5.06
  16  -2 -38   92.88    5.19
  16   2 -30   -0.41    0.33
  16   2 -28   -0.19    0.37
  16   2 -26  225.01    6.07
  16   2 -24   -0.30    0.30
  16   2 -22   -0.47    0.36
 -16  -2  20  270.98    7.94
  16   2 -20  263.97    7.70
 -16  -2  18    0.22    0.38
  16   2 -18    0.73    0.51
 -16  -2  16   -0.16    0.54
  16   2 -16   -0.28    0.20
 -16  -2  14  464.20   11.43
  16   2 -14  485.14   11.31
 -16  -2  12    0.76    0.53
  16  -2 -12   -0.40    0.47
  16   2 -12    0.53    0.47
  16  -2 -10    0.07    0.45
 -16  -2  10    0.14    0.70
  16   2 -10    0.07    0.64
  16  -2  -8  225.89    8.86
 -16  -2   8  229.02    8.54
  16   2  -8  224.74    8.22
  16   2  -6   -0.28    0.74
 -16  -2   6   -0.17    0.65
  16  -2  -4   -0.41    0.58
 -16  -2   4   -0.55    0.61
  16   2  -4   -1.48    1.07
  16  -2  -2  327.88   10.91
 -16  -2   2  330.27   10.83
  16   2  -2  334.97   10.82
  16  -2   0   -0.32    0.81
  16   2   0    1.20    0.88
 -16  -2   0    0.07    0.43
  16  -2   2    0.71    0.70
 -16  -2  -2    2.20    1.54
  16   2   2    1.31    0.93
  16  -2   4 1657.66   25.83
 -16  -2  -4 1676.32   25.96
  16   2   4 1705.02   26.01
  16  -2   6    0.70    1.07
 -16  -2  -6    2.23    1.36
  16   2   6    0.26    0.51
  16  -2   8   -0.13    0.48
 -16  -2  -8    0.14    0.55
  16   2   8   -0.43    0.74
 -16  -2 -10  650.94   17.10
  16  -2  10  656.03   16.79
  16   2  10  676.39   17.13
  16  -2  12   -0.31    0.57
 -16  -2 -12    1.29    0.98
  16   2  12    0.65    0.50
  16  -2  14   -1.14    0.95
 -16  -2 -14    0.34    0.32
  16   2  14   -0.10    0.66
 -16  -2 -16  221.07   10.55
  16  -2  16  224.02   10.13
  16   2  16  230.13   10.55
 -16  -2 -18    1.05    0.77
  16  -2  18   -1.14    1.06
  16   2  18    0.19    0.65
 -16  -2 -20   -0.16    0.40
  16  -2  20   -0.69    1.08
  16   2  20    0.84    0.78
 -16  -2 -22  193.43   10.34
  16   2  22  209.97   10.72
  16  -2  22  195.95    9.81
 -16  -2 -24   -0.96    0.80
  16  -2  24    0.61    0.28
  16   2  24   -0.97    0.91
 -16  -2 -26   -0.89    1.28
  16  -2  26    0.45    0.38
  16   2  26   -1.16    0.29
 -16  -2 -28  169.60   10.19
  16   2  28  167.62   10.05
  16  -2  28  175.21    9.51
 -16  -2 -30    0.04    0.51
  16  -2  30    0.72    0.41
 -16  -2 -32   -1.03    1.23
  16  -2  32   -1.60    1.16
 -16  -2 -34  129.67    9.41
 -16  -2 -36    2.18    1.38
 -16  -2 -38   -0.42    0.86
 -16  -2 -40   44.70    5.75
  16  -3 -43   -0.55    0.68
  16  -3 -41  119.36    6.53
  16  -3 -39   -1.04    0.80
  16  -3 -37   -0.92    0.85
  16   3 -29  151.49    4.33
  16   3 -27    0.15    0.27
 -16  -3  25   -0.26    0.19
  16   3 -25    0.06    0.24
 -16  -3  23  115.26    4.97
  16   3 -23  107.72    4.78
 -16  -3  21    0.13    0.32
  16   3 -21   -0.05    0.39
 -16  -3  19   -0.89    0.78
  16   3 -19   -0.15    0.40
 -16  -3  17  281.06    8.80
  16   3 -17  280.89    8.57
 -16  -3  15    0.43    0.48
  16   3 -15    0.24    0.32
 -16  -3  13    0.22    0.32
  16   3 -13    1.13    0.89
 -16  -3  11 1081.37   18.59
  16   3 -11 1077.92   18.13
 -16  -3   9    0.92    1.03
  16   3  -9    2.13    1.19
 -16  -3   7   -0.16    0.35
  16   3  -7    0.35    0.51
 -16  -3   5   24.20    2.94
  16   3  -5   25.71    2.96
  16  -3  -3    0.14    0.56
 -16  -3   3   -0.20    0.71
  16   3  -3    0.02    0.33
  16  -3  -1   -0.83    0.70
 -16  -3   1    0.42    0.87
  16   3  -1    0.52    0.81
  16  -3   1 1112.41   21.37
 -16  -3  -1 1097.41   21.18
  16   3   1 1090.83   20.65
  16  -3   3    1.26    0.85
 -16  -3  -3    1.34    1.10
  16   3   3   -0.07    0.76
  16  -3   5    0.12    0.57
 -16  -3  -5    0.83    1.06
  16   3   5   -0.14    0.79
  16  -3   7 1105.01   21.99
 -16  -3  -7 1099.52   22.26
  16   3   7 1098.36   21.91
  16  -3   9   -0.74    0.59
 -16  -3  -9    0.83    1.33
  16   3   9    0.34    0.47
  16  -3  11   -1.28    1.07
 -16  -3 -11   -0.68    0.44
  16   3  11   -0.41    0.61
 -16  -3 -13  195.52    9.94
  16  -3  13  186.65    9.27
  16   3  13  194.87    9.89
  16  -3  15    0.28    0.31
 -16  -3 -15    0.00    0.54
  16   3  15   -0.02    0.38
  16  -3  17    0.55    0.33
 -16  -3 -17   -0.54    0.81
  16   3  17   -0.71    0.88
 -16  -3 -19  232.48   11.50
  16  -3  19  244.19   10.94
  16   3  19  234.28   11.43
 -16  -3 -21   -0.61    0.74
  16  -3  21   -1.27    1.01
  16   3  21   -0.52    0.83
 -16  -3 -23    0.27    0.37
  16  -3  23    0.10    0.46
  16   3  23   -0.96    0.88
 -16  -3 -25  253.54   12.54
  16  -3  25  261.33   11.60
 -16  -3 -27   -0.13    0.60
  16  -3  27    1.16    1.00
  16  -3  29   -1.19    0.81
 -16  -3 -29   -0.29    0.85
 -16  -3 -31  164.66   10.60
  16  -3  31  164.93    9.37
 -16  -3 -33   -0.56    0.90
 -16  -3 -35   -0.11    0.73
 -16  -3 -37  104.54    8.85
 -16  -3 -39   -0.41    0.73
 -16  -3 -41   -1.81    1.51
  16  -4 -44   15.60    2.55
  16  -4 -42   -0.78    0.97
  16  -4 -40   -0.42    0.34
  16  -4 -38   50.55    4.84
 -16  -4  28   -0.27    0.26
  16   4 -26   87.73    4.33
 -16  -4  26   92.01    4.36
  16   4 -24    0.28    0.34
 -16  -4  24   -0.36    0.29
  16   4 -22    0.29    0.37
 -16  -4  22   -0.02    0.45
 -16  -4  20  389.02   10.31
  16   4 -20  366.44   10.07
 -16  -4  18   -0.28    0.57
  16   4 -18   -0.38    0.31
 -16  -4  16   -0.68    0.59
  16   4 -16   -0.74    0.87
 -16  -4  14   83.06    5.17
  16   4 -14   76.19    4.95
 -16  -4  12   -0.28    0.48
  16   4 -12   -0.70    0.59
 -16  -4  10   -0.43    0.70
  16   4 -10   -0.01    0.33
  16   4  -8  529.49   13.94
 -16  -4   8  518.62   13.77
 -16  -4   6    0.15    0.42
  16   4  -6    0.12    0.56
 -16  -4   4   -0.15    0.37
  16   4  -4   -0.23    0.46
  16   4  -2  350.02   11.94
 -16  -4   2  369.35   12.32
 -16  -4   0    0.76    0.97
  16   4   0    0.32    0.71
  16  -4   2   -1.11    0.83
 -16  -4  -2    0.69    1.14
  16   4   2    0.53    0.84
  16  -4   4  302.26   11.71
  16   4   4  296.30   11.78
 -16  -4  -4  286.48   11.48
  16  -4   6   -0.14    0.72
 -16  -4  -6    1.40    1.12
  16   4   6    0.06    0.44
  16  -4   8    1.04    0.93
 -16  -4  -8    0.50    0.80
  16   4   8    0.36    0.88
  16  -4  10  513.90   15.73
  16   4  10  503.28   15.94
 -16  -4 -10  495.24   15.80
  16  -4  12    0.85    0.78
 -16  -4 -12    0.89    0.83
  16   4  12   -0.27    0.60
  16  -4  14    0.47    0.99
 -16  -4 -14    1.98    1.27
  16   4  14    0.10    0.38
  16  -4  16   56.40    5.36
  16   4  16   50.38    5.27
 -16  -4 -16   52.94    5.44
  16  -4  18    1.32    0.99
 -16  -4 -18    0.84    0.81
  16   4  18   -0.25    0.42
 -16  -4 -20   -0.04    0.40
  16   4  20    1.21    0.93
  16  -4  22   89.47    6.84
 -16  -4 -22   94.47    7.71
  16  -4  24   -0.78    1.10
 -16  -4 -24   -1.64    1.31
 -16  -4 -26   -1.74    1.72
  16  -4  26   -0.87    1.15
  16  -4  28  141.72    8.80
 -16  -4 -28  139.80    9.86
 -16  -4 -30    0.48    1.20
  16  -4  30    0.52    0.61
 -16  -4 -32   -0.98    0.48
 -16  -4 -34   74.27    7.57
 -16  -4 -36   -0.99    0.61
 -16  -4 -38    0.22    0.85
 -16  -4 -40   88.95    8.61
 -16  -4 -42   -0.10    0.79
  16  -5 -43   -0.90    1.10
  16  -5 -41   64.65    5.88
  16  -5 -39    0.67    0.94
  16  -5 -37   -1.46    1.45
 -16  -5  31   -0.46    0.30
 -16  -5  29   65.20    3.53
 -16  -5  27    0.47    0.36
 -16  -5  25   -1.06    0.78
 -16  -5  23   81.70    4.80
  16   5 -23   83.02    4.99
 -16  -5  21   -0.51    0.68
  16   5 -21   -0.63    0.61
 -16  -5  19   -0.21    0.51
  16   5 -19   -0.34    0.46
  16   5 -17  111.14    6.25
 -16  -5  17  112.73    6.11
 -16  -5  15    0.12    0.26
  16   5 -15   -0.16    0.42
 -16  -5  13    0.53    0.28
  16   5 -13   -0.17    0.64
  16   5 -11  141.87    7.45
 -16  -5  11  141.58    7.31
 -16  -5   9   -0.08    0.38
  16   5  -9   -0.09    0.54
 -16  -5   7   -0.87    1.12
  16   5  -7   -0.13    0.51
  16   5  -5  221.23    9.83
 -16  -5   5  232.06    9.93
 -16  -5   3    0.69    1.12
  16   5  -3    0.00    0.56
 -16  -5   1   -0.88    0.95
  16   5  -1    0.18    0.49
 -16  -5  -1   -0.49    0.88
  16   5   1    1.20    0.61
 -16  -5  -3   -0.69    1.05
  16   5   3   -0.75    1.31
 -16  -5  -5    0.14    0.43
  16   5   5    0.05    0.57
  16  -5   7  204.69   10.15
  16   5   7  203.52   10.52
 -16  -5  -7  196.62   10.07
 -16  -5  -9    0.25    0.46
  16   5   9   -0.41    0.89
  16  -5   9    0.38    0.79
 -16  -5 -11   -0.91    0.63
  16  -5  11   -0.27    0.83
  16   5  11   -1.15    1.42
  16  -5  13  146.54    8.77
  16   5  13  160.50    9.84
 -16  -5 -13  155.42    9.44
 -16  -5 -15    0.21    0.53
  16   5  15   -1.26    1.09
  16  -5  15   -0.56    0.97
  16  -5  17    1.56    1.24
 -16  -5 -17    1.34    1.16
  16  -5  19  523.77   17.09
 -16  -5 -19  528.04   18.32
  16  -5  21   -1.29    0.92
 -16  -5 -21   -0.75    1.24
  16  -5  23   -1.05    1.22
 -16  -5 -23   -1.99    1.42
  16  -5  25   96.35    7.34
 -16  -5 -25   88.54    7.92
 -16  -5 -27   -0.09    0.47
  16  -5  27   -0.79    1.02
 -16  -5 -29   -0.58    0.95
  16  -5  29   -0.34    0.28
 -16  -5 -31  121.82    9.73
 -16  -5 -33    0.13    1.05
 -16  -5 -35   -1.17    0.86
 -16  -5 -37   31.49    5.13
 -16  -5 -39   -1.79    1.49
 -16  -5 -41    1.32    1.31
  16  -6 -44    9.07    2.21
  16  -6 -42   -1.90    1.49
  16  -6 -40   -0.54    0.98
  16  -6 -38   18.34    3.36
  16  -6 -36   -1.02    0.53
 -16  -6  32   49.07    2.86
 -16  -6  30   -0.60    0.52
 -16  -6  28   -1.01    0.76
 -16  -6  26  131.55    6.22
 -16  -6  24    0.13    0.27
 -16  -6  22    0.53    0.56
  16   6 -20  103.45    6.34
 -16  -6  20  112.69    6.28
 -16  -6  18    0.43    0.63
  16   6 -18   -0.24    0.48
 -16  -6  16   -0.85    0.69
  16   6 -16   -0.58    0.58
  16   6 -14  230.31    9.91
 -16  -6  14  238.36    9.84
  16   6 -12   -0.07    0.43
 -16  -6  12   -0.21    0.50
  16   6 -10    0.53    0.71
 -16  -6  10   -0.36    0.79
  16   6  -8  131.15    7.96
 -16  -6   8  127.28    7.58
  16   6  -6   -0.38    0.33
 -16  -6   6   -0.38    0.91
  16   6  -4   -0.95    0.97
 -16  -6   4   -0.02    0.84
  16   6  -2   31.13    4.13
 -16  -6   2   27.68    3.73
  16   6   0    0.26    0.71
 -16  -6   0    0.04    0.68
  16   6   2    0.96    1.20
 -16  -6  -2   -0.49    0.47
  16   6   4  250.75   12.16
 -16  -6  -4  240.70   11.41
  16   6   6   -0.34    0.74
 -16  -6  -6   -1.13    1.32
  16   6   8   -2.87    1.34
 -16  -6  -8   -0.16    0.39
  16  -6  10  216.16   11.05
 -16  -6 -10  202.83   11.16
  16  -6  12    0.23    0.53
 -16  -6 -12   -0.22    1.36
  16  -6  14   -0.42    0.91
 -16  -6 -14    0.13    0.57
  16  -6  16  224.97   11.39
 -16  -6 -16  213.02   11.80
  16  -6  18   -0.99    1.12
 -16  -6 -18   -1.93    1.52
  16  -6  20    0.41    0.74
 -16  -6 -20   -0.87    1.26
  16  -6  22  125.33    8.67
 -16  -6 -22  114.84    9.07
  16  -6  24   -1.74    1.54
 -16  -6 -24    0.15    0.60
  16  -6  26    0.41    0.96
 -16  -6 -26    0.69    0.80
 -16  -6 -28  106.43    9.26
 -16  -6 -30   -1.73    1.31
 -16  -6 -32   -1.84    1.44
 -16  -6 -34   88.05    8.79
 -16  -6 -36   -1.13    1.27
 -16  -6 -38   -3.10    1.84
 -16  -6 -40   45.58    6.63
 -16  -6 -42   -2.19    1.76
  16  -7 -45   -1.18    0.93
  16  -7 -43    0.04    0.62
  16  -7 -41    3.06    1.19
  16  -7 -39   -0.64    0.88
  16  -7 -37    0.14    0.73
 -16  -7  33   -1.24    0.73
 -16  -7  31   -0.58    0.79
 -16  -7  29   43.06    3.57
 -16  -7  27   -0.43    0.51
 -16  -7  25   -0.98    0.91
 -16  -7  23  107.24    6.31
 -16  -7  21    0.35    0.61
 -16  -7  19   -0.18    0.33
 -16  -7  17  101.37    6.70
  16   7 -15   -0.24    0.92
 -16  -7  15   -0.01    0.82
  16   7 -13   -1.02    0.73
 -16  -7  13   -0.72    1.13
  16   7 -11  220.95   10.72
 -16  -7  11  227.38   10.48
  16   7  -9    0.40    0.85
 -16  -7   9   -0.39    0.77
  16   7  -7   -0.21    0.65
 -16  -7   7   -0.51    1.17
  16   7  -5    7.90    2.01
 -16  -7   5    4.77    1.41
  16   7  -3   -1.11    1.10
 -16  -7   3   -0.06    1.14
  16   7  -1    0.14    0.59
 -16  -7   1   -0.89    1.11
  16   7   1  152.74    9.65
 -16  -7  -1  142.73    9.08
  16   7   3    0.07    0.43
 -16  -7  -3   -0.95    1.35
 -16  -7  -5   -2.12    1.52
 -16  -7  -7  103.39    8.05
 -16  -7  -9   -1.00    1.11
 -16  -7 -11   -0.72    1.04
  16  -7  13  191.40   10.96
 -16  -7 -13  181.72   11.21
  16  -7  15    0.54    0.81
 -16  -7 -15   -0.79    1.21
 -16  -7 -17   -1.94    1.82
 -16  -7 -19   21.28    3.97
 -16  -7 -21   -1.25    1.17
 -16  -7 -23   -0.87    1.42
 -16  -7 -25  172.86   11.95
 -16  -7 -27   -0.66    1.16
 -16  -7 -29   -0.48    0.66
 -16  -7 -31   59.99    7.31
 -16  -7 -33   -3.21    1.98
 -16  -7 -35   -0.96    0.85
 -16  -7 -37   19.50    4.39
 -16  -7 -39   -3.41    2.28
 -16  -7 -41   -1.02    1.45
  16  -8 -44   12.57    3.03
  16  -8 -42   -1.85    1.11
  16  -8 -40    0.50    0.62
  16  -8 -38   17.18    3.78
  16  -8 -36   -1.12    0.96
 -16  -8  32   17.72    2.32
 -16  -8  30   -0.33    0.60
 -16  -8  28   -0.78    0.73
 -16  -8  26   22.85    3.00
 -16  -8  24   -1.34    1.00
 -16  -8  22    0.05    0.51
 -16  -8  20   84.19    6.25
 -16  -8  18   -0.05    0.60
 -16  -8  16   -0.62    0.58
 -16  -8  14  112.27    7.63
 -16  -8  12   -0.94    0.97
  16   8 -10    0.26    0.89
 -16  -8  10   -1.57    1.28
  16   8  -8   82.70    7.15
 -16  -8   8   78.83    6.64
  16   8  -6    0.68    0.44
 -16  -8   6   -0.74    0.50
  16   8  -4    2.10    1.29
 -16  -8   4   -0.19    0.46
 -16  -8   2   42.14    5.15
 -16  -8   0   -2.44    1.84
 -16  -8  -2   -1.35    1.17
 -16  -8  -4   69.66    6.83
 -16  -8  -6    0.98    0.95
 -16  -8  -8   -0.08    0.75
 -16  -8 -10  110.77    8.94
 -16  -8 -12    1.96    1.70
 -16  -8 -14   -0.75    1.01
 -16  -8 -16   30.18    4.82
 -16  -8 -18   -2.53    2.00
 -16  -8 -20   -0.34    1.49
 -16  -8 -22   62.41    7.34
 -16  -8 -24    0.01    0.56
 -16  -8 -26    1.59    1.78
 -16  -8 -28   82.11    8.74
 -16  -8 -30    0.24    0.88
 -16  -8 -32   -0.30    0.96
 -16  -8 -34   17.17    4.09
 -16  -8 -36   -0.28    1.18
 -16  -8 -38   -1.83    0.90
 -16  -8 -40   10.34    3.55
  16  -9 -45    0.56    0.71
  16  -9 -43   -0.34    1.34
  16  -9 -41    9.86    2.74
  16  -9 -39    1.36    1.06
  16  -9 -37   -1.24    1.32
  16  -9 -35   21.07    4.30
 -16  -9  31   -0.95    0.77
 -16  -9  29   36.96    3.92
 -16  -9  27   -1.34    0.94
 -16  -9  25   -1.27    1.18
 -16  -9  23   37.10    4.30
 -16  -9  21   -1.11    0.88
 -16  -9  19    0.43    0.68
 -16  -9  17  116.20    8.07
 -16  -9  15    0.66    0.80
 -16  -9  13   -0.32    0.87
 -16  -9  11    1.22    0.54
 -16  -9   9   -0.27    0.90
 -16  -9   7    0.70    0.92
 -16  -9   5   95.42    7.89
 -16  -9   3    0.37    0.68
 -16  -9   1    2.76    1.42
 -16  -9  -1  115.09    9.10
 -16  -9  -3   -1.35    1.36
 -16  -9  -5    0.55    0.42
 -16  -9  -7  202.88   12.43
 -16  -9  -9    0.72    0.76
 -16  -9 -11    0.14    1.38
 -16  -9 -13   65.35    7.23
 -16  -9 -15   -2.76    2.05
 -16  -9 -17   -1.59    1.65
 -16  -9 -19   44.54    6.25
 -16  -9 -21   -0.78    1.30
 -16  -9 -23    0.05    1.13
 -16  -9 -25  104.39    9.96
 -16  -9 -27    2.77    1.97
 -16  -9 -29   -1.04    1.80
 -16  -9 -31   68.13    8.40
 -16  -9 -33    0.89    0.76
 -16  -9 -35   -1.27    1.65
  16 -10 -44   12.95    3.79
  16 -10 -42    2.56    1.91
  16 -10 -40   -3.93    2.37
  16 -10 -38   11.59    3.27
  16 -10 -36   -0.79    1.37
  16 -10 -34   -0.67    1.45
  16 -10 -32    3.20    1.30
 -16 -10  30   -1.20    0.92
 -16 -10  28    0.83    0.92
 -16 -10  26   49.23    5.14
 -16 -10  24   -2.24    1.35
 -16 -10  22   -1.39    1.10
 -16 -10  20   49.36    5.39
 -16 -10  18   -0.88    1.19
 -16 -10  16    1.21    1.34
 -16 -10  14  169.34   10.46
 -16 -10  12    0.11    0.88
 -16 -10  10    0.05    0.67
 -16 -10   8   26.40    4.15
 -16 -10   6   -0.02    0.72
 -16 -10   4   -0.32    0.66
 -16 -10   2   96.05    8.51
 -16 -10   0   -0.19    1.09
 -16 -10  -2    1.96    1.86
 -16 -10  -4  144.39   10.82
 -16 -10  -6    1.43    1.32
 -16 -10  -8   -1.32    0.84
 -16 -10 -10   22.10    4.25
 -16 -10 -12    0.20    1.50
 -16 -10 -14    0.74    1.38
 -16 -10 -16   24.00    4.74
 -16 -10 -18   -1.02    0.69
 -16 -10 -20   -1.43    0.99
 -16 -10 -22   40.06    6.35
 -16 -10 -24   -1.22    1.86
 -16 -10 -26   -1.80    1.75
 -16 -10 -28   24.51    5.15
 -16 -10 -30   -2.54    1.66
  16 -11 -43   -0.30    0.64
  16 -11 -41    9.50    3.51
  16 -11 -39   -2.51    1.70
  16 -11 -37   -2.03    0.87
  16 -11 -35    8.47    3.14
  16 -11 -33   -0.62    0.72
  16 -11 -31   -1.83    1.78
 -16 -11  27    0.90    1.00
 -16 -11  25    0.47    0.79
 -16 -11  23   61.79    6.27
 -16 -11  21    0.74    1.14
 -16 -11  19    0.64    0.72
 -16 -11  17   15.13    3.24
 -16 -11  15   -2.80    1.67
 -16 -11  13   -0.46    0.59
 -16 -11  11   65.64    7.08
 -16 -11   9    1.23    1.24
 -16 -11   7    0.03    0.76
 -16 -11   5    4.88    2.26
 -16 -11   3   -0.30    1.29
 -16 -11   1   -0.30    0.97
 -16 -11  -1  130.22   10.53
 -16 -11  -3    0.64    1.12
 -16 -11  -5   -0.36    0.62
 -16 -11  -7   14.92    3.77
 -16 -11  -9    0.41    0.71
 -16 -11 -11   -1.06    1.11
 -16 -11 -13   44.35    6.54
 -16 -11 -15    0.44    1.55
 -16 -11 -17    1.40    1.19
 -16 -11 -19   20.81    4.56
 -16 -11 -21   -0.30    1.62
 -16 -11 -23   -0.66    0.76
 -16 -11 -25   13.57    3.86
  16 -12 -34    0.40    1.15
  16 -12 -32    9.39    3.23
  16 -12 -30   -0.54    0.66
  16 -12 -28    1.84    1.79
 -16 -12  26   21.22    3.82
 -16 -12  24   -1.36    1.20
 -16 -12  22   -2.54    1.48
 -16 -12  20   54.14    6.36
 -16 -12  18    0.77    1.12
 -16 -12  16   -0.21    0.74
 -16 -12  14   15.69    3.63
 -16 -12  12   -0.14    1.09
 -16 -12  10   -2.13    1.85
 -16 -12   8   33.55    5.31
 -16 -12   6    0.65    1.14
 -16 -12   4    2.40    1.80
 -16 -12   2   69.30    8.00
 -16 -12   0   -0.22    1.13
 -16 -12  -2    0.80    1.08
 -16 -12  -4   16.51    4.00
 -16 -12  -6   -0.57    0.99
 -16 -12  -8    1.22    1.39
 -16 -12 -10   56.26    7.65
 -16 -12 -12    0.80    1.28
 -16 -12 -14    0.69    0.80
 -16 -12 -16   54.53    7.68
 -16 -12 -18   -0.70    1.36
 -16 -12 -20    1.30    1.70
  16 -13 -25    2.50    2.11
 -16 -13  25   -2.09    1.49
 -16 -13  23   13.73    3.19
 -16 -13  21    0.66    0.86
 -16 -13  19    2.72    1.72
 -16 -13  17   27.83    4.87
 -16 -13  15    0.65    0.85
 -16 -13  13    1.76    1.06
 -16 -13  11   24.13    4.82
 -16 -13   9   -0.23    1.08
 -16 -13   7   -3.97    2.15
 -16 -13   5   32.29    5.58
 -16 -13   3    0.11    0.77
 -16 -13   1   -2.17    2.34
 -16 -13  -1   13.89    3.77
 -16 -13  -3   -0.57    0.84
 -16 -13  -5    0.38    0.94
 -16 -13  -7   23.64    5.04
 -16 -13  -9    3.36    2.53
 -16 -13 -11   -0.47    1.51
 -16 -14  22   -0.90    1.25
 -16 -14  20    8.90    2.86
 -16 -14  18    0.09    1.10
 -16 -14  16   -3.14    2.11
 -16 -14  14   13.25    3.53
 -16 -14  12   -0.50    1.14
 -16 -14  10   -2.55    1.25
 -16 -14   8   10.83    3.20
 -16 -14   6   -0.38    0.51
 -16 -14   4    0.14    0.91
 -16 -14   2   10.60    3.52
 -16 -14   0    0.50    1.66
 -16 -14  -2    1.76    1.75
 -16 -15  19   -0.94    1.48
 -16 -15  17   10.25    3.26
 -16 -15  15    2.57    1.53
 -16 -15  13   -0.39    0.84
 -16 -15  11   10.15    3.67
  17   0 -37    0.14    0.13
  17   0 -37   -0.27    0.19
  17   0 -35    1.09    0.64
  17   0 -33   -0.65    0.58
  17   0 -31    0.21    0.29
  17   0 -29    0.74    0.54
  17   0 -27    1.55    0.84
  17   0 -25    0.54    0.61
  17   0 -23    0.43    0.74
  17   0 -21    4.83    1.28
  17   0 -19   -0.26    0.35
  17   0 -17    2.35    1.22
  17   0 -15    0.31    0.51
  17   0 -13    0.17    0.48
  17   0 -11    2.74    1.49
 -17   0   9    0.78    0.91
  17   0  -9    8.07    2.12
 -17   0   7   -0.78    0.83
  17   0  -7   -0.32    0.90
 -17   0   5   -0.48    0.40
  17   0  -5    1.73    1.27
 -17   0   3    1.73    1.39
  17   0  -3   11.67    2.44
 -17   0   1    5.74    2.08
  17   0  -1   -0.22    0.58
 -17   0  -1   -0.75    0.95
  17   0   1   -0.34    0.80
 -17   0  -3    0.91    0.92
  17   0   3   -0.32    0.54
 -17   0  -5    1.08    1.20
  17   0   5   -0.14    0.51
 -17   0  -7    1.36    1.22
  17   0   7    0.70    0.76
 -17   0  -9   -0.18    0.54
  17   0   9   -0.51    0.64
 -17   0 -11    0.51    0.79
  17   0  11   -0.78    0.80
 -17   0 -13    2.50    1.77
  17   0  13    1.54    1.25
 -17   0 -15    2.29    2.03
  17   0  15    0.01    0.25
 -17   0 -17    1.34    1.47
  17   0  17    4.05    1.56
 -17   0 -19    4.16    2.73
  17   0  19    3.03    1.62
 -17   0 -21    4.86    2.20
  17   0  21    1.42    1.16
 -17   0 -23    2.17    1.35
  17   0  23    3.48    1.58
 -17   0 -25    0.25    1.20
  17   0  25   -0.63    0.72
 -17   0 -27   -0.74    0.81
  17   0  27   -1.18    1.12
 -17   0 -29   -1.45    1.25
  17   0  29   -0.36    0.70
 -17   0 -31    0.62    0.89
  17   0  31   -1.23    0.75
 -17   0 -33    1.57    1.29
 -17   0 -35    0.30    0.40
 -17   0 -37   -2.12    1.46
 -17   0 -39   -0.07    0.39
  17  -1 -40   -0.26    0.35
  17  -1 -40    0.83    0.37
  17  -1 -38    0.04    0.20
  17  -1 -38   -0.37    0.31
  17  -1 -36   -0.47    0.36
  17  -1 -34   41.15    3.21
  17   1 -34   35.35    1.66
  17  -1 -32    0.64    0.67
  17   1 -32   -0.19    0.14
  17  -1 -30    0.38    0.31
  17   1 -30    0.18    0.37
  17  -1 -28    6.86    1.38
  17   1 -28    7.38    1.19
  17  -1 -26    0.17    0.58
  17   1 -26    0.32    0.50
  17  -1 -24   -0.05    0.33
  17   1 -24    1.08    0.76
  17  -1 -22    4.93    1.12
  17   1 -22    8.39    1.56
  17  -1 -20    0.32    0.81
  17   1 -20    2.47    1.50
  17  -1 -18    0.33    0.42
  17   1 -18    1.07    0.87
  17  -1 -16  113.91    5.99
 -17  -1  16  120.82    5.87
  17   1 -16  124.33    5.93
  17  -1 -14    0.35    0.81
 -17  -1  14    0.86    1.09
  17  -1 -12   -0.90    0.79
 -17  -1  12    0.02    0.42
  17   1 -12    0.73    0.68
 -17  -1  10    6.93    1.73
  17  -1 -10    4.93    1.28
  17   1 -10    6.84    1.50
 -17  -1   8   -0.03    0.58
  17  -1  -8    1.10    1.12
  17   1  -8    2.07    1.37
 -17  -1   6    2.28    1.31
  17  -1  -6    2.81    1.90
  17   1  -6    4.93    1.71
  17  -1  -4  215.45    8.86
  17   1  -4  226.09    8.81
 -17  -1   4  229.17    9.13
 -17   1   2    0.87    1.21
 -17  -1   2   -0.47    0.45
  17  -1  -2    0.84    1.18
  17   1  -2    0.41    0.89
 -17  -1   0    0.56    0.88
 -17   1   0    2.07    1.46
  17   1   0    0.70    0.57
 -17  -1  -2    0.62    0.69
  17  -1   2    0.38    0.64
 -17   1  -2    0.78    1.23
  17   1   2    0.17    0.24
 -17   1  -4    0.70    0.95
  17  -1   4    0.46    0.57
 -17  -1  -4    1.38    1.01
  17   1   4    0.35    0.61
 -17   1  -6    2.57    1.63
 -17  -1  -6    2.52    1.47
  17  -1   6    2.63    1.28
  17   1   6    0.11    0.76
 -17   1  -8  379.21   12.84
  17  -1   8  392.61   12.99
 -17  -1  -8  379.54   12.99
  17   1   8  401.85   13.11
 -17   1 -10    2.58    1.66
 -17  -1 -10    0.17    0.75
  17  -1  10    0.50    0.75
  17   1  10    0.44    0.73
 -17  -1 -12    1.55    1.32
 -17   1 -12    1.26    1.45
  17   1  12    0.62    0.94
  17  -1  12    0.22    0.57
 -17   1 -14    2.67    1.96
 -17  -1 -14    0.05    0.62
  17  -1  14   -1.01    0.76
  17   1  14    2.72    1.47
 -17   1 -16    6.29    2.43
 -17  -1 -16    1.31    1.57
  17  -1  16    1.61    1.37
  17   1  16    2.21    1.54
 -17  -1 -18    0.53    1.11
 -17   1 -18    3.18    1.89
  17  -1  18    0.56    0.91
  17   1  18    0.91    1.07
 -17  -1 -20    0.07    0.94
 -17   1 -20    2.51    1.76
  17  -1  20    1.26    0.85
  17   1  20    1.98    1.68
 -17  -1 -22    0.95    1.59
 -17   1 -22    4.25    2.03
  17  -1  22    3.15    1.76
  17   1  22    0.80    1.07
 -17  -1 -24   -1.06    1.08
  17  -1  24    0.19    0.56
  17   1  24    0.47    0.46
 -17  -1 -26    0.61    0.44
 -17   1 -26    1.28    1.03
  17   1  26    2.27    1.28
  17  -1  26    3.42    1.40
 -17   1 -28   -0.24    0.41
 -17  -1 -28    0.11    0.80
  17  -1  28   -1.16    0.95
  17   1  28    0.47    0.54
 -17   1 -30    1.72    1.47
  17  -1  30    0.04    0.38
 -17  -1 -32    8.02    2.51
  17  -1  32    5.03    1.80
 -17  -1 -34    0.31    0.64
 -17  -1 -36   -0.34    0.37
 -17  -1 -38    6.09    2.20
 -17  -1 -40    0.22    0.56
  17  -2 -41    1.66    0.82
  17  -2 -39    0.00    0.32
  17  -2 -39   -0.45    0.60
  17  -2 -37   -1.01    0.89
  17  -2 -35   -0.26    0.52
  17   2 -31   25.15    1.66
  17   2 -29    0.31    0.27
  17   2 -27   -0.21    0.18
  17   2 -25    3.65    0.87
  17   2 -23    0.65    0.64
 -17  -2  21   -0.56    0.39
  17   2 -21   -0.10    0.24
 -17  -2  19   49.31    3.62
  17   2 -19   46.50    3.44
 -17  -2  17   -0.16    0.56
  17   2 -17    3.71    1.46
 -17  -2  15   -0.94    0.78
  17  -2 -15   -1.73    1.31
  17   2 -15    0.14    0.54
  17  -2 -13   -0.24    0.80
 -17  -2  13    0.33    0.38
  17   2 -13   -0.90    0.97
  17  -2 -11    0.10    0.51
 -17  -2  11   -0.52    0.52
  17   2 -11   -0.11    0.48
  17  -2  -9   -0.19    0.77
 -17  -2   9    0.05    0.31
  17   2  -9    0.10    0.30
  17  -2  -7   23.04    2.93
 -17  -2   7   30.79    3.41
  17   2  -7   26.87    2.98
  17  -2  -5   -0.39    0.43
 -17  -2   5    0.84    0.69
  17   2  -5   -0.65    0.29
  17  -2  -3    0.10    0.39
 -17  -2   3   -0.41    0.74
  17   2  -3   -0.31    0.38
  17  -2  -1  100.26    6.37
 -17  -2   1   99.39    6.23
  17   2  -1  100.47    6.12
  17  -2   1    0.28    1.37
  17   2   1   -0.11    0.72
 -17  -2  -1    0.09    0.49
 -17  -2  -3    0.68    1.11
  17   2   3   -0.14    0.36
 -17  -2  -5  274.08   10.92
  17  -2   5  269.71   10.74
  17   2   5  278.94   10.92
  17  -2   7    0.81    0.67
 -17  -2  -7    0.04    0.42
  17  -2   9    1.37    1.46
 -17  -2  -9    0.89    0.70
  17   2   9    0.74    0.75
  17  -2  11   -0.13    0.42
 -17  -2 -11   -1.35    1.04
  17   2  11    0.22    0.75
 -17  -2 -13   -0.66    0.99
  17  -2  13   -0.65    0.53
  17   2  13   -0.17    0.47
  17  -2  15   -0.61    0.88
 -17  -2 -15   -0.48    0.91
  17   2  15    0.50    0.43
 -17  -2 -17   42.80    4.77
  17  -2  17   44.50    4.64
  17   2  17   47.24    5.03
  17  -2  19    0.78    0.85
 -17  -2 -19    0.11    0.83
  17   2  19    1.26    1.14
 -17  -2 -21    0.90    1.39
  17  -2  21    0.65    0.69
  17   2  21   -1.38    1.38
 -17  -2 -23    1.08    1.24
  17  -2  23    0.69    0.64
  17   2  23    0.60    0.86
 -17  -2 -25    0.53    0.94
  17  -2  25    1.12    0.90
  17   2  25    0.85    1.17
 -17  -2 -27   -0.09    1.18
  17  -2  27   -0.08    0.83
 -17  -2 -29   58.28    6.19
  17  -2  29   63.10    5.91
 -17  -2 -31    1.50    1.44
  17  -2  31    0.79    1.09
 -17  -2 -33    2.32    1.61
 -17  -2 -35   -0.15    0.67
 -17  -2 -37    1.45    1.37
 -17  -2 -39   -1.40    1.67
 -17  -2 -41    2.80    1.51
  17  -3 -42    1.44    0.88
  17  -3 -40    0.10    0.51
  17  -3 -38    0.85    0.88
  17   3 -30    0.00    0.16
  17   3 -28   10.52    1.36
  17   3 -26    0.19    0.33
 -17  -3  24   -0.09    0.26
  17   3 -24   -0.33    0.31
 -17  -3  22   16.96    2.05
  17   3 -22   16.15    1.97
 -17  -3  20   -0.15    0.35
  17   3 -20    0.73    0.78
 -17  -3  18   -1.06    0.72
  17   3 -18    0.10    0.48
 -17  -3  16    2.62    0.73
  17   3 -16    1.92    0.69
 -17  -3  14    0.49    0.75
  17   3 -14   -0.23    0.30
 -17  -3  12    1.16    0.95
  17   3 -12    0.51    0.80
 -17  -3  10  536.33   13.58
  17   3 -10  524.16   13.22
 -17  -3   8   -0.12    0.57
  17   3  -8   -0.54    0.48
  17  -3  -6   -0.05    0.40
 -17  -3   6   -0.12    0.52
  17   3  -6   -0.23    0.57
  17  -3  -4   69.70    5.39
 -17  -3   4   68.09    5.13
  17   3  -4   71.73    5.19
  17  -3  -2    0.92    1.00
 -17  -3   2    2.08    1.41
  17   3  -2    0.69    0.90
  17  -3   0   -0.44    0.40
 -17  -3   0    0.65    1.07
  17   3   0    0.03    0.61
  17  -3   2   81.69    5.94
 -17  -3  -2   70.66    5.61
  17   3   2   77.19    5.67
  17  -3   4    1.19    1.16
 -17  -3  -4    0.94    0.87
  17   3   4   -0.10    0.35
 -17  -3  -6    0.87    1.40
  17   3   6    0.24    1.10
  17  -3   8    1.22    0.80
 -17  -3  -8   -0.72    0.88
  17   3   8    0.80    0.72
  17  -3  10    0.56    0.88
 -17  -3 -10   -0.03    0.53
  17   3  10   -0.25    0.32
  17  -3  12   -0.20    0.74
 -17  -3 -12   -0.62    1.04
  17   3  12    0.14    0.41
  17  -3  14   82.92    6.37
 -17  -3 -14   86.77    6.82
  17   3  14   81.14    6.63
  17  -3  16   -0.29    0.72
 -17  -3 -16   -0.26    0.48
  17   3  16   -0.13    0.44
  17  -3  18   -0.30    0.54
  17   3  18    0.40    0.50
  17  -3  20    0.55    0.49
 -17  -3 -20    0.79    0.38
  17   3  20    1.47    0.61
 -17  -3 -22    0.74    1.09
  17  -3  22    0.34    0.59
 -17  -3 -24    1.76    1.73
  17  -3  24    0.42    1.03
  17  -3  26   -0.41    0.74
 -17  -3 -26   -1.16    0.88
 -17  -3 -28    2.17    1.66
  17  -3  28    1.02    1.12
  17  -3  30    0.20    0.45
 -17  -3 -30    2.50    1.78
 -17  -3 -32    1.18    0.95
 -17  -3 -34    0.95    0.88
 -17  -3 -36    0.91    1.30
 -17  -3 -38   -0.38    1.18
 -17  -3 -40    0.28    0.55
  17  -4 -43   -0.34    0.88
  17  -4 -41    1.23    0.85
  17  -4 -39    0.21    0.89
  17   4 -27   -0.67    0.56
 -17  -4  27   -0.32    0.48
  17   4 -25    0.22    0.42
 -17  -4  25    0.45    0.19
  17   4 -23    0.29    0.50
 -17  -4  23    0.36    0.58
  17   4 -21    0.09    0.27
 -17  -4  21   -0.39    0.52
 -17  -4  19  109.54    5.74
  17   4 -19  102.54    5.59
 -17  -4  17   -0.38    0.55
  17   4 -17    0.40    0.34
 -17  -4  15   -0.10    0.38
  17   4 -15   -0.10    0.75
 -17  -4  13   35.04    3.53
  17   4 -13   32.93    3.39
 -17  -4  11    0.52    0.52
  17   4 -11   -0.67    0.53
 -17  -4   9    0.34    0.77
  17   4  -9    0.18    0.56
  17   4  -7  226.95    9.39
 -17  -4   7  235.90    9.62
 -17  -4   5   -0.56    0.77
  17   4  -5    0.58    0.39
 -17  -4   3    1.15    1.12
  17   4  -3   -0.38    0.77
  17   4  -1  361.10   12.69
 -17  -4   1  362.82   12.66
  17  -4   1    1.29    1.10
 -17  -4  -1    0.28    0.71
  17   4   1   -0.03    0.54
  17  -4   3   -0.09    0.63
 -17  -4  -3    0.01    0.46
  17   4   3   -0.20    0.46
  17  -4   5   -0.15    0.73
 -17  -4  -5   -0.24    0.50
  17   4   5    1.19    0.87
  17  -4   7    0.22    0.79
 -17  -4  -7   -0.05    0.42
  17   4   7   -0.55    0.51
  17  -4   9    1.33    1.18
 -17  -4  -9    2.39    1.51
  17   4   9    1.67    1.27
  17  -4  11   57.21    5.42
  17   4  11   59.06    5.60
 -17  -4 -11   60.08    5.71
  17  -4  13    1.33    1.20
 -17  -4 -13    1.94    1.38
  17   4  13    1.11    1.13
  17  -4  15    0.71    0.46
 -17  -4 -15   -0.72    0.91
  17   4  15    0.09    0.94
 -17  -4 -17   25.74    3.99
  17  -4  17   29.45    4.01
  17   4  17   31.29    4.30
 -17  -4 -19    0.99    1.36
  17  -4  19    1.66    1.52
  17  -4  21   -0.16    0.30
 -17  -4 -21   -0.54    0.80
 -17  -4 -23    0.43    0.63
  17  -4  23   -0.84    1.26
  17  -4  25   -0.43    1.01
 -17  -4 -25   -0.46    0.78
  17  -4  27   -0.31    0.33
 -17  -4 -27   -0.45    0.66
  17  -4  29   -0.15    0.42
 -17  -4 -29    0.16    0.67
 -17  -4 -31    0.65    1.19
 -17  -4 -33   -0.43    0.80
 -17  -4 -35    1.92    1.48
 -17  -4 -37    1.40    1.54
 -17  -4 -39    0.06    1.06
 -17  -4 -41    0.14    1.11
  17  -5 -44   -1.62    1.17
  17  -5 -42   -0.16    0.92
  17  -5 -40    8.63    2.20
  17  -5 -38   -0.61    1.09
 -17  -5  30    0.03    0.22
 -17  -5  28   23.75    2.35
 -17  -5  26    0.04    0.35
 -17  -5  24   -0.57    0.48
  17   5 -24    0.03    0.30
 -17  -5  22    4.82    1.18
  17   5 -22    3.40    0.96
 -17  -5  20   -0.67    0.44
  17   5 -20    0.83    0.69
 -17  -5  18   -0.16    0.61
  17   5 -18    0.10    0.40
  17   5 -16   72.26    5.22
 -17  -5  16   68.13    4.95
 -17  -5  14    0.42    0.47
  17   5 -14    0.54    0.39
 -17  -5  12   -0.79    1.03
  17   5 -12   -0.41    0.45
  17   5 -10   24.35    3.21
 -17  -5  10   25.07    3.18
 -17  -5   8   -1.59    1.30
  17   5  -8    0.86    0.78
 -17  -5   6   -0.47    0.99
  17   5  -6    0.23    0.34
 -17  -5   4    7.42    1.83
  17   5  -4    7.87    1.83
 -17  -5   2    1.13    1.08
  17   5  -2    0.17    0.64
 -17  -5   0    1.21    0.73
  17   5   0    0.96    0.64
 -17  -5  -2   -0.24    0.79
  17   5   2   -0.72    1.09
 -17  -5  -4    1.86    1.14
  17   5   4   -0.32    0.68
  17  -5   6   -0.50    0.64
 -17  -5  -6    0.01    0.90
  17   5   6   -0.05    0.38
 -17  -5  -8   22.18    3.43
  17   5   8   24.34    3.64
  17  -5   8   24.22    3.54
 -17  -5 -10    0.75    1.26
  17   5  10    1.66    1.31
  17  -5  10   -0.10    0.83
 -17  -5 -12    1.41    0.92
  17   5  12    0.78    1.09
  17  -5  12    0.06    0.41
 -17  -5 -14    3.88    1.76
  17  -5  14    3.50    1.40
 -17  -5 -16    1.20    1.25
  17  -5  16    0.58    0.63
 -17  -5 -18    1.94    2.02
  17  -5  18    3.03    1.90
 -17  -5 -20    6.32    1.98
  17  -5  20    7.16    1.71
 -17  -5 -22    0.44    0.52
  17  -5  22   -0.11    0.60
  17  -5  24    0.16    0.68
 -17  -5 -24   -0.13    1.30
 -17  -5 -26    4.88    1.62
  17  -5  26    3.33    1.32
  17  -5  28    1.19    0.69
 -17  -5 -28    2.72    1.99
 -17  -5 -30    1.85    1.70
 -17  -5 -32    0.81    1.17
 -17  -5 -34    0.47    1.13
 -17  -5 -36   -2.94    1.56
 -17  -5 -38    6.27    2.34
 -17  -5 -40    1.42    1.33
 -17  -5 -42   -1.22    1.24
  17  -6 -43    3.30    1.10
  17  -6 -41   -0.78    0.80
  17  -6 -39   -0.98    1.33
 -17  -6  33   -0.22    0.20
 -17  -6  31    2.05    0.67
 -17  -6  29    0.04    0.30
 -17  -6  27   -0.60    0.66
 -17  -6  25   34.00    3.33
 -17  -6  23   -0.32    0.33
 -17  -6  21    1.06    0.79
  17   6 -21    0.37    0.40
  17   6 -19   63.00    5.07
 -17  -6  19   65.06    4.98
 -17  -6  17    0.15    0.68
  17   6 -17    0.88    0.90
 -17  -6  15   -0.04    0.57
  17   6 -15    0.60    0.78
 -17  -6  13    2.09    0.87
  17   6 -13    2.39    0.56
 -17  -6  11   -0.07    0.56
  17   6 -11    0.58    0.86
 -17  -6   9   -0.43    1.01
  17   6  -9   -0.44    0.78
  17   6  -7    2.44    1.00
 -17  -6   7    2.61    0.72
  17   6  -5   -0.71    0.59
 -17  -6   5   -0.08    0.79
  17   6  -3    0.17    0.69
 -17  -6   3   -0.12    0.69
  17   6  -1    0.00    0.34
 -17  -6   1   -0.20    0.52
  17   6   1    1.63    1.16
 -17  -6  -1    0.49    0.94
  17   6   3    0.18    0.77
 -17  -6  -3   -0.67    1.01
  17   6   5   34.58    4.68
 -17  -6  -5   29.32    4.03
 -17  -6  -7   -0.89    0.97
  17   6   7   -0.25    0.79
  17  -6   9    0.71    1.22
 -17  -6  -9    0.90    1.15
  17  -6  11    8.33    2.18
 -17  -6 -11    7.75    2.03
  17  -6  13    1.49    1.03
 -17  -6 -13   -1.35    0.85
  17  -6  15    0.95    0.91
 -17  -6 -15    1.99    1.71
  17  -6  17   63.24    6.26
 -17  -6 -17   57.92    6.29
 -17  -6 -19   -1.72    1.36
  17  -6  19    0.37    0.64
 -17  -6 -21    0.06    0.59
  17  -6  21    1.88    1.26
 -17  -6 -23   -2.07    1.90
 -17  -6 -25    1.67    1.20
 -17  -6 -27    1.94    1.89
 -17  -6 -29    3.19    1.14
 -17  -6 -31   -0.18    1.26
 -17  -6 -33    1.24    0.82
 -17  -6 -35    1.01    1.14
 -17  -6 -37    1.11    1.26
 -17  -6 -39   -0.19    1.00
 -17  -6 -41    3.33    2.23
  17  -7 -44    0.31    0.62
  17  -7 -42    0.41    0.81
  17  -7 -40   -0.90    0.99
  17  -7 -38   -0.02    0.44
 -17  -7  34    0.47    0.33
 -17  -7  32    2.10    1.82
 -17  -7  30   -2.07    0.94
 -17  -7  28    9.04    1.69
 -17  -7  26   -1.02    0.81
 -17  -7  24   -0.01    0.36
 -17  -7  22   46.88    4.37
 -17  -7  20   -1.01    0.98
 -17  -7  18   -0.46    0.91
  17   7 -18   -0.37    0.61
  17   7 -16   34.10    4.15
 -17  -7  16   34.65    3.98
  17   7 -14    1.32    1.03
 -17  -7  14    0.15    0.85
  17   7 -12    1.80    1.09
 -17  -7  12    0.94    0.97
  17   7 -10    1.42    0.83
 -17  -7  10    0.47    0.59
  17   7  -8    0.11    0.75
 -17  -7   8   -0.33    0.41
  17   7  -6    0.12    0.27
 -17  -7   6   -3.92    1.45
  17   7  -4   -0.32    0.93
 -17  -7   4   -1.66    1.50
  17   7  -2    0.25    0.86
 -17  -7   2    0.83    1.03
  17   7   0    0.21    1.21
 -17  -7   0   -0.30    0.57
 -17  -7  -2    0.13    1.37
 -17  -7  -4   -1.19    0.97
 -17  -7  -6   -0.04    0.48
 -17  -7  -8    1.97    0.69
 -17  -7 -10   -0.52    1.06
 -17  -7 -12    0.55    1.26
 -17  -7 -14   18.73    3.60
 -17  -7 -16   -0.90    1.39
 -17  -7 -18   -2.35    1.81
 -17  -7 -20   18.33    3.61
 -17  -7 -22    1.34    1.38
 -17  -7 -24    5.10    2.59
 -17  -7 -26    1.28    1.58
 -17  -7 -28    0.85    1.50
 -17  -7 -30   -0.06    0.47
 -17  -7 -32    2.61    1.48
 -17  -7 -34    0.19    0.48
 -17  -7 -36    1.48    1.58
 -17  -7 -38   -0.03    0.98
 -17  -7 -40    0.28    0.90
  17  -8 -45    1.24    1.07
  17  -8 -43    1.30    0.84
  17  -8 -41    0.08    1.19
  17  -8 -39    0.87    0.91
  17  -8 -37   -0.87    1.26
 -17  -8  33   -0.36    0.57
 -17  -8  31    1.10    0.55
 -17  -8  29   -0.87    0.86
 -17  -8  27   -1.18    1.08
 -17  -8  25    0.25    0.59
 -17  -8  23   -0.42    0.65
 -17  -8  21    1.76    1.31
 -17  -8  19   36.09    4.23
 -17  -8  17    1.51    1.02
 -17  -8  15   -0.29    0.74
  17   8 -13    5.19    1.58
 -17  -8  13    4.91    1.38
  17   8 -11    0.34    0.47
 -17  -8  11    1.58    1.18
  17   8  -9   -0.28    0.32
 -17  -8   9   -0.44    0.51
  17   8  -7   -0.70    1.15
 -17  -8   7   -0.43    0.88
 -17  -8   5    3.40    1.75
 -17  -8   3   -3.21    1.42
 -17  -8   1   -0.85    1.16
 -17  -8  -1   -0.97    1.17
 -17  -8  -3   -1.11    1.25
 -17  -8  -5    8.00    2.39
 -17  -8  -7    1.05    1.16
 -17  -8  -9   -0.09    0.98
 -17  -8 -11   12.40    2.92
 -17  -8 -13   -1.16    1.35
 -17  -8 -15   -1.14    1.49
 -17  -8 -17    0.07    0.98
 -17  -8 -19    0.41    1.46
 -17  -8 -21    1.03    1.41
 -17  -8 -23    0.55    0.95
 -17  -8 -25    3.65    2.62
 -17  -8 -27    1.27    1.61
 -17  -8 -29    4.83    2.31
 -17  -8 -31   -1.06    1.15
 -17  -8 -33   -1.82    1.74
 -17  -8 -35   -1.99    1.92
 -17  -8 -37    0.47    1.06
 -17  -8 -39    3.95    2.31
  17  -9 -44    1.11    1.15
  17  -9 -42    1.22    1.15
  17  -9 -40    2.80    1.81
  17  -9 -38    0.89    1.04
  17  -9 -36    2.31    1.37
 -17  -9  30    0.05    0.45
 -17  -9  28    1.40    0.72
 -17  -9  26   -1.36    0.97
 -17  -9  24   -1.04    1.18
 -17  -9  22   -0.50    0.77
 -17  -9  20   -0.54    0.75
 -17  -9  18    2.98    1.57
 -17  -9  16   36.82    4.68
 -17  -9  14   -0.35    0.58
 -17  -9  12   -1.31    1.39
 -17  -9  10    0.12    0.74
 -17  -9   8    5.86    2.44
 -17  -9   6   -0.28    1.05
 -17  -9   4    0.92    0.67
 -17  -9   2    1.44    1.52
 -17  -9   0   -0.64    0.62
 -17  -9  -2    8.20    2.32
 -17  -9  -4    1.36    1.45
 -17  -9  -6    0.93    1.50
 -17  -9  -8   25.53    4.45
 -17  -9 -10   -0.90    1.67
 -17  -9 -12    0.86    1.13
 -17  -9 -14   -0.54    1.48
 -17  -9 -16    2.10    1.54
 -17  -9 -18   -0.17    0.60
 -17  -9 -20    7.33    2.67
 -17  -9 -22   -0.33    1.24
 -17  -9 -24    2.69    2.58
 -17  -9 -26   -0.61    1.16
 -17  -9 -28   -1.50    1.48
 -17  -9 -30    2.39    1.94
 -17  -9 -32    1.13    1.58
 -17  -9 -34    2.19    1.87
  17 -10 -43    0.04    0.94
  17 -10 -41    0.12    1.13
  17 -10 -39   -0.09    1.16
  17 -10 -37    0.61    1.13
  17 -10 -35   -0.93    1.52
  17 -10 -33   -0.04    0.83
 -17 -10  29    0.05    0.47
 -17 -10  27    1.35    1.10
 -17 -10  25   -0.31    0.90
 -17 -10  23   -0.98    0.87
 -17 -10  21   -0.20    0.38
 -17 -10  19    3.36    1.37
 -17 -10  17   -0.29    1.06
 -17 -10  15    3.10    1.90
 -17 -10  13    3.04    1.81
 -17 -10  11    0.03    0.81
 -17 -10   9   -0.93    1.14
 -17 -10   7    8.81    2.50
 -17 -10   5    0.41    0.67
 -17 -10   3    1.09    0.98
 -17 -10   1    3.46    1.82
 -17 -10  -1    0.90    1.35
 -17 -10  -3    1.69    1.89
 -17 -10  -5    3.78    1.80
 -17 -10  -7   -0.28    0.86
 -17 -10  -9   -1.66    1.51
 -17 -10 -11   -0.24    1.00
 -17 -10 -13   -0.91    1.49
 -17 -10 -15    1.27    0.72
 -17 -10 -17   -0.46    1.33
 -17 -10 -19    1.25    1.70
 -17 -10 -21   -0.50    1.39
 -17 -10 -23   -2.20    1.70
 -17 -10 -25    1.63    1.51
 -17 -10 -27   -0.68    0.76
 -17 -10 -29    0.02    0.92
  17 -11 -42    3.39    2.33
  17 -11 -40   -2.49    1.88
  17 -11 -38    0.06    1.21
  17 -11 -36   -1.21    1.43
  17 -11 -34    0.80    0.82
  17 -11 -32    1.18    0.93
 -17 -11  28    2.79    1.54
 -17 -11  26    1.82    1.26
 -17 -11  24    0.15    0.89
 -17 -11  22   -1.55    1.19
 -17 -11  20   -1.37    1.50
 -17 -11  18   -0.52    1.24
 -17 -11  16    1.87    1.28
 -17 -11  14    2.25    1.64
 -17 -11  12    1.19    0.85
 -17 -11  10   23.27    4.18
 -17 -11   8    2.22    1.68
 -17 -11   6    1.78    1.43
 -17 -11   4   -0.65    1.36
 -17 -11   2    0.83    1.93
 -17 -11   0    1.89    1.60
 -17 -11  -2    9.33    3.00
 -17 -11  -4    1.22    0.74
 -17 -11  -6   -1.44    1.69
 -17 -11  -8    3.93    1.84
 -17 -11 -10    2.08    1.68
 -17 -11 -12   -0.35    1.10
 -17 -11 -14   -0.72    1.35
 -17 -11 -16    1.80    1.61
 -17 -11 -18   -0.04    0.67
 -17 -11 -20    0.19    1.16
 -17 -11 -22    3.22    2.46
 -17 -11 -24   -1.17    1.55
  17 -12 -33    1.65    1.59
  17 -12 -31   -0.07    1.40
  17 -12 -29    0.75    1.88
 -17 -12  25   -0.01    0.41
 -17 -12  23    1.92    1.61
 -17 -12  21    3.62    1.95
 -17 -12  19    1.09    1.18
 -17 -12  17   -0.37    0.66
 -17 -12  15    0.16    0.70
 -17 -12  13   -0.75    1.15
 -17 -12  11   -0.79    1.15
 -17 -12   9    2.34    1.75
 -17 -12   7    3.89    1.97
 -17 -12   5    2.87    1.84
 -17 -12   3    2.29    1.61
 -17 -12   1    2.94    1.75
 -17 -12  -1    0.77    0.57
 -17 -12  -3    2.01    1.54
 -17 -12  -5    2.00    1.51
 -17 -12  -7    1.47    1.73
 -17 -12  -9   -0.39    0.63
 -17 -12 -11    4.71    2.11
 -17 -12 -13    2.00    2.13
 -17 -12 -15    4.48    2.22
 -17 -12 -17    0.40    0.90
 -17 -13  24    3.66    1.87
 -17 -13  22    0.16    0.80
 -17 -13  20   -0.70    0.94
 -17 -13  18   -0.90    0.73
 -17 -13  16    1.74    1.30
 -17 -13  14    0.93    1.04
 -17 -13  12   -0.09    1.01
 -17 -13  10    4.59    2.06
 -17 -13   8    0.17    0.85
 -17 -13   6    1.05    1.33
 -17 -13   4   -0.67    0.97
 -17 -13   2    0.74    1.50
 -17 -13   0    3.57    1.96
 -17 -13  -2    3.43    2.12
 -17 -13  -4    2.53    1.66
 -17 -13  -6   -2.30    1.86
 -17 -13  -8    0.13    0.89
 -17 -13 -10    2.66    1.81
 -17 -14  23    0.40    0.67
 -17 -14  21    2.17    1.77
 -17 -14  19   -1.89    1.24
 -17 -14  17    0.57    1.06
 -17 -14  15   -0.98    1.39
 -17 -14  13    1.14    1.30
 -17 -14  11    3.24    2.19
 -17 -14   9   -0.24    0.57
 -17 -14   7    1.36    1.24
 -17 -14   5    0.50    1.08
 -17 -14   3    1.52    1.33
 -17 -14   1    3.07    2.31
 -17 -14  -1    0.93    2.14
 -17 -15  20    2.22    1.52
 -17 -15  18   -1.58    1.03
 -17 -15  16   -0.55    1.23
 -17 -15  14   -0.90    1.14
 -17 -15  12   -1.56    1.36
  18   0 -38    0.45    0.34
  18   0 -38    0.04    0.20
  18   0 -36  286.09    6.77
  18   0 -34   -0.36    0.43
  18   0 -32   -0.61    0.68
  18   0 -30  144.06    5.77
  18   0 -28   -0.45    0.65
  18   0 -26   -0.06    0.21
  18   0 -24  290.07    8.94
  18   0 -22   -0.32    0.63
  18   0 -20   -0.54    0.68
  18   0 -18  313.15    9.78
  18   0 -16    0.26    0.70
  18   0 -14    0.77    0.81
  18   0 -12  570.21   13.84
  18   0 -10   -0.93    0.80
 -18   0  10   -0.73    0.90
 -18   0   8    1.02    0.36
  18   0  -8   -1.12    0.79
 -18   0   6  715.37   16.28
  18   0  -6  713.67   16.00
 -18   0   4   -1.53    1.02
  18   0  -4    0.43    0.58
 -18   0   2    1.02    0.84
  18   0  -2    0.24    0.41
 -18   0   0   31.96    3.59
  18   0   0   33.43    3.62
 -18   0  -2   -1.26    1.06
  18   0   2   -0.11    0.52
 -18   0  -4   -0.25    0.47
  18   0   4   -0.02    0.30
 -18   0  -6  905.48   20.18
  18   0   6  885.95   19.73
 -18   0  -8    0.80    0.76
  18   0   8   -0.13    0.74
 -18   0 -10    1.00    1.10
  18   0  10   -0.88    1.02
 -18   0 -12 1023.03   22.44
  18   0  12 1030.99   22.09
 -18   0 -14    0.90    0.67
  18   0  14    0.18    0.27
 -18   0 -16   -0.56    0.58
  18   0  16    0.12    0.42
 -18   0 -18 1148.95   24.88
  18   0  18 1161.44   24.48
 -18   0 -20   -1.13    0.68
  18   0  20   -0.22    0.65
 -18   0 -22    0.96    0.95
  18   0  22    0.30    0.74
 -18   0 -24  203.17   11.01
  18   0  24  201.35   10.62
 -18   0 -26   -0.17    0.62
  18   0  26   -1.76    1.37
 -18   0 -28   -0.31    1.06
  18   0  28   -1.70    1.46
 -18   0 -30  100.59    8.04
 -18   0 -32    0.88    0.82
 -18   0 -34    0.05    0.79
 -18   0 -36   72.35    7.00
 -18   0 -38   -1.61    1.03
  18  -1 -41    0.00    0.40
  18  -1 -39   58.94    3.49
  18  -1 -39   55.26    3.42
  18  -1 -37   -0.22    0.41
  18  -1 -35    0.01    0.52
  18   1 -35   -0.05    0.12
  18  -1 -33  137.31    6.17
  18   1 -33  142.24    4.47
  18  -1 -31   -0.74    0.62
  18   1 -31    0.02    0.23
  18  -1 -29    0.39    0.30
  18   1 -29   -0.34    0.36
  18  -1 -27  108.93    5.76
  18   1 -27  110.11    4.95
  18  -1 -25    0.29    0.34
  18   1 -25   -0.17    0.25
  18  -1 -23   -0.07    0.37
  18   1 -23   -0.26    0.22
  18  -1 -21  566.97   13.53
  18   1 -21  564.30   12.41
  18  -1 -19    0.41    0.40
  18   1 -19   -0.01    0.31
 -18  -1  17    0.98    0.89
  18  -1 -17   -0.62    0.92
  18   1 -17    1.05    0.95
 -18  -1  15 1156.12   19.07
  18  -1 -15 1159.00   20.00
  18   1 -15 1120.33   18.83
 -18  -1  13    2.20    1.22
  18  -1 -13    0.66    1.17
  18  -1 -11    0.49    0.54
 -18  -1  11   -0.58    0.90
  18   1 -11    0.69    0.77
  18  -1  -9  863.11   17.75
 -18  -1   9  904.35   17.84
  18   1  -9  887.11   17.42
  18  -1  -7    1.16    0.95
 -18  -1   7   -0.05    0.68
  18   1  -7    0.65    1.08
 -18  -1   5   -1.05    0.84
  18  -1  -5    0.68    0.65
  18   1  -5    0.16    0.83
  18  -1  -3  514.83   14.27
 -18  -1   3  507.12   13.96
  18   1  -3  523.08   14.09
 -18   1   1    0.37    0.78
  18  -1  -1   -0.27    0.56
 -18  -1   1    0.05    0.88
  18   1  -1    0.29    0.52
 -18   1  -1    1.32    1.08
 -18  -1  -1   -0.26    0.39
  18  -1   1   -0.36    1.10
  18   1   1    0.86    0.90
 -18   1  -3  195.82    9.12
  18  -1   3  199.70    9.21
 -18  -1  -3  196.25    9.25
  18   1   3  212.07    9.39
 -18   1  -5   -0.93    1.11
 -18  -1  -5    0.64    0.90
  18  -1   5   -0.99    1.07
  18   1   5   -0.43    0.62
 -18  -1  -7   -0.47    0.62
  18  -1   7    0.08    0.97
  18   1   7    0.33    0.46
 -18   1  -9  381.36   13.31
 -18  -1  -9  393.47   13.74
  18  -1   9  376.72   13.10
  18   1   9  396.21   13.36
 -18  -1 -11   -0.82    0.51
 -18   1 -11   -0.04    1.03
  18  -1  11    0.09    0.67
  18   1  11   -0.67    0.66
 -18   1 -13    1.21    1.10
 -18  -1 -13    1.11    1.10
  18  -1  13   -0.70    0.93
  18   1  13   -0.45    0.57
 -18   1 -15 1011.50   22.63
  18  -1  15 1002.42   22.26
 -18  -1 -15 1008.85   23.15
  18   1  15 1042.88   23.01
 -18  -1 -17   -0.11    0.85
 -18   1 -17    0.29    0.61
  18  -1  17   -0.05    0.83
  18   1  17    0.19    0.67
 -18  -1 -19   -1.56    1.48
 -18   1 -19    0.14    0.40
  18  -1  19   -0.98    1.01
  18   1  19   -0.04    0.43
 -18   1 -21  611.25   18.33
 -18  -1 -21  620.47   19.01
  18  -1  21  612.31   18.00
  18   1  21  635.18   18.67
 -18   1 -23    0.37    0.54
 -18  -1 -23   -1.03    1.05
  18  -1  23    0.34    0.56
  18   1  23    0.55    0.64
 -18  -1 -25   -1.20    1.02
 -18   1 -25   -0.03    0.65
  18   1  25    0.55    0.38
  18  -1  25   -0.43    0.29
 -18  -1 -27   88.46    7.47
 -18   1 -27   87.13    7.26
  18  -1  27   90.15    7.13
 -18   1 -29   -0.49    0.78
 -18  -1 -29    0.59    1.25
  18  -1  29   -0.08    0.62
 -18  -1 -31   -0.08    0.41
 -18  -1 -33  133.37    9.74
 -18  -1 -35   -1.12    1.67
 -18  -1 -37    0.14    0.89
 -18  -1 -39   66.44    6.99
  18  -2 -42   81.55    4.71
  18  -2 -40   -0.76    0.58
  18  -2 -40   -0.29    0.27
  18  -2 -38   -0.32    0.52
  18  -2 -36   54.47    4.15
  18  -2 -34   -0.26    0.33
  18  -2 -32   -0.01    0.47
  18   2 -32   -0.62    0.51
  18  -2 -30  180.81    7.86
  18   2 -30  186.30    5.57
  18  -2 -28   -0.79    0.64
  18   2 -28   -0.58    0.52
  18  -2 -26   -1.58    1.21
  18   2 -26    0.00    0.24
  18  -2 -24  174.81    7.84
  18   2 -24  178.72    6.48
  18  -2 -22   -0.81    0.59
  18   2 -22   -0.79    0.86
  18  -2 -20   -0.18    0.43
  18   2 -20   -0.29    0.33
  18  -2 -18  962.84   18.71
 -18  -2  18  963.31   16.76
  18   2 -18  964.24   16.47
  18  -2 -16   -2.50    1.34
 -18  -2  16   -0.96    0.87
  18   2 -16   -0.65    0.67
 -18  -2  14   -0.38    0.55
  18   2 -14   -1.51    1.23
  18  -2 -12  101.96    6.27
 -18  -2  12   96.54    5.74
  18   2 -12   90.04    5.36
 -18  -2  10    0.78    0.67
  18  -2 -10    0.02    0.38
  18   2 -10   -0.03    0.72
  18  -2  -8   -0.75    0.55
 -18  -2   8   -0.51    0.56
  18   2  -8   -0.21    0.29
  18  -2  -6  534.13   14.58
 -18  -2   6  534.92   14.33
  18   2  -6  550.83   14.19
 -18  -2   4   -0.66    0.69
  18  -2  -4   -0.18    0.63
  18   2  -4    0.12    0.37
  18  -2  -2   -1.06    0.88
 -18  -2   2   -1.36    1.21
  18   2  -2    0.59    0.64
  18  -2   0  751.68   18.08
 -18  -2   0  700.94   17.19
  18   2   0  732.32   17.13
  18  -2   2    1.25    1.08
 -18  -2  -2    0.21    0.61
  18   2   2   -0.23    0.36
  18  -2   4   -0.54    0.26
 -18  -2  -4    0.41    0.31
  18   2   4   -0.23    0.72
 -18  -2  -6  553.14   16.05
  18  -2   6  564.82   16.06
  18   2   6  551.80   15.70
  18  -2   8    0.65    0.94
 -18  -2  -8    0.73    0.97
  18   2   8    0.03    0.38
  18  -2  10   -0.91    0.99
 -18  -2 -10    0.81    0.43
  18   2  10   -0.89    0.68
  18  -2  12  460.34   14.96
 -18  -2 -12  429.27   14.86
  18   2  12  459.13   15.17
 -18  -2 -14    0.18    0.45
  18  -2  14   -0.77    0.95
  18   2  14    0.49    0.85
  18  -2  16   -1.12    0.85
 -18  -2 -16    0.66    0.77
  18   2  16    0.43    0.65
  18  -2  18  512.20   16.45
 -18  -2 -18  480.36   16.50
  18   2  18  509.35   16.75
 -18  -2 -20    0.17    0.99
  18  -2  20   -0.35    0.96
  18   2  20   -0.15    1.07
 -18  -2 -22   -0.32    0.75
  18  -2  22   -0.44    0.74
  18   2  22   -0.19    1.02
 -18  -2 -24  170.52   10.39
  18  -2  24  171.60    9.74
 -18  -2 -26    0.39    0.81
  18  -2  26   -0.70    0.76
 -18  -2 -28   -0.20    0.76
  18  -2  28    0.29    0.39
 -18  -2 -30  209.13   12.10
  18  -2  30  205.09   10.93
 -18  -2 -32    1.23    0.87
 -18  -2 -34   -0.91    0.95
 -18  -2 -36  122.39    9.71
 -18  -2 -38   -0.26    1.00
 -18  -2 -40    1.55    1.30
  18  -3 -43    0.67    0.60
  18  -3 -41   -0.33    0.60
  18  -3 -39   73.45    5.42
  18   3 -31   -0.08    0.24
  18   3 -29    0.24    0.28
  18   3 -27   83.61    4.22
 -18  -3  25   -0.30    0.32
  18   3 -25    0.45    0.48
 -18  -3  23    0.43    0.38
  18   3 -23   -0.08    0.44
 -18  -3  21  385.82   10.51
  18   3 -21  376.86   10.16
 -18  -3  19   -1.42    1.02
  18   3 -19   -0.36    0.38
 -18  -3  17   -0.93    0.94
  18   3 -17    0.65    0.58
 -18  -3  15   61.70    4.56
  18   3 -15   61.17    4.44
 -18  -3  13    0.67    0.56
  18   3 -13   -0.07    0.45
 -18  -3  11    1.91    1.19
  18   3 -11   -0.04    0.59
 -18  -3   9   90.04    5.79
  18   3  -9   82.49    5.46
  18  -3  -7   -0.45    0.63
 -18  -3   7    0.59    0.62
  18   3  -7   -0.23    0.40
  18  -3  -5    0.47    0.87
 -18  -3   5    1.33    1.27
  18   3  -5    1.05    0.83
  18  -3  -3  740.53   18.09
 -18  -3   3  744.64   17.60
  18   3  -3  750.42   17.48
  18  -3  -1    0.45    0.86
 -18  -3   1    0.06    0.66
  18   3  -1   -0.21    0.55
  18  -3   1    0.56    0.30
 -18  -3  -1   -0.66    0.62
  18   3   1    1.28    0.90
  18  -3   3  422.91   14.03
 -18  -3  -3  420.66   14.04
  18   3   3  420.37   13.76
  18  -3   5   -0.36    0.61
 -18  -3  -5    1.08    0.60
  18   3   5   -0.22    0.49
  18  -3   7    0.64    1.00
 -18  -3  -7   -0.28    0.30
  18   3   7   -0.76    0.97
  18  -3   9  325.87   12.70
 -18  -3  -9  317.38   12.90
  18   3   9  335.01   12.92
  18  -3  11   -0.31    0.76
 -18  -3 -11   -0.43    0.53
  18   3  11   -0.74    0.31
  18  -3  13    0.39    0.88
 -18  -3 -13    0.06    0.65
  18   3  13   -0.42    0.69
  18  -3  15  231.20   10.97
 -18  -3 -15  229.77   11.47
  18   3  15  239.79   11.72
 -18  -3 -17   -1.20    0.98
  18  -3  17   -0.07    0.84
  18   3  17   -0.97    1.00
 -18  -3 -19   -0.80    0.77
  18  -3  19   -0.77    0.79
  18   3  19    1.01    0.86
 -18  -3 -21  140.89    9.44
  18  -3  21  141.30    8.84
  18  -3  23   -0.46    0.87
 -18  -3 -23    0.65    0.87
 -18  -3 -25    0.22    1.04
  18  -3  25   -0.84    0.41
 -18  -3 -27  213.43   12.17
  18  -3  27  210.05   10.99
  18  -3  29    0.00    0.59
 -18  -3 -29    0.40    0.70
 -18  -3 -31   -0.23    0.54
 -18  -3 -33  106.14    8.99
 -18  -3 -35   -1.04    1.39
 -18  -3 -37   -0.12    0.68
 -18  -3 -39   84.58    8.36
 -18  -3 -41    2.40    1.66
  18  -4 -42   59.68    5.27
  18  -4 -40   -0.95    0.86
  18   4 -28    0.02    0.22
 -18  -4  28   -0.49    0.31
  18   4 -26    0.16    0.33
 -18  -4  26   -0.29    0.41
 -18  -4  24   98.88    5.23
  18   4 -24   99.20    5.26
 -18  -4  22    0.50    0.27
  18   4 -22    0.17    0.43
 -18  -4  20   -0.98    0.95
  18   4 -20   -0.31    0.55
 -18  -4  18   46.80    3.99
  18   4 -18   46.84    3.92
 -18  -4  16   -0.29    0.54
  18   4 -16    0.10    0.19
 -18  -4  14    0.28    0.55
  18   4 -14   -0.08    0.59
 -18  -4  12  174.80    8.16
  18   4 -12  165.04    7.82
 -18  -4  10   -0.90    0.84
  18   4 -10   -0.55    0.53
 -18  -4   8   -0.63    0.80
  18   4  -8   -0.23    0.46
 -18  -4   6  183.75    8.84
  18   4  -6  193.91    9.07
 -18  -4   4    0.80    1.02
  18   4  -4    0.31    0.71
 -18  -4   2    1.21    1.30
  18   4  -2    0.89    0.92
  18  -4   0  255.50   11.10
  18   4   0  240.79   10.60
 -18  -4   0  249.97   10.82
  18  -4   2    0.19    0.62
 -18  -4  -2    0.19    0.62
  18   4   2   -0.14    0.59
  18  -4   4   -0.79    0.95
 -18  -4  -4   -0.10    0.45
  18   4   4    0.52    0.72
  18  -4   6  201.34   10.12
  18   4   6  198.53   10.08
 -18  -4  -6  188.10    9.91
  18  -4   8   -0.28    0.76
 -18  -4  -8    0.10    0.61
  18   4   8    0.31    0.64
  18  -4  10   -0.20    0.39
 -18  -4 -10    0.40    0.80
  18   4  10   -0.66    0.72
 -18  -4 -12  315.70   13.53
  18  -4  12  324.28   13.23
  18   4  12  321.02   13.56
  18  -4  14    0.32    0.60
 -18  -4 -14    0.87    1.18
  18   4  14   -0.34    1.02
 -18  -4 -16   -0.38    0.53
  18  -4  16    0.65    0.93
 -18  -4 -18  354.34   15.13
  18  -4  18  364.73   14.34
  18  -4  20   -0.15    0.88
 -18  -4 -20   -0.05    1.12
  18  -4  22   -1.15    1.15
 -18  -4 -22    0.35    1.30
 -18  -4 -24  133.66    9.70
  18  -4  24  134.98    8.87
 -18  -4 -26    0.10    0.55
  18  -4  26   -2.14    1.48
  18  -4  28   -1.03    1.14
 -18  -4 -28   -0.70    0.84
 -18  -4 -30  185.98   12.02
 -18  -4 -32   -1.21    1.67
 -18  -4 -34   -0.87    1.70
 -18  -4 -36   69.25    7.73
 -18  -4 -38    1.37    1.40
 -18  -4 -40    0.20    0.75
  18  -5 -43    0.23    0.97
  18  -5 -41   -0.54    0.89
  18  -5 -39   18.44    3.33
 -18  -5  31    0.06    0.23
 -18  -5  29   -0.10    0.24
 -18  -5  27  121.92    5.79
  18   5 -27  110.57    5.65
  18   5 -25   -0.11    0.21
 -18  -5  25   -0.15    0.28
 -18  -5  23   -0.59    0.89
  18   5 -23   -0.17    0.41
 -18  -5  21  102.49    5.88
  18   5 -21   88.95    5.59
 -18  -5  19    0.00    0.55
  18   5 -19    0.09    0.47
 -18  -5  17    0.09    0.62
  18   5 -17    0.15    0.34
 -18  -5  15  103.05    6.34
  18   5 -15   99.63    6.35
 -18  -5  13   -0.32    0.62
  18   5 -13   -0.89    0.87
 -18  -5  11   -0.30    0.34
  18   5 -11   -0.44    0.58
  18   5  -9  186.15    9.09
 -18  -5   9  187.04    9.00
 -18  -5   7   -1.01    1.14
  18   5  -7   -1.19    1.18
 -18  -5   5   -0.11    0.55
  18   5  -5    0.20    0.42
  18   5  -3  311.30   12.24
 -18  -5   3  305.78   12.19
 -18  -5   1    0.92    0.76
  18   5  -1    0.29    0.40
 -18  -5  -1   -0.21    0.45
  18   5   1    1.51    0.99
  18  -5   3  218.96   10.82
  18   5   3  209.54   10.77
 -18  -5  -3  202.77   10.39
  18  -5   5    0.18    0.30
 -18  -5  -5    1.08    1.19
  18   5   5    0.85    0.90
  18  -5   7    0.96    0.90
 -18  -5  -7    1.72    1.47
  18   5   7    0.37    0.77
  18  -5   9  285.39   12.67
  18   5   9  299.37   13.34
 -18  -5  -9  287.52   12.87
 -18  -5 -11    0.48    0.84
  18   5  11   -1.01    1.11
  18  -5  11    0.70    0.85
  18  -5  13   -0.60    0.98
 -18  -5 -13   -0.47    0.87
  18  -5  15   85.63    7.07
 -18  -5 -15   79.65    7.15
 -18  -5 -17    0.48    0.87
  18  -5  17    0.36    0.75
 -18  -5 -19    0.51    0.95
  18  -5  19   -1.59    1.03
  18  -5  21   43.16    5.16
 -18  -5 -21   41.72    5.38
 -18  -5 -23   -1.18    1.59
  18  -5  23    0.28    0.52
 -18  -5 -25   -0.71    0.37
 -18  -5 -27  142.78   10.62
 -18  -5 -29   -1.54    1.54
 -18  -5 -31   -0.67    0.91
 -18  -5 -33  114.21    9.87
 -18  -5 -35    0.84    0.69
 -18  -5 -37    0.14    1.10
 -18  -5 -39   62.23    7.56
 -18  -5 -41    1.55    1.52
  18  -6 -44    0.26    0.57
  18  -6 -42   11.86    2.69
  18  -6 -40   -0.69    0.58
 -18  -6  32   -0.24    0.38
 -18  -6  30  117.45    5.65
 -18  -6  28    0.75    0.44
 -18  -6  26    0.02    0.41
 -18  -6  24   11.08    1.98
  18   6 -24   11.07    2.06
 -18  -6  22   -0.53    0.81
  18   6 -22    0.23    0.40
 -18  -6  20    0.44    0.50
  18   6 -20   -0.33    0.36
  18   6 -18   88.07    6.16
 -18  -6  18   87.11    5.97
 -18  -6  16   -0.39    0.71
  18   6 -16   -0.23    0.45
 -18  -6  14   -0.76    0.46
  18   6 -14    0.25    0.26
  18   6 -12  264.50   11.27
 -18  -6  12  249.34   10.60
 -18  -6  10   -0.33    0.80
  18   6 -10   -0.10    0.44
 -18  -6   8   -1.13    1.20
  18   6  -8   -0.23    0.93
 -18  -6   6   13.56    2.52
  18   6  -6   13.61    2.65
 -18  -6   4   -1.12    1.30
  18   6  -4    0.30    0.43
 -18  -6   2   -0.30    0.77
  18   6  -2    1.30    1.14
  18   6   0  108.95    7.89
 -18  -6   0  114.77    7.99
 -18  -6  -2   -0.73    0.59
  18   6   2    0.86    0.75
 -18  -6  -4    0.91    1.13
  18   6   4    1.50    0.98
 -18  -6  -6  122.92    8.58
  18  -6   8    1.39    0.97
 -18  -6  -8    2.58    1.43
  18  -6  10   -0.07    0.53
 -18  -6 -10    1.38    1.26
  18  -6  12   94.09    7.60
 -18  -6 -12   91.50    7.79
  18  -6  14   -0.61    0.91
 -18  -6 -14   -0.04    0.92
  18  -6  16   -0.06    0.65
 -18  -6 -16    0.84    1.01
 -18  -6 -18  103.16    8.62
 -18  -6 -20   -0.49    0.97
 -18  -6 -22    0.01    1.08
 -18  -6 -24  113.61    9.49
 -18  -6 -26   -0.56    0.43
 -18  -6 -28   -0.13    0.67
 -18  -6 -30   56.51    7.12
 -18  -6 -32   -0.97    1.01
 -18  -6 -34   -0.26    0.59
 -18  -6 -36   20.86    4.55
 -18  -6 -38   -2.53    1.45
 -18  -6 -40   -0.30    1.19
 -18  -6 -42   12.99    3.62
  18  -7 -43   -0.84    1.03
  18  -7 -41    0.84    0.86
  18  -7 -39   18.70    3.75
 -18  -7  33   34.11    2.97
 -18  -7  31    0.09    0.22
 -18  -7  29    0.05    0.45
 -18  -7  27   45.69    4.11
 -18  -7  25   -0.22    0.61
 -18  -7  23    0.06    0.35
 -18  -7  21    8.61    1.86
 -18  -7  19    0.08    0.56
  18   7 -19   -1.73    1.32
 -18  -7  17   -0.01    0.50
  18   7 -17    0.63    0.57
  18   7 -15  182.35    9.74
 -18  -7  15  188.41    9.52
 -18  -7  13   -1.17    1.30
  18   7 -13   -0.87    1.17
  18   7 -11   -0.87    0.63
 -18  -7  11   -1.06    1.03
  18   7  -9  193.64   10.44
 -18  -7   9  183.20    9.88
  18   7  -7   -0.54    1.15
 -18  -7   7   -0.70    1.09
  18   7  -5   -1.17    0.93
 -18  -7   5    0.72    0.49
  18   7  -3   35.99    4.71
 -18  -7   3   35.79    4.54
  18   7  -1    0.89    0.87
 -18  -7   1   -0.79    0.63
 -18  -7  -1   -0.69    1.12
 -18  -7  -3   94.15    7.72
 -18  -7  -5   -0.55    1.08
 -18  -7  -7   -0.59    1.00
 -18  -7  -9   91.45    8.01
 -18  -7 -11   -2.09    1.82
 -18  -7 -13   -1.08    1.53
 -18  -7 -15   80.89    7.89
 -18  -7 -17   -1.77    1.97
 -18  -7 -19   -0.79    1.02
 -18  -7 -21  115.80    9.78
 -18  -7 -23   -0.28    0.50
 -18  -7 -25   -0.39    1.21
 -18  -7 -27   62.20    7.41
 -18  -7 -29   -1.26    1.68
 -18  -7 -31   -1.50    1.94
 -18  -7 -33   18.12    4.40
 -18  -7 -35   -0.73    1.10
 -18  -7 -37   -1.73    1.69
 -18  -7 -39   36.62    6.31
 -18  -7 -41   -2.99    2.35
  18  -8 -44    0.21    0.95
  18  -8 -42   12.67    3.27
  18  -8 -40   -0.19    0.74
  18  -8 -38    0.51    0.81
 -18  -8  32    0.55    0.52
 -18  -8  30   12.80    2.15
 -18  -8  28    0.15    0.50
 -18  -8  26   -0.45    0.73
 -18  -8  24   54.94    5.01
 -18  -8  22    0.15    0.44
 -18  -8  20    1.68    0.99
 -18  -8  18   27.57    3.83
 -18  -8  16    0.61    0.50
  18   8 -14    0.62    0.44
 -18  -8  14    0.31    0.64
  18   8 -12  146.04    9.44
 -18  -8  12  149.95    9.19
  18   8 -10   -0.34    0.32
 -18  -8  10    0.14    0.46
  18   8  -8    1.56    1.11
 -18  -8   8    1.03    0.96
 -18  -8   6  298.96   13.63
 -18  -8   4   -1.22    1.41
 -18  -8   2   -2.67    1.33
 -18  -8   0   38.29    5.13
 -18  -8  -2    0.93    1.17
 -18  -8  -4   -1.43    1.67
 -18  -8  -6   84.25    7.83
 -18  -8  -8   -0.94    1.70
 -18  -8 -10    0.05    0.77
 -18  -8 -12  118.84    9.67
 -18  -8 -14   -3.39    2.33
 -18  -8 -16   -0.73    1.39
 -18  -8 -18   41.58    5.94
 -18  -8 -20   -2.17    1.81
 -18  -8 -22    0.50    1.07
 -18  -8 -24  115.17   10.38
 -18  -8 -26   -0.62    1.24
 -18  -8 -28   -1.58    1.76
 -18  -8 -30   28.81    5.58
 -18  -8 -32   -1.36    1.59
 -18  -8 -34   -0.22    1.34
 -18  -8 -36   24.68    5.22
 -18  -8 -38    0.47    0.69
  18  -9 -43    1.56    1.26
  18  -9 -41   -1.35    1.23
  18  -9 -39   17.57    4.07
  18  -9 -37   -0.09    0.69
 -18  -9  31   -1.31    0.86
 -18  -9  29   -0.41    0.83
 -18  -9  27    8.39    1.98
 -18  -9  25   -0.31    0.58
 -18  -9  23   -0.67    0.85
 -18  -9  21   32.22    4.25
 -18  -9  19   -0.03    0.69
 -18  -9  17    0.70    1.02
 -18  -9  15   90.56    7.38
 -18  -9  13   -0.93    0.78
 -18  -9  11    1.99    1.15
 -18  -9   9  295.81   13.88
 -18  -9   7   -0.28    0.44
 -18  -9   5    0.55    0.67
 -18  -9   3   98.83    8.34
 -18  -9   1   -0.28    0.64
 -18  -9  -1    0.09    0.86
 -18  -9  -3   18.79    3.64
 -18  -9  -5   -0.60    1.62
 -18  -9  -7    0.25    0.94
 -18  -9  -9   32.19    5.11
 -18  -9 -11   -1.14    1.33
 -18  -9 -13    0.56    0.85
 -18  -9 -15   45.94    6.31
 -18  -9 -17   -1.06    1.29
 -18  -9 -19   -1.87    1.89
 -18  -9 -21   25.96    4.94
 -18  -9 -23   -1.40    1.67
 -18  -9 -25   -1.16    1.62
 -18  -9 -27   12.25    3.48
 -18  -9 -29   -0.97    1.28
 -18  -9 -31    0.06    1.08
 -18  -9 -33   26.06    5.40
  18 -10 -44   -2.78    1.95
  18 -10 -42   10.50    3.18
  18 -10 -40   -1.19    1.51
  18 -10 -38   -1.18    1.31
  18 -10 -36   19.96    4.41
 -18 -10  30   19.44    3.08
 -18 -10  28    0.15    0.39
 -18 -10  26   -0.91    1.07
 -18 -10  24    8.45    2.13
 -18 -10  22    0.28    0.76
 -18 -10  20    1.61    1.24
 -18 -10  18   19.33    3.51
 -18 -10  16    1.55    1.38
 -18 -10  14    0.90    1.42
 -18 -10  12   61.06    6.51
 -18 -10  10   -0.49    1.09
 -18 -10   8   -0.35    0.81
 -18 -10   6   55.69    6.46
 -18 -10   4    0.95    1.42
 -18 -10   2   -1.14    1.40
 -18 -10   0   89.36    8.54
 -18 -10  -2   -0.08    0.67
 -18 -10  -4   -0.43    0.66
 -18 -10  -6   42.32    6.05
 -18 -10  -8   -0.75    1.36
 -18 -10 -10    2.80    2.05
 -18 -10 -12   77.87    8.47
 -18 -10 -14   -1.69    1.53
 -18 -10 -16   -2.03    2.09
 -18 -10 -18   38.16    6.14
 -18 -10 -20   -1.14    1.54
 -18 -10 -22   -0.01    0.86
 -18 -10 -24   23.92    5.10
 -18 -10 -26   -0.28    0.93
 -18 -10 -28   -1.30    1.45
  18 -11 -43    2.11    1.62
  18 -11 -41   -0.69    1.19
  18 -11 -39   13.14    3.70
  18 -11 -37    0.04    0.85
  18 -11 -35    0.12    1.15
  18 -11 -33   17.03    4.37
 -18 -11  27   23.35    3.84
 -18 -11  25    1.60    0.98
 -18 -11  23   -0.50    0.54
 -18 -11  21   15.28    3.21
 -18 -11  19   -0.31    0.94
 -18 -11  17   -1.85    0.77
 -18 -11  15   65.20    6.96
 -18 -11  13   -0.87    1.22
 -18 -11  11    2.84    1.68
 -18 -11   9   45.20    5.90
 -18 -11   7    0.92    1.07
 -18 -11   5   -1.06    1.02
 -18 -11   3   86.58    8.59
 -18 -11   1   -2.18    1.61
 -18 -11  -1   -0.92    1.21
 -18 -11  -3   49.30    6.60
 -18 -11  -5    1.70    0.89
 -18 -11  -7    1.45    1.66
 -18 -11  -9   59.15    7.65
 -18 -11 -11   -0.82    0.66
 -18 -11 -13    0.75    1.14
 -18 -11 -15   52.81    7.42
 -18 -11 -17   -1.21    1.58
 -18 -11 -19   -0.56    1.17
 -18 -11 -21   30.91    5.97
 -18 -11 -23   -1.35    2.23
  18 -12 -34   -1.52    0.82
  18 -12 -32   -1.47    1.61
  18 -12 -30   17.88    4.63
 -18 -12  26    0.67    0.61
 -18 -12  24   18.34    3.63
 -18 -12  22    1.01    1.20
 -18 -12  20    1.10    1.14
 -18 -12  18   21.91    4.17
 -18 -12  16   -0.47    1.16
 -18 -12  14   -0.64    0.98
 -18 -12  12   38.42    5.71
 -18 -12  10   -0.74    1.06
 -18 -12   8   -1.06    0.62
 -18 -12   6   20.05    4.31
 -18 -12   4   -0.55    0.71
 -18 -12   2   -0.37    1.52
 -18 -12   0   29.93    5.44
 -18 -12  -2   -1.19    1.50
 -18 -12  -4   -0.96    1.43
 -18 -12  -6   24.05    5.06
 -18 -12  -8    1.00    1.73
 -18 -12 -10    1.44    1.37
 -18 -12 -12   32.91    5.96
 -18 -12 -14   -3.15    2.44
 -18 -12 -16   -0.01    0.79
 -18 -13  23   -1.47    0.71
 -18 -13  21   17.63    3.82
 -18 -13  19   -0.64    0.83
 -18 -13  17    0.37    0.47
 -18 -13  15    8.68    2.70
 -18 -13  13   -0.73    0.60
 -18 -13  11    1.07    1.15
 -18 -13   9   21.01    4.45
 -18 -13   7    2.35    2.22
 -18 -13   5   -3.68    2.35
 -18 -13   3   16.70    4.05
 -18 -13   1   -1.17    1.04
 -18 -13  -1    1.33    1.35
 -18 -13  -3   20.72    4.71
 -18 -13  -5    2.02    2.09
 -18 -13  -7   -0.34    1.08
 -18 -13  -9   30.81    5.98
 -18 -14  22    1.29    1.19
 -18 -14  20    0.88    0.87
 -18 -14  18    8.21    2.70
 -18 -14  16   -0.54    1.00
 -18 -14  14   -1.20    1.49
 -18 -14  12   16.90    4.12
 -18 -14  10    4.26    1.65
 -18 -14   8   -1.38    1.75
 -18 -14   6    8.68    2.75
 -18 -14   4   -0.11    1.06
 -18 -14   2   -0.23    0.51
 -18 -14   0   28.75    5.82
 -18 -15  19    1.55    1.44
 -18 -15  17    3.43    1.97
 -18 -15  15    6.92    2.69
  19   0 -39    0.64    0.30
  19   0 -39   -0.25    0.24
  19   0 -37    0.65    0.55
  19   0 -35    0.02    0.34
  19   0 -33   -0.65    0.55
  19   0 -31   -0.58    0.45
  19   0 -29    0.94    0.58
  19   0 -27    1.60    0.93
  19   0 -25    1.41    0.58
  19   0 -23    1.51    0.96
  19   0 -21    2.91    1.44
  19   0 -19    0.43    0.55
  19   0 -17    0.95    1.03
  19   0 -15    6.32    2.18
  19   0 -13    2.54    1.32
 -19   0  11   -0.42    0.70
  19   0 -11   -0.85    0.84
 -19   0   9   -0.86    0.87
  19   0  -9   -0.78    0.79
 -19   0   7   -0.71    0.32
  19   0  -7    0.95    0.92
 -19   0   5    0.33    0.93
  19   0  -5   -0.50    0.70
 -19   0   3    0.12    0.31
  19   0  -3   -0.11    0.28
 -19   0   1   -0.61    0.88
  19   0  -1    0.14    0.50
 -19   0  -1    1.43    0.92
  19   0   1   -0.09    0.37
 -19   0  -3    0.59    0.50
  19   0   3    0.73    0.95
 -19   0  -5    0.96    1.11
  19   0   5    1.21    1.37
 -19   0  -7    0.23    0.83
  19   0   7    0.25    0.50
 -19   0  -9   -0.41    0.47
  19   0   9    1.35    0.96
 -19   0 -11    1.13    1.47
  19   0  11    1.08    0.87
 -19   0 -13    3.43    1.73
  19   0  13    3.82    1.63
 -19   0 -15    1.02    1.10
  19   0  15   -0.03    0.31
 -19   0 -17    3.62    2.86
  19   0  17    3.85    1.91
 -19   0 -19    8.34    2.35
  19   0  19    7.67    2.05
 -19   0 -21    5.11    2.48
  19   0  21    1.91    1.50
 -19   0 -23    0.99    1.28
  19   0  23   -0.96    0.51
 -19   0 -25    0.51    0.74
 -19   0 -27   -1.22    1.29
 -19   0 -29   -0.08    0.76
 -19   0 -31    1.74    1.17
 -19   0 -33    1.18    1.27
 -19   0 -35    0.04    0.75
 -19   0 -37    0.90    0.89
  19  -1 -40   -0.91    0.47
  19  -1 -40   -0.71    0.51
  19  -1 -38    7.42    1.30
  19  -1 -36    0.91    0.75
  19   1 -36    0.25    0.21
  19  -1 -34    0.74    0.57
  19   1 -34    0.02    0.24
  19  -1 -32    5.99    1.29
  19   1 -32    7.41    1.22
  19  -1 -30   -0.08    0.44
  19   1 -30    0.16    0.42
  19  -1 -28    0.25    0.55
  19   1 -28    0.39    0.38
  19  -1 -26   29.08    3.08
  19   1 -26   30.92    2.81
  19  -1 -24    0.64    0.90
  19   1 -24    3.16    1.45
  19  -1 -22    0.56    0.24
  19   1 -22    1.53    1.06
  19  -1 -20   28.65    3.18
  19   1 -20   29.55    3.01
  19  -1 -18   -0.59    0.60
  19   1 -18    2.08    1.32
  19  -1 -16    0.37    0.86
 -19  -1  16    4.31    1.99
  19   1 -16    7.57    2.15
 -19  -1  14  980.31   18.44
  19  -1 -14  986.79   19.09
  19   1 -14  962.65   18.08
  19  -1 -12    0.86    0.96
 -19  -1  12   -0.72    0.45
  19   1 -12    1.14    0.93
  19  -1 -10    0.63    1.02
 -19  -1  10    0.10    0.35
 -19  -1   8  279.29   10.43
  19   1  -8  277.77   10.15
  19  -1  -8  273.98   10.32
 -19  -1   6    0.38    0.28
  19  -1  -6    0.68    0.76
  19   1  -6    1.01    0.87
 -19  -1   4    0.29    0.74
  19  -1  -4    0.88    0.82
  19   1  -4    1.64    1.21
 -19   1   2   82.28    5.88
  19   1  -2   84.46    5.80
  19  -1  -2   82.99    5.88
 -19  -1   2   79.59    5.83
  19  -1   0    0.06    0.57
 -19   1   0   -0.09    0.88
 -19  -1   0    0.00    0.57
  19   1   0   -0.37    0.50
  19  -1   2   -0.20    0.91
 -19  -1  -2   -0.20    0.29
 -19   1  -2   -0.78    0.82
  19   1   2    0.64    0.46
 -19   1  -4   68.49    5.61
 -19  -1  -4   72.12    5.83
  19  -1   4   71.36    5.58
  19   1   4   73.36    5.66
 -19   1  -6    1.95    1.60
 -19  -1  -6    0.13    0.80
  19  -1   6    0.84    1.12
  19   1   6    0.62    0.87
 -19   1  -8    0.71    1.23
 -19  -1  -8    0.87    0.94
  19  -1   8    0.26    1.03
  19   1   8   -0.49    0.57
 -19   1 -10   10.42    2.39
 -19  -1 -10   12.60    2.51
  19  -1  10   11.64    2.34
  19   1  10   12.76    2.50
 -19   1 -12   -0.20    0.90
 -19  -1 -12    0.27    0.35
  19   1  12   -0.32    0.32
  19  -1  12    0.24    0.33
 -19  -1 -14    2.55    2.15
 -19   1 -14    4.22    2.48
  19  -1  14    1.49    1.51
  19   1  14    1.81    1.29
 -19  -1 -16    1.33    1.57
 -19   1 -16    4.07    2.13
  19  -1  16    0.91    0.54
  19   1  16    4.19    1.80
 -19   1 -18    4.16    2.34
 -19  -1 -18    2.26    2.02
  19  -1  18    1.82    1.59
  19   1  18    0.73    1.16
 -19   1 -20    4.79    2.34
 -19  -1 -20    1.44    1.64
  19  -1  20    1.75    1.39
  19   1  20    1.48    1.09
 -19  -1 -22    1.71    1.17
 -19   1 -22    3.79    2.00
  19  -1  22    4.10    2.12
  19   1  22    3.02    1.57
 -19  -1 -24    0.39    1.28
 -19   1 -24    2.44    1.50
  19  -1  24    2.99    1.54
 -19  -1 -26   -0.92    0.42
 -19   1 -26    0.45    0.87
  19  -1  26   -0.52    0.80
 -19  -1 -28  101.43    8.30
 -19   1 -28   97.82    7.97
 -19  -1 -30    0.14    0.78
 -19  -1 -32    2.32    1.69
 -19  -1 -34    5.97    2.09
 -19  -1 -36    0.02    0.78
 -19  -1 -38    0.10    0.55
 -19  -1 -40    2.09    1.43
  19  -2 -41    2.13    0.74
  19  -2 -39   -0.64    0.54
  19  -2 -37   -0.72    0.39
  19  -2 -35   46.83    3.99
  19  -2 -33    0.21    0.32
  19   2 -33   -0.02    0.29
  19  -2 -31    0.24    0.39
  19   2 -31    0.35    0.27
  19  -2 -29   30.01    3.27
  19   2 -29   31.51    2.54
  19  -2 -27   -0.38    0.26
  19   2 -27    0.03    0.43
  19  -2 -25   -1.10    0.91
  19   2 -25    0.25    0.46
  19  -2 -23   34.64    3.57
  19   2 -23   36.74    3.15
 -19  -2  21   -0.63    0.49
  19  -2 -21    0.02    0.68
 -19  -2  19    0.55    0.80
  19  -2 -19   -0.10    0.29
 -19  -2  17   15.72    2.26
  19  -2 -17   13.94    2.29
  19   2 -17   12.48    1.96
 -19  -2  15   -0.42    0.69
  19  -2 -15   -1.23    0.89
  19   2 -15   -1.50    0.91
 -19  -2  13   -1.21    0.78
  19  -2 -13   -0.44    0.90
  19   2 -13   -1.10    1.18
  19  -2 -11   94.87    6.25
 -19  -2  11   92.53    5.87
  19   2 -11   95.09    5.79
 -19  -2   9    1.21    1.00
  19  -2  -9    0.20    0.59
  19   2  -9    0.72    0.92
 -19  -2   7   -0.22    0.32
  19  -2  -7   -0.74    0.63
  19   2  -7   -0.07    0.82
 -19  -2   5   -0.83    0.72
  19  -2  -5    0.59    0.33
  19   2  -5    1.07    0.91
  19  -2  -3   -0.04    0.59
  19   2  -3    0.47    0.51
  19  -2  -1   -0.88    0.67
 -19  -2   1    0.48    0.79
  19   2  -1    0.24    0.54
 -19  -2  -1  188.47    9.14
  19  -2   1  194.55    9.38
  19   2   1  188.09    9.17
  19  -2   3    0.09    0.63
 -19  -2  -3   -0.46    1.08
  19   2   3   -0.95    1.14
  19  -2   5    1.45    1.36
 -19  -2  -5   -0.09    0.35
  19   2   5    0.85    0.50
  19  -2   7   36.20    4.14
 -19  -2  -7   35.42    4.16
  19   2   7   36.14    4.16
  19  -2   9   -0.56    0.26
 -19  -2  -9   -0.07    0.70
  19   2   9   -0.79    0.81
  19  -2  11    0.80    0.96
 -19  -2 -11    0.74    1.02
  19   2  11    0.59    0.97
 -19  -2 -13   -1.33    1.22
  19  -2  13   -1.15    1.13
  19   2  13    0.18    0.86
 -19  -2 -15    0.31    0.96
  19  -2  15   -0.28    0.64
  19   2  15   -0.18    0.51
  19  -2  17   -0.04    0.69
  19   2  17    0.37    0.38
 -19  -2 -19    5.52    1.77
  19  -2  19    8.49    2.12
  19   2  19   11.18    2.70
  19  -2  21   -0.05    0.50
 -19  -2 -21   -0.69    0.77
  19  -2  23   -0.24    0.86
 -19  -2 -23    1.38    1.46
  19  -2  25   -0.14    0.34
 -19  -2 -25    1.58    1.18
 -19  -2 -27    1.55    1.51
 -19  -2 -29    1.07    1.70
 -19  -2 -31   10.14    2.79
 -19  -2 -33    1.41    1.26
 -19  -2 -35    2.27    1.69
 -19  -2 -37    5.11    1.96
 -19  -2 -39   -0.90    1.35
  19  -3 -42    1.17    1.16
  19  -3 -40   -0.55    0.83
  19  -3 -40   -1.56    0.84
  19   3 -32   11.38    1.30
  19   3 -30   -0.18    0.37
  19   3 -28   -0.79    0.45
  19   3 -26   65.36    4.03
 -19  -3  24   -0.49    0.61
  19   3 -24    0.04    0.46
 -19  -3  22   -0.49    0.53
  19   3 -22    0.18    0.26
 -19  -3  20    0.17    0.55
  19   3 -20    1.20    0.71
 -19  -3  18   -0.53    0.71
  19   3 -18   -0.05    0.45
 -19  -3  16   -0.65    1.01
  19   3 -16    0.40    0.41
 -19  -3  14   24.54    3.02
  19   3 -14   21.81    2.77
 -19  -3  12    1.23    1.00
  19   3 -12    0.27    0.69
  19  -3 -10    0.54    0.82
 -19  -3  10    0.38    0.47
  19   3 -10    1.34    1.08
  19  -3  -8  144.70    8.09
 -19  -3   8  156.49    8.00
  19   3  -8  141.56    7.42
  19  -3  -6    0.93    1.07
 -19  -3   6    1.16    1.08
  19   3  -6    1.00    1.07
  19  -3  -4    0.19    0.72
 -19  -3   4   -0.09    0.35
  19   3  -4    0.05    0.56
  19  -3  -2   37.04    4.16
 -19  -3   2   38.88    4.13
  19   3  -2   37.97    4.11
  19  -3   0    0.38    0.42
 -19  -3   0    0.19    0.61
  19   3   0    0.04    0.73
  19  -3   2    0.10    0.58
 -19  -3  -2   -0.21    0.53
  19   3   2    0.55    0.77
  19  -3   4   20.75    3.16
 -19  -3  -4   21.27    3.20
  19   3   4   20.46    3.15
  19  -3   6    2.13    1.45
 -19  -3  -6    1.07    0.99
  19   3   6    0.19    0.98
  19  -3   8    0.65    0.74
 -19  -3  -8    0.57    0.78
  19   3   8   -0.05    0.42
  19  -3  10   -0.92    0.87
 -19  -3 -10    0.27    0.50
  19   3  10    0.62    0.82
  19  -3  12    0.05    0.59
 -19  -3 -12   -0.68    0.76
  19   3  12    0.22    0.47
  19  -3  14   -0.87    0.80
 -19  -3 -14   -0.81    0.63
  19   3  14   -0.83    0.65
 -19  -3 -16   61.02    6.07
  19  -3  16   57.35    5.60
  19   3  16   62.03    6.13
  19  -3  18   -0.03    0.59
 -19  -3 -18   -1.70    1.23
  19  -3  20    0.98    0.87
 -19  -3 -20    0.63    0.87
 -19  -3 -22    0.34    0.77
  19  -3  22    0.25    0.30
  19  -3  24    0.33    0.61
 -19  -3 -24    0.64    1.18
  19  -3  26    0.63    0.80
 -19  -3 -26    2.01    1.77
 -19  -3 -28   -0.88    1.09
 -19  -3 -30    3.38    2.35
 -19  -3 -32    0.32    1.23
 -19  -3 -34    0.63    0.91
 -19  -3 -36    1.27    1.66
 -19  -3 -38    1.48    0.85
 -19  -3 -40    0.58    0.90
  19  -4 -43    1.44    0.94
  19  -4 -41    1.49    0.77
  19   4 -31   -0.65    0.55
 -19  -4  29   19.95    2.11
  19   4 -29   20.67    2.21
 -19  -4  27   -0.76    0.77
  19   4 -27   -0.04    0.42
 -19  -4  25   -0.18    0.59
  19   4 -25   -0.10    0.34
 -19  -4  23    4.24    1.12
  19   4 -23    4.83    1.16
 -19  -4  21   -0.21    0.58
  19   4 -21    0.55    0.37
 -19  -4  19   -0.48    0.24
  19   4 -19   -0.32    0.63
 -19  -4  17   24.16    2.92
  19   4 -17   22.75    2.79
 -19  -4  15   -0.26    0.47
  19   4 -15    0.32    0.41
 -19  -4  13    0.16    0.60
  19   4 -13   -0.43    0.35
 -19  -4  11    7.69    1.77
  19   4 -11    6.76    1.67
 -19  -4   9    0.62    0.88
  19   4  -9    0.40    0.88
 -19  -4   7   -1.56    1.07
  19   4  -7    0.00    0.88
 -19  -4   5  193.70    9.37
  19   4  -5  190.33    9.27
  19  -4  -3    1.13    1.36
 -19  -4   3    1.53    1.25
  19   4  -3    1.97    1.44
  19  -4  -1    0.37    0.86
 -19  -4   1    0.46    0.97
  19   4  -1   -0.58    0.87
  19  -4   1    5.70    1.54
 -19  -4  -1    6.76    1.76
  19   4   1    6.32    1.83
  19  -4   3   -0.07    0.70
 -19  -4  -3    0.18    0.93
  19   4   3    0.15    0.35
  19  -4   5   -0.49    0.34
 -19  -4  -5    0.98    0.95
  19   4   5    0.08    0.56
  19  -4   7   -0.91    1.00
 -19  -4  -7    0.15    0.69
  19   4   7    0.46    0.83
  19  -4   9    2.82    1.61
 -19  -4  -9   -0.25    0.70
  19   4   9    3.73    1.65
  19  -4  11    0.22    0.80
 -19  -4 -11    1.05    1.36
  19   4  11   -0.17    0.66
  19  -4  13    0.46    0.55
 -19  -4 -13    0.11    0.55
  19   4  13   -0.13    0.74
 -19  -4 -15   -0.34    0.46
  19  -4  15   -0.82    0.93
 -19  -4 -17   -0.38    1.15
  19  -4  17   -0.45    0.67
  19  -4  19    1.55    0.76
 -19  -4 -19    1.28    0.78
 -19  -4 -21    1.87    1.39
  19  -4  21   -1.03    1.04
 -19  -4 -23    0.44    1.02
  19  -4  23   -0.97    1.17
 -19  -4 -25    6.04    2.03
 -19  -4 -27    0.39    0.73
 -19  -4 -29   -0.26    0.97
 -19  -4 -31   -2.33    1.73
 -19  -4 -33    0.31    0.67
 -19  -4 -35    0.99    1.06
 -19  -4 -37    8.95    3.17
 -19  -4 -39    0.70    1.16
 -19  -4 -41   -0.02    1.04
  19  -5 -44    0.20    0.79
  19  -5 -42    1.10    0.84
  19  -5 -40   -0.05    0.68
 -19  -5  30   -0.01    0.33
  19   5 -28   -0.83    0.44
 -19  -5  28   -0.61    0.63
 -19  -5  26   73.20    4.79
  19   5 -26   71.38    4.78
  19   5 -24   -0.09    0.33
 -19  -5  24   -1.03    0.84
 -19  -5  22   -0.56    0.69
  19   5 -22   -0.18    0.37
 -19  -5  20    0.87    0.73
  19   5 -20   -0.14    0.67
 -19  -5  18   -0.50    0.62
  19   5 -18   -0.09    0.34
 -19  -5  16    0.10    0.66
  19   5 -16    0.07    0.40
 -19  -5  14   17.37    2.67
  19   5 -14   21.19    3.01
 -19  -5  12   -0.04    0.53
  19   5 -12    0.12    0.35
 -19  -5  10   -1.15    1.13
  19   5 -10   -2.06    1.48
  19   5  -8   23.53    3.24
 -19  -5   8   22.69    3.33
 -19  -5   6   -1.16    1.12
  19   5  -6   -0.73    1.04
 -19  -5   4   -0.48    0.45
  19   5  -4    1.90    1.21
 -19  -5   2   -0.17    0.95
  19   5  -2   -0.14    0.61
 -19  -5   0    0.22    0.55
  19   5   0   -0.76    0.85
  19  -5   2    0.99    1.21
 -19  -5  -2    0.50    0.35
  19   5   2    0.40    0.69
  19  -5   4   -0.24    0.58
 -19  -5  -4   -0.37    0.45
  19   5   4   -0.67    0.56
  19  -5   6    1.16    1.21
 -19  -5  -6    0.91    1.05
  19   5   6    0.37    0.79
  19  -5   8    1.30    1.15
 -19  -5  -8   -0.52    0.39
  19   5   8   -0.72    0.90
  19  -5  10   42.35    5.01
 -19  -5 -10   42.64    5.14
  19  -5  12    1.51    1.14
 -19  -5 -12    0.97    1.08
  19  -5  14   -1.21    1.24
 -19  -5 -14   -0.18    0.39
  19  -5  16   71.44    6.61
 -19  -5 -16   66.60    6.68
 -19  -5 -18    0.42    0.88
  19  -5  18    1.14    1.08
 -19  -5 -20    2.56    1.53
 -19  -5 -22   46.90    5.90
 -19  -5 -24    1.39    1.50
 -19  -5 -26    2.39    1.49
 -19  -5 -28   -0.18    1.16
 -19  -5 -30    1.35    1.91
 -19  -5 -32    1.25    2.02
 -19  -5 -34   -0.85    1.44
 -19  -5 -36   -0.80    1.01
 -19  -5 -38    2.11    1.69
 -19  -5 -40    2.83    1.90
  19  -6 -43   -1.93    1.40
  19  -6 -41    4.95    1.86
 -19  -6  33    0.05    0.28
 -19  -6  31    0.19    0.45
 -19  -6  29   -0.78    0.69
 -19  -6  27    0.74    0.88
 -19  -6  25    0.39    0.57
  19   6 -25   -0.01    0.36
 -19  -6  23   12.87    2.17
  19   6 -23   12.60    2.17
 -19  -6  21    0.41    0.59
  19   6 -21    0.15    0.44
 -19  -6  19    0.10    0.46
  19   6 -19   -0.86    0.87
 -19  -6  17   10.55    2.11
  19   6 -17   10.57    2.14
 -19  -6  15   -1.12    1.09
  19   6 -15   -0.18    0.37
 -19  -6  13   -0.10    0.87
  19   6 -13    1.20    1.20
 -19  -6  11    4.07    0.62
  19   6 -11    8.36    2.00
 -19  -6   9   -2.22    1.45
  19   6  -9    1.01    1.00
 -19  -6   7   -0.84    1.28
  19   6  -7   -0.60    0.40
  19   6  -5   49.82    5.27
 -19  -6   5   39.43    4.46
 -19  -6   3   -0.32    1.11
  19   6  -3    2.73    1.56
 -19  -6   1    0.18    0.56
  19   6  -1    0.43    0.90
 -19  -6  -1    0.73    0.52
  19   6   1    0.30    0.68
 -19  -6  -3   -0.27    1.20
  19   6   3    1.89    1.26
 -19  -6  -5    1.06    1.31
  19  -6   7   43.22    5.15
 -19  -6  -7   44.16    5.25
  19  -6   9    1.51    1.44
 -19  -6  -9    0.90    1.24
 -19  -6 -11    0.53    1.27
 -19  -6 -13    0.19    0.58
 -19  -6 -15   -0.71    0.72
 -19  -6 -17    1.62    1.35
 -19  -6 -19   53.39    6.32
 -19  -6 -21    0.04    1.20
 -19  -6 -23    1.60    1.94
 -19  -6 -25    7.24    2.37
 -19  -6 -27    0.08    1.33
 -19  -6 -29   -1.52    0.98
 -19  -6 -31    4.24    1.87
 -19  -6 -33    0.91    1.27
 -19  -6 -35   -0.52    1.23
 -19  -6 -37   -0.10    0.51
 -19  -6 -39    1.53    1.55
 -19  -6 -41   -1.49    1.49
  19  -7 -44    2.02    1.09
  19  -7 -42    0.29    0.36
  19  -7 -40    0.60    1.21
 -19  -7  34   -0.53    0.56
 -19  -7  32    9.78    1.82
 -19  -7  30    2.00    0.92
 -19  -7  28    0.79    0.85
 -19  -7  26    3.81    1.28
 -19  -7  24    1.63    1.03
 -19  -7  22   -0.26    0.69
 -19  -7  20   14.09    2.44
  19   7 -20   16.53    2.81
 -19  -7  18   -0.78    0.72
  19   7 -18    1.36    1.31
 -19  -7  16    1.08    1.19
  19   7 -16   -0.11    0.68
  19   7 -14   24.18    3.57
 -19  -7  14   23.28    3.38
 -19  -7  12    0.09    0.62
  19   7 -12   -0.31    0.28
 -19  -7  10    0.95    1.09
  19   7 -10    1.44    1.27
 -19  -7   8   10.27    2.43
  19   7  -8   12.33    2.65
 -19  -7   6   -0.44    1.06
  19   7  -6   -0.28    0.66
  19   7  -4   -0.11    0.42
 -19  -7   4   -1.39    1.32
 -19  -7   2   -0.34    0.41
 -19  -7   0    1.31    1.28
 -19  -7  -2    1.19    1.10
 -19  -7  -4   -0.22    0.82
 -19  -7  -6    0.36    1.13
 -19  -7  -8    0.58    1.04
 -19  -7 -10   -2.58    2.08
 -19  -7 -12    1.04    1.32
 -19  -7 -14    0.64    0.52
 -19  -7 -16   -0.06    2.18
 -19  -7 -18    0.75    0.91
 -19  -7 -20    1.41    1.64
 -19  -7 -22   -0.86    1.16
 -19  -7 -24    0.52    1.38
 -19  -7 -26   -0.11    0.93
 -19  -7 -28    6.88    2.28
 -19  -7 -30    2.48    1.76
 -19  -7 -32    0.00    1.06
 -19  -7 -34    1.49    1.05
 -19  -7 -36   -0.18    0.76
 -19  -7 -38    1.48    1.63
 -19  -7 -40    0.81    1.19
  19  -8 -43    1.26    0.88
  19  -8 -41    0.23    0.79
  19  -8 -39   -0.43    0.65
 -19  -8  31   -0.15    0.33
 -19  -8  29   14.48    2.40
 -19  -8  27    1.86    1.17
 -19  -8  25   -0.06    0.70
 -19  -8  23   25.76    3.56
 -19  -8  21    1.35    0.77
 -19  -8  19   -1.25    0.96
 -19  -8  17   11.26    2.34
  19   8 -17    8.96    2.20
  19   8 -15    0.21    0.91
 -19  -8  15    1.47    1.19
  19   8 -13    1.37    1.24
 -19  -8  13    0.90    0.99
  19   8 -11   35.87    4.79
 -19  -8  11   41.55    5.03
 -19  -8   9    1.30    1.13
 -19  -8   7    0.29    1.07
 -19  -8   5   -1.29    1.33
 -19  -8   3   -1.53    1.36
 -19  -8   1   -1.77    1.32
 -19  -8  -1   -0.77    1.20
 -19  -8  -3   -0.73    0.98
 -19  -8  -5    0.22    0.45
 -19  -8  -7    6.51    2.23
 -19  -8  -9    0.39    1.28
 -19  -8 -11   -0.74    1.04
 -19  -8 -13    1.29    0.89
 -19  -8 -15   -0.90    1.17
 -19  -8 -17   -0.27    1.14
 -19  -8 -19   -2.22    2.00
 -19  -8 -21    2.25    1.50
 -19  -8 -23    5.48    2.65
 -19  -8 -25   17.74    4.25
 -19  -8 -27   -0.93    0.93
 -19  -8 -29    0.64    1.44
 -19  -8 -31    3.59    1.46
 -19  -8 -33    0.83    1.31
 -19  -8 -35    1.25    1.78
  19  -9 -44   -0.13    0.79
  19  -9 -42    1.16    1.42
  19  -9 -40    1.15    1.21
  19  -9 -38    1.17    1.14
 -19  -9  30   -0.95    0.92
 -19  -9  28   -0.56    0.69
 -19  -9  26    1.80    0.67
 -19  -9  24    1.00    0.89
 -19  -9  22    1.07    1.09
 -19  -9  20   30.07    4.14
 -19  -9  18   -0.32    0.60
 -19  -9  16    1.86    1.47
 -19  -9  14    8.26    2.22
 -19  -9  12    0.28    0.51
 -19  -9  10    3.93    2.02
 -19  -9   8   -0.71    1.14
 -19  -9   6   -0.81    0.92
 -19  -9   4   -0.39    0.55
 -19  -9   2    2.40    1.30
 -19  -9   0   -0.06    0.82
 -19  -9  -2   -0.61    1.18
 -19  -9  -4   -0.21    1.00
 -19  -9  -6    1.73    1.81
 -19  -9  -8   -0.28    1.36
 -19  -9 -10    0.68    1.17
 -19  -9 -12    4.30    2.37
 -19  -9 -14   -0.78    0.80
 -19  -9 -16    0.46    1.44
 -19  -9 -18   -0.36    0.53
 -19  -9 -20    0.36    0.66
 -19  -9 -22    3.55    1.92
 -19  -9 -24    2.61    2.11
 -19  -9 -26   -0.94    1.25
 -19  -9 -28    0.50    1.01
 -19  -9 -30    2.24    2.01
 -19  -9 -32   -1.69    0.91
  19 -10 -43    1.33    1.06
  19 -10 -41   -0.59    0.83
  19 -10 -39   -0.51    1.43
  19 -10 -37   -0.52    1.05
 -19 -10  29   -1.15    0.95
 -19 -10  27   -1.42    0.80
 -19 -10  25    0.60    0.79
 -19 -10  23    0.42    0.37
 -19 -10  21    1.14    1.16
 -19 -10  19    0.20    0.59
 -19 -10  17   44.80    5.51
 -19 -10  15   -0.50    0.86
 -19 -10  13    1.45    1.21
 -19 -10  11   -1.22    1.63
 -19 -10   9   -1.36    0.56
 -19 -10   7   -0.14    0.91
 -19 -10   5   -0.86    1.03
 -19 -10   3    2.20    2.10
 -19 -10   1   -0.53    0.81
 -19 -10  -1    6.93    2.42
 -19 -10  -3    1.41    1.86
 -19 -10  -5    0.33    0.63
 -19 -10  -7    0.45    1.53
 -19 -10  -9   -1.59    0.91
 -19 -10 -11    0.06    0.96
 -19 -10 -13    0.42    1.33
 -19 -10 -15    0.45    1.21
 -19 -10 -17   -1.34    1.30
 -19 -10 -19    5.55    2.32
 -19 -10 -21   -0.38    0.95
 -19 -10 -23    2.28    1.78
 -19 -10 -25    1.14    1.20
 -19 -10 -27    0.30    0.61
  19 -11 -42   -1.32    1.62
  19 -11 -40    3.65    1.83
  19 -11 -38    3.99    2.08
  19 -11 -36    1.63    1.52
  19 -11 -34   -0.89    1.11
 -19 -11  28   -0.08    0.34
 -19 -11  26   -0.35    0.58
 -19 -11  24   -0.78    1.15
 -19 -11  22   -0.28    0.80
 -19 -11  20   -2.60    1.61
 -19 -11  18   -3.00    1.62
 -19 -11  16    2.41    1.72
 -19 -11  14    1.73    1.40
 -19 -11  12    0.14    1.28
 -19 -11  10   -0.91    0.92
 -19 -11   8    4.08    1.75
 -19 -11   6    0.32    1.00
 -19 -11   4    4.33    2.08
 -19 -11   2    1.20    1.06
 -19 -11   0    1.80    1.47
 -19 -11  -2    1.40    2.00
 -19 -11  -4   14.19    3.64
 -19 -11  -6    2.64    2.02
 -19 -11  -8    0.30    1.46
 -19 -11 -10    3.77    1.62
 -19 -11 -12    0.24    1.00
 -19 -11 -14   -0.82    1.49
 -19 -11 -16   -1.01    1.30
 -19 -11 -18   -0.32    0.56
 -19 -11 -20   -0.56    1.35
 -19 -11 -22   -0.99    0.58
  19 -12 -33    0.51    1.23
 -19 -12  25    0.54    0.41
 -19 -12  23    0.42    0.47
 -19 -12  21    2.36    1.53
 -19 -12  19    0.71    0.88
 -19 -12  17   -0.54    0.48
 -19 -12  15    0.38    1.14
 -19 -12  13    0.61    1.22
 -19 -12  11   -0.72    0.49
 -19 -12   9    1.52    1.31
 -19 -12   7    0.68    0.54
 -19 -12   5    3.80    1.99
 -19 -12   3    0.77    1.29
 -19 -12   1   -1.81    1.32
 -19 -12  -1    0.96    1.13
 -19 -12  -3   -0.43    1.00
 -19 -12  -5    1.34    1.38
 -19 -12  -7    2.02    3.13
 -19 -12  -9    4.33    2.82
 -19 -12 -11    0.18    0.64
 -19 -12 -13    2.82    1.73
 -19 -12 -15   -1.44    1.13
 -19 -13  24    3.14    1.95
 -19 -13  22    1.29    0.99
 -19 -13  20   -0.98    1.01
 -19 -13  18   -0.28    0.80
 -19 -13  16    0.50    1.12
 -19 -13  14    0.10    1.03
 -19 -13  12    1.99    1.53
 -19 -13  10    0.65    1.07
 -19 -13   8    2.51    1.42
 -19 -13   6    1.50    0.90
 -19 -13   4    0.77    0.64
 -19 -13   2    7.14    2.74
 -19 -13   0    0.62    1.01
 -19 -13  -2    0.47    1.00
 -19 -13  -4    1.67    1.48
 -19 -13  -6    1.80    1.79
 -19 -13  -8    0.40    1.22
 -19 -14  21    1.73    1.74
 -19 -14  19    1.39    1.27
 -19 -14  17   -1.76    0.98
 -19 -14  15   -0.42    1.12
 -19 -14  13    0.56    1.18
 -19 -14  11   -1.07    1.50
 -19 -14   9    2.62    1.60
 -19 -14   7    1.03    1.00
 -19 -14   5   11.86    3.56
 -19 -14   3    1.15    0.98
 -19 -15  18    0.59    0.98
 -19 -15  16    2.41    1.81
  20   0 -40   38.49    2.19
  20   0 -38    0.25    0.18
  20   0 -36   -0.75    0.55
  20   0 -34    1.06    0.49
  20   0 -32   -0.55    0.51
  20   0 -30    0.01    0.38
  20   0 -28  308.15    9.48
  20   0 -26   -1.32    0.88
  20   0 -24   -0.46    0.63
  20   0 -22  507.83   13.03
  20   0 -20    0.19    0.24
  20   0 -18    1.44    0.95
  20   0 -16 1483.21   23.02
  20   0 -14    0.77    1.01
  20   0 -12   -0.17    0.62
 -20   0  10  209.53    9.12
  20   0 -10  200.44    8.78
 -20   0   8   -0.55    0.56
  20   0  -8   -0.27    0.62
 -20   0   6    0.63    0.60
  20   0  -6    0.15    0.67
 -20   0   4  229.71    9.94
  20   0  -4  234.19    9.91
 -20   0   2   -1.03    1.00
  20   0  -2   -0.83    1.17
 -20   0   0   -0.24    0.68
  20   0   0   -0.17    0.49
 -20   0  -2  490.46   15.15
  20   0   2  494.07   15.23
 -20   0  -4    0.09    0.51
  20   0   4   -0.57    0.97
 -20   0  -6   -1.14    1.50
  20   0   6   -0.07    0.49
 -20   0  -8   47.24    4.94
  20   0   8   42.51    4.54
 -20   0 -10   -0.97    1.19
  20   0  10   -0.23    0.85
 -20   0 -12   -1.05    0.69
  20   0  12    0.15    0.57
 -20   0 -14  411.43   15.20
  20   0  14  410.29   14.87
 -20   0 -16   -0.77    1.29
  20   0  16    1.31    0.98
 -20   0 -18   -0.74    0.73
  20   0  18   -0.73    0.93
 -20   0 -20  706.21   20.87
  20   0  20  730.75   20.63
 -20   0 -22   -1.02    1.26
 -20   0 -24    0.01    0.41
 -20   0 -26  105.85    8.35
 -20   0 -28   -1.51    1.54
 -20   0 -30   -1.13    0.87
 -20   0 -32  147.26   10.38
 -20   0 -34   -1.40    1.77
 -20   0 -36    0.15    0.54
  20  -1 -41   -0.51    0.57
  20  -1 -39   -0.49    0.62
  20  -1 -37   26.65    2.70
  20   1 -37   23.94    1.64
  20  -1 -35    0.38    0.28
  20   1 -35   -0.33    0.20
  20  -1 -33   -0.72    0.65
  20   1 -33    0.16    0.36
  20  -1 -31  107.67    5.94
  20   1 -31  104.54    4.95
  20  -1 -29   -0.42    0.68
  20   1 -29   -0.45    0.42
  20  -1 -27    0.01    0.41
  20   1 -27   -1.06    0.64
  20  -1 -25  377.42   11.58
  20   1 -25  373.20   10.35
  20  -1 -23   -0.10    0.43
  20   1 -23    0.35    0.39
  20  -1 -21    0.98    0.76
  20   1 -21    1.19    0.78
  20  -1 -19  377.84   11.88
  20   1 -19  377.61   11.15
  20  -1 -17   -1.14    0.93
 -20  -1  17    0.15    0.86
  20   1 -17   -0.45    0.36
  20  -1 -15    2.73    1.62
 -20  -1  15    4.17    1.90
  20   1 -15    5.69    1.93
 -20  -1  13   96.69    6.07
  20  -1 -13   99.10    6.24
  20   1 -13   93.96    5.89
 -20  -1  11   -0.28    0.68
  20  -1 -11    0.46    0.60
  20   1 -11    0.31    0.65
 -20  -1   9   -0.94    0.69
  20  -1  -9    0.03    0.37
 -20  -1   7  263.41   10.47
  20  -1  -7  272.43   10.71
  20   1  -7  262.59   10.36
  20  -1  -5    0.98    0.65
  20   1  -5    0.26    0.52
  20  -1  -3    0.09    0.51
 -20  -1   3   -0.25    0.59
  20   1  -3   -0.15    0.42
 -20   1   1  304.12   11.66
 -20  -1   1  310.65   11.92
  20   1  -1  314.86   11.77
  20  -1  -1  318.29   11.92
 -20   1  -1   -1.52    0.94
  20  -1   1   -0.02    0.48
 -20  -1  -1   -0.86    0.79
  20   1   1    0.25    0.61
 -20   1  -3   -0.36    0.36
 -20  -1  -3   -0.01    0.50
  20  -1   3    0.15    0.38
  20   1   3    0.19    0.63
 -20   1  -5  439.56   14.72
  20  -1   5  457.98   14.92
 -20  -1  -5  439.14   14.81
  20   1   5  467.56   14.92
 -20   1  -7   -0.60    0.89
 -20  -1  -7    0.61    0.82
  20  -1   7    0.00    0.39
  20   1   7   -0.51    0.61
 -20   1  -9   -0.34    0.82
 -20  -1  -9   -0.47    0.88
  20  -1   9    0.08    0.34
  20   1   9   -0.19    0.82
 -20   1 -11  223.50   10.94
 -20  -1 -11  232.04   11.32
  20  -1  11  238.22   11.19
  20   1  11  229.66   10.89
 -20   1 -13   -0.11    0.63
 -20  -1 -13   -1.07    0.96
  20   1  13    0.15    0.52
  20  -1  13    1.64    1.05
 -20   1 -15    0.22    0.55
 -20  -1 -15   -1.37    1.18
  20  -1  15   -0.44    0.95
  20   1  15   -0.43    0.42
 -20   1 -17  603.10   18.67
 -20  -1 -17  570.02   18.45
  20   1  17  626.97   18.94
  20  -1  17  602.63   18.37
 -20   1 -19   -1.24    1.27
 -20  -1 -19   -0.42    0.60
  20  -1  19   -0.58    0.95
  20   1  19   -0.11    0.40
  20  -1  21   -0.55    0.43
 -20  -1 -21   -1.79    1.44
 -20   1 -21   -0.60    0.77
 -20  -1 -23  300.62   14.01
 -20   1 -23  296.37   13.50
 -20   1 -25   -0.74    0.80
 -20  -1 -25    0.25    0.41
 -20  -1 -27    0.41    0.52
 -20   1 -27    0.17    0.40
 -20  -1 -29  176.49   11.34
 -20  -1 -31    0.50    0.97
 -20  -1 -33    0.40    0.99
 -20  -1 -35  105.94    9.03
 -20  -1 -37   -0.16    0.55
 -20  -1 -39    1.64    1.00
  20  -2 -42   -1.04    0.83
  20  -2 -38   -0.14    0.50
  20  -2 -36   -1.17    0.80
  20   2 -36   -0.33    0.18
  20  -2 -34  101.69    6.13
  20   2 -34  104.85    3.93
  20  -2 -32   -0.19    0.39
  20   2 -32    0.28    0.24
  20  -2 -30    0.33    0.24
  20   2 -30    0.73    0.52
  20  -2 -28  107.43    6.44
  20   2 -28  103.42    5.08
  20  -2 -26   -0.58    0.69
  20   2 -26   -0.33    0.39
  20  -2 -24   -0.65    0.95
  20   2 -24    0.73    0.68
 -20  -2  22  378.87   10.97
  20  -2 -22  362.46   12.02
  20   2 -22  379.13   10.68
  20  -2 -20   -0.33    0.41
 -20  -2  20    0.64    0.51
  20   2 -20   -1.16    0.86
  20  -2 -18   -0.18    0.72
 -20  -2  18   -0.24    0.50
  20   2 -18   -0.63    0.78
  20  -2 -16   64.04    5.15
 -20  -2  16   68.98    4.99
  20   2 -16   61.63    4.59
 -20  -2  14    0.11    0.55
  20  -2 -14    0.22    0.59
  20   2 -14   -0.72    0.86
 -20  -2  12    0.11    0.31
  20  -2 -12    1.31    0.77
  20   2 -12    0.17    0.80
  20  -2 -10  580.86   15.80
 -20  -2  10  595.58   15.49
  20   2 -10  589.82   14.97
 -20  -2   8   -0.27    0.35
  20  -2  -8    0.23    0.45
  20   2  -8    0.89    0.82
  20  -2  -6   -0.40    0.85
 -20  -2   6    0.68    0.51
  20   2  -6    0.69    0.73
  20  -2  -4  337.58   12.44
 -20  -2   4  344.60   12.35
  20   2  -4  350.38   12.10
  20  -2  -2    0.13    0.44
 -20  -2   2   -0.16    0.94
  20   2  -2    0.50    0.43
 -20  -2   0    1.28    0.88
  20  -2   0   -0.04    0.45
  20   2   0    0.50    0.85
  20  -2   2  398.30   13.88
 -20  -2  -2  380.67   13.60
  20   2   2  400.20   13.61
  20  -2   4    0.84    0.69
 -20  -2  -4   -0.41    0.89
  20   2   4   -0.17    0.84
  20  -2   6    0.02    0.79
 -20  -2  -6   -0.17    1.06
  20   2   6   -0.21    0.60
 -20  -2  -8  188.16   10.01
  20  -2   8  197.80   10.07
  20   2   8  198.11   10.05
 -20  -2 -10    0.32    0.61
  20  -2  10   -0.72    0.97
  20   2  10   -0.19    0.70
 -20  -2 -12   -0.37    0.93
  20  -2  12   -0.32    0.67
  20   2  12   -1.56    1.01
 -20  -2 -14  297.03   13.19
  20  -2  14  305.79   13.02
  20   2  14  307.74   13.14
 -20  -2 -16   -0.88    1.10
  20  -2  16   -0.25    1.14
  20   2  16    1.15    0.54
  20  -2  18   -0.59    1.04
 -20  -2 -18   -1.35    1.36
 -20  -2 -20  159.70   10.18
  20  -2  20  159.10    9.64
  20  -2  22    0.41    0.60
 -20  -2 -22   -0.55    0.47
 -20  -2 -24   -0.85    0.70
 -20  -2 -26  238.83   13.03
 -20  -2 -28   -1.23    1.15
 -20  -2 -30    0.35    0.36
 -20  -2 -32  152.78   10.91
 -20  -2 -34    0.27    0.72
 -20  -2 -36   -0.36    0.67
 -20  -2 -38   65.72    7.35
 -20  -2 -40   -0.37    1.37
  20  -3 -43   63.55    5.02
  20  -3 -41    0.59    0.31
  20  -3 -39   -1.65    1.20
  20  -3 -37   15.92    2.59
  20   3 -33   -0.10    0.35
  20   3 -31   97.06    4.49
  20   3 -29   -0.02    0.17
  20   3 -27   -0.32    0.54
 -20  -3  25  113.57    5.76
  20   3 -25  109.69    5.58
 -20  -3  23    0.36    0.36
  20   3 -23    0.33    0.57
 -20  -3  21   -1.10    0.40
  20   3 -21   -0.24    0.59
 -20  -3  19   82.83    5.36
  20   3 -19   80.42    5.22
 -20  -3  17    0.96    0.67
  20   3 -17    0.55    0.68
  20  -3 -15   -0.87    0.99
 -20  -3  15    0.02    0.71
  20   3 -15    1.11    0.83
  20  -3 -13  404.65   13.72
 -20  -3  13  408.98   12.70
  20   3 -13  411.75   12.53
  20  -3 -11   -0.74    0.68
 -20  -3  11    1.05    1.07
  20   3 -11    0.45    0.71
  20  -3  -9    1.03    0.83
 -20  -3   9    0.48    0.70
  20   3  -9    1.32    1.01
  20  -3  -7  781.44   19.21
 -20  -3   7  795.62   18.64
  20   3  -7  797.22   18.28
  20  -3  -5    0.11    0.73
 -20  -3   5   -0.22    0.57
  20   3  -5    0.46    0.76
  20  -3  -3   -0.58    0.66
 -20  -3   3   -0.85    0.84
  20   3  -3   -0.83    0.82
  20  -3  -1  158.52    8.78
 -20  -3   1  155.84    8.66
  20   3  -1  160.42    8.60
  20  -3   1    0.13    0.80
 -20  -3  -1    0.15    0.59
  20   3   1   -0.32    0.61
  20  -3   3   -0.23    0.68
 -20  -3  -3    0.22    0.52
  20   3   3   -0.01    0.29
  20  -3   5  504.43   16.26
 -20  -3  -5  484.74   15.96
  20   3   5  514.52   16.33
  20  -3   7    1.00    1.03
 -20  -3  -7    0.92    1.14
  20   3   7    0.72    0.81
  20  -3   9   -0.11    0.50
 -20  -3  -9    0.61    0.43
  20   3   9   -0.18    0.68
 -20  -3 -11  214.82   11.21
  20  -3  11  213.78   10.88
  20   3  11  209.45   10.87
  20  -3  13   -0.68    1.20
 -20  -3 -13   -0.69    1.01
  20   3  13   -1.02    1.23
 -20  -3 -15    1.18    0.67
  20  -3  15   -0.27    0.91
  20  -3  17  184.24   10.40
 -20  -3 -17  168.06   10.38
  20  -3  19   -1.50    1.26
 -20  -3 -19   -1.28    1.19
 -20  -3 -21    0.94    1.24
  20  -3  21   -1.12    1.34
 -20  -3 -23  175.05   11.08
 -20  -3 -25    1.45    1.41
 -20  -3 -27   -0.25    1.02
 -20  -3 -29  219.59   13.04
 -20  -3 -31    1.17    1.01
 -20  -3 -33   -0.90    0.84
 -20  -3 -35  117.16   10.03
 -20  -3 -37    0.08    0.88
 -20  -3 -39   -2.40    1.67
  20  -4 -42    0.99    0.60
  20   4 -32   -0.24    0.30
  20   4 -30   -0.53    0.28
 -20  -4  28  129.54    6.02
  20   4 -28  127.86    6.01
 -20  -4  26   -0.81    0.83
  20   4 -26   -0.71    0.75
 -20  -4  24    0.26    0.40
  20   4 -24   -0.35    0.41
 -20  -4  22   85.76    5.47
  20   4 -22   76.85    5.08
 -20  -4  20   -0.37    0.58
  20   4 -20   -0.51    0.73
 -20  -4  18    0.17    0.29
  20   4 -18   -1.00    0.86
 -20  -4  16  114.93    6.72
  20   4 -16  106.48    6.38
 -20  -4  14   -0.03    0.60
  20   4 -14   -0.65    0.72
 -20  -4  12    0.58    0.68
  20   4 -12   -0.28    0.47
 -20  -4  10  380.58   12.94
  20   4 -10  397.73   13.14
 -20  -4   8    1.03    0.91
  20   4  -8    0.91    0.64
  20  -4  -6    0.61    0.57
 -20  -4   6   -0.42    0.46
  20   4  -6    0.63    1.02
  20  -4  -4  699.07   19.06
 -20  -4   4  669.69   18.15
  20   4  -4  699.27   18.25
  20  -4  -2    1.33    0.76
 -20  -4   2    1.73    1.34
  20   4  -2   -0.09    0.44
  20  -4   0   -0.66    0.72
 -20  -4   0    1.26    1.22
  20   4   0   -0.88    0.36
 -20  -4  -2  199.90   10.42
  20  -4   2  208.70   10.65
  20   4   2  213.37   10.69
  20  -4   4   -0.05    0.34
 -20  -4  -4    0.26    0.92
  20   4   4   -0.25    0.42
  20  -4   6    1.22    1.04
 -20  -4  -6    0.75    0.88
  20   4   6   -0.50    0.91
 -20  -4  -8  444.99   16.28
  20  -4   8  455.43   16.12
  20   4   8  446.62   16.22
  20  -4  10    0.50    0.52
 -20  -4 -10   -0.17    0.66
  20   4  10   -0.28    0.76
 -20  -4 -12    0.06    0.79
  20  -4  12   -0.51    0.83
 -20  -4 -14    2.29    0.94
  20  -4  14    1.81    0.98
 -20  -4 -16   -0.73    0.94
  20  -4  16    1.16    1.05
 -20  -4 -18   -0.59    1.13
  20  -4  18   -0.68    0.35
 -20  -4 -20   79.37    7.49
 -20  -4 -22    2.34    1.99
 -20  -4 -24   -0.72    1.05
 -20  -4 -26  171.81   11.62
 -20  -4 -28   -0.34    1.36
 -20  -4 -30    0.33    0.79
 -20  -4 -32  107.03    9.53
 -20  -4 -34    0.25    0.82
 -20  -4 -36    1.07    1.26
 -20  -4 -38   53.77    7.10
 -20  -4 -40   -1.48    1.43
  20  -5 -43   38.00    4.72
  20  -5 -41    1.06    1.16
 -20  -5  31   56.35    3.75
  20   5 -29    1.57    0.88
 -20  -5  29    0.37    0.27
  20   5 -27    0.24    0.41
 -20  -5  27    0.19    0.55
 -20  -5  25   26.80    3.06
  20   5 -25   27.03    3.12
 -20  -5  23   -1.10    0.71
  20   5 -23   -0.31    0.35
 -20  -5  21    0.41    0.42
  20   5 -21    0.09    0.37
 -20  -5  19   97.46    6.23
  20   5 -19   89.87    6.03
 -20  -5  17   -1.04    0.64
  20   5 -17    1.45    0.99
 -20  -5  15    0.39    0.37
  20   5 -15   -1.80    1.12
 -20  -5  13  126.37    7.54
  20   5 -13  119.57    7.32
 -20  -5  11   -0.78    0.79
  20   5 -11    0.08    0.49
 -20  -5   9   -0.98    0.98
  20   5  -9   -1.14    1.13
  20   5  -7  132.03    8.12
 -20  -5   7  133.17    8.12
 -20  -5   5    1.31    1.13
  20   5  -5    1.38    0.87
 -20  -5   3    0.50    1.02
  20   5  -3   -0.28    0.34
  20   5  -1  248.35   11.55
 -20  -5   1  245.72   11.50
  20  -5   1    0.07    0.56
 -20  -5  -1    0.40    0.82
  20   5   1    0.45    0.93
  20  -5   3    0.00    0.71
 -20  -5  -3    1.39    1.03
  20   5   3    0.96    1.03
  20  -5   5  226.61   11.62
  20   5   5  211.14   11.20
 -20  -5  -5  210.14   11.23
  20  -5   7    1.05    1.07
 -20  -5  -7    0.68    0.99
  20  -5   9    0.41    0.89
 -20  -5  -9    0.80    0.72
  20  -5  11  104.13    8.04
 -20  -5 -11   91.73    7.70
 -20  -5 -13    0.37    1.07
  20  -5  13    0.57    0.53
 -20  -5 -15    1.19    0.98
 -20  -5 -17  232.08   12.93
 -20  -5 -19    1.74    1.68
 -20  -5 -21   -0.21    0.78
 -20  -5 -23  139.84   10.54
 -20  -5 -25   -0.37    0.76
 -20  -5 -27   -0.66    1.26
 -20  -5 -29   79.01    8.23
 -20  -5 -31    1.48    1.47
 -20  -5 -33   -1.36    1.54
 -20  -5 -35    6.74    2.59
 -20  -5 -37    2.85    1.69
 -20  -5 -39    1.46    1.44
 -20  -5 -41   28.06    5.32
  20  -6 -44   -0.92    0.50
  20  -6 -42    1.32    1.00
 -20  -6  34   96.14    4.51
 -20  -6  32   -0.24    0.53
 -20  -6  30   -0.08    0.45
 -20  -6  28   61.77    4.59
 -20  -6  26    0.81    0.85
  20   6 -26   -0.63    0.52
 -20  -6  24   -0.83    0.73
  20   6 -24    0.04    0.60
 -20  -6  22  144.12    7.73
  20   6 -22  129.91    7.45
 -20  -6  20   -0.16    0.46
  20   6 -20    0.26    0.42
 -20  -6  18   -0.05    0.39
  20   6 -18    0.12    0.66
  20   6 -16  158.11    8.78
 -20  -6  16  155.62    8.59
 -20  -6  14   -0.86    0.63
  20   6 -14   -0.53    0.44
 -20  -6  12   -1.06    1.18
  20   6 -12    0.03    0.41
  20   6 -10   60.68    5.69
 -20  -6  10   53.61    5.17
 -20  -6   8   -1.15    1.46
  20   6  -8    0.14    0.69
 -20  -6   6   -1.23    1.08
  20   6  -6   -0.16    0.49
  20   6  -4  150.46    9.34
 -20  -6   4  144.86    8.99
 -20  -6   2   -0.39    0.67
  20   6  -2    0.11    0.93
 -20  -6   0    1.46    1.41
  20   6   0    1.17    1.06
 -20  -6  -2  328.51   14.19
 -20  -6  -4    0.93    1.05
 -20  -6  -6    0.16    0.63
 -20  -6  -8  130.45    9.36
 -20  -6 -10    1.66    1.11
 -20  -6 -12    0.96    1.13
 -20  -6 -14   94.05    8.24
 -20  -6 -16    0.94    0.45
 -20  -6 -18   -0.21    0.70
 -20  -6 -20  119.00    9.80
 -20  -6 -22   -0.64    1.75
 -20  -6 -24   -1.32    1.61
 -20  -6 -26   62.53    7.42
 -20  -6 -28    0.61    0.80
 -20  -6 -30   -2.37    1.80
 -20  -6 -32   31.80    5.49
 -20  -6 -34    1.40    1.37
 -20  -6 -36    0.01    1.45
 -20  -6 -38   63.71    8.19
 -20  -6 -40   -1.63    2.09
  20  -7 -43    7.48    2.41
  20  -7 -41   -0.90    1.39
 -20  -7  33    0.12    0.42
 -20  -7  31   76.40    5.16
 -20  -7  29   -0.66    0.68
 -20  -7  27   -0.12    0.43
 -20  -7  25  101.92    6.63
 -20  -7  23   -0.82    0.63
  20   7 -23    0.10    0.53
 -20  -7  21   -0.06    0.47
  20   7 -21    0.52    0.37
  20   7 -19  103.91    7.35
 -20  -7  19  108.64    7.25
 -20  -7  17   -0.49    0.73
  20   7 -17    1.30    0.96
 -20  -7  15   -0.34    0.45
  20   7 -15   -0.79    0.51
  20   7 -13   97.96    7.47
 -20  -7  13  101.92    7.39
 -20  -7  11   -0.65    0.58
  20   7 -11    1.00    1.00
 -20  -7   9    0.37    0.67
  20   7  -9   -0.47    0.76
  20   7  -7   44.60    5.30
 -20  -7   7   45.41    5.16
 -20  -7   5   -0.52    0.88
 -20  -7   3    0.54    0.51
 -20  -7   1  129.86    9.18
 -20  -7  -1    1.22    0.43
 -20  -7  -3   -0.21    0.55
 -20  -7  -5  203.04   11.74
 -20  -7  -7   -1.37    1.42
 -20  -7  -9   -0.20    0.63
 -20  -7 -11  116.74    9.27
 -20  -7 -13   -0.09    0.78
 -20  -7 -15   -2.24    1.39
 -20  -7 -17   60.29    6.98
 -20  -7 -19    0.08    0.95
 -20  -7 -21   -0.47    0.92
 -20  -7 -23   83.90    8.71
 -20  -7 -25    1.87    1.74
 -20  -7 -27    0.40    1.06
 -20  -7 -29   28.98    5.30
 -20  -7 -31   -0.69    0.54
 -20  -7 -33   -0.11    0.95
 -20  -7 -35   47.31    7.14
 -20  -7 -37   -0.31    1.15
 -20  -7 -39   -1.62    1.84
  20  -8 -44    0.16    0.91
  20  -8 -42    0.92    0.65
  20  -8 -40    9.31    3.01
 -20  -8  32   -0.44    0.28
 -20  -8  30    0.99    0.88
 -20  -8  28  114.16    7.19
 -20  -8  26    0.98    0.70
 -20  -8  24   -0.05    0.46
 -20  -8  22   48.09    4.90
 -20  -8  20   -0.82    1.18
 -20  -8  18    0.55    0.92
  20   8 -18    0.24    0.40
  20   8 -16  113.10    8.30
 -20  -8  16  114.50    8.02
 -20  -8  14    0.20    1.13
  20   8 -14    0.62    0.64
 -20  -8  12    0.75    1.36
 -20  -8  10   86.40    7.29
 -20  -8   8   -1.21    1.43
 -20  -8   6   -1.65    1.38
 -20  -8   4   25.15    4.03
 -20  -8   2   -1.39    1.39
 -20  -8   0   -0.91    1.40
 -20  -8  -2   77.40    7.46
 -20  -8  -4   -0.47    0.56
 -20  -8  -6   -0.64    0.50
 -20  -8  -8  100.59    8.91
 -20  -8 -10   -0.82    1.78
 -20  -8 -12   -0.38    0.56
 -20  -8 -14   94.89    8.97
 -20  -8 -16   -1.77    2.07
 -20  -8 -18    0.00    0.80
 -20  -8 -20   24.21    4.71
 -20  -8 -22   -1.00    1.47
 -20  -8 -24    0.89    0.55
 -20  -8 -26   38.79    6.26
 -20  -8 -28   -0.56    1.77
 -20  -8 -30   -1.01    1.79
 -20  -8 -32   36.03    6.30
 -20  -8 -34    1.32    1.24
  20  -9 -43    8.40    2.77
  20  -9 -41   -1.78    1.21
  20  -9 -39    0.42    1.12
 -20  -9  31   25.83    3.47
 -20  -9  29   -1.43    1.13
 -20  -9  27    1.17    0.87
 -20  -9  25   78.02    6.50
 -20  -9  23   -0.31    0.69
 -20  -9  21    2.48    1.44
 -20  -9  19   16.61    3.11
 -20  -9  17    0.67    0.36
 -20  -9  15   -0.84    1.09
 -20  -9  13   25.75    3.96
 -20  -9  11   -0.68    1.11
 -20  -9   9   -0.74    1.35
 -20  -9   7   48.71    5.85
 -20  -9   5   -1.95    1.51
 -20  -9   3   -0.61    0.88
 -20  -9   1   94.62    8.51
 -20  -9  -1   -0.19    0.86
 -20  -9  -3    0.55    0.76
 -20  -9  -5  139.31   10.89
 -20  -9  -7    0.37    0.98
 -20  -9  -9   -1.16    1.41
 -20  -9 -11  115.02   10.05
 -20  -9 -13   -1.36    1.37
 -20  -9 -15   -0.61    0.95
 -20  -9 -17   34.73    5.77
 -20  -9 -19   -1.81    1.25
 -20  -9 -21   -0.75    0.82
 -20  -9 -23   60.49    7.99
 -20  -9 -25    0.19    1.53
 -20  -9 -27    0.87    1.58
 -20  -9 -29   81.03    9.49
 -20  -9 -31    0.11    0.67
  20 -10 -44   -1.71    1.40
  20 -10 -42    0.84    1.34
  20 -10 -40   11.04    3.29
  20 -10 -38   -2.03    1.09
 -20 -10  30   -0.38    0.72
 -20 -10  28   16.70    3.10
 -20 -10  26   -0.57    1.16
 -20 -10  24    0.63    1.00
 -20 -10  22   49.97    5.63
 -20 -10  20    0.80    1.19
 -20 -10  18    1.91    1.67
 -20 -10  16   65.81    6.76
 -20 -10  14    0.48    1.03
 -20 -10  12   -1.37    1.28
 -20 -10  10   38.91    5.34
 -20 -10   8   -0.14    1.33
 -20 -10   6   -0.38    0.89
 -20 -10   4   92.96    8.62
 -20 -10   2   -0.59    1.26
 -20 -10   0   -1.22    1.17
 -20 -10  -2  105.62    9.47
 -20 -10  -4   -2.25    1.41
 -20 -10  -6    0.78    1.09
 -20 -10  -8   35.91    5.72
 -20 -10 -10    0.90    0.73
 -20 -10 -12   -2.87    2.29
 -20 -10 -14   38.99    6.20
 -20 -10 -16   -2.29    2.24
 -20 -10 -18    0.87    1.97
 -20 -10 -20   36.13    6.20
 -20 -10 -22    1.67    1.29
 -20 -10 -24    3.11    2.20
 -20 -10 -26   41.10    6.87
  20 -11 -41   -1.19    0.86
  20 -11 -39    2.36    1.71
  20 -11 -37   20.62    4.85
  20 -11 -35   -0.14    0.84
 -20 -11  27    0.72    0.76
 -20 -11  25   19.16    3.55
 -20 -11  23   -0.31    0.75
 -20 -11  21    0.55    0.54
 -20 -11  19   18.73    3.65
 -20 -11  17    0.11    1.03
 -20 -11  15    2.22    1.19
 -20 -11  13   18.84    3.97
 -20 -11  11   -2.70    1.89
 -20 -11   9    0.49    0.76
 -20 -11   7   23.04    4.36
 -20 -11   5   -1.14    1.51
 -20 -11   3    0.44    0.52
 -20 -11   1  102.68    9.59
 -20 -11  -1   -1.40    0.90
 -20 -11  -3   -0.13    0.71
 -20 -11  -5   33.86    5.79
 -20 -11  -7    0.20    0.68
 -20 -11  -9    0.64    1.50
 -20 -11 -11   30.04    5.59
 -20 -11 -13    0.58    0.56
 -20 -11 -15    0.92    1.24
 -20 -11 -17   19.33    4.59
 -20 -11 -19    2.36    2.27
 -20 -12  26   -0.10    0.60
 -20 -12  24   -0.80    0.86
 -20 -12  22   21.79    4.14
 -20 -12  20    0.95    1.16
 -20 -12  18   -0.24    0.89
 -20 -12  16    0.27    0.63
 -20 -12  14   -0.97    0.97
 -20 -12  12    1.31    1.29
 -20 -12  10   31.03    5.36
 -20 -12   8   -0.81    0.78
 -20 -12   6   -1.20    1.10
 -20 -12   4   65.01    7.82
 -20 -12   2    0.33    0.88
 -20 -12   0   -0.41    0.50
 -20 -12  -2   45.48    6.88
 -20 -12  -4    1.28    1.65
 -20 -12  -6   -3.02    1.89
 -20 -12  -8   28.67    5.46
 -20 -12 -10   -1.16    0.89
 -20 -12 -12    0.34    0.81
 -20 -12 -14   38.89    6.75
 -20 -13  23   -1.85    1.57
 -20 -13  21    3.43    1.54
 -20 -13  19   12.41    3.41
 -20 -13  17    1.43    1.04
 -20 -13  15    0.77    0.98
 -20 -13  13   15.28    3.77
 -20 -13  11    3.11    1.72
 -20 -13   9    1.12    1.89
 -20 -13   7   27.29    5.30
 -20 -13   5    1.97    1.91
 -20 -13   3    0.22    1.37
 -20 -13   1   24.64    5.26
 -20 -13  -1    0.79    1.07
 -20 -13  -3    1.40    1.71
 -20 -13  -5   15.49    4.30
 -20 -14  22    7.09    2.72
 -20 -14  20    2.02    1.32
 -20 -14  18   -0.09    0.99
 -20 -14  16   11.19    3.29
 -20 -14  14    1.38    1.61
 -20 -14  12    1.01    1.56
 -20 -14  10    6.99    2.66
 -20 -14   8    0.21    1.10
 -20 -14   6    2.76    2.14
 -20 -14   4   18.60    4.73
  21   0 -39    0.05    0.27
  21   0 -37    0.16    0.48
  21   0 -35   -0.12    0.56
  21   0 -33   -0.61    0.61
  21   0 -31    1.89    0.89
  21   0 -29    1.12    0.67
  21   0 -27    0.68    0.62
  21   0 -25    0.65    0.87
  21   0 -23    2.71    1.00
  21   0 -21   -0.45    0.39
  21   0 -19    0.77    0.97
  21   0 -17   10.64    2.30
  21   0 -15    0.83    0.91
  21   0 -13   -1.06    1.10
 -21   0  11   -1.47    1.02
  21   0 -11   -0.03    0.35
 -21   0   9   -0.03    0.67
  21   0  -9   -0.44    0.58
 -21   0   7   -0.45    0.64
  21   0  -7    0.58    0.66
 -21   0   5   -0.66    0.95
  21   0  -5    1.26    0.89
 -21   0   3    0.65    0.93
  21   0  -3   -0.77    0.92
 -21   0   1   -0.49    0.78
  21   0  -1   -0.03    0.61
 -21   0  -1    1.28    1.00
  21   0   1    0.89    0.98
 -21   0  -3   -0.28    0.85
  21   0   3   -0.54    0.83
 -21   0  -5    0.76    0.70
  21   0   5   -0.02    0.46
 -21   0  -7    0.55    0.67
  21   0   7   -0.08    0.93
 -21   0  -9    0.30    0.37
  21   0   9    0.61    0.73
 -21   0 -11    0.48    0.99
  21   0  11    0.97    1.04
 -21   0 -13    1.56    1.70
  21   0  13   -0.07    0.61
 -21   0 -15    2.74    1.40
  21   0  15    1.90    1.24
 -21   0 -17    3.34    2.50
  21   0  17    3.97    2.23
 -21   0 -19    4.26    2.48
 -21   0 -21    6.41    2.18
 -21   0 -23   -0.64    0.67
 -21   0 -25   -0.06    0.82
 -21   0 -27    0.54    0.83
 -21   0 -29   -0.60    1.11
 -21   0 -31    1.74    1.30
 -21   0 -33    0.80    1.16
 -21   0 -35    0.11    0.90
 -21   0 -37   -0.79    0.57
  21  -1 -38    0.09    0.41
  21   1 -38   -0.21    0.21
  21  -1 -36    9.29    1.77
  21   1 -36    7.65    1.17
  21  -1 -34   -0.25    0.51
  21   1 -34    0.99    0.68
  21  -1 -32    1.04    0.72
  21   1 -32    0.84    0.63
  21  -1 -30   10.44    1.92
  21   1 -30   10.10    1.69
  21  -1 -28    0.09    0.33
  21   1 -28   -0.04    0.42
  21  -1 -26    0.51    0.75
  21   1 -26    1.91    1.00
  21  -1 -24    1.98    0.78
  21   1 -24    1.75    0.78
  21  -1 -22    1.31    0.79
  21   1 -22    1.66    1.18
  21  -1 -20    0.11    0.46
  21   1 -20    1.64    1.05
  21  -1 -18    1.99    0.72
  21   1 -18    2.77    1.07
  21  -1 -16    0.53    1.02
 -21  -1  16    0.78    1.00
  21   1 -16    1.57    1.47
  21  -1 -14   -0.57    0.54
 -21  -1  14   -0.40    0.63
  21   1 -14    1.17    0.80
 -21  -1  12   65.92    5.15
  21   1 -12   60.18    4.88
  21  -1 -12   55.58    4.91
 -21  -1  10   -1.54    1.04
  21  -1 -10   -1.20    0.99
  21   1 -10   -0.15    0.27
 -21  -1   8   -0.76    0.81
  21  -1  -8   -1.01    1.24
  21   1  -8    1.00    0.80
 -21  -1   6   42.79    4.38
  21  -1  -6   41.56    4.26
  21   1  -6   42.27    4.23
 -21  -1   4    1.14    1.06
  21  -1  -4   -0.30    0.86
  21   1  -4    0.61    0.72
 -21   1   2    0.61    0.91
 -21  -1   2   -0.35    0.84
  21  -1  -2   -0.35    0.53
  21   1  -2    1.10    1.02
  21  -1   0    0.58    0.56
 -21   1   0    0.92    0.87
 -21  -1   0    0.40    0.74
  21   1   0    0.21    0.62
 -21  -1  -2   -0.43    0.78
 -21   1  -2   -0.41    0.69
  21  -1   2    0.98    0.87
  21   1   2    0.43    0.68
 -21   1  -4   -0.20    0.90
 -21  -1  -4   -0.55    0.55
  21  -1   4    0.61    0.32
  21   1   4    1.34    1.14
 -21   1  -6   58.64    5.64
  21  -1   6   59.80    5.53
 -21  -1  -6   56.08    5.43
  21   1   6   61.11    5.56
 -21   1  -8   -0.02    0.40
 -21  -1  -8   -0.43    0.45
  21  -1   8    0.30    0.79
  21   1   8    1.02    0.95
 -21   1 -10    1.02    1.15
 -21  -1 -10    0.18    0.35
  21   1  10    0.68    1.09
  21  -1  10   -0.25    0.75
 -21   1 -12   41.39    4.90
 -21  -1 -12   45.53    5.14
  21  -1  12   45.00    4.98
  21   1  12   42.09    4.84
 -21   1 -14    2.40    2.00
 -21  -1 -14    1.29    1.68
  21  -1  14    1.39    1.25
  21   1  14    0.13    0.60
 -21  -1 -16    3.22    2.34
 -21   1 -16    2.23    2.04
  21  -1  16    1.60    1.75
  21   1  16    2.30    1.62
  21  -1  18    1.06    1.09
 -21  -1 -18    1.58    1.70
 -21   1 -18    1.54    1.33
 -21  -1 -20   -0.28    0.78
 -21   1 -20    1.94    1.51
 -21  -1 -22    1.42    1.48
 -21   1 -22    1.09    1.16
 -21   1 -24    0.96    1.39
 -21  -1 -24   -0.86    1.07
 -21   1 -26    1.09    1.02
 -21  -1 -26   -1.45    1.12
 -21  -1 -28    0.46    0.97
 -21   1 -28    1.87    1.57
 -21  -1 -30    5.78    2.14
 -21  -1 -32    0.50    1.18
 -21  -1 -34   -0.71    1.13
 -21  -1 -36    3.88    1.86
 -21  -1 -38   -0.70    0.94
  21  -2 -39    0.14    0.29
  21  -2 -37    2.41    1.08
  21   2 -37    0.08    0.21
  21  -2 -35   -0.09    0.46
  21   2 -35    0.62    0.43
  21  -2 -33    9.84    1.91
  21   2 -33   10.50    1.46
  21  -2 -31   -0.31    0.41
  21   2 -31   -0.78    0.53
  21  -2 -29    0.24    0.48
  21   2 -29   -0.29    0.48
  21  -2 -27    1.25    0.59
  21   2 -27    0.95    0.42
  21  -2 -25   -0.01    0.41
  21   2 -25    0.04    0.40
  21  -2 -23    0.36    0.64
  21   2 -23    0.55    0.69
  21  -2 -21   22.13    3.09
 -21  -2  21   23.72    2.90
  21   2 -21   22.43    2.74
  21  -2 -19    0.17    0.56
 -21  -2  19    1.68    1.21
  21   2 -19    1.42    1.22
  21  -2 -17   -0.59    0.86
 -21  -2  17    0.40    0.65
  21   2 -17    0.26    0.47
  21  -2 -15   15.47    2.61
 -21  -2  15   14.29    2.32
  21   2 -15   13.64    2.21
 -21  -2  13   -0.42    0.50
  21  -2 -13    1.34    0.92
  21   2 -13    0.79    1.07
 -21  -2  11    1.21    0.87
  21  -2 -11   -0.29    0.66
  21   2 -11    0.82    1.03
  21  -2  -9    1.33    0.58
 -21  -2   9    3.69    1.58
  21   2  -9    3.34    1.31
  21  -2  -7   -1.51    1.40
 -21  -2   7    0.79    0.77
  21   2  -7    0.77    0.74
  21  -2  -5   -1.04    1.05
 -21  -2   5   -0.46    0.44
  21   2  -5   -0.49    0.54
  21  -2  -3   25.23    3.49
 -21  -2   3   23.46    3.36
  21   2  -3   24.83    3.34
 -21  -2   1   -0.50    0.64
  21  -2  -1   -1.21    0.97
  21   2  -1    0.88    1.00
 -21  -2  -1   -0.90    0.35
  21  -2   1    0.44    0.83
  21   2   1    0.83    0.74
 -21  -2  -3    1.14    0.55
  21  -2   3    0.86    0.66
  21   2   3    0.25    0.40
  21  -2   5   -0.85    0.88
 -21  -2  -5    0.02    0.57
  21   2   5   -0.87    0.66
 -21  -2  -7    1.04    1.01
  21  -2   7    1.39    1.09
  21   2   7   -0.48    0.39
  21  -2   9   80.55    6.55
 -21  -2  -9   83.38    6.87
  21   2   9   80.61    6.61
 -21  -2 -11    0.56    0.97
  21  -2  11   -1.19    0.46
  21   2  11   -1.26    1.04
 -21  -2 -13   -0.35    0.56
  21  -2  13    0.70    0.99
  21   2  13   -0.80    0.56
  21  -2  15    0.67    0.91
 -21  -2 -15   -0.09    0.49
  21  -2  17    0.08    0.31
 -21  -2 -17   -0.15    1.06
  21  -2  19    0.48    0.36
 -21  -2 -19    0.50    1.14
 -21  -2 -21    1.35    1.21
 -21  -2 -23    0.09    0.71
 -21  -2 -25    3.79    2.34
 -21  -2 -27    0.53    0.70
 -21  -2 -29    1.26    1.44
 -21  -2 -31    1.99    2.01
 -21  -2 -33    4.69    2.07
 -21  -2 -35    2.59    1.68
 -21  -2 -37    1.70    1.45
 -21  -2 -39   -0.82    1.24
  21  -3 -38   -0.15    0.29
  21  -3 -36   12.20    2.44
  21  -3 -34   -0.71    0.65
  21   3 -34   -0.22    0.25
  21  -3 -32    0.32    0.41
  21   3 -32   -0.30    0.20
  21   3 -30   16.97    2.07
  21   3 -28    0.42    0.52
 -21  -3  26   -0.10    0.28
  21   3 -26   -0.53    0.38
 -21  -3  24   80.81    5.13
  21   3 -24   76.54    4.91
 -21  -3  22    0.80    0.28
  21   3 -22   -0.15    0.53
  21  -3 -20   -1.36    1.31
 -21  -3  20   -0.81    0.85
  21   3 -20    0.18    0.69
  21  -3 -18   17.42    2.76
 -21  -3  18   16.78    2.53
  21   3 -18   16.69    2.49
 -21  -3  16    0.50    0.39
  21  -3 -16   -1.28    0.94
  21   3 -16    1.28    1.08
  21  -3 -14    0.10    0.78
 -21  -3  14   -1.25    1.00
  21   3 -14    0.96    1.08
  21  -3 -12   24.32    3.43
 -21  -3  12   26.08    3.44
  21   3 -12   27.51    3.34
  21  -3 -10    1.56    1.30
 -21  -3  10    1.16    0.90
  21   3 -10   -0.19    0.34
  21  -3  -8    1.49    1.15
 -21  -3   8    1.31    0.76
  21   3  -8    2.06    1.41
  21  -3  -6   48.49    4.91
 -21  -3   6   46.96    4.70
  21   3  -6   52.24    4.84
  21  -3  -4   -0.22    0.48
 -21  -3   4   -0.71    1.10
  21   3  -4    0.35    0.56
  21  -3  -2   -0.57    0.87
 -21  -3   2   -0.95    0.91
  21   3  -2   -0.43    0.60
  21  -3   0    9.94    2.28
 -21  -3   0    8.32    1.94
  21   3   0   13.84    2.68
  21  -3   2    1.33    1.29
 -21  -3  -2    0.22    1.08
  21   3   2    1.07    1.12
  21  -3   4    0.79    1.03
 -21  -3  -4    0.07    0.54
  21   3   4    0.63    1.08
 -21  -3  -6   59.57    5.77
  21  -3   6   61.45    5.83
  21   3   6   57.17    5.60
  21  -3   8    1.03    1.22
 -21  -3  -8   -1.10    0.62
  21   3   8    0.05    0.43
  21  -3  10    0.29    0.75
 -21  -3 -10   -1.16    1.03
  21   3  10    0.13    0.40
 -21  -3 -12   -0.14    0.79
  21  -3  12   -1.38    1.12
  21  -3  14   -0.62    1.17
 -21  -3 -14    0.05    0.75
  21  -3  16    0.46    0.76
 -21  -3 -16   -2.17    1.52
 -21  -3 -18    4.75    1.67
  21  -3  18    4.06    1.12
 -21  -3 -20   -0.28    0.65
 -21  -3 -22    0.76    1.11
 -21  -3 -24   58.78    6.65
 -21  -3 -26    1.12    1.73
 -21  -3 -28    2.82    2.23
 -21  -3 -30    0.15    0.61
 -21  -3 -32    0.86    1.50
 -21  -3 -34    1.59    1.72
 -21  -3 -36    2.16    1.38
 -21  -3 -38    0.37    1.17
 -21  -3 -40   -1.19    1.26
  21  -4 -43    1.46    1.33
  21   4 -33   34.68    2.75
  21   4 -31    0.23    0.47
 -21  -4  29    0.42    0.32
  21   4 -29    0.96    0.69
 -21  -4  27   12.95    1.96
  21   4 -27   11.55    1.86
 -21  -4  25   -0.51    0.67
  21   4 -25   -0.35    0.32
 -21  -4  23   -0.68    0.36
  21   4 -23   -0.62    0.64
 -21  -4  21   10.89    2.01
  21   4 -21   11.92    2.09
 -21  -4  19   -0.85    0.92
  21   4 -19   -0.40    0.46
 -21  -4  17    0.26    0.64
  21   4 -17   -0.22    0.61
 -21  -4  15    5.77    1.75
  21   4 -15    7.49    1.65
 -21  -4  13    0.84    0.81
  21   4 -13    1.30    1.09
 -21  -4  11    0.96    1.24
  21   4 -11    0.35    0.49
  21  -4  -9   69.20    5.98
 -21  -4   9   67.12    5.62
  21   4  -9   72.75    5.80
  21  -4  -7    1.23    1.44
 -21  -4   7    1.99    1.31
  21   4  -7    1.32    1.31
  21  -4  -5    1.53    1.66
 -21  -4   5    1.81    1.34
  21   4  -5    1.27    1.39
  21  -4  -3   62.03    5.81
 -21  -4   3   61.57    5.66
  21   4  -3   63.82    5.67
  21  -4  -1   -0.45    0.77
 -21  -4   1   -0.30    0.62
  21   4  -1    0.75    0.54
  21  -4   1   -0.35    0.49
 -21  -4  -1   -1.40    1.67
  21   4   1   -0.56    0.87
 -21  -4  -3   25.38    3.82
  21  -4   3   22.21    3.59
  21   4   3   24.79    3.81
  21  -4   5   -0.26    0.80
 -21  -4  -5    1.59    1.67
  21   4   5   -0.46    0.40
  21  -4   7   -0.44    0.61
 -21  -4  -7   -0.83    0.89
  21   4   7   -0.04    0.57
 -21  -4  -9    0.04    0.92
  21  -4   9    0.01    0.40
 -21  -4 -11    0.48    1.07
  21  -4  11   -0.60    0.44
 -21  -4 -13   -0.15    0.95
  21  -4  13    0.37    0.57
 -21  -4 -15   24.77    4.19
 -21  -4 -17    2.96    2.13
 -21  -4 -19    1.01    1.29
 -21  -4 -21  107.45    8.97
 -21  -4 -23   -0.64    0.66
 -21  -4 -25   -0.33    0.74
 -21  -4 -27    3.77    1.98
 -21  -4 -29    1.04    1.55
 -21  -4 -31    2.58    1.67
 -21  -4 -33   -0.43    1.06
 -21  -4 -35   -0.27    0.48
 -21  -4 -37   -0.50    1.10
 -21  -4 -39    0.07    1.07
  21  -5 -44    2.27    1.48
  21  -5 -42    0.46    0.75
 -21  -5  32   -0.41    0.45
  21   5 -30   58.10    4.27
 -21  -5  30   60.20    4.27
  21   5 -28   -1.60    0.98
 -21  -5  28   -0.13    0.57
  21   5 -26   -0.31    0.44
 -21  -5  26    0.54    0.55
 -21  -5  24   75.82    5.38
  21   5 -24   72.45    5.32
 -21  -5  22    0.81    0.75
  21   5 -22    0.75    0.95
 -21  -5  20   -0.52    0.50
  21   5 -20   -0.04    0.27
 -21  -5  18   26.04    3.35
  21   5 -18   22.94    3.15
 -21  -5  16   -0.39    0.53
  21   5 -16   -0.24    0.38
 -21  -5  14   -0.44    0.47
  21   5 -14   -1.47    1.23
 -21  -5  12    2.30    1.05
  21   5 -12    1.20    0.33
 -21  -5  10    1.20    1.28
  21   5 -10    0.69    1.07
 -21  -5   8   -0.53    0.75
  21   5  -8    0.65    0.46
 -21  -5   6   46.44    4.98
  21   5  -6   46.40    4.89
 -21  -5   4    3.01    1.93
  21   5  -4    0.69    1.18
  21  -5  -2   -0.14    0.75
 -21  -5   2    0.88    1.06
  21   5  -2   -0.25    0.42
  21  -5   0   31.88    4.35
  21   5   0   39.05    4.77
 -21  -5   0   35.99    4.57
  21  -5   2    0.81    0.77
 -21  -5  -2    0.37    0.39
  21   5   2    1.03    0.91
 -21  -5  -4    1.01    1.27
  21  -5   4   -0.36    0.45
 -21  -5  -6   -1.89    1.18
  21  -5   6   -0.42    0.44
 -21  -5  -8   -0.27    0.66
  21  -5   8   -0.08    0.98
 -21  -5 -10    0.88    0.97
 -21  -5 -12    0.39    0.43
 -21  -5 -14    0.01    0.59
 -21  -5 -16    0.39    1.39
 -21  -5 -18  220.88   13.02
 -21  -5 -20    0.93    1.31
 -21  -5 -22    1.38    0.94
 -21  -5 -24   -1.73    1.86
 -21  -5 -26    0.82    0.86
 -21  -5 -28    0.07    0.99
 -21  -5 -30    3.10    1.60
 -21  -5 -32    1.34    1.55
 -21  -5 -34    0.11    0.87
 -21  -5 -36    0.69    1.23
 -21  -5 -38    3.92    2.73
 -21  -5 -40   -2.19    1.92
  21  -6 -43    0.06    0.57
 -21  -6  33    1.82    0.68
 -21  -6  31    0.12    0.33
 -21  -6  29   -0.47    0.56
 -21  -6  27   25.09    3.10
  21   6 -27   21.28    2.93
 -21  -6  25    0.46    0.43
  21   6 -25    0.21    0.30
 -21  -6  23    0.02    0.63
  21   6 -23    0.68    0.75
 -21  -6  21   22.80    3.24
  21   6 -21   22.10    3.19
 -21  -6  19    0.29    0.88
  21   6 -19    0.82    1.02
 -21  -6  17    0.22    0.54
  21   6 -17   -0.64    0.68
 -21  -6  15   -0.12    0.57
  21   6 -15   -1.12    0.69
 -21  -6  13    0.19    0.73
  21   6 -13    3.96    1.71
 -21  -6  11   -1.01    1.22
  21   6 -11    0.90    0.91
 -21  -6   9    1.42    0.93
  21   6  -9    2.04    1.05
 -21  -6   7    0.47    0.78
  21   6  -7    1.69    1.33
 -21  -6   5    0.56    0.71
  21   6  -5    0.75    1.02
 -21  -6   3   -0.87    1.20
  21   6  -3    0.32    0.84
 -21  -6   1    0.79    1.12
 -21  -6  -1    2.81    1.54
 -21  -6  -3   -1.19    1.04
 -21  -6  -5   -1.27    0.54
 -21  -6  -7    2.17    1.65
 -21  -6  -9   -2.09    1.69
 -21  -6 -11    1.09    1.48
 -21  -6 -13    0.99    1.04
 -21  -6 -15    1.11    0.47
 -21  -6 -17    3.86    2.08
 -21  -6 -19    0.66    1.01
 -21  -6 -21    6.37    2.00
 -21  -6 -23   -0.76    1.07
 -21  -6 -25    1.51    1.58
 -21  -6 -27   10.70    2.96
 -21  -6 -29    0.48    1.00
 -21  -6 -31    0.43    0.88
 -21  -6 -33    9.23    3.24
 -21  -6 -35    1.88    2.27
 -21  -6 -37    1.49    1.60
 -21  -6 -39    3.81    2.31
  21  -7 -44   -1.07    1.20
  21  -7 -42    4.59    1.84
 -21  -7  32    0.74    0.68
 -21  -7  30    2.70    1.04
 -21  -7  28    0.65    0.83
 -21  -7  26    0.37    0.80
 -21  -7  24   11.66    2.31
  21   7 -24   11.50    2.39
 -21  -7  22   -1.01    0.93
  21   7 -22   -0.74    0.88
 -21  -7  20    0.82    0.71
  21   7 -20   -0.87    0.76
 -21  -7  18   16.01    2.99
  21   7 -18   12.76    2.61
 -21  -7  16    1.53    1.30
  21   7 -16    1.16    1.23
 -21  -7  14    1.33    1.20
  21   7 -14    0.34    0.77
 -21  -7  12   16.01    2.99
  21   7 -12   16.80    3.19
 -21  -7  10   -0.28    0.66
  21   7 -10   -0.22    0.69
 -21  -7   8   -0.13    0.49
  21   7  -8    0.32    0.43
 -21  -7   6   -0.56    1.00
 -21  -7   4    0.07    0.66
 -21  -7   2    0.58    1.36
 -21  -7   0   -0.88    1.23
 -21  -7  -2    1.90    1.38
 -21  -7  -4    3.43    2.03
 -21  -7  -6   -0.53    1.15
 -21  -7  -8    0.94    1.60
 -21  -7 -10    0.55    1.18
 -21  -7 -12   29.93    4.81
 -21  -7 -14    1.74    2.25
 -21  -7 -16   -1.12    1.39
 -21  -7 -18   -0.96    1.72
 -21  -7 -20    0.53    1.22
 -21  -7 -22    2.70    2.05
 -21  -7 -24   -1.00    1.60
 -21  -7 -26    0.48    0.66
 -21  -7 -28    0.38    0.50
 -21  -7 -30    4.69    1.75
 -21  -7 -32    2.29    2.08
 -21  -7 -34    1.11    1.61
 -21  -7 -36    0.95    1.22
  21  -8 -43    0.04    0.99
  21  -8 -41    0.07    0.97
 -21  -8  31    1.88    1.22
 -21  -8  29    2.37    1.29
 -21  -8  27    3.24    1.26
 -21  -8  25   -0.35    0.64
 -21  -8  23   -0.22    0.65
 -21  -8  21   11.63    2.52
 -21  -8  19   -0.59    0.80
  21   8 -19    0.35    0.55
 -21  -8  17    3.46    1.55
  21   8 -17    2.11    1.61
  21   8 -15   48.13    5.60
 -21  -8  15   49.71    5.39
 -21  -8  13    1.36    1.17
 -21  -8  11    2.48    1.58
 -21  -8   9    1.39    0.55
 -21  -8   7    1.20    0.77
 -21  -8   5   -1.63    1.56
 -21  -8   3   -1.54    1.42
 -21  -8   1    0.34    0.83
 -21  -8  -1   -0.91    0.74
 -21  -8  -3    2.96    1.18
 -21  -8  -5    1.36    1.35
 -21  -8  -7    1.79    1.96
 -21  -8  -9    4.89    1.88
 -21  -8 -11    2.93    2.19
 -21  -8 -13    1.65    1.48
 -21  -8 -15   -1.22    1.93
 -21  -8 -17    0.02    0.88
 -21  -8 -19    0.79    0.96
 -21  -8 -21   15.10    3.72
 -21  -8 -23    1.67    1.77
 -21  -8 -25    3.87    2.68
 -21  -8 -27    8.57    2.90
 -21  -8 -29    1.86    2.57
 -21  -8 -31    4.76    2.59
 -21  -8 -33   -1.14    1.68
  21  -9 -44   -0.24    1.20
  21  -9 -42   -0.68    0.63
  21  -9 -40    3.00    1.91
 -21  -9  30    0.78    0.36
 -21  -9  28    0.75    0.73
 -21  -9  26    1.08    1.20
 -21  -9  24    1.30    1.26
 -21  -9  22    2.04    1.41
 -21  -9  20    1.49    1.26
 -21  -9  18    2.94    1.18
 -21  -9  16    2.06    1.69
 -21  -9  14   -0.30    1.00
 -21  -9  12    8.36    2.30
 -21  -9  10    0.63    1.05
 -21  -9   8   -0.58    0.83
 -21  -9   6   -0.41    0.59
 -21  -9   4    1.16    1.21
 -21  -9   2   -0.93    1.55
 -21  -9   0    7.89    2.46
 -21  -9  -2    0.02    0.60
 -21  -9  -4    1.22    1.23
 -21  -9  -6   -1.52    1.74
 -21  -9  -8    0.19    1.76
 -21  -9 -10    2.76    2.11
 -21  -9 -12    3.56    1.91
 -21  -9 -14   -0.48    1.12
 -21  -9 -16    0.58    0.54
 -21  -9 -18   19.38    4.43
 -21  -9 -20    1.13    1.33
 -21  -9 -22    1.75    1.79
 -21  -9 -24    1.45    1.17
 -21  -9 -26    1.69    1.93
 -21  -9 -28    3.43    2.20
  21 -10 -43    0.99    0.93
  21 -10 -41    1.19    1.66
  21 -10 -39   -0.47    0.94
 -21 -10  29    1.32    0.58
 -21 -10  27    0.48    0.59
 -21 -10  25    0.91    1.23
 -21 -10  23    1.13    1.20
 -21 -10  21    2.28    1.55
 -21 -10  19   -0.13    0.37
 -21 -10  17    0.94    0.95
 -21 -10  15   21.63    3.90
 -21 -10  13   -1.50    1.47
 -21 -10  11   -1.27    1.52
 -21 -10   9   -2.30    1.88
 -21 -10   7    0.08    0.65
 -21 -10   5    0.08    0.65
 -21 -10   3    1.11    1.22
 -21 -10   1    0.81    1.44
 -21 -10  -1    1.35    1.47
 -21 -10  -3   12.89    3.42
 -21 -10  -5   -1.24    1.05
 -21 -10  -7   -0.96    1.50
 -21 -10  -9    2.16    1.55
 -21 -10 -11    0.54    1.36
 -21 -10 -13    2.59    1.41
 -21 -10 -15   -0.73    0.80
 -21 -10 -17    1.20    1.24
 -21 -10 -19    1.20    1.60
 -21 -10 -21    1.07    1.85
 -21 -10 -23    2.23    2.03
  21 -11 -40    0.04    0.64
  21 -11 -38    1.58    1.63
  21 -11 -36    4.42    2.43
 -21 -11  28   -1.41    1.16
 -21 -11  26   -0.33    0.73
 -21 -11  24    0.55    1.06
 -21 -11  22    0.32    0.59
 -21 -11  20    0.59    0.62
 -21 -11  18   -0.83    1.25
 -21 -11  16    3.30    1.74
 -21 -11  14    1.50    1.17
 -21 -11  12   -1.75    0.92
 -21 -11  10    0.36    0.67
 -21 -11   8    1.81    1.46
 -21 -11   6   -0.29    0.71
 -21 -11   4    0.51    1.03
 -21 -11   2    1.57    1.29
 -21 -11   0    2.35    1.38
 -21 -11  -2    0.34    0.91
 -21 -11  -4    0.95    1.49
 -21 -11  -6    9.60    3.18
 -21 -11  -8    3.53    2.22
 -21 -11 -10    0.51    1.51
 -21 -11 -12   -1.67    1.77
 -21 -11 -14   -0.59    0.65
 -21 -11 -16    0.38    1.52
 -21 -11 -18    1.71    1.67
 -21 -12  25    0.00    0.39
 -21 -12  23    0.11    0.87
 -21 -12  21   -1.74    1.47
 -21 -12  19   -0.80    1.14
 -21 -12  17    0.01    0.71
 -21 -12  15   -1.54    0.87
 -21 -12  13    0.91    1.54
 -21 -12  11    1.76    1.42
 -21 -12   9   -0.87    1.02
 -21 -12   7   -0.14    0.78
 -21 -12   5   -1.37    1.01
 -21 -12   3    1.42    1.14
 -21 -12   1   -0.42    1.07
 -21 -12  -1    1.47    0.84
 -21 -12  -3    0.03    0.75
 -21 -12  -5   -1.08    1.17
 -21 -12  -7    1.12    1.48
 -21 -12  -9    1.89    1.39
 -21 -12 -11   -1.13    0.93
 -21 -13  24   -0.35    1.31
 -21 -13  22   -1.49    1.69
 -21 -13  20    0.03    0.81
 -21 -13  18   -3.65    1.95
 -21 -13  16    1.02    1.28
 -21 -13  14   -0.97    1.19
 -21 -13  12    1.08    1.30
 -21 -13  10    1.43    0.94
 -21 -13   8    3.31    1.91
 -21 -13   6    2.51    2.04
 -21 -13   4    1.76    1.22
 -21 -13   2   -2.20    2.07
 -21 -13   0   -0.29    0.60
 -21 -13  -2    4.25    2.28
 -21 -13  -4    1.02    0.81
 -21 -14  21   -2.15    1.19
 -21 -14  19    3.24    1.93
 -21 -14  17    3.34    2.20
 -21 -14  15    0.19    1.00
 -21 -14  13   -2.58    1.86
 -21 -14  11    0.45    1.07
 -21 -14   9   -0.85    0.86
 -21 -14   7    1.45    1.27
  22   0 -38   56.72    3.67
  22   0 -36    1.09    0.58
  22   0 -34    0.09    0.28
  22   0 -32  168.76    7.27
  22   0 -30   -0.47    0.44
  22   0 -28   -0.26    0.58
  22   0 -26  191.24    8.15
  22   0 -24   -1.23    1.11
  22   0 -22   -0.28    0.84
  22   0 -20  159.18    7.82
  22   0 -18   -1.10    1.16
  22   0 -16   -0.55    0.80
  22   0 -14   58.06    4.85
  22   0 -12    0.22    0.63
 -22   0  10   -1.10    0.84
  22   0 -10    0.46    0.51
 -22   0   8  310.74   11.97
  22   0  -8  327.67   12.08
 -22   0   6   -1.11    1.00
  22   0  -6   -0.59    1.10
 -22   0   4   -1.26    1.18
  22   0  -4   -0.46    0.69
 -22   0   2  162.31    8.95
  22   0  -2  170.93    9.10
 -22   0   0    0.03    0.59
  22   0   0   -0.22    0.55
 -22   0  -2    0.30    0.67
  22   0   2   -0.35    0.71
 -22   0  -4  145.67    8.75
  22   0   4  154.64    9.03
 -22   0  -6   -0.31    0.87
  22   0   6   -0.44    0.39
 -22   0  -8   -0.17    0.64
  22   0   8    0.39    0.60
 -22   0 -10  353.83   14.44
  22   0  10  370.02   14.44
 -22   0 -12   -1.07    1.32
  22   0  12    0.67    0.70
 -22   0 -14    0.56    0.72
  22   0  14    0.49    0.74
 -22   0 -16  625.92   19.89
 -22   0 -18    0.58    0.75
 -22   0 -20    1.13    0.85
 -22   0 -22  175.23   10.91
 -22   0 -24   -0.93    1.67
 -22   0 -26   -2.07    1.63
 -22   0 -28   26.48    4.42
 -22   0 -30   -1.28    1.74
 -22   0 -32    0.89    0.79
 -22   0 -34  129.21   10.10
 -22   0 -36   -0.43    0.70
  22  -1 -39   -1.07    0.75
  22  -1 -37   -0.09    0.52
  22   1 -37    0.79    0.52
  22  -1 -35   89.28    5.52
  22   1 -35   90.08    4.54
  22  -1 -33   -0.07    0.48
  22   1 -33    1.28    0.82
  22  -1 -31   -0.14    0.60
  22   1 -31   -0.10    0.59
  22  -1 -29   64.03    4.93
  22   1 -29   67.44    4.53
  22  -1 -27   -1.56    1.00
  22   1 -27   -0.24    0.64
  22  -1 -25    0.11    0.28
  22   1 -25   -0.02    0.53
  22  -1 -23  278.63   10.52
  22   1 -23  265.79    9.69
  22  -1 -21   -0.66    0.76
  22   1 -21   -0.27    0.78
  22  -1 -19   -0.28    0.65
  22   1 -19   -0.67    0.71
 -22  -1  17  338.54   11.65
  22   1 -17  339.73   11.53
  22  -1 -17  329.03   11.80
 -22  -1  15   -0.72    0.91
  22  -1 -15    0.60    1.00
  22   1 -15    0.16    0.70
 -22  -1  13   -0.79    0.65
  22  -1 -13    0.25    0.72
  22   1 -13   -0.39    0.53
 -22  -1  11   71.34    5.56
  22  -1 -11   69.96    5.63
  22   1 -11   70.48    5.45
 -22  -1   9   -0.91    1.19
  22  -1  -9   -0.84    1.00
  22   1  -9   -0.06    0.72
 -22  -1   7   -0.59    0.91
  22  -1  -7   -0.70    1.16
  22   1  -7    0.65    0.48
 -22  -1   5  333.67   12.69
  22  -1  -5  330.39   12.58
  22   1  -5  336.06   12.43
 -22  -1   3   -0.37    0.80
  22  -1  -3   -0.25    0.36
  22   1  -3    0.68    0.87
 -22   1   1   -0.73    0.79
 -22  -1   1   -0.24    0.65
  22  -1  -1   -0.44    0.74
  22   1  -1    0.26    0.48
 -22  -1  -1  145.63    8.67
 -22   1  -1  142.51    8.59
  22  -1   1  151.25    8.71
  22   1   1  141.16    8.37
 -22  -1  -3   -0.38    0.50
  22  -1   3    0.51    0.49
  22   1   3   -0.44    0.73
 -22  -1  -5   -0.44    0.46
 -22   1  -5    1.58    1.33
  22   1   5   -0.38    0.29
  22  -1   5    0.78    1.04
 -22   1  -7  147.86    9.04
 -22  -1  -7  152.64    9.29
  22  -1   7  161.02    9.40
  22   1   7  151.54    9.02
 -22  -1  -9    0.09    0.53
 -22   1  -9   -1.17    1.23
  22   1   9    0.33    0.39
  22  -1   9   -1.13    1.30
 -22   1 -11    0.07    1.05
 -22  -1 -11    0.76    1.05
  22   1  11   -0.27    0.39
  22  -1  11   -0.45    0.68
 -22   1 -13  515.16   17.54
 -22  -1 -13  511.09   17.71
  22  -1  13  517.15   17.38
  22   1  13  531.49   17.67
  22  -1  15   -0.23    0.50
 -22  -1 -15    0.05    0.66
 -22   1 -15   -0.46    0.95
 -22  -1 -17   -0.78    1.16
 -22   1 -17   -1.19    1.27
 -22  -1 -19  189.09   11.28
 -22   1 -19  199.44   11.39
 -22  -1 -21   -1.23    1.65
 -22   1 -21   -0.67    1.09
 -22  -1 -23    0.32    0.51
 -22   1 -23   -0.27    0.66
 -22   1 -25   44.34    5.61
 -22  -1 -25   41.98    5.61
 -22  -1 -27   -0.75    0.90
 -22   1 -27   -1.45    1.37
 -22  -1 -29   -0.89    1.33
 -22  -1 -31  123.51    9.86
 -22  -1 -33   -0.68    1.23
 -22  -1 -35    0.50    0.64
 -22  -1 -37   88.88    8.66
 -22  -1 -39   -1.88    1.84
  22  -2 -38  108.01    6.42
  22   2 -38   99.47    3.13
  22  -2 -36    0.17    0.44
  22   2 -36    0.95    0.45
  22  -2 -34   -0.58    0.97
  22   2 -34   -1.05    0.61
  22  -2 -32   26.21    3.24
  22   2 -32   26.20    2.53
  22  -2 -30    0.85    0.85
  22   2 -30    0.92    0.58
  22  -2 -28   -0.44    0.35
  22   2 -28   -0.50    0.67
  22  -2 -26   47.67    4.54
  22   2 -26   48.25    3.89
  22  -2 -24    0.51    0.61
  22   2 -24   -0.83    0.73
  22  -2 -22    0.25    0.73
 -22  -2  22    0.27    0.52
  22   2 -22   -0.56    0.43
 -22  -2  20  415.57   12.64
  22  -2 -20  424.43   13.72
  22   2 -20  410.29   12.26
 -22  -2  18   -0.19    0.74
  22  -2 -18   -1.19    0.88
  22   2 -18    0.93    0.89
 -22  -2  16    0.06    0.58
  22  -2 -16    0.66    0.74
  22   2 -16   -0.74    0.91
 -22  -2  14  212.69    9.66
  22  -2 -14  216.41   10.04
  22   2 -14  210.95    9.21
 -22  -2  12   -0.61    0.78
  22  -2 -12   -0.30    0.63
  22   2 -12    0.15    0.41
 -22  -2  10   -0.22    0.80
  22  -2 -10    0.17    0.78
  22   2 -10   -0.29    0.51
  22  -2  -8  200.56    9.88
 -22  -2   8  199.31    9.67
  22   2  -8  193.00    9.22
  22  -2  -6   -0.36    0.74
 -22  -2   6   -0.30    0.74
  22   2  -6   -0.57    0.80
  22  -2  -4    1.07    0.72
 -22  -2   4   -0.14    0.54
  22   2  -4    0.35    0.34
 -22  -2   2  291.41   12.19
  22  -2  -2  315.19   12.80
  22   2  -2  309.53   12.15
 -22  -2   0    1.26    1.15
  22  -2   0    0.19    0.66
  22   2   0    0.60    0.77
 -22  -2  -2    0.21    0.85
  22  -2   2    0.49    0.49
  22   2   2   -0.73    0.80
  22  -2   4  355.70   13.93
 -22  -2  -4  350.30   13.90
  22   2   4  361.69   13.91
 -22  -2  -6    0.42    0.94
  22  -2   6    0.38    0.88
  22   2   6   -0.12    0.56
 -22  -2  -8    0.08    0.82
  22  -2   8   -1.27    1.22
  22   2   8   -1.02    1.20
 -22  -2 -10  235.80   11.96
  22  -2  10  242.64   11.80
  22   2  10  237.66   11.69
 -22  -2 -12   -0.06    0.52
  22  -2  12    0.34    0.41
  22   2  12    0.39    0.88
  22  -2  14    0.14    0.75
 -22  -2 -14   -1.06    1.17
 -22  -2 -16   98.66    8.04
 -22  -2 -18    0.60    0.78
 -22  -2 -20   -1.67    1.35
 -22  -2 -22   89.69    8.06
 -22  -2 -24    1.28    0.90
 -22  -2 -26    0.54    1.09
 -22  -2 -28  226.92   13.39
 -22  -2 -30   -0.23    0.70
 -22  -2 -32    1.76    1.44
 -22  -2 -34  102.41    9.45
 -22  -2 -36    0.24    0.65
 -22  -2 -38   -0.86    0.79
  22  -3 -39    0.32    0.60
  22  -3 -37   -0.45    0.97
  22  -3 -35   43.06    4.46
  22   3 -35   46.80    2.93
  22  -3 -33   -0.28    0.77
  22   3 -33   -0.40    0.49
  22  -3 -31   -0.43    0.47
  22   3 -31   -0.75    0.72
  22  -3 -29   10.97    2.24
  22   3 -29    8.27    1.55
  22  -3 -27   -1.32    1.16
  22   3 -27   -0.41    0.44
 -22  -3  25    0.28    0.48
  22  -3 -25   -0.59    1.01
  22   3 -25   -0.39    0.31
  22  -3 -23   94.91    6.73
 -22  -3  23   98.31    5.98
  22   3 -23   94.15    5.71
 -22  -3  21    0.04    0.44
  22  -3 -21   -0.53    0.82
  22   3 -21    0.61    0.52
  22  -3 -19   -0.22    0.47
 -22  -3  19   -0.77    0.43
  22   3 -19    1.11    1.06
  22  -3 -17  320.01   12.59
 -22  -3  17  313.88   11.38
  22   3 -17  316.78   11.17
  22  -3 -15   -0.18    0.30
 -22  -3  15   -1.73    1.15
  22   3 -15   -0.63    0.30
  22  -3 -13   -0.49    0.35
 -22  -3  13    0.00    0.42
  22   3 -13   -0.04    0.25
  22  -3 -11  366.64   13.60
 -22  -3  11  372.37   13.09
  22   3 -11  358.31   12.50
 -22  -3   9   -0.01    0.39
  22  -3  -9   -0.41    0.73
  22   3  -9    0.59    0.85
  22  -3  -7   -0.64    1.01
 -22  -3   7   -0.31    0.55
  22   3  -7   -0.52    0.80
  22  -3  -5  229.00   11.00
 -22  -3   5  219.22   10.38
  22   3  -5  215.71   10.28
  22  -3  -3    0.21    0.34
 -22  -3   3   -0.30    0.74
  22   3  -3   -0.26    0.55
  22  -3  -1   -0.18    0.59
 -22  -3   1    1.14    1.56
  22   3  -1    1.12    1.16
  22  -3   1  562.03   17.75
 -22  -3  -1  524.29   16.98
  22   3   1  556.00   17.07
  22  -3   3   -0.50    0.82
 -22  -3  -3   -0.37    0.66
  22   3   3    0.32    0.79
  22  -3   5   -0.53    0.77
 -22  -3  -5   -0.16    0.62
  22   3   5   -0.39    0.40
 -22  -3  -7  325.45   13.92
  22  -3   7  322.40   13.70
  22   3   7  324.56   13.65
  22  -3   9   -0.47    0.42
 -22  -3  -9   -0.18    0.93
  22   3   9    0.50    0.59
 -22  -3 -11   -0.72    1.00
  22  -3  11   -0.78    1.00
 -22  -3 -13   14.67    3.07
  22  -3  13   12.54    2.71
 -22  -3 -15   -1.62    1.45
 -22  -3 -17   -0.77    0.88
 -22  -3 -19   66.07    6.86
 -22  -3 -21   -0.45    0.96
 -22  -3 -23    0.98    1.49
 -22  -3 -25  212.52   12.95
 -22  -3 -27    0.12    0.62
 -22  -3 -29    1.12    0.68
 -22  -3 -31  146.07   11.25
 -22  -3 -33   -0.25    0.44
 -22  -3 -35   -1.60    1.36
 -22  -3 -37   36.86    5.81
 -22  -3 -39   -1.20    0.80
  22   4 -34   -0.18    0.48
  22   4 -32   34.59    3.01
  22   4 -30   -0.32    0.51
 -22  -4  28    0.08    0.37
  22   4 -28   -0.33    0.26
 -22  -4  26   14.60    2.18
  22   4 -26   12.62    2.05
 -22  -4  24    0.03    0.29
  22   4 -24   -0.51    0.48
 -22  -4  22   -0.60    0.48
  22   4 -22   -0.71    0.60
 -22  -4  20  119.05    6.98
  22   4 -20  118.17    6.84
 -22  -4  18    0.14    0.47
  22   4 -18    0.68    0.71
 -22  -4  16    0.86    0.85
  22   4 -16    0.11    0.58
 -22  -4  14  447.61   14.29
  22   4 -14  424.97   13.74
  22  -4 -12    0.59    0.78
 -22  -4  12    0.84    1.16
  22   4 -12    0.65    1.10
  22  -4 -10   -0.80    0.40
 -22  -4  10    1.66    1.39
  22   4 -10    1.83    1.26
  22  -4  -8  455.54   15.81
 -22  -4   8  433.14   14.67
  22   4  -8  452.42   14.86
  22  -4  -6    0.52    0.69
 -22  -4   6   -0.30    0.59
  22   4  -6   -0.12    0.30
  22  -4  -4   -0.04    0.86
 -22  -4   4    0.50    0.95
  22   4  -4    0.70    1.08
  22  -4  -2  157.95    9.49
 -22  -4   2  150.56    9.07
  22   4  -2  160.74    9.23
  22  -4   0   -0.40    0.68
 -22  -4   0   -0.11    0.53
  22   4   0   -0.40    1.02
 -22  -4  -2   -0.19    0.56
  22   4   2   -1.15    0.92
 -22  -4  -4  289.60   13.21
  22   4   4  295.45   13.25
  22  -4   4  293.58   13.35
 -22  -4  -6   -1.13    0.89
  22  -4   6   -0.98    1.24
 -22  -4  -8    0.42    0.37
  22  -4   8    0.92    1.05
 -22  -4 -10   90.49    7.68
  22  -4  10   89.63    7.48
 -22  -4 -12    1.11    0.79
 -22  -4 -14   -0.11    0.87
 -22  -4 -16  278.22   14.17
 -22  -4 -18    2.01    1.49
 -22  -4 -20    0.48    1.01
 -22  -4 -22  137.11   10.43
 -22  -4 -24   -0.95    1.51
 -22  -4 -26   -0.46    1.16
 -22  -4 -28  108.95    9.67
 -22  -4 -30    1.72    1.48
 -22  -4 -32   -0.49    1.11
 -22  -4 -34   30.36    5.41
 -22  -4 -36    0.09    0.67
 -22  -4 -38    0.63    1.34
 -22  -4 -40   46.73    6.91
  22  -5 -43   -0.34    0.75
  22   5 -31    0.06    0.33
 -22  -5  31   -0.10    0.31
  22   5 -29   38.48    3.62
 -22  -5  29   41.63    3.78
  22   5 -27    0.02    0.49
 -22  -5  27   -0.24    0.26
  22   5 -25    0.77    0.87
 -22  -5  25    0.40    0.56
 -22  -5  23  126.12    7.19
  22   5 -23  107.45    6.72
 -22  -5  21    0.25    0.28
  22   5 -21    0.23    0.36
 -22  -5  19   -0.31    0.35
  22   5 -19    0.44    0.67
 -22  -5  17  140.46    8.05
  22   5 -17  135.47    7.88
 -22  -5  15    0.51    0.93
  22   5 -15    0.77    0.90
 -22  -5  13    0.98    1.18
  22   5 -13    0.32    0.73
 -22  -5  11  547.14   16.82
  22   5 -11  532.84   16.39
 -22  -5   9    0.66    1.09
  22   5  -9    0.70    1.25
 -22  -5   7    0.64    1.13
  22   5  -7    0.12    0.60
 -22  -5   5  460.51   16.13
  22  -5  -5  464.94   16.94
  22   5  -5  468.42   16.10
  22  -5  -3   -0.13    0.71
 -22  -5   3   -0.62    0.59
  22   5  -3   -0.99    0.57
  22  -5  -1   -0.81    0.64
 -22  -5   1   -1.06    0.64
  22   5  -1    0.83    0.78
 -22  -5  -1  115.94    8.36
  22   5   1  126.51    8.68
  22  -5   1  124.63    8.79
 -22  -5  -3    0.43    0.93
 -22  -5  -5    1.13    1.40
 -22  -5  -7  162.59   10.44
 -22  -5  -9   -1.14    1.41
 -22  -5 -11    0.97    1.42
 -22  -5 -13  172.12   11.22
 -22  -5 -15    2.24    1.57
 -22  -5 -17    0.98    1.88
 -22  -5 -19   82.29    8.04
 -22  -5 -21   -0.81    1.22
 -22  -5 -23   -1.44    1.62
 -22  -5 -25   63.06    7.48
 -22  -5 -27    0.66    1.10
 -22  -5 -29   -0.92    1.33
 -22  -5 -31   69.24    8.09
 -22  -5 -33   -1.59    0.92
 -22  -5 -35   -0.14    0.58
 -22  -5 -37  116.66   10.95
 -22  -5 -39    1.05    1.50
  22  -6 -44    8.23    2.33
 -22  -6  34   -0.28    0.24
 -22  -6  32   46.12    3.87
 -22  -6  30    0.07    0.27
  22   6 -28    0.94    0.90
 -22  -6  28    0.22    0.63
 -22  -6  26   45.76    4.29
  22   6 -26   44.82    4.38
 -22  -6  24    1.10    0.37
  22   6 -24    0.22    0.55
 -22  -6  22    0.37    0.57
  22   6 -22   -0.21    0.41
 -22  -6  20  109.59    7.25
  22   6 -20  101.85    7.09
 -22  -6  18    0.46    0.77
  22   6 -18   -0.92    0.74
 -22  -6  16   -0.54    0.99
  22   6 -16    0.05    0.33
 -22  -6  14  206.17   10.39
  22   6 -14  190.38   10.09
 -22  -6  12    0.11    0.57
  22   6 -12    1.18    1.27
 -22  -6  10    0.89    1.24
  22   6 -10    0.17    0.48
  22   6  -8  176.28   10.11
 -22  -6   8  158.79    9.58
 -22  -6   6   -0.03    0.45
  22   6  -6    0.73    0.30
 -22  -6   4    1.19    0.92
  22   6  -4   -1.05    0.72
 -22  -6   2   99.04    7.91
 -22  -6   0   -0.61    0.88
 -22  -6  -2    1.23    1.27
 -22  -6  -4  112.01    8.75
 -22  -6  -6    1.65    1.46
 -22  -6  -8    0.32    0.82
 -22  -6 -10  285.01   14.42
 -22  -6 -12   -0.21    0.52
 -22  -6 -14    1.64    1.31
 -22  -6 -16  231.13   13.57
 -22  -6 -18   -0.97    1.23
 -22  -6 -20   -0.08    0.96
 -22  -6 -22   55.68    6.99
 -22  -6 -24    0.13    1.69
 -22  -6 -26   -0.03    1.14
 -22  -6 -28   36.13    5.85
 -22  -6 -30    2.08    1.85
 -22  -6 -32    2.17    1.82
 -22  -6 -34   69.12    8.52
 -22  -6 -36   -1.17    1.75
 -22  -6 -38    0.60    0.50
  22  -7 -43   -0.07    0.76
 -22  -7  33    1.26    0.77
 -22  -7  31    0.21    0.40
 -22  -7  29   63.11    5.13
 -22  -7  27    0.13    0.51
 -22  -7  25   -0.03    0.48
  22   7 -25    0.29    0.54
 -22  -7  23   35.74    4.20
  22   7 -23   34.14    4.22
 -22  -7  21    0.86    1.13
  22   7 -21    0.28    0.55
 -22  -7  19    0.18    0.64
  22   7 -19    0.14    0.48
  22   7 -17  135.31    8.72
 -22  -7  17  141.72    8.78
 -22  -7  15    1.31    1.12
  22   7 -15    0.13    0.52
 -22  -7  13   -0.28    0.62
  22   7 -13    0.34    0.97
  22   7 -11  112.83    8.41
 -22  -7  11  116.96    8.33
 -22  -7   9    1.01    1.03
 -22  -7   7   -0.94    0.81
 -22  -7   5   36.76    4.87
 -22  -7   3   -0.53    0.36
 -22  -7   1   -0.66    0.86
 -22  -7  -1  123.13    9.22
 -22  -7  -3    0.02    0.95
 -22  -7  -5    0.51    1.07
 -22  -7  -7  219.28   12.90
 -22  -7  -9    0.72    0.62
 -22  -7 -11    0.52    0.93
 -22  -7 -13  224.26   13.53
 -22  -7 -15   -0.57    0.68
 -22  -7 -17   -0.27    0.46
 -22  -7 -19   68.39    7.77
 -22  -7 -21   -0.97    1.01
 -22  -7 -23   -2.44    2.17
 -22  -7 -25   53.34    7.30
 -22  -7 -27    1.65    1.46
 -22  -7 -29   -1.01    1.67
 -22  -7 -31   59.51    8.03
 -22  -7 -33    1.97    1.99
 -22  -7 -35   -0.12    1.60
  22  -8 -44    7.31    2.36
  22  -8 -42    0.12    0.50
 -22  -8  32   60.54    5.03
 -22  -8  30    2.06    0.94
 -22  -8  28   -0.36    0.38
 -22  -8  26   65.16    5.81
 -22  -8  24   -0.17    0.80
 -22  -8  22   -0.07    0.62
  22   8 -22   -0.83    0.78
  22   8 -20   44.87    5.28
 -22  -8  20   46.76    5.16
 -22  -8  18    0.80    1.11
  22   8 -18   -0.68    0.65
 -22  -8  16    0.45    0.35
 -22  -8  14   57.82    6.04
 -22  -8  12   -0.94    1.16
 -22  -8  10    2.16    1.35
 -22  -8   8   95.15    7.96
 -22  -8   6   -1.57    1.33
 -22  -8   4   -0.31    1.01
 -22  -8   2   35.59    5.04
 -22  -8   0   -2.10    1.53
 -22  -8  -2   -0.91    0.81
 -22  -8  -4  194.41   12.35
 -22  -8  -6   -2.00    2.09
 -22  -8  -8   -0.84    0.89
 -22  -8 -10  219.81   13.67
 -22  -8 -12   -2.04    1.67
 -22  -8 -14    0.16    0.70
 -22  -8 -16   39.33    6.02
 -22  -8 -18   -0.04    0.62
 -22  -8 -20    0.22    1.78
 -22  -8 -22  116.30   10.78
 -22  -8 -24    0.26    0.94
 -22  -8 -26    2.62    2.00
 -22  -8 -28   95.28   10.12
 -22  -8 -30   -0.74    1.50
 -22  -8 -32   -1.32    1.49
  22  -9 -43    0.46    0.75
  22  -9 -41    7.60    2.95
 -22  -9  31   -0.69    0.59
 -22  -9  29   36.47    4.39
 -22  -9  27    0.26    0.56
 -22  -9  25    0.86    0.98
 -22  -9  23   36.19    4.68
 -22  -9  21   -1.71    1.10
 -22  -9  19    0.39    0.77
 -22  -9  17  108.50    8.38
 -22  -9  15   -0.33    0.81
 -22  -9  13   -0.22    0.64
 -22  -9  11   51.67    6.02
 -22  -9   9   -1.01    1.23
 -22  -9   7   -1.22    1.72
 -22  -9   5   58.82    6.68
 -22  -9   3   -0.66    1.01
 -22  -9   1   -2.53    1.93
 -22  -9  -1   58.14    6.86
 -22  -9  -3   -1.74    1.85
 -22  -9  -5   -1.11    1.51
 -22  -9  -7   86.21    8.68
 -22  -9  -9   -0.19    0.84
 -22  -9 -11   -0.12    1.48
 -22  -9 -13   56.69    7.35
 -22  -9 -15    0.77    0.51
 -22  -9 -17    0.58    0.61
 -22  -9 -19   27.18    5.35
 -22  -9 -21    1.20    0.64
 -22  -9 -23   -2.19    1.96
 -22  -9 -25   74.60    9.19
 -22  -9 -27   -0.63    0.60
  22 -10 -44    9.40    3.18
  22 -10 -42   -0.37    0.65
  22 -10 -40   -1.10    1.46
 -22 -10  28    1.39    1.02
 -22 -10  26   27.20    4.14
 -22 -10  24    0.49    0.48
 -22 -10  22    1.72    1.25
 -22 -10  20   29.31    4.55
 -22 -10  18    0.76    1.30
 -22 -10  16    0.97    1.51
 -22 -10  14   43.23    5.83
 -22 -10  12   -2.09    1.78
 -22 -10  10   -2.68    1.99
 -22 -10   8   11.98    2.98
 -22 -10   6   -0.82    1.05
 -22 -10   4   -0.28    1.07
 -22 -10   2   92.84    9.10
 -22 -10   0   -0.59    1.32
 -22 -10  -2    0.92    1.13
 -22 -10  -4   56.53    7.17
 -22 -10  -6   -0.41    1.49
 -22 -10  -8   -1.77    1.56
 -22 -10 -10   60.91    7.76
 -22 -10 -12   -1.03    1.43
 -22 -10 -14    0.26    1.00
 -22 -10 -16   36.08    6.11
 -22 -10 -18   -1.81    1.84
 -22 -10 -20    0.04    1.92
 -22 -10 -22   59.54    8.23
  22 -11 -39   -2.89    1.86
  22 -11 -37   -4.55    2.30
 -22 -11  27   -0.89    1.17
 -22 -11  25   -0.85    0.96
 -22 -11  23   24.33    4.18
 -22 -11  21    0.33    0.75
 -22 -11  19   -0.88    1.32
 -22 -11  17   38.96    5.57
 -22 -11  15    1.50    1.42
 -22 -11  13   -0.38    0.48
 -22 -11  11   41.95    5.92
 -22 -11   9   -0.48    0.97
 -22 -11   7   -1.28    1.43
 -22 -11   5   38.58    5.87
 -22 -11   3    0.22    0.58
 -22 -11   1    1.03    0.58
 -22 -11  -1   38.50    6.04
 -22 -11  -3    0.65    0.86
 -22 -11  -5   -0.13    1.19
 -22 -11  -7   40.43    6.52
 -22 -11  -9    1.24    1.79
 -22 -11 -11   -0.18    0.69
 -22 -11 -13   47.77    7.29
 -22 -11 -15    4.00    2.41
 -22 -11 -17    0.80    0.57
 -22 -12  26   12.75    3.05
 -22 -12  24    0.83    0.89
 -22 -12  22    1.54    1.29
 -22 -12  20   11.79    3.20
 -22 -12  18    0.42    0.80
 -22 -12  16    2.12    1.41
 -22 -12  14   58.49    7.31
 -22 -12  12   -1.80    1.28
 -22 -12  10    0.72    1.15
 -22 -12   8   22.88    4.56
 -22 -12   6   -0.76    1.48
 -22 -12   4    0.13    1.55
 -22 -12   2   16.04    3.92
 -22 -12   0   -2.27    2.03
 -22 -12  -2    2.43    2.03
 -22 -12  -4   15.76    4.11
 -22 -12  -6    1.75    1.74
 -22 -12  -8    0.30    0.85
 -22 -12 -10   24.12    5.25
 -22 -13  23    8.59    2.72
 -22 -13  21   -0.95    0.95
 -22 -13  19    0.76    1.10
 -22 -13  17    6.35    2.55
 -22 -13  15   -1.89    1.28
 -22 -13  13   -0.21    0.73
 -22 -13  11   24.77    4.93
 -22 -13   9    0.42    0.83
 -22 -13   7   -1.39    1.30
 -22 -13   5   11.29    3.47
 -22 -13   3   -2.07    1.86
 -22 -13   1    0.44    0.59
 -22 -13  -1    8.34    3.00
 -22 -14  20    9.36    3.08
 -22 -14  18    1.85    1.38
 -22 -14  16    0.73    1.07
 -22 -14  14    3.80    1.91
 -22 -14  12    1.12    1.08
 -22 -14  10    1.23    1.16
 -22 -14   8    9.39    3.47
  23   0 -37    0.14    0.37
  23   0 -35    0.56    0.72
  23   0 -33   -0.28    0.40
  23   0 -31    0.15    0.28
  23   0 -29    1.29    0.84
  23   0 -27    0.74    0.51
  23   0 -25   -0.59    0.76
  23   0 -23   -0.61    0.60
  23   0 -21    2.31    0.97
  23   0 -19   -0.23    0.55
  23   0 -17   -0.43    0.41
  23   0 -15    0.47    0.72
  23   0 -13   -1.45    1.00
 -23   0  11    0.55    1.91
  23   0 -11    1.81    1.66
 -23   0   9    0.01    0.91
  23   0  -9    0.23    0.86
 -23   0   7   -0.59    1.01
  23   0  -7   -0.08    0.67
 -23   0   5    0.33    0.82
  23   0  -5   -0.66    0.84
 -23   0   3   -0.19    0.51
  23   0  -3    0.65    0.66
 -23   0   1    0.26    0.30
  23   0  -1   -0.28    0.99
 -23   0  -1    0.75    0.45
  23   0   1   -0.62    1.00
 -23   0  -3   -1.12    1.12
  23   0   3   -1.25    1.00
 -23   0  -5    0.07    0.71
  23   0   5   -1.49    1.12
 -23   0  -7    0.93    1.69
  23   0   7    1.58    1.53
 -23   0  -9    0.24    0.96
  23   0   9   -0.53    1.00
 -23   0 -11   -1.07    1.06
  23   0  11   -0.25    0.67
 -23   0 -13    0.71    1.27
 -23   0 -15    3.06    2.14
 -23   0 -17    2.36    1.36
 -23   0 -19    0.95    1.69
 -23   0 -21    1.25    1.34
 -23   0 -23   -0.40    0.55
 -23   0 -25    0.27    0.50
 -23   0 -27   -0.75    1.34
 -23   0 -29   -1.00    1.66
 -23   0 -31    0.45    0.62
 -23   0 -33    0.26    1.11
 -23   0 -35   -1.31    1.82
  23  -1 -38   -0.10    0.45
  23   1 -38    0.91    0.59
  23  -1 -36    1.12    0.86
  23   1 -36    1.18    0.74
  23  -1 -34   34.75    3.59
  23   1 -34   33.43    3.03
  23  -1 -32   -0.27    0.30
  23   1 -32    1.02    0.85
  23  -1 -30    1.33    0.83
  23   1 -30   -0.12    0.56
  23  -1 -28    4.31    1.29
  23   1 -28    3.69    1.06
  23  -1 -26    2.31    1.22
  23   1 -26    1.02    0.89
  23  -1 -24    1.81    1.05
  23   1 -24    0.62    0.87
  23  -1 -22   -0.30    0.66
  23   1 -22    0.99    0.57
  23  -1 -20    0.43    0.72
  23   1 -20    0.37    0.50
  23  -1 -18    0.12    0.62
  23   1 -18    0.90    0.92
 -23  -1  16  126.65    7.37
  23  -1 -16  129.56    7.69
  23   1 -16  128.17    7.39
  23  -1 -14    0.23    0.44
  23   1 -14   -0.11    0.30
 -23  -1  12   -0.85    0.76
  23  -1 -12   -0.36    0.66
  23   1 -12    0.15    0.61
 -23  -1  10    0.61    0.59
  23  -1 -10   -0.43    0.94
  23   1 -10   -0.08    0.64
  23  -1  -8    0.95    0.98
 -23  -1   8   -0.52    0.44
  23   1  -8    1.78    1.44
  23  -1  -6   -0.48    0.54
 -23  -1   6    1.07    0.87
  23   1  -6    0.58    0.66
 -23  -1   4  219.96   10.58
  23   1  -4  215.02   10.28
  23  -1  -4  214.66   10.56
 -23  -1   2   -0.14    0.38
  23  -1  -2   -0.64    0.61
  23   1  -2   -0.09    0.36
 -23  -1   0    0.38    0.52
 -23   1   0    0.19    0.34
  23   1   0   -0.29    0.39
  23  -1   0    1.03    0.79
 -23  -1  -2   40.66    4.77
 -23   1  -2   42.13    4.91
  23  -1   2   44.92    4.93
  23   1   2   44.48    4.85
 -23  -1  -4   -0.33    0.43
 -23   1  -4    1.83    1.64
  23   1   4    2.69    1.45
  23  -1   4    1.23    1.21
 -23  -1  -6   -0.12    0.80
 -23   1  -6    0.51    0.91
  23  -1   6   -0.24    0.48
  23   1   6   -0.37    0.73
 -23  -1  -8    0.34    1.18
 -23   1  -8   -0.99    0.55
  23  -1   8    0.66    0.52
  23   1   8    0.07    0.64
 -23  -1 -10   -0.24    0.81
 -23   1 -10   -0.28    1.01
  23   1  10    0.09    0.54
 -23  -1 -12    0.86    0.97
 -23   1 -12    3.51    2.25
  23  -1  12    2.27    1.55
 -23  -1 -14   11.44    3.01
 -23   1 -14    8.31    2.44
 -23  -1 -16   -1.21    0.73
 -23   1 -16    0.03    0.61
 -23  -1 -18    1.16    1.40
 -23   1 -18    0.29    0.77
 -23   1 -20    1.69    1.12
 -23  -1 -20   -0.99    1.13
 -23   1 -22    1.69    1.15
 -23  -1 -22   -0.44    0.50
 -23   1 -24   -1.07    0.87
 -23  -1 -24    0.33    0.62
 -23  -1 -26    1.72    1.43
 -23   1 -26    0.55    0.75
 -23  -1 -28    0.36    1.04
 -23  -1 -30    2.13    1.53
 -23  -1 -32    2.90    1.07
 -23  -1 -34    0.08    0.77
 -23  -1 -36    0.20    1.12
 -23  -1 -38    3.27    1.56
  23  -2 -39    1.13    0.93
  23  -2 -37    3.98    1.39
  23   2 -37    3.13    0.73
  23  -2 -35   -0.79    0.81
  23   2 -35   -0.43    0.38
  23  -2 -33   -0.10    0.35
  23   2 -33    0.37    0.35
  23  -2 -31   37.22    4.05
  23   2 -31   40.41    3.41
  23  -2 -29   -0.18    0.46
  23   2 -29    0.39    0.48
  23  -2 -27   -1.13    0.65
  23   2 -27    0.45    0.57
  23  -2 -25   12.37    2.43
  23   2 -25   10.89    1.97
  23  -2 -23   -0.24    0.67
  23   2 -23    1.44    1.26
 -23  -2  21   -0.21    0.30
  23  -2 -21    1.56    1.39
 -23  -2  19    1.73    0.66
  23  -2 -19    2.33    1.11
  23   2 -19    3.06    1.23
 -23  -2  17    0.74    0.43
  23  -2 -17   -0.35    0.62
  23   2 -17    0.94    0.96
  23  -2 -15    0.10    0.33
 -23  -2  15   -0.08    0.39
  23   2 -15   -0.10    0.41
 -23  -2  13   18.57    2.95
  23  -2 -13   20.04    3.22
  23   2 -13   20.07    2.96
  23  -2 -11   -0.85    1.13
 -23  -2  11    0.07    0.92
  23   2 -11   -0.41    0.56
 -23  -2   9   -0.74    0.92
  23  -2  -9   -1.20    1.27
  23   2  -9   -0.29    0.58
  23  -2  -7   81.83    6.49
 -23  -2   7   81.87    6.38
  23   2  -7   86.71    6.47
  23  -2  -5    0.06    0.51
 -23  -2   5   -0.13    0.94
  23   2  -5    1.44    1.22
 -23  -2   3    1.49    1.10
  23  -2  -3   -0.33    0.57
  23   2  -3    1.26    0.99
 -23  -2   1   20.61    3.34
  23  -2  -1   22.98    3.54
  23   2  -1   22.74    3.43
 -23  -2  -1    0.74    1.18
  23  -2   1   -0.80    0.44
  23   2   1    1.45    1.34
 -23  -2  -3    0.19    1.13
  23  -2   3    0.57    0.74
  23   2   3    0.45    0.90
 -23  -2  -5  232.02   11.69
  23  -2   5  241.21   11.71
  23   2   5  251.52   11.94
 -23  -2  -7    0.05    0.89
  23  -2   7    0.00    0.45
 -23  -2  -9    1.32    1.28
  23  -2   9    0.99    0.80
  23   2   9    0.43    1.11
  23  -2  11   60.50    6.06
 -23  -2 -11   63.97    6.42
 -23  -2 -13   -0.43    0.67
 -23  -2 -15   -0.39    1.14
 -23  -2 -17   -0.74    1.31
 -23  -2 -19   -1.29    0.83
 -23  -2 -21    1.41    0.54
 -23  -2 -23  102.74    8.84
 -23  -2 -25    2.64    2.01
 -23  -2 -27    2.03    2.10
 -23  -2 -29    0.40    1.11
 -23  -2 -31   -1.58    1.73
 -23  -2 -33    0.09    0.61
 -23  -2 -35    5.50    2.43
 -23  -2 -37    2.23    1.82
 -23  -2 -39    0.81    1.33
  23  -3 -38   -0.65    0.32
  23  -3 -36   -0.32    0.49
  23   3 -36    0.54    0.46
  23  -3 -34   11.53    2.46
  23   3 -34   11.68    1.70
  23  -3 -32    0.08    0.67
  23   3 -32   -0.84    0.48
  23  -3 -30    0.37    0.29
  23   3 -30   -0.53    0.60
  23  -3 -28   46.76    4.78
  23   3 -28   48.89    3.97
  23  -3 -26    0.42    0.44
 -23  -3  26   -0.89    0.85
  23   3 -26    0.29    0.53
  23  -3 -24   -0.56    0.87
 -23  -3  24   -0.11    0.38
  23   3 -24    0.39    0.27
 -23  -3  22    9.98    2.01
  23  -3 -22    8.29    2.10
  23   3 -22    8.43    1.86
 -23  -3  20    0.39    0.49
  23  -3 -20   -0.17    0.87
  23   3 -20    1.61    1.39
  23  -3 -18    0.58    0.64
 -23  -3  18    0.76    0.64
  23   3 -18    0.80    0.52
  23  -3 -16   12.10    2.55
 -23  -3  16   12.73    2.43
  23   3 -16   10.76    2.12
  23  -3 -14   -0.01    0.36
 -23  -3  14    0.91    1.00
  23   3 -14    0.08    0.42
  23  -3 -12    0.91    0.81
 -23  -3  12   -0.08    0.45
  23  -3 -10   38.87    4.52
 -23  -3  10   36.93    4.33
  23   3 -10   34.33    4.04
  23  -3  -8   -0.74    0.56
 -23  -3   8    0.44    0.71
  23   3  -8   -0.23    0.46
 -23  -3   6    0.53    0.52
  23  -3  -6    0.10    0.44
  23   3  -6   -0.35    0.76
 -23  -3   4   10.63    2.33
  23  -3  -4   12.27    2.64
  23   3  -4   11.66    2.47
  23  -3  -2    1.82    1.52
 -23  -3   2    0.23    1.17
  23   3  -2    0.44    1.15
  23  -3   0   -0.03    0.77
 -23  -3   0   -1.05    0.59
  23   3   0   -0.05    1.02
  23  -3   2    2.40    1.15
 -23  -3  -2   -0.79    1.16
  23   3   2    1.80    1.16
  23  -3   4    0.58    0.31
  23   3   4    0.49    0.55
  23  -3   6    0.26    0.90
 -23  -3  -6    0.14    0.42
  23   3   6    1.68    1.50
 -23  -3  -8    0.30    0.51
  23  -3   8   -0.56    1.04
 -23  -3 -10    0.94    0.56
 -23  -3 -12    0.41    1.02
 -23  -3 -14   -1.04    1.09
 -23  -3 -16    0.09    1.14
 -23  -3 -18    0.36    0.52
 -23  -3 -20   91.48    8.39
 -23  -3 -22    1.45    1.38
 -23  -3 -24    0.43    1.23
 -23  -3 -26    7.39    2.50
 -23  -3 -28    3.27    2.26
 -23  -3 -30    0.41    1.19
 -23  -3 -32    0.41    0.50
 -23  -3 -34   -1.00    1.16
 -23  -3 -36    1.04    1.26
 -23  -3 -38   -1.66    1.58
  23   4 -35    0.31    0.35
  23   4 -33    0.34    0.27
  23   4 -31    9.61    1.76
 -23  -4  29   -0.82    0.26
  23   4 -29    1.19    0.81
 -23  -4  27    0.00    0.43
  23   4 -27    0.05    0.29
 -23  -4  25   30.25    3.44
  23   4 -25   28.58    3.24
 -23  -4  23   -1.37    0.82
  23   4 -23   -0.21    0.46
 -23  -4  21   -0.61    0.70
  23   4 -21   -0.87    1.25
 -23  -4  19   75.10    5.79
  23   4 -19   68.02    5.42
 -23  -4  17    1.31    1.08
  23   4 -17    1.49    1.10
 -23  -4  15    0.92    1.09
  23  -4 -15    0.59    0.75
  23   4 -15    2.13    1.24
  23  -4 -13    8.62    2.18
 -23  -4  13   10.70    2.50
  23   4 -13    9.91    2.21
  23  -4 -11    0.41    0.62
 -23  -4  11    0.28    1.39
  23   4 -11    0.80    1.27
  23  -4  -9   -0.97    0.82
 -23  -4   9    2.01    1.12
  23   4  -9    0.77    1.01
  23  -4  -7    9.56    2.42
 -23  -4   7    6.36    1.89
  23   4  -7    8.08    2.15
  23  -4  -5   -1.45    1.31
 -23  -4   5    0.58    0.85
  23   4  -5    1.09    1.14
  23  -4  -3    0.42    0.65
 -23  -4   3   -0.49    0.92
  23   4  -3   -0.73    1.11
  23  -4  -1   14.31    2.90
 -23  -4   1   12.50    2.65
  23   4  -1   13.13    2.85
  23  -4   1    1.07    1.06
 -23  -4  -1   -1.25    0.95
  23   4   1    0.47    1.01
 -23  -4  -3   -0.18    0.58
  23  -4   3    0.19    0.90
 -23  -4  -5   42.53    5.13
  23  -4   5   45.00    5.34
 -23  -4  -7    0.02    0.92
 -23  -4  -9    0.14    0.85
 -23  -4 -11   -0.44    0.58
 -23  -4 -13    1.77    1.20
 -23  -4 -15   -0.45    0.74
 -23  -4 -17   49.58    6.14
 -23  -4 -19   -0.11    1.36
 -23  -4 -21    1.14    1.22
 -23  -4 -23   -1.81    1.91
 -23  -4 -25    1.36    1.56
 -23  -4 -27    1.86    1.22
 -23  -4 -29    2.88    1.94
 -23  -4 -31    0.94    1.73
 -23  -4 -33    0.86    1.11
 -23  -4 -35    0.50    1.63
 -23  -4 -37    2.92    2.22
 -23  -4 -39    0.13    1.69
  23   5 -32   -0.86    0.54
 -23  -5  32   -0.60    0.81
  23   5 -30   -1.39    0.86
 -23  -5  30   -0.28    0.55
  23   5 -28   23.79    3.02
 -23  -5  28   24.63    3.06
  23   5 -26    0.11    0.69
 -23  -5  26    1.68    1.08
  23   5 -24    0.07    0.31
 -23  -5  24    0.86    0.78
 -23  -5  22   28.34    3.56
  23   5 -22   25.40    3.37
 -23  -5  20   -1.36    1.03
  23   5 -20    0.20    0.32
 -23  -5  18   -0.82    1.01
  23   5 -18   -0.74    0.82
 -23  -5  16   39.35    4.45
  23   5 -16   35.08    4.13
 -23  -5  14    1.90    1.28
  23   5 -14    1.71    1.43
 -23  -5  12    2.80    1.59
  23   5 -12    1.48    1.00
 -23  -5  10    1.52    0.89
  23   5 -10    0.13    0.65
 -23  -5   8    1.01    1.44
  23   5  -8    1.04    1.14
 -23  -5   6   -0.22    0.71
  23   5  -6    0.48    0.64
 -23  -5   4    3.29    1.12
  23   5  -4    3.33    1.23
 -23  -5   2   -0.09    0.37
  23   5  -2    2.36    1.29
 -23  -5   0    0.30    0.74
 -23  -5  -2   41.21    5.19
 -23  -5  -4    0.01    0.77
 -23  -5  -6   -0.32    0.46
 -23  -5  -8    0.11    1.03
 -23  -5 -10    3.07    2.00
 -23  -5 -12    2.92    1.76
 -23  -5 -14   20.20    3.80
 -23  -5 -16    0.90    1.14
 -23  -5 -18   -0.41    0.91
 -23  -5 -20   -0.36    0.75
 -23  -5 -22    0.39    1.11
 -23  -5 -24   -1.01    1.42
 -23  -5 -26    1.51    1.18
 -23  -5 -28    0.75    1.59
 -23  -5 -30    2.22    1.50
 -23  -5 -32    8.70    2.95
 -23  -5 -34   -0.39    1.30
 -23  -5 -36    4.90    2.64
 -23  -5 -38   -1.81    1.41
 -23  -6  33    0.24    0.24
 -23  -6  31    0.98    0.74
  23   6 -29    0.58    0.84
 -23  -6  29   -0.01    0.61
  23   6 -27    0.44    0.50
 -23  -6  27    0.86    0.83
 -23  -6  25   61.14    5.21
  23   6 -25   57.31    5.14
 -23  -6  23    1.56    0.98
  23   6 -23   -0.72    0.68
 -23  -6  21    0.66    0.65
  23   6 -21    0.56    0.95
 -23  -6  19   13.62    2.63
  23   6 -19   10.53    2.30
 -23  -6  17   -0.12    0.40
  23   6 -17    0.37    1.06
 -23  -6  15    0.58    0.43
  23   6 -15   -0.09    0.38
 -23  -6  13   17.95    3.23
  23   6 -13   19.33    3.27
 -23  -6  11    0.69    1.02
  23   6 -11    1.49    1.31
 -23  -6   9    1.24    1.00
  23   6  -9    0.66    0.92
 -23  -6   7   12.20    2.73
  23   6  -7   15.12    2.97
 -23  -6   5   -0.68    0.44
 -23  -6   3   -1.89    1.28
 -23  -6   1    1.38    1.00
 -23  -6  -1    1.34    1.48
 -23  -6  -3   -0.25    0.82
 -23  -6  -5   -0.15    1.08
 -23  -6  -7    2.99    2.09
 -23  -6  -9    1.72    1.43
 -23  -6 -11   29.61    4.71
 -23  -6 -13    3.06    2.20
 -23  -6 -15    1.79    1.72
 -23  -6 -17    0.37    0.70
 -23  -6 -19   -0.33    0.75
 -23  -6 -21   -0.68    1.09
 -23  -6 -23   -1.10    1.67
 -23  -6 -25   -0.61    0.92
 -23  -6 -27    2.73    1.86
 -23  -6 -29    1.00    0.91
 -23  -6 -31    3.07    2.43
 -23  -6 -33    0.39    0.86
 -23  -6 -35    2.60    2.13
 -23  -6 -37    2.21    2.06
  23  -7 -44   -0.16    0.87
 -23  -7  32    0.45    0.80
 -23  -7  30    0.05    0.73
 -23  -7  28    3.23    1.06
 -23  -7  26   -0.09    0.69
  23   7 -26   -0.18    0.32
 -23  -7  24   -0.72    0.94
  23   7 -24    0.52    0.38
 -23  -7  22   37.33    4.43
  23   7 -22   31.16    4.10
 -23  -7  20   -0.06    0.38
  23   7 -20   -0.87    1.01
 -23  -7  18    1.15    1.18
  23   7 -18    0.80    1.07
 -23  -7  16   -0.70    1.13
  23   7 -16   -0.93    1.08
 -23  -7  14   -0.29    1.04
  23   7 -14    0.99    1.48
 -23  -7  12    0.62    0.80
 -23  -7  10    9.69    2.58
 -23  -7   8    1.98    1.57
 -23  -7   6    1.31    0.66
 -23  -7   4   -1.11    1.09
 -23  -7   2    0.84    0.98
 -23  -7   0   -0.78    0.51
 -23  -7  -2   -0.31    0.79
 -23  -7  -4    4.80    2.53
 -23  -7  -6    2.12    2.16
 -23  -7  -8    3.54    1.41
 -23  -7 -10    0.22    0.78
 -23  -7 -12    1.59    1.58
 -23  -7 -14   91.71    8.91
 -23  -7 -16   -0.52    1.36
 -23  -7 -18    4.54    2.42
 -23  -7 -20    0.70    0.69
 -23  -7 -22   -0.10    0.78
 -23  -7 -24    2.40    1.41
 -23  -7 -26   -0.01    1.05
 -23  -7 -28   -0.35    1.37
 -23  -7 -30    0.89    1.64
 -23  -7 -32    3.98    2.17
 -23  -7 -34    0.54    1.29
  23  -8 -43    0.67    0.82
 -23  -8  31    9.03    2.19
 -23  -8  29   -0.80    1.09
 -23  -8  27    0.74    0.82
 -23  -8  25   -1.09    1.07
 -23  -8  23   -1.42    1.11
  23   8 -23   -0.76    0.74
 -23  -8  21    2.05    1.15
  23   8 -21    0.45    0.74
 -23  -8  19   14.52    2.85
 -23  -8  17    0.97    0.77
 -23  -8  15   -0.40    0.44
 -23  -8  13   -2.11    1.73
 -23  -8  11   -0.85    0.40
 -23  -8   9   -0.35    0.69
 -23  -8   7    3.69    1.64
 -23  -8   5    0.97    0.42
 -23  -8   3    1.23    0.74
 -23  -8   1   -0.67    1.50
 -23  -8  -1    1.51    1.58
 -23  -8  -3    1.18    1.99
 -23  -8  -5    2.97    1.10
 -23  -8  -7   -0.41    1.05
 -23  -8  -9    2.63    2.00
 -23  -8 -11   31.51    5.31
 -23  -8 -13    0.66    1.26
 -23  -8 -15    0.74    1.12
 -23  -8 -17   12.22    3.22
 -23  -8 -19    0.88    1.64
 -23  -8 -21    3.58    2.31
 -23  -8 -23    0.91    0.85
 -23  -8 -25    1.35    1.54
 -23  -8 -27    0.26    1.70
 -23  -8 -29    1.21    0.82
  23  -9 -44    1.45    1.21
  23  -9 -42    0.34    1.27
 -23  -9  30   -0.38    0.49
 -23  -9  28    3.59    1.24
 -23  -9  26    1.28    1.06
 -23  -9  24    1.86    1.16
 -23  -9  22    2.98    1.39
 -23  -9  20   -0.15    0.54
 -23  -9  18    0.16    1.00
 -23  -9  16    0.39    0.58
 -23  -9  14   -0.46    0.86
 -23  -9  12    0.12    0.71
 -23  -9  10   -2.59    1.67
 -23  -9   8    2.56    1.67
 -23  -9   6    0.74    1.62
 -23  -9   4   -0.76    1.03
 -23  -9   2    5.70    2.80
 -23  -9   0   -0.09    0.92
 -23  -9  -2   -1.51    1.87
 -23  -9  -4    1.34    1.55
 -23  -9  -6    2.20    1.74
 -23  -9  -8    7.12    2.41
 -23  -9 -10    3.10    1.89
 -23  -9 -12   -1.20    1.28
 -23  -9 -14   -0.48    0.59
 -23  -9 -16    3.68    2.45
 -23  -9 -18    1.41    2.07
 -23  -9 -20   -0.68    1.94
 -23  -9 -22    1.01    1.36
 -23  -9 -24    4.81    2.90
 -23  -9 -26    4.45    2.04
  23 -10 -43    0.59    0.66
  23 -10 -41   -0.22    0.69
 -23 -10  29   -0.01    0.65
 -23 -10  27    1.44    1.09
 -23 -10  25    1.90    1.21
 -23 -10  23    2.75    1.74
 -23 -10  21   -0.96    1.04
 -23 -10  19    5.36    1.95
 -23 -10  17    0.81    0.96
 -23 -10  15    1.32    1.43
 -23 -10  13    5.61    2.21
 -23 -10  11   -1.20    1.31
 -23 -10   9   -1.22    1.58
 -23 -10   7   -1.44    1.04
 -23 -10   5    3.40    1.88
 -23 -10   3    0.64    0.73
 -23 -10   1    3.78    1.57
 -23 -10  -1    1.64    1.90
 -23 -10  -3   -0.91    0.80
 -23 -10  -5    5.65    2.38
 -23 -10  -7   -0.63    0.61
 -23 -10  -9    1.92    1.81
 -23 -10 -11   -1.42    1.51
 -23 -10 -13    1.04    1.83
 -23 -10 -15    1.81    1.46
 -23 -10 -17   -0.42    0.67
 -23 -10 -19    0.57    1.63
 -23 -10 -21    2.49    1.79
  23 -11 -38    0.15    1.24
 -23 -11  26   -0.12    0.74
 -23 -11  24    1.37    1.38
 -23 -11  22    4.45    1.89
 -23 -11  20    0.76    1.17
 -23 -11  18    1.09    1.46
 -23 -11  16    1.34    1.08
 -23 -11  14    1.07    1.34
 -23 -11  12   -1.30    1.69
 -23 -11  10   -1.45    1.63
 -23 -11   8   -1.96    1.54
 -23 -11   6   -1.13    1.54
 -23 -11   4   -1.42    1.89
 -23 -11   2    3.34    1.83
 -23 -11   0   -0.13    1.23
 -23 -11  -2   13.88    3.61
 -23 -11  -4    1.46    1.19
 -23 -11  -6    3.01    3.78
 -23 -11  -8   -0.77    0.92
 -23 -11 -10   -0.15    0.72
 -23 -11 -12    1.17    1.67
 -23 -11 -14    2.37    1.91
 -23 -11 -16    0.32    1.14
 -23 -12  25    0.30    0.65
 -23 -12  23    2.21    1.25
 -23 -12  21    0.92    1.09
 -23 -12  19    1.29    1.25
 -23 -12  17    0.83    1.16
 -23 -12  15    0.84    1.66
 -23 -12  13    2.47    1.77
 -23 -12  11    0.23    0.58
 -23 -12   9   -1.10    1.20
 -23 -12   7   -3.86    2.22
 -23 -12   5   -4.13    2.06
 -23 -12   3    0.86    1.08
 -23 -12   1    1.53    1.50
 -23 -12  -1   -0.65    0.84
 -23 -12  -3   -2.94    1.98
 -23 -12  -5    1.05    1.67
 -23 -12  -7    0.41    0.86
 -23 -12  -9   -0.81    0.77
 -23 -13  22    1.64    1.18
 -23 -13  20    0.19    0.71
 -23 -13  18   -2.17    1.35
 -23 -13  16   -0.25    1.46
 -23 -13  14    0.06    0.51
 -23 -13  12    0.09    0.71
 -23 -13  10   -2.47    1.84
 -23 -13   8   -1.28    1.63
 -23 -13   6   -1.49    1.63
 -23 -13   4   -1.01    1.61
 -23 -13   2   -1.68    1.32
 -23 -13   0   -0.75    1.48
 -23 -14  21   -0.38    1.08
 -23 -14  19   -0.14    0.92
 -23 -14  17    1.14    1.18
 -23 -14  15    0.48    0.48
 -23 -14  13    0.18    0.93
 -23 -14  11   -1.14    1.72
  24   0 -38    1.13    0.69
  24   0 -36  153.79    7.03
  24   0 -34    0.51    0.51
  24   0 -32   -0.67    0.40
  24   0 -30  118.86    6.69
  24   0 -28    0.34    0.56
  24   0 -26   -2.00    1.24
  24   0 -24   11.30    2.05
  24   0 -22   -0.31    0.68
  24   0 -20    0.03    0.27
  24   0 -18  148.23    8.08
  24   0 -16   -0.68    1.00
  24   0 -14    0.24    0.42
  24   0 -12  800.16   19.59
 -24   0  10    0.78    0.55
  24   0 -10   -1.07    1.23
 -24   0   8   -1.01    1.22
  24   0  -8   -1.03    1.24
 -24   0   6   78.16    6.36
  24   0  -6   76.14    6.23
 -24   0   4   -0.46    0.71
  24   0  -4   -0.50    0.27
 -24   0   2   -0.49    0.76
  24   0  -2    0.21    0.83
 -24   0   0   56.18    5.55
  24   0   0   63.99    5.93
 -24   0  -2   -1.20    1.17
  24   0   2   -0.55    1.02
 -24   0  -4    0.55    0.97
  24   0   4    0.44    0.52
 -24   0  -6  423.88   15.83
  24   0   6  464.25   16.54
 -24   0  -8   -0.02    0.92
  24   0   8    0.25    0.87
 -24   0 -10   -1.01    1.51
 -24   0 -12  197.63   11.36
 -24   0 -14   -0.99    1.21
 -24   0 -16    0.14    0.76
 -24   0 -18  298.89   14.49
 -24   0 -20   -0.48    1.24
 -24   0 -22   -0.98    1.46
 -24   0 -24    8.93    2.67
 -24   0 -26   -1.40    1.48
 -24   0 -28   -1.03    0.71
 -24   0 -30   70.02    7.63
 -24   0 -32   -2.18    1.76
 -24   0 -34   -0.33    1.39
  24  -1 -37    0.94    1.03
  24   1 -37   -0.60    0.34
  24  -1 -35    2.24    1.11
  24   1 -35    1.09    0.77
  24  -1 -33  116.95    6.86
  24   1 -33  109.60    5.90
  24  -1 -31   -0.45    0.59
  24   1 -31   -0.51    0.25
  24  -1 -29   -0.79    0.92
  24   1 -29   -0.96    0.77
  24   1 -27   93.37    5.86
  24  -1 -27   91.57    6.32
  24  -1 -25    0.53    0.88
  24   1 -25   -0.34    0.71
  24  -1 -23   -0.11    0.50
  24   1 -23    0.75    0.40
  24  -1 -21   47.25    4.70
  24   1 -21   47.93    4.49
  24  -1 -19   -0.75    1.17
  24   1 -19   -1.31    0.92
  24  -1 -17    0.33    0.45
 -24  -1  17   -0.99    0.89
  24   1 -17   -0.07    0.60
 -24  -1  15   51.57    4.94
  24   1 -15   54.78    5.05
  24  -1 -15   53.45    5.07
 -24  -1  13   -1.01    1.04
  24  -1 -13   -0.52    0.67
  24   1 -13   -0.33    0.35
 -24  -1  11   -0.34    0.76
  24  -1 -11    0.89    0.66
  24   1 -11   -1.31    0.73
 -24  -1   9  472.19   15.29
  24  -1  -9  475.98   15.58
  24   1  -9  484.54   15.32
 -24  -1   7   -0.74    0.51
  24  -1  -7   -0.01    0.56
  24   1  -7    0.15    0.81
  24  -1  -5    0.01    0.39
 -24  -1   5   -0.67    0.56
 -24  -1   3  106.26    7.71
  24  -1  -3  108.59    7.62
  24   1  -3  116.44    7.87
 -24   1   1   -0.22    0.76
 -24  -1   1   -0.89    1.12
  24   1  -1    0.28    0.25
  24  -1  -1   -0.29    0.54
 -24  -1  -1   -0.31    0.53
 -24   1  -1   -0.84    0.75
  24  -1   1   -1.09    0.90
  24   1   1    0.28    0.59
 -24  -1  -3  457.18   16.47
 -24   1  -3  425.68   15.81
  24  -1   3  451.22   16.17
  24   1   3  457.29   16.11
  24  -1   5   -0.82    1.11
  24   1   5   -1.13    0.91
 -24  -1  -5   -0.50    1.12
 -24   1  -5    0.19    0.64
  24  -1   7   -0.18    0.57
  24   1   7   -0.11    0.67
 -24  -1  -7   -1.02    1.56
 -24   1  -7    0.14    0.67
  24  -1   9  243.04   12.26
 -24  -1  -9  236.89   12.28
 -24   1  -9  225.24   11.83
 -24  -1 -11    0.42    1.09
 -24   1 -11   -1.19    1.15
 -24  -1 -13   -1.12    1.10
 -24   1 -13   -1.10    1.11
 -24   1 -15  164.43   10.45
 -24  -1 -15  163.10   10.65
 -24   1 -17   -0.89    1.05
 -24  -1 -17    0.58    0.84
 -24  -1 -19   -1.64    1.50
 -24   1 -19   -1.79    1.56
 -24  -1 -21  107.12    8.96
 -24   1 -21  104.38    8.62
 -24   1 -23   -2.40    1.48
 -24  -1 -23    0.46    1.26
 -24   1 -25   -0.70    1.10
 -24  -1 -25    0.27    0.40
 -24  -1 -27   43.06    5.88
 -24  -1 -29    0.41    0.50
 -24  -1 -31   -0.67    1.25
 -24  -1 -33   80.79    8.37
 -24  -1 -35    0.56    0.79
 -24  -1 -37    0.12    1.14
  24  -2 -38   -0.01    0.36
  24  -2 -36   15.85    2.61
  24   2 -36   14.83    1.91
  24  -2 -34   -0.24    0.43
  24   2 -34   -0.69    0.60
  24  -2 -32    1.05    0.80
  24   2 -32   -0.02    0.46
  24  -2 -30   79.09    6.10
  24   2 -30   79.06    5.11
  24  -2 -28   -0.19    0.73
  24   2 -28   -1.41    1.13
  24  -2 -26   -1.28    1.14
  24   2 -26    0.23    0.34
  24  -2 -24  197.83    9.83
  24   2 -24  196.39    8.60
  24  -2 -22   -0.19    0.58
 -24  -2  22   -0.87    1.21
  24   2 -22   -0.12    0.35
 -24  -2  20   -0.40    0.73
  24  -2 -20   -0.11    0.50
  24   2 -20    0.63    0.90
 -24  -2  18  135.70    7.77
  24  -2 -18  131.99    8.15
  24   2 -18  130.59    7.50
  24  -2 -16    0.02    0.41
 -24  -2  16    0.29    0.73
  24   2 -16   -0.63    0.90
  24  -2 -14   -0.69    0.64
 -24  -2  14   -0.71    0.98
  24   2 -14    0.21    0.57
  24  -2 -12   44.11    4.85
 -24  -2  12   41.49    4.48
  24   2 -12   40.42    4.33
  24  -2 -10   -0.31    0.90
 -24  -2  10   -0.74    0.85
  24   2 -10    0.73    0.35
  24  -2  -8    0.26    0.40
 -24  -2   8    0.20    0.79
  24   2  -8    0.08    0.56
  24  -2  -6  479.90   16.19
 -24  -2   6  478.07   16.00
  24   2  -6  486.68   15.66
  24  -2  -4   -0.06    0.62
 -24  -2   4   -1.22    0.68
  24  -2  -2   -1.11    1.19
 -24  -2   2   -0.14    0.64
  24   2  -2    0.18    0.32
  24  -2   0  467.21   16.42
 -24  -2   0  456.97   16.26
  24   2   0  473.39   16.23
  24  -2   2   -0.19    0.26
 -24  -2  -2   -1.44    1.08
  24   2   2    0.02    0.81
  24  -2   4   -0.30    0.51
 -24  -2  -4   -0.60    1.44
  24   2   4   -1.01    1.31
  24  -2   6   60.02    5.98
 -24  -2  -6   53.13    5.70
  24   2   6   55.77    5.80
  24  -2   8   -0.07    0.47
 -24  -2  -8    0.04    0.39
 -24  -2 -10    0.76    1.12
 -24  -2 -12  174.42   10.90
 -24  -2 -14    0.67    1.20
 -24  -2 -16   -1.94    1.80
 -24  -2 -18   89.07    8.19
 -24  -2 -20   -0.87    1.24
 -24  -2 -22    1.48    1.46
 -24  -2 -24  180.51   12.02
 -24  -2 -26   -0.15    0.61
 -24  -2 -28    0.34    0.46
 -24  -2 -30   67.99    7.70
 -24  -2 -32    0.13    1.22
 -24  -2 -34   -0.94    1.42
 -24  -2 -36   38.29    5.90
 -24  -2 -38   -0.39    1.14
  24  -3 -37   -0.16    0.51
  24  -3 -35   -1.01    0.77
  24   3 -35    0.41    0.56
  24  -3 -33   46.46    4.80
  24   3 -33   39.79    3.37
  24  -3 -31    1.10    1.21
  24   3 -31   -0.10    0.55
  24  -3 -29    0.58    0.65
  24   3 -29    0.11    0.35
  24  -3 -27  101.69    7.28
  24   3 -27  100.47    5.99
 -24  -3  25   -0.48    0.91
  24  -3 -25    0.76    0.79
  24   3 -25    0.37    0.46
 -24  -3  23    0.31    0.56
  24  -3 -23   -1.39    1.11
  24   3 -23   -0.39    0.56
  24  -3 -21  270.34   12.02
 -24  -3  21  285.28   11.11
  24   3 -21  276.10   10.64
 -24  -3  19    0.25    0.55
  24  -3 -19   -0.38    0.71
  24   3 -19   -0.13    0.68
 -24  -3  17   -0.77    0.71
  24  -3 -17    0.75    0.82
  24   3 -17   -0.20    0.79
  24  -3 -15  148.00    9.00
 -24  -3  15  150.37    8.51
  24   3 -15  136.97    7.91
  24  -3 -13   -0.11    0.37
 -24  -3  13    1.15    1.16
  24   3 -13   -0.34    0.80
  24  -3 -11   -1.48    1.20
 -24  -3  11   -0.11    0.84
  24   3 -11   -0.85    0.89
  24  -3  -9  283.70   12.67
 -24  -3   9  278.33   12.08
  24   3  -9  277.63   11.88
 -24  -3   7    0.57    0.52
  24  -3  -7   -0.58    0.71
  24   3  -7    1.11    0.99
  24  -3  -5    0.37    0.52
 -24  -3   5    1.89    1.55
  24   3  -5    1.90    1.17
  24  -3  -3  698.58   20.36
 -24  -3   3  659.24   19.20
  24   3  -3  691.36   19.42
  24  -3  -1    0.00    0.62
 -24  -3   1    1.39    1.23
  24   3  -1    1.01    0.98
  24  -3   1    0.00    0.28
 -24  -3  -1   -0.80    0.57
  24   3   1   -0.72    0.62
  24  -3   3  171.89   10.34
 -24  -3  -3  143.88    9.44
  24   3   3  157.14    9.67
  24  -3   5    0.91    1.18
 -24  -3  -5    0.09    0.40
 -24  -3  -7    0.31    0.50
 -24  -3  -9    0.65    0.58
 -24  -3 -11    0.68    1.06
 -24  -3 -13    1.55    1.23
 -24  -3 -15  286.72   14.49
 -24  -3 -17   -0.72    0.92
 -24  -3 -19    1.49    1.03
 -24  -3 -21  195.98   12.56
 -24  -3 -23   -0.42    1.01
 -24  -3 -25   -0.68    0.99
 -24  -3 -27  169.51   12.24
 -24  -3 -29   -1.37    1.29
 -24  -3 -31   -0.49    0.89
 -24  -3 -33   44.16    6.46
 -24  -3 -35    0.70    1.36
 -24  -3 -37   -0.15    0.66
 -24  -3 -39   51.06    7.10
  24  -4 -38   -0.43    0.92
  24  -4 -36   22.27    3.53
  24  -4 -34    0.76    0.42
  24   4 -34    0.35    0.42
  24  -4 -32   -0.21    0.70
  24   4 -32    0.54    0.60
  24   4 -30  102.36    5.99
 -24  -4  28   -0.38    0.45
  24   4 -28    0.82    0.91
 -24  -4  26   -0.45    0.51
  24   4 -26    0.48    0.53
 -24  -4  24  135.05    7.58
  24   4 -24  121.11    7.01
 -24  -4  22   -0.38    0.38
  24  -4 -22   -0.76    1.18
  24   4 -22    0.76    0.75
  24  -4 -20    0.19    0.73
 -24  -4  20   -1.00    0.95
  24   4 -20   -1.01    0.53
  24  -4 -18  135.90    8.86
 -24  -4  18  136.38    8.06
  24   4 -18  132.98    7.79
 -24  -4  16    1.87    1.27
  24  -4 -16    0.62    0.75
  24   4 -16   -0.45    0.56
  24  -4 -14    0.49    0.70
 -24  -4  14    0.42    0.86
  24   4 -14    0.28    0.58
  24  -4 -12  426.70   15.86
 -24  -4  12  421.33   14.75
  24   4 -12  416.23   14.47
  24  -4 -10    0.64    0.80
 -24  -4  10    0.09    0.46
  24   4 -10    0.85    0.78
  24  -4  -8   -0.57    0.94
 -24  -4   8   -0.88    1.03
  24   4  -8    1.13    0.96
  24  -4  -6  335.23   14.27
 -24  -4   6  334.09   13.83
  24   4  -6  336.40   13.59
  24  -4  -4   -0.28    0.80
 -24  -4   4   -0.14    0.60
  24   4  -4    0.10    0.46
  24  -4  -2   -0.58    0.51
 -24  -4   2   -1.14    0.52
  24   4  -2    0.04    0.48
 -24  -4   0  201.69   11.25
  24   4   0  207.16   11.07
 -24  -4  -2   -1.05    1.03
 -24  -4  -4   -0.32    0.80
 -24  -4  -6   92.50    7.79
 -24  -4  -8    1.90    1.54
 -24  -4 -10   -1.36    1.05
 -24  -4 -12   26.69    4.41
 -24  -4 -14   -1.22    1.04
 -24  -4 -16   -1.99    1.41
 -24  -4 -18  253.82   14.25
 -24  -4 -20   -0.57    0.91
 -24  -4 -22   -0.79    0.99
 -24  -4 -24  137.63   11.00
 -24  -4 -26    1.44    1.48
 -24  -4 -28   -1.25    1.57
 -24  -4 -30  115.66   10.55
 -24  -4 -32    0.18    0.94
 -24  -4 -34   -0.86    1.52
 -24  -4 -36   78.80    9.04
 -24  -4 -38   -1.18    1.44
  24   5 -33   47.78    3.99
  24   5 -31    0.54    0.52
 -24  -5  31    0.60    0.66
  24   5 -29    0.37    0.91
 -24  -5  29    0.28    0.59
  24   5 -27   51.75    4.64
 -24  -5  27   59.99    4.96
  24   5 -25    0.81    0.57
 -24  -5  25    0.01    0.48
  24   5 -23   -0.10    0.57
 -24  -5  23   -0.42    0.61
 -24  -5  21   63.30    5.53
  24   5 -21   61.62    5.35
 -24  -5  19   -0.21    0.77
  24   5 -19   -0.03    0.62
 -24  -5  17   -0.26    0.69
  24   5 -17    0.03    0.51
 -24  -5  15  274.49   12.02
  24   5 -15  269.27   11.80
 -24  -5  13    3.30    1.43
  24   5 -13    0.32    0.53
 -24  -5  11    0.26    0.79
  24   5 -11   -0.25    0.55
 -24  -5   9  145.19    9.07
  24   5  -9  142.27    8.93
 -24  -5   7    0.84    0.72
  24   5  -7    0.28    0.65
 -24  -5   5   -0.46    0.68
  24   5  -5   -0.04    0.88
 -24  -5   3  100.38    7.98
 -24  -5   1    0.51    0.79
 -24  -5  -1   -0.18    0.47
 -24  -5  -3  126.37    9.25
 -24  -5  -5   -0.33    0.72
 -24  -5  -7    2.54    1.86
 -24  -5  -9  398.56   17.42
 -24  -5 -11   -0.95    0.89
 -24  -5 -13   -1.16    0.96
 -24  -5 -15  181.16   12.07
 -24  -5 -17   -0.41    1.02
 -24  -5 -19    0.64    0.47
 -24  -5 -21  159.81   11.83
 -24  -5 -23    1.25    0.89
 -24  -5 -25   -0.83    1.03
 -24  -5 -27  105.49   10.03
 -24  -5 -29   -2.55    1.74
 -24  -5 -31    1.80    1.38
 -24  -5 -33   58.46    7.89
 -24  -5 -35    2.05    2.17
 -24  -5 -37    2.01    1.88
 -24  -5 -39   12.72    3.59
 -24  -6  34   -0.52    0.42
 -24  -6  32   -0.63    0.74
  24   6 -30   57.79    4.93
 -24  -6  30   68.45    5.32
  24   6 -28    0.55    0.44
 -24  -6  28    0.35    0.46
  24   6 -26    0.39    0.86
 -24  -6  26    1.66    1.09
 -24  -6  24   57.48    5.24
  24   6 -24   52.69    5.08
 -24  -6  22    0.24    0.40
  24   6 -22    1.02    0.80
 -24  -6  20   -0.35    0.67
  24   6 -20    0.80    0.95
 -24  -6  18  112.93    7.77
  24   6 -18  112.97    7.85
 -24  -6  16   -1.08    1.27
  24   6 -16   -0.20    0.53
 -24  -6  14   -0.17    0.49
  24   6 -14   -0.93    1.02
 -24  -6  12  161.18    9.80
  24   6 -12  150.77    9.40
 -24  -6  10   -0.84    1.07
  24   6 -10    0.27    0.66
 -24  -6   8   -0.37    0.89
 -24  -6   6   66.03    6.49
 -24  -6   4    0.14    0.44
 -24  -6   2    0.03    0.80
 -24  -6   0  186.45   11.31
 -24  -6  -2    0.02    0.84
 -24  -6  -4    3.21    1.90
 -24  -6  -6  297.30   14.97
 -24  -6  -8    1.22    1.44
 -24  -6 -10    1.92    1.46
 -24  -6 -12  250.37   14.30
 -24  -6 -14    0.88    2.14
 -24  -6 -16    1.59    1.19
 -24  -6 -18   41.24    6.03
 -24  -6 -20   -0.58    0.62
 -24  -6 -22   -1.21    1.32
 -24  -6 -24  121.26   10.80
 -24  -6 -26   -0.94    1.78
 -24  -6 -28    0.10    0.95
 -24  -6 -30   96.07   10.02
 -24  -6 -32   -0.08    0.66
 -24  -6 -34    0.62    0.96
 -24  -6 -36   36.43    6.45
 -24  -7  33   48.22    4.39
 -24  -7  31   -0.13    0.25
 -24  -7  29   -0.12    0.63
 -24  -7  27   49.40    4.88
  24   7 -27   49.22    4.98
 -24  -7  25   -1.06    1.04
  24   7 -25    0.56    0.80
 -24  -7  23   -1.46    0.91
  24   7 -23    0.65    0.40
 -24  -7  21   31.30    4.19
  24   7 -21   29.33    4.10
 -24  -7  19   -0.35    0.92
  24   7 -19    0.19    0.74
 -24  -7  17   -0.43    0.83
  24   7 -17   -0.82    1.33
 -24  -7  15   59.84    5.95
 -24  -7  13   -0.36    0.40
 -24  -7  11   -0.03    1.05
 -24  -7   9  113.82    8.62
 -24  -7   7    0.74    0.77
 -24  -7   5   -0.44    1.33
 -24  -7   3   81.67    7.57
 -24  -7   1    0.29    0.82
 -24  -7  -1    0.40    0.86
 -24  -7  -3  293.65   14.90
 -24  -7  -5    0.64    1.41
 -24  -7  -7   -0.60    0.70
 -24  -7  -9  213.91   13.20
 -24  -7 -11   -0.45    0.62
 -24  -7 -13    0.85    1.57
 -24  -7 -15   97.19    9.41
 -24  -7 -17    0.83    1.01
 -24  -7 -19   -1.33    1.43
 -24  -7 -21   81.54    9.05
 -24  -7 -23   -2.80    1.95
 -24  -7 -25   -0.80    1.68
 -24  -7 -27   83.08    9.35
 -24  -7 -29    0.50    0.77
 -24  -7 -31   -0.19    1.02
 -24  -7 -33   17.21    4.45
  24  -8 -44   -0.46    0.64
 -24  -8  32   -0.07    0.44
 -24  -8  30   41.26    4.51
 -24  -8  28    0.91    0.92
 -24  -8  26   -0.37    0.98
 -24  -8  24   20.25    3.36
  24   8 -24   18.94    3.29
 -24  -8  22   -0.98    1.18
  24   8 -22   -1.31    0.96
 -24  -8  20   -0.90    1.00
 -24  -8  18   17.01    3.18
 -24  -8  16   -0.81    1.03
 -24  -8  14    0.27    0.92
 -24  -8  12   94.74    8.12
 -24  -8  10   -0.74    1.20
 -24  -8   8    0.17    0.68
 -24  -8   6   91.04    8.21
 -24  -8   4    0.28    0.89
 -24  -8   2   -1.35    1.34
 -24  -8   0  109.98    9.46
 -24  -8  -2    0.75    0.93
 -24  -8  -4    1.02    0.59
 -24  -8  -6  112.67    9.67
 -24  -8  -8    0.95    0.80
 -24  -8 -10    0.76    1.20
 -24  -8 -12  105.62    9.92
 -24  -8 -14   -0.43    1.13
 -24  -8 -16    1.60    1.69
 -24  -8 -18   90.61    9.61
 -24  -8 -20    0.00    1.07
 -24  -8 -22    2.00    1.68
 -24  -8 -24   57.73    7.87
 -24  -8 -26    0.97    1.73
 -24  -8 -28   -2.49    2.07
  24  -9 -43    0.91    1.34
 -24  -9  29    0.50    0.53
 -24  -9  27   40.79    4.97
 -24  -9  25   -0.40    0.97
 -24  -9  23    0.96    0.96
 -24  -9  21    2.56    1.15
 -24  -9  19   -1.31    1.27
 -24  -9  17   -0.38    0.78
 -24  -9  15    4.84    1.86
 -24  -9  13   -2.18    1.73
 -24  -9  11   -1.08    0.75
 -24  -9   9   87.06    8.18
 -24  -9   7    0.19    0.81
 -24  -9   5    0.60    0.96
 -24  -9   3  151.05   11.19
 -24  -9   1    0.82    0.84
 -24  -9  -1   -0.03    0.59
 -24  -9  -3   73.22    7.96
 -24  -9  -5    0.71    1.30
 -24  -9  -7   -0.99    1.20
 -24  -9  -9   62.73    7.70
 -24  -9 -11   -0.91    0.61
 -24  -9 -13   -2.04    1.20
 -24  -9 -15   47.04    6.85
 -24  -9 -17    2.11    1.80
 -24  -9 -19    1.75    2.08
 -24  -9 -21  137.11   12.30
 -24  -9 -23    3.32    2.30
  24 -10 -42    1.80    1.53
 -24 -10  28    0.81    0.46
 -24 -10  26    0.17    0.62
 -24 -10  24   23.40    4.07
 -24 -10  22    0.25    0.49
 -24 -10  20   -0.10    0.92
 -24 -10  18   39.40    5.39
 -24 -10  16   -0.61    0.93
 -24 -10  14   -0.75    0.69
 -24 -10  12   22.45    4.19
 -24 -10  10   -2.70    2.31
 -24 -10   8    0.36    1.24
 -24 -10   6  113.30    9.79
 -24 -10   4    1.70    1.69
 -24 -10   2    2.18    2.15
 -24 -10   0   75.58    8.39
 -24 -10  -2    0.33    1.05
 -24 -10  -4    2.13    1.70
 -24 -10  -6   11.08    3.34
 -24 -10  -8    0.63    0.74
 -24 -10 -10    0.57    1.14
 -24 -10 -12   33.09    5.91
 -24 -10 -14   -0.30    1.13
 -24 -10 -16    4.69    2.33
 -24 -10 -18   58.15    8.21
 -24 -11  27   13.80    3.27
 -24 -11  25    2.42    1.52
 -24 -11  23    1.59    1.32
 -24 -11  21   22.04    4.15
 -24 -11  19    1.37    1.50
 -24 -11  17   -0.48    0.51
 -24 -11  15   27.74    4.88
 -24 -11  13    0.61    0.80
 -24 -11  11    2.08    1.70
 -24 -11   9   17.35    3.87
 -24 -11   7   -2.01    1.78
 -24 -11   5   -0.76    1.25
 -24 -11   3   46.72    6.64
 -24 -11   1   -0.05    1.11
 -24 -11  -1    1.78    1.77
 -24 -11  -3   19.88    4.73
 -24 -11  -5    3.40    2.04
 -24 -11  -7   -1.36    1.33
 -24 -11  -9   13.69    3.90
 -24 -11 -11    0.92    0.48
 -24 -11 -13    2.13    1.89
 -24 -12  24   13.25    3.39
 -24 -12  22   -1.73    1.31
 -24 -12  20   -1.62    1.19
 -24 -12  18   14.16    3.54
 -24 -12  16    3.96    2.36
 -24 -12  14    1.07    1.37
 -24 -12  12   24.92    4.95
 -24 -12  10   -2.92    2.14
 -24 -12   8   -3.35    2.49
 -24 -12   6   12.67    3.46
 -24 -12   4   -0.32    1.51
 -24 -12   2   -0.93    1.79
 -24 -12   0   14.19    3.93
 -24 -12  -2   -0.94    1.98
 -24 -12  -4   -1.05    1.34
 -24 -12  -6   17.89    4.39
 -24 -13  23   -0.30    0.89
 -24 -13  21   12.70    3.35
 -24 -13  19    0.88    1.50
 -24 -13  17    1.06    1.58
 -24 -13  15   16.27    4.18
 -24 -13  13   -1.81    1.17
 -24 -13  11   -0.87    1.07
 -24 -13   9    3.51    1.85
 -24 -13   7    1.44    1.10
 -24 -13   5   -0.79    1.30
 -24 -13   3   10.90    3.44
 -24 -14  20    1.80    1.64
 -24 -14  18    8.11    2.98
 -24 -14  16   -0.76    1.23
 -24 -14  14    1.14    1.25
  25   0 -37    1.70    0.91
  25   0 -35   -0.64    0.30
  25   0 -33   -1.15    0.98
  25   0 -31    0.97    0.74
  25   0 -29   -0.64    0.72
  25   0 -27   -0.27    0.71
  25   0 -25   -1.90    1.24
  25   0 -23   -2.30    1.33
  25   0 -21   -0.39    0.63
  25   0 -19    0.92    0.98
  25   0 -17   -0.85    0.70
  25   0 -15    1.19    0.96
  25   0 -13    1.41    1.55
  25   0 -11   -0.30    1.05
 -25   0   9   -1.37    1.36
  25   0  -9   -0.82    1.10
 -25   0   7   -0.18    1.04
  25   0  -7   -1.13    1.12
 -25   0   5    1.04    1.01
  25   0  -5   -0.02    0.63
 -25   0   3   -0.60    0.91
  25   0  -3   -0.84    0.97
 -25   0   1   -1.83    1.75
  25   0  -1   -1.43    1.42
 -25   0  -1    2.61    2.07
  25   0   1   -0.22    0.97
 -25   0  -3    4.63    2.87
  25   0   3    4.12    2.36
 -25   0  -5    1.36    1.80
  25   0   5    2.60    1.67
 -25   0  -7   -0.12    0.70
 -25   0  -9   -1.99    1.40
 -25   0 -11   -0.13    0.87
 -25   0 -13   -0.19    0.73
 -25   0 -15    0.37    0.69
 -25   0 -17    0.78    1.40
 -25   0 -19    1.18    0.50
 -25   0 -21   -1.06    0.41
 -25   0 -23   -0.11    1.26
 -25   0 -25   -0.60    0.76
 -25   0 -27   -0.78    0.92
 -25   0 -29   -0.05    0.49
 -25   0 -31   -0.38    1.49
 -25   0 -33   -0.96    1.11
  25  -1 -38   42.03    3.96
  25  -1 -36   -0.32    0.48
  25   1 -36    0.13    0.38
  25  -1 -34    1.53    0.98
  25   1 -34    0.48    0.66
  25  -1 -32    5.23    1.56
  25   1 -32    4.53    1.34
  25  -1 -30   -1.62    1.13
  25   1 -30   -0.27    0.47
  25  -1 -28    0.03    0.49
  25   1 -28   -0.32    0.25
  25  -1 -26    3.09    1.21
  25   1 -26    4.11    1.41
  25  -1 -24   -0.61    0.58
  25   1 -24    2.10    1.12
  25  -1 -22   -1.14    0.95
  25   1 -22   -0.11    0.43
  25  -1 -20   10.41    2.33
  25   1 -20   11.92    2.35
  25  -1 -18    1.90    1.46
  25   1 -18    1.40    1.35
 -25  -1  16    0.33    0.46
  25  -1 -16    0.46    0.47
  25   1 -16   -0.77    0.80
 -25  -1  14   42.99    4.59
  25  -1 -14   36.96    4.32
  25   1 -14   45.47    4.70
  25  -1 -12   -0.17    0.45
 -25  -1  12   -1.80    1.26
  25   1 -12   -0.44    0.66
 -25  -1  10   -1.08    1.06
  25  -1 -10    1.65    1.47
  25   1 -10    1.25    1.26
 -25  -1   8   39.69    4.65
  25   1  -8   39.93    4.56
  25  -1  -8   37.32    4.47
  25  -1  -6   -0.96    1.06
 -25  -1   6   -0.60    1.02
  25   1  -6    0.23    0.91
 -25  -1   4   -0.32    1.00
  25  -1  -4   -1.14    1.10
  25   1  -4    0.47    1.29
 -25  -1   2   91.52    7.33
  25  -1  -2   91.16    7.17
  25   1  -2   92.07    7.19
 -25  -1   0    3.38    2.07
 -25   1   0    1.53    2.18
  25  -1   0    0.95    1.26
  25   1   0    0.55    1.17
 -25   1  -2    0.32    0.92
 -25  -1  -2   -0.60    0.62
  25   1   2   -0.92    0.56
  25  -1   2    0.34    0.93
 -25  -1  -4   -0.57    0.85
 -25   1  -4   -0.38    0.53
  25  -1   4   -0.72    1.14
  25   1   4   -1.46    1.27
 -25  -1  -6   -1.08    0.69
 -25   1  -6    1.08    1.32
 -25   1  -8    0.35    1.29
 -25  -1  -8   -0.32    0.90
 -25   1 -10    3.12    1.71
 -25  -1 -10    2.62    1.57
 -25   1 -12   -0.03    1.20
 -25  -1 -12    0.70    1.26
 -25  -1 -14   -0.04    0.58
 -25   1 -14    1.25    1.58
 -25   1 -16    1.44    1.29
 -25  -1 -16    2.48    1.35
 -25  -1 -18   -1.49    1.03
 -25   1 -18    0.56    1.06
 -25  -1 -20    0.31    1.01
 -25   1 -20    0.20    0.92
 -25  -1 -22   -0.24    0.68
 -25   1 -22    0.89    0.88
 -25  -1 -24   -1.03    0.80
 -25   1 -24    0.77    0.48
 -25  -1 -26   -0.59    1.22
 -25  -1 -28    0.32    0.55
 -25  -1 -30    0.50    1.03
 -25  -1 -32    0.39    1.00
 -25  -1 -34    2.04    1.32
 -25  -1 -36   -0.33    1.37
 -25  -1 -38    1.07    1.26
  25  -2 -37   -0.22    0.42
  25  -2 -35   31.58    3.88
  25   2 -35   29.85    2.92
  25  -2 -33   -0.14    0.52
  25   2 -33   -0.66    0.64
  25  -2 -31    0.34    0.39
  25   2 -31   -0.94    0.69
  25  -2 -29   12.30    2.46
  25   2 -29   11.34    2.04
  25  -2 -27   -0.92    0.64
  25   2 -27    0.36    0.63
  25  -2 -25   -0.18    0.61
  25   2 -25    0.74    1.03
  25  -2 -23    5.97    1.87
  25   2 -23    5.49    1.65
 -25  -2  21   -0.59    0.80
  25  -2 -21    0.49    0.66
 -25  -2  19   -0.02    0.68
  25  -2 -19   -1.25    1.15
  25   2 -19    0.30    0.71
  25  -2 -17   21.85    3.47
 -25  -2  17   20.00    3.11
  25   2 -17   22.62    3.24
  25  -2 -15   -1.00    1.15
 -25  -2  15    0.13    0.94
  25   2 -15    0.32    0.51
  25  -2 -13    0.06    0.77
 -25  -2  13   -1.15    1.05
  25   2 -13    0.35    0.40
  25  -2 -11   90.67    7.08
 -25  -2  11   90.46    6.87
  25   2 -11   87.62    6.63
 -25  -2   9    2.69    1.60
  25  -2  -9    2.07    1.40
  25   2  -9    2.52    1.78
 -25  -2   7    1.73    1.53
  25  -2  -7   -0.74    0.69
  25   2  -7    0.74    1.22
 -25  -2   5   14.00    2.77
  25  -2  -5   15.54    2.96
  25   2  -5   14.21    2.82
  25  -2  -3   -1.13    1.25
 -25  -2   3    1.57    1.49
  25   2  -3    1.95    1.36
  25  -2  -1   -0.32    0.65
 -25  -2   1    0.08    0.80
  25   2  -1   -0.09    0.90
  25  -2   1    1.26    0.27
 -25  -2  -1    1.76    0.82
  25   2   1    0.43    1.31
  25  -2   3   -0.86    0.89
 -25  -2  -3   -2.00    1.69
  25   2   3   -1.34    1.07
 -25  -2  -5   -1.48    1.73
 -25  -2  -7   26.51    4.20
 -25  -2  -9    2.15    1.98
 -25  -2 -11    0.51    0.90
 -25  -2 -13    4.85    1.94
 -25  -2 -15    1.17    0.79
 -25  -2 -17    1.27    0.75
 -25  -2 -19   -1.43    1.79
 -25  -2 -21   -0.70    0.86
 -25  -2 -23    1.82    1.83
 -25  -2 -25    7.13    2.68
 -25  -2 -27   -0.47    0.46
 -25  -2 -29    0.20    1.24
 -25  -2 -31    1.65    1.58
 -25  -2 -33   -1.08    0.67
 -25  -2 -35    0.64    0.60
 -25  -2 -37    0.02    0.80
  25  -3 -38    2.69    1.11
  25  -3 -36    1.58    1.19
  25  -3 -34    0.00    0.32
  25   3 -34   -1.17    0.76
  25  -3 -32   25.30    3.66
  25   3 -32   24.60    2.85
  25  -3 -30    1.06    0.94
  25   3 -30   -0.55    0.23
  25  -3 -28    0.73    0.70
  25   3 -28    1.13    0.74
 -25  -3  26    2.47    1.08
  25  -3 -26    4.98    1.56
  25   3 -26    3.08    1.01
  25  -3 -24   -0.80    0.31
 -25  -3  24   -0.28    0.51
  25   3 -24    0.90    0.85
  25  -3 -22   -0.19    0.68
 -25  -3  22   -0.14    0.71
  25   3 -22    1.25    1.09
  25  -3 -20    9.31    2.32
 -25  -3  20   11.28    2.42
  25   3 -20   10.59    2.18
  25  -3 -18    0.05    0.33
 -25  -3  18   -0.28    0.64
  25   3 -18   -1.45    1.15
  25  -3 -16   -0.62    0.49
 -25  -3  16   -0.38    0.60
  25   3 -16   -0.02    0.61
  25  -3 -14    2.33    1.11
 -25  -3  14    2.44    1.19
  25   3 -14    0.85    0.43
 -25  -3  12    1.03    0.98
  25  -3 -12    0.15    0.65
  25   3 -12   -1.58    1.20
  25  -3 -10    0.03    0.52
 -25  -3  10    0.00    0.65
  25   3 -10   -0.06    0.33
  25  -3  -8   18.03    3.31
 -25  -3   8   14.72    2.96
  25   3  -8   15.35    2.80
  25  -3  -6    3.23    2.15
 -25  -3   6    2.46    2.02
  25   3  -6    1.20    1.07
  25  -3  -4    0.31    0.80
 -25  -3   4    1.53    1.51
  25   3  -4    1.84    1.64
  25  -3  -2    1.75    1.02
 -25  -3   2    0.25    0.69
  25   3  -2    1.06    1.04
 -25  -3   0   -0.12    0.92
  25  -3   0   -0.20    0.72
  25   3   0   -1.14    1.42
 -25  -3  -2    0.15    0.41
 -25  -3  -4    2.93    1.09
 -25  -3  -6   -1.50    1.39
 -25  -3  -8   -0.02    0.55
 -25  -3 -10   23.94    4.07
 -25  -3 -12    2.67    1.90
 -25  -3 -14   -0.14    0.91
 -25  -3 -16    0.98    1.14
 -25  -3 -18   -0.34    0.64
 -25  -3 -20   -0.12    0.54
 -25  -3 -22    4.53    2.39
 -25  -3 -24    2.55    2.16
 -25  -3 -26    0.78    1.16
 -25  -3 -28    2.35    1.38
 -25  -3 -30   -1.07    0.54
 -25  -3 -32    1.07    1.38
 -25  -3 -34    2.35    2.04
 -25  -3 -36    2.06    1.45
 -25  -3 -38    2.06    1.94
  25  -4 -37   -1.35    0.90
  25  -4 -35   -0.13    0.99
  25  -4 -33    0.24    0.69
  25   4 -33    0.18    0.60
  25  -4 -31    1.13    0.97
  25   4 -31    0.61    0.73
 -25  -4  29    4.26    1.34
  25  -4 -29    2.59    1.33
  25   4 -29    4.62    1.47
  25  -4 -27   -0.70    0.76
 -25  -4  27   -0.43    0.52
  25   4 -27    0.90    0.89
 -25  -4  25   -0.60    0.55
  25  -4 -25    0.90    0.89
  25   4 -25   -0.30    0.42
 -25  -4  23    5.31    1.66
  25  -4 -23    4.80    1.58
  25   4 -23    4.62    1.42
 -25  -4  21   -0.20    0.74
  25  -4 -21   -0.02    0.99
  25   4 -21    1.28    1.04
 -25  -4  19   -0.37    0.39
  25   4 -19    0.19    0.49
  25  -4 -17    0.64    0.43
 -25  -4  17    1.30    1.09
  25   4 -17    0.31    0.46
  25  -4 -15   -1.45    1.18
  25   4 -15    0.02    0.53
  25  -4 -13    2.44    1.76
 -25  -4  13    1.26    1.15
  25   4 -13    0.80    0.86
 -25  -4  11   16.64    3.05
  25  -4 -11   17.67    3.30
  25   4 -11   16.68    3.04
  25  -4  -9   -0.01    0.32
 -25  -4   9    0.02    0.40
  25   4  -9    1.35    1.22
 -25  -4   7    0.53    0.82
  25   4  -7    0.54    0.51
 -25  -4   5    1.17    0.88
  25   4  -5   -0.35    0.60
 -25  -4   3    0.07    0.96
  25   4  -3    0.61    0.64
 -25  -4   1    0.22    0.95
 -25  -4  -1    7.25    2.08
 -25  -4  -3   -0.49    1.01
 -25  -4  -5   -0.34    1.35
 -25  -4  -7    2.59    1.49
 -25  -4  -9    0.32    0.80
 -25  -4 -11   -1.15    1.20
 -25  -4 -13   -1.69    1.66
 -25  -4 -15    4.43    2.69
 -25  -4 -17    1.21    1.49
 -25  -4 -19    0.62    0.70
 -25  -4 -21    0.58    1.81
 -25  -4 -23    1.25    1.58
 -25  -4 -25    0.91    1.08
 -25  -4 -27    0.90    1.84
 -25  -4 -29    0.87    1.25
 -25  -4 -31    0.72    1.13
 -25  -4 -33    2.22    1.63
 -25  -4 -35    1.11    1.86
 -25  -4 -37   -1.04    1.20
 -25  -5  32    5.05    1.28
  25   5 -32    4.66    1.35
 -25  -5  30   -0.05    0.39
  25   5 -30    0.86    0.49
 -25  -5  28   -0.78    0.92
  25   5 -28    0.11    0.28
 -25  -5  26   -0.68    0.87
  25   5 -26   -0.11    0.46
 -25  -5  24    1.33    1.13
  25   5 -24    0.52    0.92
 -25  -5  22    1.17    0.51
  25   5 -22    0.29    0.31
 -25  -5  20   12.20    2.57
  25   5 -20   12.87    2.56
 -25  -5  18   -0.53    0.37
  25   5 -18    2.43    1.43
 -25  -5  16   -0.55    0.60
  25   5 -16    0.55    0.79
 -25  -5  14    6.35    1.79
  25   5 -14    5.16    1.56
 -25  -5  12   -0.57    0.94
  25   5 -12    1.71    1.10
 -25  -5  10   -0.44    0.58
  25   5 -10   -1.39    0.96
 -25  -5   8   -0.62    1.17
  25   5  -8   -0.90    1.08
 -25  -5   6    1.17    0.64
 -25  -5   4    0.14    0.48
 -25  -5   2    3.49    1.33
 -25  -5   0   -0.82    0.97
 -25  -5  -2   -0.36    0.98
 -25  -5  -4    0.81    1.15
 -25  -5  -6    1.92    2.02
 -25  -5  -8    1.14    1.31
 -25  -5 -10   -0.22    0.53
 -25  -5 -12   -0.16    0.61
 -25  -5 -14   -0.74    0.57
 -25  -5 -16    5.07    1.81
 -25  -5 -18    1.81    1.57
 -25  -5 -20    1.87    1.12
 -25  -5 -22   -0.14    1.16
 -25  -5 -24    0.26    0.53
 -25  -5 -26    0.84    1.10
 -25  -5 -28   -0.49    0.89
 -25  -5 -30    1.56    1.66
 -25  -5 -32    1.43    1.73
 -25  -5 -34    0.82    1.56
 -25  -5 -36    0.72    1.38
 -25  -6  33   -0.86    0.77
  25   6 -31   -0.08    0.41
 -25  -6  31    0.70    0.87
  25   6 -29    0.50    0.68
 -25  -6  29    2.58    1.25
  25   6 -27    0.92    0.90
 -25  -6  27    0.07    0.52
  25   6 -25   -0.63    0.90
 -25  -6  25   -0.43    0.86
  25   6 -23    9.35    2.27
 -25  -6  23   10.86    2.34
 -25  -6  21    1.61    1.44
  25   6 -21    3.70    1.50
 -25  -6  19   -0.48    0.55
  25   6 -19   -0.68    0.61
 -25  -6  17    2.07    0.46
  25   6 -17    5.35    1.65
 -25  -6  15    0.86    1.03
  25   6 -15    0.01    0.95
 -25  -6  13   -0.60    1.10
  25   6 -13   -0.04    0.34
 -25  -6  11    0.65    0.59
 -25  -6   9    0.07    0.80
 -25  -6   7    0.02    0.54
 -25  -6   5    7.09    2.08
 -25  -6   3    0.58    1.26
 -25  -6   1    0.93    1.14
 -25  -6  -1    0.67    1.02
 -25  -6  -3    1.08    1.57
 -25  -6  -5    0.78    1.74
 -25  -6  -7   -0.84    0.88
 -25  -6  -9    2.92    2.21
 -25  -6 -11   -0.58    0.85
 -25  -6 -13  123.38   10.34
 -25  -6 -15   -1.50    0.52
 -25  -6 -17   -0.75    1.23
 -25  -6 -19   -1.11    1.75
 -25  -6 -21    1.15    1.81
 -25  -6 -23   -0.35    1.27
 -25  -6 -25    0.88    0.74
 -25  -6 -27    0.53    1.20
 -25  -6 -29   -1.39    1.88
 -25  -6 -31    2.51    1.90
 -25  -6 -33    1.11    1.15
 -25  -7  32    6.60    1.71
 -25  -7  30   -1.17    1.01
  25   7 -28    0.40    0.55
 -25  -7  28   -0.57    0.61
 -25  -7  26    2.15    1.12
  25   7 -26    1.07    0.43
 -25  -7  24   -0.05    0.71
  25   7 -24   -0.56    0.48
 -25  -7  22    1.18    0.84
  25   7 -22   -1.40    0.56
 -25  -7  20   19.83    3.37
  25   7 -20   20.16    3.51
 -25  -7  18   -0.44    0.83
  25   7 -18    1.70    1.54
 -25  -7  16   -1.10    0.92
 -25  -7  14    3.50    1.53
 -25  -7  12    0.83    0.80
 -25  -7  10    0.82    0.69
 -25  -7   8    7.97    2.22
 -25  -7   6   -1.82    1.36
 -25  -7   4    2.36    1.67
 -25  -7   2    4.60    2.05
 -25  -7   0    2.98    2.01
 -25  -7  -2   -1.39    0.84
 -25  -7  -4   -1.34    1.64
 -25  -7  -6   -1.87    1.22
 -25  -7  -8    2.20    2.13
 -25  -7 -10    9.57    2.77
 -25  -7 -12    1.53    2.17
 -25  -7 -14    0.65    0.78
 -25  -7 -16    0.69    0.70
 -25  -7 -18    0.09    0.48
 -25  -7 -20    3.26    2.44
 -25  -7 -22   -1.15    1.49
 -25  -7 -24    0.72    1.72
 -25  -7 -26    0.47    1.21
 -25  -7 -28   -0.59    0.86
 -25  -7 -30   -0.82    0.62
 -25  -8  31    1.80    1.15
 -25  -8  29    4.94    1.70
 -25  -8  27   -1.16    0.77
 -25  -8  25   -1.51    1.09
  25   8 -25   -0.79    0.73
 -25  -8  23   -1.48    1.07
 -25  -8  21    0.46    0.56
 -25  -8  19   -0.59    0.80
 -25  -8  17    0.20    0.81
 -25  -8  15   -0.10    0.61
 -25  -8  13   -0.53    0.84
 -25  -8  11    2.35    1.14
 -25  -8   9    1.14    1.59
 -25  -8   7    0.29    0.64
 -25  -8   5    9.04    2.75
 -25  -8   3    1.86    1.50
 -25  -8   1    0.64    1.29
 -25  -8  -1   -1.53    1.54
 -25  -8  -3    0.65    1.31
 -25  -8  -5    2.50    2.13
 -25  -8  -7    2.62    0.63
 -25  -8  -9    0.50    1.00
 -25  -8 -11    0.82    1.42
 -25  -8 -13    0.66    0.65
 -25  -8 -15    1.06    1.18
 -25  -8 -17    0.53    1.64
 -25  -8 -19    3.86    2.05
 -25  -8 -21    1.96    2.23
 -25  -8 -23    0.34    1.52
 -25  -8 -25   -0.91    1.71
 -25  -8 -27   -0.23    0.77
 -25  -9  30    0.41    0.59
 -25  -9  28   -0.74    0.80
 -25  -9  26    0.75    0.65
 -25  -9  24    0.87    1.25
 -25  -9  22    0.31    0.83
 -25  -9  20   -0.27    0.96
 -25  -9  18    0.18    0.47
 -25  -9  16    0.00    0.78
 -25  -9  14    2.04    1.18
 -25  -9  12    2.43    1.62
 -25  -9  10    1.73    1.87
 -25  -9   8   -0.79    0.97
 -25  -9   6    3.98    2.01
 -25  -9   4    1.51    2.06
 -25  -9   2   -1.00    1.60
 -25  -9   0    0.76    1.39
 -25  -9  -2   -0.14    0.84
 -25  -9  -4    3.38    1.64
 -25  -9  -6    2.02    1.34
 -25  -9  -8    0.52    1.08
 -25  -9 -10    0.29    0.70
 -25  -9 -12    1.64    1.68
 -25  -9 -14   -0.08    1.04
 -25  -9 -16    1.39    1.01
 -25  -9 -18    1.96    2.11
 -25  -9 -20    5.07    2.63
 -25  -9 -22    7.82    2.54
  25 -10 -43    0.03    1.42
 -25 -10  29    4.77    1.78
 -25 -10  27   -0.97    1.07
 -25 -10  25    1.11    1.23
 -25 -10  23    1.86    1.38
 -25 -10  21    1.52    1.30
 -25 -10  19    0.31    0.58
 -25 -10  17    3.28    1.48
 -25 -10  15   -0.21    0.87
 -25 -10  13    1.89    1.32
 -25 -10  11    0.57    1.12
 -25 -10   9    1.39    1.12
 -25 -10   7    0.43    0.98
 -25 -10   5    0.94    1.02
 -25 -10   3    1.16    1.70
 -25 -10   1    3.12    2.05
 -25 -10  -1   10.69    3.18
 -25 -10  -3    3.66    2.03
 -25 -10  -5   -1.28    1.38
 -25 -10  -7    2.55    1.42
 -25 -10  -9    0.90    1.20
 -25 -10 -11   -0.46    0.54
 -25 -10 -13    6.12    3.09
 -25 -10 -15    2.13    2.20
 -25 -10 -17    0.98    1.51
 -25 -11  26    2.68    1.57
 -25 -11  24    0.84    1.21
 -25 -11  22   -0.21    0.53
 -25 -11  20    6.93    2.42
 -25 -11  18   -0.13    0.75
 -25 -11  16    1.32    1.57
 -25 -11  14   -1.10    1.36
 -25 -11  12    0.36    1.14
 -25 -11  10   -1.50    1.22
 -25 -11   8    0.61    1.33
 -25 -11   6    3.61    1.91
 -25 -11   4    0.83    1.65
 -25 -11   2    2.92    1.46
 -25 -11   0    0.47    1.00
 -25 -11  -2    0.26    1.20
 -25 -11  -4    0.42    0.49
 -25 -11  -6    0.19    1.38
 -25 -11  -8    0.70    0.82
 -25 -11 -10    2.15    1.35
 -25 -11 -12    1.76    1.80
 -25 -12  25    0.64    0.70
 -25 -12  23    0.14    0.53
 -25 -12  21   -1.46    1.48
 -25 -12  19    0.93    1.11
 -25 -12  17   -0.20    1.03
 -25 -12  15    0.37    1.04
 -25 -12  13   -0.75    0.78
 -25 -12  11    0.62    1.46
 -25 -12   9   -0.58    0.97
 -25 -12   7    2.46    1.87
 -25 -12   5    2.77    1.94
 -25 -12   3    1.12    1.49
 -25 -12   1   -0.21    0.60
 -25 -12  -1   -0.06    0.93
 -25 -12  -3    0.76    1.41
 -25 -12  -5   -1.23    0.59
 -25 -13  22   -1.60    1.41
 -25 -13  20    1.53    1.04
 -25 -13  18    0.27    1.11
 -25 -13  16    2.16    1.77
 -25 -13  14    0.08    0.79
 -25 -13  12    2.40    1.80
 -25 -13  10    2.38    1.89
 -25 -13   8    0.19    0.78
 -25 -13   6    0.17    0.69
 -25 -13   4   -2.96    2.34
 -25 -14  19    1.00    1.05
 -25 -14  17    0.71    1.18
 -25 -14  15   -1.75    1.49
  26   0 -36    0.55    0.47
  26   0 -34    2.27    0.98
  26   0 -32   -1.12    0.71
  26   0 -30   -0.15    0.27
  26   0 -28    0.03    0.43
  26   0 -26   -0.51    0.46
  26   0 -24   -1.15    0.94
  26   0 -22  144.05    8.30
  26   0 -20   -1.77    1.40
  26   0 -18   -0.65    0.95
  26   0 -16  108.71    7.52
  26   0 -14   -0.56    1.03
  26   0 -12   -1.41    1.27
 -26   0  10    5.49    1.64
  26   0 -10    3.02    1.19
 -26   0   8   -0.77    0.84
  26   0  -8   -1.56    1.43
 -26   0   6   -1.34    1.14
  26   0  -6   -0.40    0.41
 -26   0   4  370.25   14.71
  26   0  -4  393.63   15.04
 -26   0   2    0.14    0.71
  26   0  -2   -0.51    0.96
 -26   0   0    1.45    1.96
  26   0   0    0.53    0.92
 -26   0  -2 1677.25   32.51
  26   0   2 1709.75   32.46
 -26   0  -4    2.66    1.48
 -26   0  -6   -0.44    1.07
 -26   0  -8   32.55    4.67
 -26   0 -10    0.63    0.93
 -26   0 -12   -1.10    1.39
 -26   0 -14  173.33   11.25
 -26   0 -16    0.02    0.74
 -26   0 -18   -0.30    1.05
 -26   0 -20   37.06    5.32
 -26   0 -22   -1.95    1.51
 -26   0 -24   -1.56    1.39
 -26   0 -26   30.43    5.11
 -26   0 -28   -0.95    1.83
 -26   0 -30   -1.22    1.66
 -26   0 -32  100.99    9.57
  26  -1 -37   19.79    2.82
  26  -1 -35   -0.03    0.66
  26   1 -35   -0.74    0.91
  26  -1 -33   -1.03    0.91
  26   1 -33   -0.56    0.73
  26  -1 -31   -0.01    0.71
  26   1 -31    1.21    0.71
  26  -1 -29   -0.72    0.69
  26   1 -29   -1.06    0.52
  26  -1 -27    0.20    0.38
  26   1 -27   -0.56    0.44
  26  -1 -25   79.89    6.26
  26   1 -25   77.07    5.76
  26  -1 -23   -0.48    0.68
  26   1 -23   -0.74    0.77
  26  -1 -21    0.66    0.37
  26   1 -21    0.14    0.48
  26  -1 -19  256.94   11.48
  26   1 -19  250.69   10.92
  26  -1 -17   -0.55    0.87
 -26  -1  17   -0.18    0.43
  26   1 -17   -0.58    0.88
  26  -1 -15   -1.14    0.97
 -26  -1  15   -0.25    0.81
  26   1 -15    0.11    0.64
 -26  -1  13   84.82    6.68
  26  -1 -13   86.17    6.83
  26   1 -13   85.71    6.63
 -26  -1  11   -1.62    1.47
  26  -1 -11    0.31    0.58
  26   1 -11    0.06    0.53
  26  -1  -9   -1.22    1.02
 -26  -1   9   -0.37    1.12
  26   1  -9   -1.18    1.09
 -26  -1   7  164.65    9.68
  26   1  -7  164.33    9.47
  26  -1  -7  173.92    9.89
 -26  -1   5   -0.94    1.62
  26   1  -5   -0.34    0.66
  26  -1  -5    0.35    1.10
 -26  -1   3    0.37    1.04
  26   1  -3   -0.89    0.51
  26  -1  -3    0.46    0.72
 -26  -1   1  669.79   20.23
  26  -1  -1  710.21   20.69
  26   1  -1  678.78   19.99
 -26  -1  -1   -0.06    0.48
 -26   1  -1    0.08    1.32
  26  -1   1   -0.81    1.05
  26   1   1    0.15    0.91
 -26  -1  -3    0.86    1.06
 -26   1  -3   -0.08    0.52
 -26  -1  -5  321.57   14.70
 -26   1  -5  314.26   14.24
 -26   1  -7    0.80    1.30
 -26  -1  -7   -0.66    1.02
 -26  -1  -9   -1.22    1.03
 -26   1  -9    0.45    0.91
 -26  -1 -11  144.02   10.21
 -26   1 -11  134.06    9.62
 -26  -1 -13   -0.28    0.74
 -26   1 -13   -2.08    1.59
 -26  -1 -15   -0.44    1.23
 -26   1 -15   -0.62    0.95
 -26  -1 -17   86.95    8.24
 -26   1 -17   89.01    8.14
 -26   1 -19   -0.05    0.56
 -26  -1 -19    0.92    0.67
 -26   1 -21   -2.50    2.05
 -26  -1 -21    1.28    1.55
 -26  -1 -23   24.36    4.47
 -26  -1 -25   -0.65    1.29
 -26  -1 -27   -1.36    1.21
 -26  -1 -29   87.18    8.88
 -26  -1 -31    0.21    1.08
 -26  -1 -33    0.36    0.52
 -26  -1 -35   67.91    8.02
 -26  -1 -37   -0.63    0.77
  26  -2 -38    1.80    1.17
  26  -2 -36   -0.77    0.69
  26   2 -36   -0.01    0.21
  26  -2 -34   31.52    3.90
  26   2 -34   31.78    3.24
  26  -2 -32   -0.82    0.97
  26   2 -32   -1.42    1.02
  26  -2 -30   -1.40    0.79
  26   2 -30   -0.38    0.66
  26  -2 -28   52.46    5.24
  26   2 -28   50.43    4.51
  26  -2 -26   -1.04    1.03
  26   2 -26    0.84    0.79
  26  -2 -24   -0.25    0.45
  26   2 -24   -0.11    0.31
 -26  -2  22  162.99    8.72
  26  -2 -22  162.48    9.35
  26   2 -22  161.72    8.50
  26  -2 -20   -0.38    0.67
 -26  -2  20   -0.82    0.89
  26   2 -20    0.66    0.69
  26  -2 -18   -1.04    0.77
 -26  -2  18   -1.05    1.01
  26   2 -18   -1.27    1.10
  26  -2 -16   24.57    3.68
 -26  -2  16   25.49    3.57
  26   2 -16   26.18    3.55
  26  -2 -14    0.50    0.62
 -26  -2  14   -1.32    1.22
  26   2 -14   -0.43    0.65
  26  -2 -12    1.22    1.25
 -26  -2  12    0.94    0.88
  26   2 -12    0.00    0.62
 -26  -2  10  457.24   16.00
  26  -2 -10  476.88   16.78
  26   2 -10  468.70   15.83
 -26  -2   8   -0.01    0.43
  26  -2  -8   -0.27    0.99
  26   2  -8    0.39    1.12
 -26  -2   6   -0.82    0.99
  26   2  -6    1.72    1.24
  26  -2  -4  427.54   16.16
 -26  -2   4  418.95   15.82
  26   2  -4  416.68   15.45
  26  -2  -2    0.76    0.91
 -26  -2   2   -1.12    0.90
  26   2  -2   -0.21    0.64
 -26  -2   0   -2.38    1.65
 -26  -2  -2   67.04    6.50
 -26  -2  -4   -0.64    1.53
 -26  -2  -6    2.03    1.92
 -26  -2  -8  371.22   16.18
 -26  -2 -10    0.59    0.66
 -26  -2 -12   -1.76    1.69
 -26  -2 -14   70.23    7.29
 -26  -2 -16   -0.15    0.91
 -26  -2 -18   -2.06    1.79
 -26  -2 -20  107.73    9.37
 -26  -2 -22    0.80    1.08
 -26  -2 -24   -0.83    1.58
 -26  -2 -26  113.78   10.18
 -26  -2 -28   -1.12    1.26
 -26  -2 -30   -0.43    1.44
 -26  -2 -32   68.91    8.22
 -26  -2 -34    0.16    0.67
 -26  -2 -36   -1.06    1.35
 -26  -2 -38   47.17    6.94
  26  -3 -37   34.47    4.32
  26  -3 -35    1.31    1.14
  26   3 -35    0.07    0.37
  26  -3 -33    0.16    0.46
  26   3 -33   -0.71    0.46
  26  -3 -31   52.96    5.41
  26   3 -31   53.39    4.44
  26  -3 -29    0.63    0.65
  26   3 -29   -0.96    0.82
  26  -3 -27   -0.82    1.05
  26   3 -27   -0.51    0.60
 -26  -3  25  102.20    6.73
  26  -3 -25   95.83    7.34
  26   3 -25   93.47    6.32
  26  -3 -23   -0.25    0.61
 -26  -3  23   -1.14    1.10
  26   3 -23   -0.99    0.95
 -26  -3  21   -0.95    0.94
  26  -3 -21   -0.94    1.06
  26   3 -21   -0.44    0.62
 -26  -3  19   40.67    4.54
  26  -3 -19   38.08    4.73
  26   3 -19   36.88    4.20
 -26  -3  17   -0.18    0.62
  26  -3 -17   -0.58    1.08
  26   3 -17   -1.65    1.14
 -26  -3  15   -0.77    0.74
  26  -3 -15    0.21    0.58
  26   3 -15   -1.54    1.11
  26  -3 -13  181.64   10.44
 -26  -3  13  190.52   10.24
  26   3 -13  187.34    9.97
  26  -3 -11   -0.56    1.14
 -26  -3  11   -0.80    0.59
  26   3 -11   -0.61    0.62
  26  -3  -9    0.27    0.32
 -26  -3   9    0.32    0.76
  26   3  -9    0.12    0.58
  26  -3  -7  508.46   17.83
 -26  -3   7  489.04   16.92
  26   3  -7  502.45   16.80
 -26  -3   5    0.25    0.95
  26   3  -5   -0.57    0.60
 -26  -3   3   -0.97    1.42
  26   3  -3    0.21    0.54
 -26  -3   1   39.77    4.99
 -26  -3  -1   -1.14    1.20
 -26  -3  -3   -1.78    1.67
 -26  -3  -5   75.05    7.32
 -26  -3  -7    0.51    1.01
 -26  -3  -9    0.80    1.45
 -26  -3 -11  291.14   14.77
 -26  -3 -13    2.01    1.82
 -26  -3 -15    0.23    1.01
 -26  -3 -17  181.26   12.14
 -26  -3 -19    0.13    0.57
 -26  -3 -21    1.39    1.02
 -26  -3 -23  147.29   11.49
 -26  -3 -25   -0.76    1.68
 -26  -3 -27    0.35    0.95
 -26  -3 -29  101.79    9.94
 -26  -3 -31   -0.58    1.25
 -26  -3 -33    1.74    1.94
 -26  -3 -35   45.86    6.98
 -26  -3 -37   -1.85    1.56
  26  -4 -36   -0.75    0.94
  26  -4 -34   61.50    6.07
  26  -4 -32   -0.31    0.68
  26   4 -32    0.63    0.40
  26  -4 -30   -1.06    1.10
  26   4 -30    0.13    0.51
 -26  -4  28   45.79    4.43
  26  -4 -28   41.33    4.98
  26   4 -28   43.37    4.26
 -26  -4  26   -0.58    0.78
  26   4 -26    0.22    0.46
  26  -4 -24   -0.91    1.10
 -26  -4  24    0.61    0.66
  26   4 -24    1.13    0.93
  26  -4 -22  127.89    8.88
 -26  -4  22  133.31    8.11
  26   4 -22  124.91    7.73
 -26  -4  20   -1.01    0.88
  26   4 -20    0.34    0.55
 -26  -4  18    0.41    0.59
  26   4 -18   -0.09    0.27
 -26  -4  16  166.37    9.54
  26   4 -16  157.07    9.04
 -26  -4  14   -0.23    0.42
  26   4 -14    0.18    0.40
 -26  -4  12    0.51    0.48
  26   4 -12   -0.73    0.62
 -26  -4  10  173.87   10.15
  26   4 -10  186.00   10.32
 -26  -4   8   -0.63    0.91
  26   4  -8    0.53    0.88
 -26  -4   6   -0.55    0.64
 -26  -4   4   46.12    5.33
 -26  -4   2   -1.27    1.62
 -26  -4   0   -0.79    1.06
 -26  -4  -2   92.23    7.94
 -26  -4  -4   -0.68    1.38
 -26  -4  -6   -0.67    1.27
 -26  -4  -8  171.92   11.26
 -26  -4 -10    0.57    0.89
 -26  -4 -12    0.48    0.94
 -26  -4 -14  479.55   19.60
 -26  -4 -16   -0.47    0.72
 -26  -4 -18   -1.24    0.99
 -26  -4 -20  154.52   11.65
 -26  -4 -22   -1.17    1.45
 -26  -4 -24   -1.04    0.75
 -26  -4 -26  123.00   10.92
 -26  -4 -28   -0.60    0.76
 -26  -4 -30   -0.99    0.94
 -26  -4 -32   38.41    6.53
 -26  -4 -34    1.52    1.15
 -26  -4 -36    2.52    1.84
 -26  -4 -38   20.81    4.97
 -26  -5  31   60.52    5.00
  26   5 -31   56.41    4.86
 -26  -5  29    0.89    0.72
  26   5 -29    0.42    0.78
 -26  -5  27    0.54    0.83
  26   5 -27   -0.66    0.83
 -26  -5  25  117.74    7.60
  26   5 -25  121.69    7.62
 -26  -5  23   -0.07    0.37
  26   5 -23   -0.93    0.91
 -26  -5  21   -0.17    0.72
  26   5 -21    0.70    0.63
 -26  -5  19  152.27    9.09
  26   5 -19  140.44    8.61
 -26  -5  17   -0.87    0.39
  26   5 -17   -0.82    0.63
 -26  -5  15   -0.45    0.83
  26   5 -15   -1.36    0.72
 -26  -5  13  165.41    9.83
  26   5 -13  160.67    9.63
 -26  -5  11    0.20    0.54
  26   5 -11    0.73    0.78
 -26  -5   9   -0.55    0.70
 -26  -5   7   78.54    7.10
 -26  -5   5   -0.81    0.56
 -26  -5   3   -0.38    1.03
 -26  -5   1   82.17    7.46
 -26  -5  -1   -0.59    0.91
 -26  -5  -3    0.50    0.91
 -26  -5  -5  278.95   14.51
 -26  -5  -7   -0.41    0.47
 -26  -5  -9   -0.25    0.69
 -26  -5 -11   66.04    7.29
 -26  -5 -13   -2.53    1.81
 -26  -5 -15   -0.54    0.80
 -26  -5 -17  186.89   12.95
 -26  -5 -19    0.00    0.64
 -26  -5 -21   -2.67    2.08
 -26  -5 -23  131.52   11.22
 -26  -5 -25   -0.49    0.60
 -26  -5 -27   -0.31    1.01
 -26  -5 -29   92.04    9.82
 -26  -5 -31   -0.84    0.96
 -26  -5 -33   -1.37    1.69
 -26  -5 -35   50.58    7.54
 -26  -6  34   39.60    3.88
 -26  -6  32    0.06    0.69
  26   6 -30    0.26    0.58
 -26  -6  30   -0.43    0.62
 -26  -6  28   46.50    4.72
  26   6 -28   43.67    4.64
  26   6 -26   -1.07    0.77
 -26  -6  26    0.18    0.40
  26   6 -24    0.50    1.02
 -26  -6  24   -0.40    0.69
 -26  -6  22  149.97    9.05
  26   6 -22  147.70    9.08
 -26  -6  20   -0.86    0.64
  26   6 -20   -1.15    0.81
 -26  -6  18   -1.80    1.31
  26   6 -18   -1.28    1.13
 -26  -6  16  113.96    8.30
  26   6 -16  113.70    8.29
 -26  -6  14   -1.28    0.88
 -26  -6  12   -0.56    0.84
 -26  -6  10    6.18    1.50
 -26  -6   8    0.16    0.55
 -26  -6   6    1.68    1.46
 -26  -6   4   83.33    7.70
 -26  -6   2    0.28    1.10
 -26  -6   0    2.37    1.77
 -26  -6  -2  205.97   12.54
 -26  -6  -4   -0.73    1.47
 -26  -6  -6   -1.13    1.55
 -26  -6  -8  343.39   16.84
 -26  -6 -10   -0.50    0.78
 -26  -6 -12    1.16    1.36
 -26  -6 -14   63.07    7.43
 -26  -6 -16   -0.80    0.58
 -26  -6 -18    2.39    1.49
 -26  -6 -20  137.28   11.49
 -26  -6 -22    0.02    0.82
 -26  -6 -24    1.42    1.97
 -26  -6 -26   75.59    8.93
 -26  -6 -28   -1.13    1.70
 -26  -6 -30    1.09    1.17
 -26  -6 -32   36.58    6.46
 -26  -7  33    0.78    1.15
 -26  -7  31   43.92    4.55
 -26  -7  29    0.09    0.89
  26   7 -27   -0.57    1.13
 -26  -7  27   -0.19    0.85
 -26  -7  25   36.69    4.52
  26   7 -25   31.02    4.20
 -26  -7  23    0.06    0.60
  26   7 -23   -0.84    1.08
 -26  -7  21    0.05    0.60
  26   7 -21    0.99    1.02
 -26  -7  19  132.82    9.06
 -26  -7  17    0.78    0.87
 -26  -7  15    0.76    0.92
 -26  -7  13   61.54    6.49
 -26  -7  11   -1.27    1.21
 -26  -7   9   -2.05    1.74
 -26  -7   7   18.17    3.52
 -26  -7   5   -1.65    1.52
 -26  -7   3    0.26    0.69
 -26  -7   1  182.74   11.88
 -26  -7  -1   -1.10    1.38
 -26  -7  -3    0.79    0.90
 -26  -7  -5  220.75   13.67
 -26  -7  -7    0.90    1.10
 -26  -7  -9   -1.38    1.04
 -26  -7 -11  143.77   11.43
 -26  -7 -13    0.68    1.00
 -26  -7 -15    0.73    0.66
 -26  -7 -17   32.30    5.60
 -26  -7 -19    2.05    1.81
 -26  -7 -21   -0.66    1.37
 -26  -7 -23   72.07    8.71
 -26  -7 -25    3.32    2.15
 -26  -7 -27   -0.77    1.38
 -26  -7 -29   46.64    7.29
 -26  -8  30    0.15    0.71
 -26  -8  28   55.72    5.61
 -26  -8  26   -0.26    0.87
 -26  -8  24   -1.16    0.99
 -26  -8  22   11.09    2.53
 -26  -8  20   -1.05    0.88
 -26  -8  18    0.33    0.68
 -26  -8  16   68.90    6.95
 -26  -8  14    2.37    1.71
 -26  -8  12   -0.30    0.63
 -26  -8  10   89.36    8.17
 -26  -8   8   -0.94    1.05
 -26  -8   6    0.63    0.87
 -26  -8   4   57.25    6.78
 -26  -8   2   -0.54    1.05
 -26  -8   0   -0.02    0.95
 -26  -8  -2  171.96   12.08
 -26  -8  -4   -0.58    0.89
 -26  -8  -6   -1.81    1.23
 -26  -8  -8   93.48    9.36
 -26  -8 -10   -0.31    1.09
 -26  -8 -12   -1.08    0.66
 -26  -8 -14   54.92    7.48
 -26  -8 -16   -0.50    1.19
 -26  -8 -18    2.42    1.90
 -26  -8 -20   40.65    6.62
 -26  -8 -22   -0.65    1.15
 -26  -8 -24    0.30    1.53
 -26  -9  29   -0.83    1.11
 -26  -9  27    0.50    0.78
 -26  -9  25   26.91    4.22
 -26  -9  23    0.09    0.95
 -26  -9  21    0.65    0.56
 -26  -9  19   49.59    6.00
 -26  -9  17   -0.99    1.43
 -26  -9  15    0.68    1.47
 -26  -9  13   84.63    8.10
 -26  -9  11    0.42    1.49
 -26  -9   9    2.75    1.93
 -26  -9   7   83.15    8.37
 -26  -9   5    0.76    0.97
 -26  -9   3    0.49    0.86
 -26  -9   1   36.59    5.93
 -26  -9  -1   -1.16    1.74
 -26  -9  -3   -1.30    1.47
 -26  -9  -5   30.08    5.31
 -26  -9  -7    1.60    1.37
 -26  -9  -9    0.26    0.67
 -26  -9 -11   53.37    7.44
 -26  -9 -13   -0.17    1.19
 -26  -9 -15   -1.55    1.49
 -26  -9 -17   44.14    6.96
 -26  -9 -19    3.23    2.48
 -26  -9 -21    0.46    0.82
 -26 -10  28   17.14    3.42
 -26 -10  26    0.94    0.85
 -26 -10  24   -1.34    1.52
 -26 -10  22   19.87    3.82
 -26 -10  20   -1.18    1.04
 -26 -10  18    0.61    1.06
 -26 -10  16   28.47    4.83
 -26 -10  14    0.16    1.18
 -26 -10  12   -0.90    1.08
 -26 -10  10   36.06    5.57
 -26 -10   8   -1.88    1.76
 -26 -10   6    0.46    1.03
 -26 -10   4   60.38    7.49
 -26 -10   2   -2.29    2.14
 -26 -10   0   -0.98    1.28
 -26 -10  -2   11.29    3.37
 -26 -10  -4   -0.55    1.04
 -26 -10  -6   -2.75    2.17
 -26 -10  -8   40.39    6.59
 -26 -10 -10   -0.47    1.35
 -26 -10 -12   -1.54    2.06
 -26 -10 -14   37.31    6.42
 -26 -10 -16   -0.58    0.93
 -26 -11  27   -1.14    1.14
 -26 -11  25   19.20    3.89
 -26 -11  23   -0.49    0.96
 -26 -11  21    0.10    0.92
 -26 -11  19   22.33    4.34
 -26 -11  17   -0.04    0.78
 -26 -11  15    1.26    1.35
 -26 -11  13   22.91    4.40
 -26 -11  11    0.48    0.99
 -26 -11   9    1.23    1.51
 -26 -11   7    7.53    2.78
 -26 -11   5   -0.42    0.64
 -26 -11   3    1.53    1.71
 -26 -11   1   20.55    4.62
 -26 -11  -1   -0.68    1.30
 -26 -11  -3    0.12    0.55
 -26 -11  -5   21.29    4.89
 -26 -11  -7   -1.41    2.29
 -26 -11  -9    2.07    2.37
 -26 -12  24    1.35    1.34
 -26 -12  22   17.08    3.82
 -26 -12  20   -2.09    1.17
 -26 -12  18   -0.71    0.52
 -26 -12  16   26.76    5.01
 -26 -12  14   -1.07    1.40
 -26 -12  12    1.08    1.19
 -26 -12  10    4.45    2.26
 -26 -12   8    0.57    0.93
 -26 -12   6    0.31    0.85
 -26 -12   4    9.06    3.21
 -26 -12   2    2.05    1.49
 -26 -12   0   -1.38    1.51
 -26 -12  -2   16.72    4.42
 -26 -13  23   -1.70    1.63
 -26 -13  21   -1.38    1.39
 -26 -13  19    7.36    2.76
 -26 -13  17    0.02    0.72
 -26 -13  15    0.89    0.98
 -26 -13  13    5.50    2.40
 -26 -13  11    3.55    2.12
 -26 -13   9   -0.28    0.73
 -26 -13   7    2.53    1.40
 -26 -14  18   -2.51    2.25
  27   0 -37    0.51    0.43
  27   0 -35    0.68    0.26
  27   0 -33   -0.35    0.70
  27   0 -31   -0.51    0.53
  27   0 -29   -0.93    0.76
  27   0 -27    0.22    0.41
  27   0 -25    1.85    1.11
  27   0 -23   -0.15    0.94
  27   0 -21   -0.23    0.42
  27   0 -19   -0.73    0.53
  27   0 -17   -0.18    0.67
  27   0 -15   -1.02    0.88
  27   0 -13   -0.47    0.75
  27   0 -11   -1.21    1.06
 -27   0   9   -0.95    0.81
  27   0  -9    0.08    0.62
 -27   0   7   -0.71    0.37
  27   0  -7    1.25    0.91
 -27   0   5   -1.02    1.02
  27   0  -5   -0.80    1.02
 -27   0   3    1.19    1.00
  27   0  -3   -0.37    1.08
 -27   0   1    2.80    2.61
 -27   0  -1    8.92    3.20
 -27   0  -3    1.22    1.74
 -27   0  -5   -1.26    1.43
 -27   0  -7   -1.48    1.30
 -27   0  -9   -1.56    0.96
 -27   0 -11    2.05    1.67
 -27   0 -13   -0.10    0.59
 -27   0 -15    0.51    1.22
 -27   0 -17    2.67    2.32
 -27   0 -19    1.62    1.30
 -27   0 -21    0.35    0.44
 -27   0 -23   -0.43    1.10
 -27   0 -25   -1.68    1.94
 -27   0 -27   -0.29    0.98
 -27   0 -29    0.39    0.79
 -27   0 -31    0.97    1.46
  27  -1 -36    1.74    0.95
  27   1 -36    2.16    0.74
  27  -1 -34   -1.04    0.95
  27   1 -34    0.88    0.82
  27  -1 -32   -1.28    1.11
  27   1 -32    0.74    0.68
  27  -1 -30    1.14    0.60
  27   1 -30    2.72    1.11
  27  -1 -28    0.44    0.87
  27   1 -28    1.16    1.11
  27  -1 -26   -0.30    0.81
  27   1 -26    2.09    0.95
  27  -1 -24    6.85    1.94
  27   1 -24    3.68    1.37
  27  -1 -22   -0.79    0.78
  27   1 -22    0.49    0.71
  27  -1 -20    0.88    0.87
  27   1 -20    2.22    1.32
  27  -1 -18   14.14    2.81
  27   1 -18   17.69    3.02
 -27  -1  16   -1.63    1.28
  27  -1 -16   -0.67    0.74
  27   1 -16   -0.42    0.81
 -27  -1  14   -1.26    1.46
  27  -1 -14    0.11    0.47
  27   1 -14    0.73    0.68
  27  -1 -12    0.78    0.37
 -27  -1  12   -0.11    0.59
  27  -1 -10    0.58    0.81
 -27  -1  10   -0.08    0.80
  27   1 -10    0.58    0.87
 -27  -1   8   -1.22    1.04
  27  -1  -8    0.30    0.38
  27   1  -8    0.54    0.99
 -27  -1   6    8.91    2.29
  27  -1  -6    6.62    1.88
  27   1  -6   10.44    2.64
 -27  -1   4    1.86    1.49
  27   1  -4    0.61    1.02
  27  -1  -4    0.98    1.07
 -27  -1   2    3.17    2.15
 -27  -1   0    1.84    1.55
 -27   1  -2   -0.11    1.04
 -27  -1  -2    1.77    1.41
 -27  -1  -4    0.28    1.21
 -27   1  -4    0.78    1.42
 -27  -1  -6    4.81    1.86
 -27   1  -6    9.82    2.72
 -27   1  -8    0.59    0.77
 -27  -1  -8    0.40    0.52
 -27  -1 -10   -1.24    0.85
 -27   1 -10    0.89    0.69
 -27  -1 -12    0.12    0.78
 -27   1 -12    0.31    0.93
 -27   1 -14    3.46    2.17
 -27  -1 -14    0.78    0.73
 -27   1 -16    1.47    1.42
 -27  -1 -16    1.62    1.69
 -27  -1 -18  103.87    9.23
 -27   1 -18   97.00    8.78
 -27   1 -20    2.10    1.76
 -27  -1 -20    2.26    1.80
 -27  -1 -22   -0.58    1.44
 -27  -1 -24   -1.05    1.44
 -27  -1 -26    0.64    1.28
 -27  -1 -28   -1.03    1.78
 -27  -1 -30    0.10    0.79
 -27  -1 -32    0.11    0.80
 -27  -1 -34    2.13    1.94
 -27  -1 -36    1.47    1.66
  27  -2 -37    1.00    1.00
  27  -2 -35    0.23    0.34
  27   2 -35   -1.29    0.69
  27  -2 -33    0.64    0.68
  27   2 -33    0.09    0.36
  27  -2 -31   -0.68    0.66
  27   2 -31    0.50    0.55
  27  -2 -29   -0.74    0.64
  27   2 -29    0.17    0.46
  27  -2 -27    1.61    0.44
  27   2 -27    4.05    1.40
  27  -2 -25    0.80    0.75
  27   2 -25    1.70    1.11
  27  -2 -23    0.70    0.90
  27   2 -23    1.54    1.13
  27  -2 -21   20.63    3.46
 -27  -2  21   18.55    3.13
  27   2 -21   20.77    3.14
  27  -2 -19    1.07    1.09
 -27  -2  19    1.49    0.63
  27   2 -19    0.34    0.98
  27  -2 -17   -1.35    0.93
 -27  -2  17   -0.54    0.60
  27   2 -17   -0.05    0.53
 -27  -2  15   17.52    3.07
  27  -2 -15   21.19    3.55
  27   2 -15   19.33    3.17
 -27  -2  13   -0.70    0.76
  27  -2 -13    0.42    0.74
  27   2 -13    1.09    1.13
 -27  -2  11   -0.24    0.74
  27  -2 -11    0.42    1.05
  27   2 -11    0.63    1.29
 -27  -2   9    4.39    1.72
  27  -2  -9    3.89    1.43
  27   2  -9    5.02    1.82
 -27  -2   7   -0.17    0.84
  27  -2  -7   -1.52    1.29
  27   2  -7    1.53    1.14
 -27  -2   5    0.96    0.84
  27   2  -5    2.67    1.44
 -27  -2   3    0.63    1.15
 -27  -2   1   -1.09    1.52
 -27  -2  -1   -1.08    1.29
 -27  -2  -3  124.54    9.17
 -27  -2  -5    3.41    2.46
 -27  -2  -7    2.46    2.10
 -27  -2  -9    0.65    1.05
 -27  -2 -11    0.20    0.62
 -27  -2 -13   -0.43    0.86
 -27  -2 -15   95.74    8.68
 -27  -2 -17    0.07    1.02
 -27  -2 -19   -0.79    1.12
 -27  -2 -21   -0.90    1.45
 -27  -2 -23   -0.06    0.83
 -27  -2 -25   -1.09    1.05
 -27  -2 -27    3.55    2.20
 -27  -2 -29    0.14    0.49
 -27  -2 -31    1.93    1.79
 -27  -2 -33   -1.30    1.18
 -27  -2 -35   -0.29    1.81
 -27  -2 -37    1.36    1.29
  27  -3 -36    2.46    1.39
  27  -3 -34    1.45    1.42
  27   3 -34    0.04    0.67
  27  -3 -32    1.78    1.14
  27   3 -32   -0.51    0.56
  27  -3 -30    0.85    0.58
  27   3 -30    2.57    1.02
  27  -3 -28    0.01    0.91
  27   3 -28    1.38    1.03
 -27  -3  26   -0.70    0.88
  27  -3 -26   -1.14    0.97
  27   3 -26    0.51    0.78
 -27  -3  24    0.68    0.52
  27  -3 -24    1.14    0.71
  27   3 -24    2.08    0.83
 -27  -3  22   -1.36    1.14
  27  -3 -22   -0.80    1.23
  27   3 -22    0.68    0.66
  27  -3 -20    0.64    0.52
 -27  -3  20   -0.93    1.09
  27   3 -20   -0.33    0.64
 -27  -3  18    3.65    1.36
  27  -3 -18    6.14    2.08
  27   3 -18    5.20    1.65
 -27  -3  16    0.60    0.98
  27  -3 -16   -0.35    0.89
  27   3 -16   -1.12    0.75
 -27  -3  14    0.13    0.39
  27  -3 -14   -1.48    1.28
  27   3 -14   -0.53    0.75
 -27  -3  12   27.76    4.05
  27   3 -12   25.46    3.76
 -27  -3  10    1.56    1.14
  27   3 -10    1.23    0.64
 -27  -3   8    1.42    0.95
  27   3  -8   -0.20    0.74
 -27  -3   6    0.73    0.71
 -27  -3   4   -2.00    1.46
 -27  -3   2   -1.05    1.18
 -27  -3   0    7.63    2.10
 -27  -3  -2    0.37    1.12
 -27  -3  -4    1.15    1.56
 -27  -3  -6   68.40    7.09
 -27  -3  -8    1.37    1.39
 -27  -3 -10    0.97    1.74
 -27  -3 -12   46.02    5.98
 -27  -3 -14    1.93    1.72
 -27  -3 -16   -0.82    1.10
 -27  -3 -18   -0.22    0.54
 -27  -3 -20   -0.62    0.50
 -27  -3 -22   -0.50    0.91
 -27  -3 -24    5.60    2.24
 -27  -3 -26    0.17    0.80
 -27  -3 -28   -0.78    1.35
 -27  -3 -30    3.21    1.81
 -27  -3 -32   -0.92    1.15
 -27  -3 -34   -0.82    1.24
 -27  -3 -36    0.77    0.56
  27   4 -33    2.95    0.94
  27   4 -31    0.35    0.79
 -27  -4  29   -0.29    0.72
  27   4 -29    1.14    0.97
 -27  -4  27    9.79    2.09
  27   4 -27   10.02    2.16
 -27  -4  25   -0.45    0.61
  27   4 -25    0.16    0.73
 -27  -4  23    0.22    0.78
  27   4 -23    0.63    0.66
 -27  -4  21   18.58    3.07
  27   4 -21   15.18    2.78
 -27  -4  19   -0.62    0.73
  27   4 -19    0.52    0.69
 -27  -4  17   -0.15    0.79
  27   4 -17   -0.71    0.36
 -27  -4  15    3.53    1.67
  27   4 -15    1.45    0.78
 -27  -4  13    1.04    1.36
  27   4 -13   -0.99    0.44
 -27  -4  11    0.25    0.83
  27   4 -11    0.59    0.68
 -27  -4   9   24.50    3.92
 -27  -4   7   -0.72    0.61
 -27  -4   5   -1.51    1.18
 -27  -4   3    5.70    1.95
 -27  -4   1   -0.71    0.81
 -27  -4  -1   -1.36    1.46
 -27  -4  -3   -0.88    1.25
 -27  -4  -5   -4.93    1.91
 -27  -4  -7    2.67    1.12
 -27  -4  -9   23.36    4.20
 -27  -4 -11    1.69    1.68
 -27  -4 -13    2.12    1.92
 -27  -4 -15   -0.40    0.88
 -27  -4 -17    3.56    2.71
 -27  -4 -19    0.86    1.00
 -27  -4 -21   -0.06    0.95
 -27  -4 -23    1.71    1.47
 -27  -4 -25    0.59    1.36
 -27  -4 -27    7.72    3.03
 -27  -4 -29    2.23    1.98
 -27  -4 -31   -1.11    1.63
 -27  -4 -33    2.11    1.93
 -27  -4 -35   -0.37    0.96
 -27  -5  32    0.70    0.57
  27   5 -32    1.00    0.70
 -27  -5  30    1.17    0.71
  27   5 -30    2.88    1.30
 -27  -5  28    0.53    0.67
  27   5 -28    0.21    0.66
 -27  -5  26    0.72    0.80
  27   5 -26    1.05    0.87
 -27  -5  24    3.08    1.43
  27   5 -24    0.88    0.35
 -27  -5  22   -0.50    0.53
  27   5 -22   -0.24    0.75
 -27  -5  20    0.13    0.75
  27   5 -20   -0.61    0.78
 -27  -5  18   41.40    4.95
  27   5 -18   39.78    4.80
 -27  -5  16    1.86    1.44
  27   5 -16    0.49    0.85
 -27  -5  14    0.26    0.99
  27   5 -14   -0.53    0.92
 -27  -5  12    0.21    0.67
 -27  -5  10    0.54    0.92
 -27  -5   8   -0.21    0.52
 -27  -5   6    0.99    0.49
 -27  -5   4   -0.67    0.99
 -27  -5   2    0.20    0.67
 -27  -5   0   -0.12    1.50
 -27  -5  -2   -0.19    0.98
 -27  -5  -4    3.15    1.73
 -27  -5  -6   27.93    4.68
 -27  -5  -8   -0.10    1.22
 -27  -5 -10   -1.42    2.30
 -27  -5 -12   -1.90    2.41
 -27  -5 -14    5.20    2.87
 -27  -5 -16   -1.40    0.90
 -27  -5 -18    6.52    2.33
 -27  -5 -20   -1.15    1.24
 -27  -5 -22   -1.05    1.80
 -27  -5 -24    5.31    2.20
 -27  -5 -26    3.43    2.32
 -27  -5 -28   -0.99    0.89
 -27  -5 -30    0.83    0.46
 -27  -5 -32    0.55    0.58
 -27  -5 -34   -2.56    1.94
 -27  -6  33    4.75    1.41
 -27  -6  31   -0.41    0.40
  27   6 -29    0.06    0.36
 -27  -6  29   -0.66    0.67
  27   6 -27    4.13    1.68
 -27  -6  27    0.97    0.99
  27   6 -25    0.37    1.16
 -27  -6  25    0.68    0.95
  27   6 -23    0.15    0.77
 -27  -6  23    1.58    1.04
  27   6 -21   -0.93    1.07
 -27  -6  21   -0.19    0.40
 -27  -6  19   -0.33    0.68
  27   6 -19   -0.36    0.49
 -27  -6  17   -1.39    1.52
 -27  -6  15    7.99    2.16
 -27  -6  13    0.21    0.72
 -27  -6  11   -0.28    0.94
 -27  -6   9   -0.22    1.08
 -27  -6   7    3.04    1.75
 -27  -6   5    0.09    0.58
 -27  -6   3    8.01    2.23
 -27  -6   1    0.41    0.76
 -27  -6  -1    1.47    1.52
 -27  -6  -3    2.62    0.65
 -27  -6  -5    2.71    2.43
 -27  -6  -7   -0.64    1.24
 -27  -6  -9   -2.16    2.41
 -27  -6 -11   -1.74    1.80
 -27  -6 -13    0.33    0.69
 -27  -6 -15   11.36    3.35
 -27  -6 -17    0.16    1.00
 -27  -6 -19   -0.80    1.22
 -27  -6 -21   -0.61    1.08
 -27  -6 -23    1.31    1.26
 -27  -6 -25   -0.75    0.53
 -27  -6 -27   -1.69    1.74
 -27  -6 -29    2.92    2.11
 -27  -6 -31    0.69    1.38
 -27  -7  32    0.68    0.59
 -27  -7  30    7.84    1.99
  27   7 -28    0.63    1.01
 -27  -7  28    0.37    0.81
  27   7 -26   -0.55    0.73
 -27  -7  26   -0.50    0.65
  27   7 -24    1.23    0.87
 -27  -7  24   -0.13    0.90
 -27  -7  22    0.43    0.52
 -27  -7  20    0.95    0.52
 -27  -7  18    9.49    2.56
 -27  -7  16    0.68    1.08
 -27  -7  14    0.00    0.56
 -27  -7  12   21.65    3.89
 -27  -7  10   -0.13    0.50
 -27  -7   8    0.14    1.12
 -27  -7   6   -1.05    1.48
 -27  -7   4    1.35    1.59
 -27  -7   2    1.10    1.53
 -27  -7   0    2.45    1.20
 -27  -7  -2    1.68    1.62
 -27  -7  -4    1.75    0.89
 -27  -7  -6   -1.58    1.63
 -27  -7  -8   -1.08    0.75
 -27  -7 -10    1.52    1.64
 -27  -7 -12   15.96    3.77
 -27  -7 -14    0.23    1.53
 -27  -7 -16    0.70    1.45
 -27  -7 -18    0.39    0.64
 -27  -7 -20   -0.14    1.03
 -27  -7 -22    1.89    1.63
 -27  -7 -24    1.39    1.27
 -27  -7 -26    0.15    1.08
 -27  -8  31   -0.02    0.47
 -27  -8  29    2.26    1.42
 -27  -8  27    2.88    1.40
 -27  -8  25   -1.90    1.31
 -27  -8  23   -0.19    1.13
 -27  -8  21   -0.14    0.46
 -27  -8  19    2.78    1.74
 -27  -8  17    0.29    0.42
 -27  -8  15    1.20    1.61
 -27  -8  13    3.12    1.73
 -27  -8  11    0.75    1.41
 -27  -8   9    6.97    2.34
 -27  -8   7    0.62    1.53
 -27  -8   5    0.16    0.82
 -27  -8   3   -0.45    1.16
 -27  -8   1    3.86    2.06
 -27  -8  -1    3.80    2.38
 -27  -8  -3   -0.97    1.55
 -27  -8  -5   -1.72    1.97
 -27  -8  -7    0.08    1.26
 -27  -8  -9    2.19    1.39
 -27  -8 -11   -0.35    0.83
 -27  -8 -13    0.91    1.16
 -27  -8 -15    7.67    2.92
 -27  -8 -17   -0.65    1.06
 -27  -8 -19   -2.91    1.60
 -27  -8 -21   -0.64    0.71
 -27  -8 -23   -1.31    1.41
 -27  -9  30    0.51    0.91
 -27  -9  28    1.40    0.95
 -27  -9  26   -0.16    0.45
 -27  -9  24   -1.10    0.95
 -27  -9  22    0.48    0.80
 -27  -9  20   -0.24    1.02
 -27  -9  18    1.64    1.48
 -27  -9  16    3.09    1.59
 -27  -9  14    1.84    1.66
 -27  -9  12    4.83    2.12
 -27  -9  10    4.50    2.21
 -27  -9   8    2.94    1.92
 -27  -9   6    1.57    0.79
 -27  -9   4    1.59    1.66
 -27  -9   2    1.27    0.81
 -27  -9   0   -0.32    1.16
 -27  -9  -2   -1.88    1.73
 -27  -9  -4   -0.78    1.74
 -27  -9  -6    5.48    2.29
 -27  -9  -8    1.10    1.96
 -27  -9 -10    0.08    1.11
 -27  -9 -12    0.56    0.65
 -27  -9 -14    1.89    1.59
 -27  -9 -16   -1.27    0.98
 -27  -9 -18    2.68    1.55
 -27 -10  27    1.05    0.89
 -27 -10  25    1.18    1.00
 -27 -10  23    0.03    1.00
 -27 -10  21   -1.92    1.32
 -27 -10  19    0.35    0.74
 -27 -10  17   -0.73    1.01
 -27 -10  15    1.61    1.56
 -27 -10  13    2.29    1.55
 -27 -10  11   -1.34    0.98
 -27 -10   9    1.65    1.47
 -27 -10   7    1.99    1.41
 -27 -10   5    3.80    2.57
 -27 -10   3    0.62    1.34
 -27 -10   1    1.39    1.33
 -27 -10  -1   -1.03    1.00
 -27 -10  -3    5.05    2.18
 -27 -10  -5    1.11    1.86
 -27 -10  -7    0.71    1.40
 -27 -10  -9    1.30    1.14
 -27 -10 -11    1.01    1.59
 -27 -10 -13   -1.07    1.49
 -27 -11  26   -0.93    0.93
 -27 -11  24   -0.98    1.10
 -27 -11  22    1.48    1.21
 -27 -11  20   -0.60    1.20
 -27 -11  18    1.98    1.64
 -27 -11  16   -0.69    1.50
 -27 -11  14    1.07    1.42
 -27 -11  12   -0.81    1.22
 -27 -11  10   -1.63    1.87
 -27 -11   8    0.33    0.97
 -27 -11   6   -0.53    0.97
 -27 -11   4   -0.85    1.23
 -27 -11   2   -2.36    2.11
 -27 -11   0   -0.20    0.77
 -27 -11  -2   -0.40    0.64
 -27 -11  -4    0.51    1.17
 -27 -11  -6   -1.90    2.15
 -27 -11  -8    1.26    1.39
 -27 -12  23    1.52    1.29
 -27 -12  21    0.53    1.21
 -27 -12  19   -0.65    1.45
 -27 -12  17    2.51    1.77
 -27 -12  15    0.11    0.67
 -27 -12  13    1.24    1.25
 -27 -12  11    0.44    0.53
 -27 -12   9    0.90    0.81
 -27 -12   7    1.55    0.95
 -27 -12   5    2.76    1.71
 -27 -12   3   -2.78    1.81
 -27 -12   1    2.34    1.65
 -27 -12  -1    2.24    1.78
 -27 -13  22    1.25    1.46
 -27 -13  20    0.76    0.96
 -27 -13  18   -1.51    1.50
 -27 -13  16   -1.09    1.17
 -27 -13  14   -0.36    0.80
 -27 -13  12    0.80    1.02
 -27 -13  10   -2.44    1.12
  28   0 -36   -1.48    0.90
  28   0 -34    1.10    0.69
  28   0 -32   64.56    5.47
  28   0 -30   -1.02    0.80
  28   0 -28   -0.95    0.73
  28   0 -26   79.57    6.32
  28   0 -24   -0.36    0.35
  28   0 -22   -0.61    0.98
  28   0 -20  107.08    7.60
  28   0 -18    1.30    0.78
  28   0 -16   -0.61    0.83
  28   0 -14   25.15    3.75
  28   0 -12   -1.12    1.33
  28   0 -10   -0.75    0.98
 -28   0   8  255.15   12.56
  28   0  -8  261.56   12.57
 -28   0   6    0.10    0.83
 -28   0   4    1.41    1.25
 -28   0   2  686.99   21.24
 -28   0   0   -0.70    0.74
 -28   0  -2    1.02    0.87
 -28   0  -4   12.20    2.74
 -28   0  -6   -2.32    2.06
 -28   0  -8    0.14    0.67
 -28   0 -10  266.19   14.11
 -28   0 -12   -0.40    0.83
 -28   0 -14    1.06    0.80
 -28   0 -16  242.05   13.99
 -28   0 -18   -0.38    1.42
 -28   0 -20    0.12    0.96
 -28   0 -22   47.26    6.41
 -28   0 -24   -2.60    2.30
 -28   0 -26   -1.64    1.84
 -28   0 -28   96.28    9.49
 -28   0 -30   -1.83    1.84
  28  -1 -35   41.45    4.41
  28   1 -35   44.25    4.18
  28   1 -33    0.85    0.58
  28  -1 -33   -0.59    0.52
  28  -1 -31    0.02    0.79
  28   1 -31   -0.20    0.44
  28  -1 -29   47.80    4.96
  28   1 -29   46.21    4.55
  28  -1 -27   -1.26    1.10
  28   1 -27    1.32    1.05
  28  -1 -25    0.31    0.66
  28   1 -25   -0.28    0.73
  28   1 -23   37.53    4.34
  28  -1 -23   36.93    4.51
  28  -1 -21    0.24    0.51
  28   1 -21    0.64    0.74
  28  -1 -19    1.64    1.05
  28   1 -19   -0.77    1.02
  28   1 -17   18.59    3.14
  28  -1 -17   17.36    3.23
  28  -1 -15   -0.87    1.10
 -28  -1  15   -1.41    0.94
  28   1 -15   -0.75    0.90
  28  -1 -13    0.30    0.43
  28   1 -13    0.87    0.90
 -28  -1  11  150.82    9.49
  28   1 -11  166.55    9.83
  28  -1 -11  159.90    9.84
 -28  -1   9   -0.71    1.25
  28   1  -9   -0.35    1.32
  28  -1  -9   -0.38    1.03
 -28  -1   7   -0.58    1.12
  28   1  -7   -0.37    0.62
 -28  -1   5  359.21   15.12
 -28  -1   3   -0.76    0.94
 -28  -1   1    2.11    1.38
 -28  -1  -1  196.00   11.59
 -28  -1  -3    0.05    0.47
 -28   1  -3   -0.09    0.60
 -28   1  -5   -0.80    1.09
 -28  -1  -5   -1.38    1.31
 -28  -1  -7   98.40    8.55
 -28   1  -7   92.01    8.15
 -28  -1  -9   -0.91    1.52
 -28   1  -9   -1.98    1.73
 -28   1 -11   -1.46    1.30
 -28  -1 -11    1.14    1.27
 -28  -1 -13  179.30   11.97
 -28   1 -13  171.18   11.60
 -28  -1 -15   -0.81    1.22
 -28   1 -15    1.56    1.38
 -28   1 -17   -1.01    1.07
 -28  -1 -17    0.12    0.71
 -28  -1 -19  180.12   12.47
 -28  -1 -21    1.10    0.78
 -28  -1 -23   -0.92    1.08
 -28  -1 -25   78.58    8.55
 -28  -1 -27   -1.67    1.93
 -28  -1 -29   -0.63    1.04
 -28  -1 -31   73.74    8.65
 -28  -1 -33   -1.50    2.01
 -28  -1 -35   -0.18    1.01
 -28  -1 -37   53.30    7.48
  28  -2 -36    0.22    0.64
  28  -2 -34   -0.71    0.90
  28   2 -34   -0.02    0.41
  28  -2 -32   34.00    4.32
  28   2 -32   32.24    3.64
  28  -2 -30   -1.14    0.87
  28   2 -30   -0.35    0.76
  28  -2 -28   -0.25    0.71
  28   2 -28   -0.98    1.04
  28  -2 -26   35.03    4.46
  28   2 -26   34.61    4.05
  28  -2 -24   -1.26    0.81
  28   2 -24   -0.04    0.39
  28  -2 -22   -2.15    1.36
  28   2 -22   -0.09    0.51
 -28  -2  20   50.94    5.24
  28  -2 -20   57.03    5.82
  28   2 -20   52.13    5.18
  28  -2 -18   -0.03    0.69
 -28  -2  18   -1.49    1.23
  28   2 -18   -1.36    1.18
 -28  -2  16   -0.31    0.83
  28  -2 -16   -0.10    0.48
  28   2 -16   -0.22    0.46
 -28  -2  14  124.54    8.50
  28  -2 -14  134.33    9.16
  28   2 -14  129.26    8.48
  28  -2 -12   -1.17    1.14
 -28  -2  12   -1.14    1.40
  28   2 -12    0.31    0.43
 -28  -2  10   -0.19    0.89
  28   2 -10    0.61    0.90
 -28  -2   8  189.65   10.90
  28   2  -8  191.73   10.73
 -28  -2   6   -0.25    0.81
 -28  -2   4    0.09    0.64
 -28  -2   2   13.21    3.00
 -28  -2   0   -1.11    0.91
 -28  -2  -2    2.52    2.21
 -28  -2  -4  540.15   19.65
 -28  -2  -6   -0.78    1.05
 -28  -2  -8   -0.38    1.06
 -28  -2 -10   81.07    7.96
 -28  -2 -12    0.89    1.33
 -28  -2 -14    0.92    1.15
 -28  -2 -16  189.72   12.70
 -28  -2 -18    0.56    0.74
 -28  -2 -20   -0.24    0.65
 -28  -2 -22  149.95   11.76
 -28  -2 -24   -1.26    1.79
 -28  -2 -26   -0.44    1.06
 -28  -2 -28   80.67    8.94
 -28  -2 -30   -0.20    1.20
 -28  -2 -32    0.32    0.51
 -28  -2 -34   36.92    6.13
 -28  -2 -36   -0.70    1.29
  28  -3 -35   77.25    6.84
  28  -3 -33    0.04    0.74
  28   3 -33    0.37    0.37
  28  -3 -31   -1.16    0.73
  28   3 -31   -0.25    0.69
  28  -3 -29   25.40    3.88
  28   3 -29   25.36    3.36
  28  -3 -27   -2.56    1.62
  28   3 -27   -1.90    1.06
 -28  -3  25   -0.56    0.92
  28  -3 -25   -2.24    1.69
  28   3 -25   -0.07    0.46
 -28  -3  23   63.53    5.76
  28  -3 -23   60.35    6.10
  28   3 -23   58.09    5.36
 -28  -3  21   -1.50    1.21
  28   3 -21   -1.35    1.11
 -28  -3  19   -1.24    1.13
  28   3 -19   -0.31    0.66
 -28  -3  17  187.83   10.41
  28   3 -17  179.08    9.84
 -28  -3  15    0.56    0.42
  28   3 -15   -0.87    1.06
 -28  -3  13   -0.34    0.83
  28   3 -13   -0.20    0.59
 -28  -3  11  165.69   10.11
  28   3 -11  159.32    9.63
 -28  -3   9   -0.63    0.76
 -28  -3   7   -1.27    1.67
 -28  -3   5   20.03    3.64
 -28  -3   3   -0.53    1.41
 -28  -3   1    1.54    1.78
 -28  -3  -1  222.51   12.60
 -28  -3  -3    0.02    1.24
 -28  -3  -5    1.18    1.07
 -28  -3  -7  249.96   13.91
 -28  -3  -9    2.63    2.06
 -28  -3 -11    1.32    1.39
 -28  -3 -13  258.52   14.74
 -28  -3 -15   -0.49    1.44
 -28  -3 -17   -2.07    2.17
 -28  -3 -19  128.03   10.76
 -28  -3 -21   -1.02    1.30
 -28  -3 -23   -2.19    1.68
 -28  -3 -25  104.89   10.11
 -28  -3 -27   -0.49    0.61
 -28  -3 -29    1.47    0.72
 -28  -3 -31   42.85    6.75
 -28  -3 -33    0.68    0.60
 -28  -3 -35   -0.77    1.99
 -28  -3 -37   47.57    7.29
  28   4 -32  103.58    6.62
  28   4 -30    0.67    0.95
 -28  -4  28   -0.04    0.51
  28   4 -28   -0.21    0.48
 -28  -4  26   44.10    4.68
  28   4 -26   44.94    4.69
 -28  -4  24   -0.92    0.84
  28   4 -24   -0.57    0.97
 -28  -4  22   -0.03    0.38
  28   4 -22    1.24    1.21
 -28  -4  20   39.89    4.72
  28   4 -20   40.31    4.66
 -28  -4  18   -1.78    1.33
  28   4 -18   -1.08    1.16
 -28  -4  16    2.52    1.57
  28   4 -16   -1.18    0.91
 -28  -4  14  261.83   12.71
  28   4 -14  254.72   12.15
 -28  -4  12   -0.15    0.89
 -28  -4  10   -0.82    1.24
 -28  -4   8   28.14    4.36
 -28  -4   6    1.10    1.18
 -28  -4   4    0.93    1.12
 -28  -4   2  199.40   11.85
 -28  -4   0   -0.29    1.08
 -28  -4  -2   -1.65    1.90
 -28  -4  -4   97.43    8.53
 -28  -4  -6   -1.46    1.69
 -28  -4  -8    1.90    1.73
 -28  -4 -10  182.59   12.28
 -28  -4 -12   -1.54    1.28
 -28  -4 -14    0.52    1.58
 -28  -4 -16  199.01   13.46
 -28  -4 -18   -0.18    1.11
 -28  -4 -20   -0.68    1.31
 -28  -4 -22   64.90    7.97
 -28  -4 -24   -2.47    1.69
 -28  -4 -26    0.91    1.51
 -28  -4 -28   58.34    7.88
 -28  -4 -30   -1.69    1.47
 -28  -4 -32   -1.26    1.73
 -28  -4 -34   52.57    7.77
 -28  -5  31    0.00    0.37
  28   5 -31    1.03    0.94
 -28  -5  29   71.41    5.97
  28   5 -29   68.33    5.76
 -28  -5  27    1.54    1.35
  28   5 -27    0.06    0.30
 -28  -5  25    0.98    0.60
  28   5 -25   -1.59    1.19
 -28  -5  23   48.57    5.21
  28   5 -23   43.42    4.96
 -28  -5  21   -0.40    0.88
  28   5 -21    0.13    0.40
 -28  -5  19   -0.82    0.74
  28   5 -19   -0.35    0.84
 -28  -5  17   71.16    6.60
  28   5 -17   71.17    6.50
 -28  -5  15   -0.66    0.80
 -28  -5  13    1.00    1.45
 -28  -5  11   63.32    6.42
 -28  -5   9   -1.00    1.00
 -28  -5   7    0.32    1.24
 -28  -5   5  105.18    8.67
 -28  -5   3   -1.19    1.07
 -28  -5   1   -2.09    1.34
 -28  -5  -1  115.00    9.32
 -28  -5  -3   -0.89    1.30
 -28  -5  -5    0.65    1.09
 -28  -5  -7  248.86   14.37
 -28  -5  -9   -0.57    1.15
 -28  -5 -11   -1.09    1.97
 -28  -5 -13  268.69   15.56
 -28  -5 -15    0.55    1.22
 -28  -5 -17   -1.06    1.45
 -28  -5 -19   82.13    8.86
 -28  -5 -21   -1.35    1.52
 -28  -5 -23    1.05    1.68
 -28  -5 -25   48.75    7.33
 -28  -5 -27    1.95    1.96
 -28  -5 -29   -1.19    1.32
 -28  -5 -31   27.30    5.52
 -28  -6  34   -0.45    0.73
 -28  -6  32   48.66    4.78
 -28  -6  30    1.08    1.42
  28   6 -28    2.07    1.36
 -28  -6  28    0.16    0.60
 -28  -6  26   92.90    7.23
  28   6 -26   93.43    7.29
  28   6 -24    1.50    1.20
 -28  -6  24    1.02    1.02
  28   6 -22   -0.49    1.00
 -28  -6  22    0.39    0.47
 -28  -6  20   49.89    5.52
 -28  -6  18   -0.28    0.88
 -28  -6  16    0.24    0.62
 -28  -6  14   44.98    5.51
 -28  -6  12   -2.04    1.30
 -28  -6  10   -0.31    0.62
 -28  -6   8  195.35   11.82
 -28  -6   6   -0.02    0.42
 -28  -6   4   -1.37    1.06
 -28  -6   2  110.95    9.35
 -28  -6   0    0.06    0.60
 -28  -6  -2    2.05    1.72
 -28  -6  -4  201.18   12.91
 -28  -6  -6   -0.60    1.14
 -28  -6  -8    0.25    0.47
 -28  -6 -10   66.26    7.72
 -28  -6 -12   -1.16    1.34
 -28  -6 -14    2.20    1.38
 -28  -6 -16   62.85    7.77
 -28  -6 -18    0.64    0.76
 -28  -6 -20   -2.51    2.17
 -28  -6 -22   65.91    8.43
 -28  -6 -24   -0.68    1.55
 -28  -6 -26   -1.47    2.17
 -28  -6 -28   66.39    8.77
 -28  -7  31    1.68    0.97
 -28  -7  29   38.35    4.64
 -28  -7  27   -1.43    0.85
 -28  -7  25    1.31    1.43
 -28  -7  23   60.18    6.15
 -28  -7  21   -0.54    0.35
 -28  -7  19   -1.76    1.41
 -28  -7  17   50.66    5.89
 -28  -7  15   -1.67    1.48
 -28  -7  13    1.26    1.21
 -28  -7  11  135.51    9.99
 -28  -7   9   -1.06    1.22
 -28  -7   7    0.07    0.76
 -28  -7   5  136.71   10.52
 -28  -7   3    0.49    1.07
 -28  -7   1   -0.29    1.12
 -28  -7  -1  114.71    9.90
 -28  -7  -3   -1.85    1.46
 -28  -7  -5   -2.43    2.35
 -28  -7  -7   42.88    6.26
 -28  -7  -9    0.28    1.46
 -28  -7 -11   -0.49    0.95
 -28  -7 -13   35.12    5.91
 -28  -7 -15    0.16    1.18
 -28  -7 -17   -0.89    1.50
 -28  -7 -19   51.15    7.49
 -28  -7 -21   -2.37    2.55
 -28  -7 -23   -0.22    1.26
 -28  -7 -25   89.14   10.26
 -28  -8  30    0.95    1.07
 -28  -8  28   -0.68    0.90
 -28  -8  26   10.96    2.73
 -28  -8  24   -0.99    1.26
 -28  -8  22    0.14    0.44
 -28  -8  20   66.00    6.85
 -28  -8  18    2.33    1.76
 -28  -8  16    2.99    1.65
 -28  -8  14  128.93    9.99
 -28  -8  12    1.95    1.57
 -28  -8  10    0.63    0.87
 -28  -8   8  111.46    9.61
 -28  -8   6    2.49    1.85
 -28  -8   4    0.40    0.80
 -28  -8   2   78.70    8.24
 -28  -8   0    0.79    0.85
 -28  -8  -2   -1.87    1.92
 -28  -8  -4    8.89    2.72
 -28  -8  -6    0.46    0.91
 -28  -8  -8   -0.74    1.71
 -28  -8 -10   56.22    7.68
 -28  -8 -12   -1.44    1.20
 -28  -8 -14    1.52    0.96
 -28  -8 -16   30.96    5.74
 -28  -8 -18    0.32    1.78
 -28  -8 -20    0.35    1.25
 -28  -8 -22   63.85    8.63
 -28  -9  29   10.38    2.57
 -28  -9  27   -1.31    1.43
 -28  -9  25   -1.33    1.71
 -28  -9  23    2.09    1.25
 -28  -9  21   -1.84    1.42
 -28  -9  19    1.02    1.18
 -28  -9  17   63.00    7.08
 -28  -9  15    0.71    0.94
 -28  -9  13    0.96    1.48
 -28  -9  11  109.39    9.70
 -28  -9   9   -0.32    0.59
 -28  -9   7    0.96    0.79
 -28  -9   5   74.86    8.27
 -28  -9   3    0.70    0.51
 -28  -9   1   -0.78    1.48
 -28  -9  -1   12.04    3.27
 -28  -9  -3   -0.49    1.17
 -28  -9  -5   -2.03    1.95
 -28  -9  -7   31.13    5.78
 -28  -9  -9    0.42    0.49
 -28  -9 -11   -0.23    1.22
 -28  -9 -13   39.34    6.55
 -28  -9 -15    0.46    0.92
 -28  -9 -17   -0.08    1.22
 -28 -10  28   -0.38    0.69
 -28 -10  26   15.87    3.40
 -28 -10  24   -1.08    0.94
 -28 -10  22   -1.13    1.53
 -28 -10  20   31.27    5.15
 -28 -10  18   -1.36    1.41
 -28 -10  16    0.32    1.24
 -28 -10  14   59.43    7.25
 -28 -10  12   -0.17    1.05
 -28 -10  10    1.07    1.32
 -28 -10   8   52.87    7.12
 -28 -10   6   -0.07    0.90
 -28 -10   4   -0.69    1.30
 -28 -10   2   10.48    3.10
 -28 -10   0    0.10    1.21
 -28 -10  -2    0.24    0.76
 -28 -10  -4   17.37    4.18
 -28 -10  -6   -1.42    1.81
 -28 -10  -8   -0.93    0.82
 -28 -10 -10   24.08    5.20
 -28 -10 -12   -1.03    0.99
 -28 -11  25   -2.05    1.27
 -28 -11  23   11.10    3.10
 -28 -11  21    0.19    0.77
 -28 -11  19   -1.12    1.40
 -28 -11  17   23.39    4.60
 -28 -11  15   -1.57    1.49
 -28 -11  13    1.68    1.35
 -28 -11  11   15.87    4.00
 -28 -11   9   -0.11    0.73
 -28 -11   7    0.40    0.59
 -28 -11   5   20.32    4.55
 -28 -11   3   -0.23    1.05
 -28 -11   1    0.98    0.61
 -28 -11  -1   18.89    4.47
 -28 -11  -3    1.37    1.22
 -28 -11  -5    0.24    1.26
 -28 -12  24    0.43    0.94
 -28 -12  22   -0.84    0.58
 -28 -12  20    6.37    2.36
 -28 -12  18    0.27    1.25
 -28 -12  16   -0.64    0.88
 -28 -12  14    2.89    1.81
 -28 -12  12   -1.91    1.70
 -28 -12  10   -1.61    1.46
 -28 -12   8    4.61    2.27
 -28 -12   6   -1.40    1.75
 -28 -12   4    0.61    0.77
 -28 -12   2   25.98    5.49
 -28 -13  21    0.77    0.91
 -28 -13  19   -3.84    2.15
 -28 -13  17    3.82    2.35
 -28 -13  15   -0.99    0.64
 -28 -13  13   -1.16    1.55
 -28 -13  11    1.66    1.03
  29   0 -35    0.09    0.29
  29   0 -33    0.26    0.46
  29   0 -31    0.39    0.34
  29   0 -29    1.00    0.78
  29   0 -27    0.17    0.83
  29   0 -25   -0.98    1.31
  29   0 -23   -0.21    0.38
  29   0 -21    0.55    0.83
  29   0 -19    0.17    0.29
  29   0 -17    1.47    1.07
  29   0 -15   -0.22    0.52
  29   0 -13   -0.17    0.76
 -29   0   9   -0.99    1.12
 -29   0   7    0.83    0.95
 -29   0   5    0.63    1.10
 -29   0   3    2.40    1.57
 -29   0   1    1.19    1.05
 -29   0  -1   -1.26    1.96
 -29   0  -3   -0.89    1.56
 -29   0  -5   -0.46    0.77
 -29   0  -7    1.60    1.63
 -29   0  -9    0.26    0.82
 -29   0 -11    0.26    0.68
 -29   0 -13    0.16    0.64
 -29   0 -15    2.81    2.31
 -29   0 -17    0.56    1.29
 -29   0 -19    2.49    1.81
 -29   0 -21    0.38    1.25
 -29   0 -23   -0.57    1.66
 -29   0 -25    0.77    1.46
 -29   0 -27   -0.39    1.10
 -29   0 -29    3.84    2.13
  29  -1 -36   -0.29    0.34
  29   1 -34   -0.87    0.46
  29  -1 -34   -0.25    0.58
  29  -1 -32   -0.16    0.34
  29   1 -32    0.48    0.61
  29  -1 -30   -0.87    1.03
  29   1 -30    0.97    0.82
  29  -1 -28   15.25    2.80
  29   1 -28   17.04    2.94
  29  -1 -26    1.00    0.97
  29   1 -26    1.95    1.32
  29  -1 -24   -0.31    0.67
  29   1 -24    0.38    0.73
  29   1 -22   39.61    4.63
  29  -1 -22   33.06    4.32
  29  -1 -20    1.51    1.18
  29   1 -20    2.10    1.45
  29  -1 -18   -0.82    0.85
  29   1 -18    1.08    0.87
 -29  -1  16   12.61    2.58
  29  -1 -16   15.51    3.12
  29   1 -16   14.93    2.88
 -29  -1  14   -1.29    1.29
  29  -1 -14   -0.06    0.83
  29   1 -14    0.83    0.99
 -29  -1  12   -0.71    1.13
  29   1 -12   -1.09    0.63
 -29  -1  10    0.02    0.81
 -29  -1   8    0.49    0.74
 -29  -1   6   -0.01    0.60
 -29  -1   4   85.79    7.53
 -29  -1   2    0.68    0.40
 -29  -1   0   -0.93    1.48
 -29  -1  -2   -0.06    0.85
 -29  -1  -4   -0.61    1.17
 -29   1  -6   -0.82    1.07
 -29  -1  -6    0.61    0.68
 -29   1  -8    0.36    0.42
 -29  -1  -8   -2.16    1.87
 -29   1 -10    0.54    1.15
 -29  -1 -10   -1.35    1.35
 -29   1 -12    1.33    1.53
 -29  -1 -12   -0.64    0.50
 -29   1 -14   61.42    7.17
 -29  -1 -14   56.83    6.84
 -29   1 -16    3.25    2.18
 -29  -1 -16    2.16    1.90
 -29  -1 -18    0.00    1.39
 -29  -1 -20    6.08    2.50
 -29  -1 -22    0.21    0.51
 -29  -1 -24   -0.02    1.11
 -29  -1 -26    2.21    1.32
 -29  -1 -28    0.04    1.03
 -29  -1 -30    0.16    0.59
 -29  -1 -32    0.16    0.70
 -29  -1 -34   -2.22    1.52
 -29  -1 -36    1.35    1.69
  29  -2 -35   -1.22    0.90
  29  -2 -33   -0.10    0.42
  29   2 -33   -0.64    0.81
  29  -2 -31    6.51    1.86
  29   2 -31    8.14    1.92
  29  -2 -29   -0.61    0.71
  29   2 -29    1.93    1.11
  29  -2 -27    1.28    0.80
  29   2 -27    0.67    0.93
  29  -2 -25   35.29    4.68
  29   2 -25   32.40    4.04
  29  -2 -23    5.87    2.45
  29   2 -23    4.92    2.13
 -29  -2  21    0.46    0.85
  29  -2 -21   -0.24    0.42
  29   2 -21    0.86    0.60
 -29  -2  19   -1.40    1.29
  29  -2 -19    0.72    0.93
  29   2 -19   -1.00    1.07
 -29  -2  17   -2.10    1.52
  29   2 -17    0.21    0.43
 -29  -2  15    0.28    0.85
  29   2 -15   -0.24    0.64
 -29  -2  13    7.20    2.15
  29   2 -13    6.01    1.87
 -29  -2  11    0.40    0.82
 -29  -2   9   -0.18    0.69
 -29  -2   7   11.28    2.76
 -29  -2   5   -1.90    1.31
 -29  -2   3   -0.65    0.85
 -29  -2   1   67.85    7.00
 -29  -2  -1    1.80    2.18
 -29  -2  -3    1.96    1.71
 -29  -2  -5    5.86    1.96
 -29  -2  -7   -0.08    1.28
 -29  -2  -9   -0.41    0.60
 -29  -2 -11  107.74    9.42
 -29  -2 -13    1.97    1.38
 -29  -2 -15   -0.40    0.50
 -29  -2 -17    5.96    2.31
 -29  -2 -19    0.70    0.73
 -29  -2 -21    1.55    1.80
 -29  -2 -23    1.91    1.40
 -29  -2 -25   -0.37    1.00
 -29  -2 -27   -0.05    0.82
 -29  -2 -29    1.86    1.78
 -29  -2 -31    1.12    0.77
 -29  -2 -33   -0.83    1.10
 -29  -2 -35    0.77    1.66
  29  -3 -34    3.30    1.50
  29   3 -32   -0.92    0.96
  29   3 -30   -2.17    1.15
  29   3 -28    8.24    2.00
  29   3 -26    1.69    1.29
 -29  -3  24    0.78    0.71
  29   3 -24   -0.54    0.59
 -29  -3  22    5.11    1.82
  29   3 -22    5.56    1.83
 -29  -3  20    0.61    0.93
  29   3 -20    1.08    1.03
 -29  -3  18    0.88    0.76
  29   3 -18    2.15    1.44
 -29  -3  16    1.57    1.09
  29   3 -16    1.04    0.33
 -29  -3  14   -0.19    0.71
  29   3 -14    0.00    0.34
 -29  -3  12   -1.22    1.22
 -29  -3  10   43.95    5.41
 -29  -3   8   -1.68    1.52
 -29  -3   6    2.10    1.36
 -29  -3   4    2.00    1.56
 -29  -3   2    0.19    1.09
 -29  -3   0    0.33    1.31
 -29  -3  -2   58.94    6.63
 -29  -3  -4    1.09    1.81
 -29  -3  -6    2.64    2.18
 -29  -3  -8  236.80   13.91
 -29  -3 -10    1.78    1.56
 -29  -3 -12    0.83    1.83
 -29  -3 -14   -1.11    1.93
 -29  -3 -16    0.82    1.58
 -29  -3 -18    0.32    1.03
 -29  -3 -20   -1.85    1.91
 -29  -3 -22    2.23    1.43
 -29  -3 -24   -0.53    0.63
 -29  -3 -26    3.13    1.97
 -29  -3 -28   -0.31    1.04
 -29  -3 -30   -1.73    1.56
 -29  -3 -32    0.94    1.70
 -29  -3 -34   -2.53    2.02
  29   4 -31   12.44    2.40
 -29  -4  29   -0.05    0.80
  29   4 -29   -0.17    0.43
 -29  -4  27   -0.81    0.91
  29   4 -27    0.95    0.62
 -29  -4  25   -1.54    0.83
  29   4 -25   -0.67    1.00
 -29  -4  23   -0.83    1.18
  29   4 -23   -0.82    0.76
 -29  -4  21   -1.51    1.42
  29   4 -21   -1.19    1.15
 -29  -4  19   -1.37    1.31
  29   4 -19   -1.20    0.87
 -29  -4  17   -0.59    0.53
  29   4 -17   -0.16    0.41
 -29  -4  15    1.21    1.18
 -29  -4  13    9.99    2.63
 -29  -4  11    1.18    0.89
 -29  -4   9   -0.87    0.90
 -29  -4   7   17.94    3.48
 -29  -4   5    3.61    2.54
 -29  -4   3    0.84    1.69
 -29  -4   1   19.10    3.62
 -29  -4  -1   -0.94    1.33
 -29  -4  -3   -1.55    1.12
 -29  -4  -5   -0.47    0.97
 -29  -4  -7    3.93    2.11
 -29  -4  -9    2.94    1.72
 -29  -4 -11    4.29    1.88
 -29  -4 -13    2.57    2.27
 -29  -4 -15    2.92    2.14
 -29  -4 -17    0.09    0.96
 -29  -4 -19   -0.46    1.24
 -29  -4 -21    3.07    2.02
 -29  -4 -23    4.67    2.08
 -29  -4 -25   -1.78    1.36
 -29  -4 -27   -0.14    0.89
 -29  -4 -29   -1.17    1.43
 -29  -4 -31    4.53    2.64
 -29  -5  32    0.42    0.59
 -29  -5  30    1.21    0.99
  29   5 -30    0.26    0.71
 -29  -5  28   12.49    2.67
  29   5 -28    8.27    2.09
 -29  -5  26   -0.05    0.72
  29   5 -26    0.38    0.64
 -29  -5  24   -1.69    1.19
  29   5 -24   -0.70    0.86
 -29  -5  22   17.35    3.16
  29   5 -22   16.37    3.06
 -29  -5  20    0.65    0.72
  29   5 -20    0.38    0.66
 -29  -5  18   -1.55    1.35
 -29  -5  16   -0.28    0.58
 -29  -5  14    0.83    1.44
 -29  -5  12    1.97    1.41
 -29  -5  10   17.65    3.54
 -29  -5   8    1.06    1.45
 -29  -5   6   -0.23    0.58
 -29  -5   4   10.93    2.72
 -29  -5   2    0.96    0.51
 -29  -5   0    0.18    1.28
 -29  -5  -2   36.34    5.46
 -29  -5  -4    1.61    1.74
 -29  -5  -6    1.06    1.86
 -29  -5  -8  116.44   10.00
 -29  -5 -10    0.26    0.50
 -29  -5 -12    2.09    1.93
 -29  -5 -14   -1.52    1.81
 -29  -5 -16   -0.81    1.75
 -29  -5 -18   -2.13    1.98
 -29  -5 -20    6.16    2.46
 -29  -5 -22   -0.12    0.93
 -29  -5 -24    0.79    0.94
 -29  -5 -26    5.85    2.52
 -29  -5 -28    1.14    1.60
 -29  -5 -30    0.13    0.52
 -29  -6  33   -0.30    0.35
 -29  -6  31   -0.65    0.49
  29   6 -29    0.47    0.54
 -29  -6  29    1.39    1.03
  29   6 -27    0.02    0.75
 -29  -6  27    2.76    1.62
  29   6 -25    0.61    0.80
 -29  -6  25    1.46    1.19
 -29  -6  23    0.17    0.33
 -29  -6  21    1.19    0.77
 -29  -6  19   -0.96    1.07
 -29  -6  17   -0.50    0.89
 -29  -6  15   -1.20    1.22
 -29  -6  13   -2.04    1.73
 -29  -6  11    1.78    1.20
 -29  -6   9    1.03    1.40
 -29  -6   7   28.23    4.63
 -29  -6   5   -2.14    1.25
 -29  -6   3   -1.18    1.39
 -29  -6   1    3.45    1.22
 -29  -6  -1    0.76    1.10
 -29  -6  -3   -0.97    1.21
 -29  -6  -5    7.91    2.69
 -29  -6  -7    1.33    1.64
 -29  -6  -9   -0.40    0.64
 -29  -6 -11   -1.57    2.30
 -29  -6 -13   -1.15    1.61
 -29  -6 -15   -2.25    2.04
 -29  -6 -17   -1.74    1.87
 -29  -6 -19   -0.58    1.84
 -29  -6 -21   -1.25    1.17
 -29  -6 -23   -0.39    1.35
 -29  -6 -25   -1.32    1.60
 -29  -6 -27    0.61    0.87
 -29  -7  32    1.05    0.98
 -29  -7  30   -1.77    1.15
 -29  -7  28    1.15    1.45
 -29  -7  26    1.78    1.34
 -29  -7  24   -0.20    0.48
 -29  -7  22   -1.76    1.43
 -29  -7  20   -1.02    1.21
 -29  -7  18   -0.85    1.30
 -29  -7  16   -1.32    1.44
 -29  -7  14   -0.20    0.87
 -29  -7  12   -0.24    0.84
 -29  -7  10    1.49    0.82
 -29  -7   8    0.94    1.49
 -29  -7   6    1.39    1.18
 -29  -7   4    0.71    0.59
 -29  -7   2    1.04    1.17
 -29  -7   0   -0.58    0.74
 -29  -7  -2    3.35    1.66
 -29  -7  -4    0.30    0.71
 -29  -7  -6    0.47    0.81
 -29  -7  -8   -0.75    1.53
 -29  -7 -10    1.99    1.96
 -29  -7 -12    2.28    2.20
 -29  -7 -14    1.27    0.67
 -29  -7 -16    1.62    1.00
 -29  -7 -18   -0.01    0.58
 -29  -7 -20   -0.46    1.41
 -29  -7 -22    1.56    1.40
 -29  -7 -24    0.85    1.07
 -29  -8  31    7.04    1.97
 -29  -8  29    0.86    0.45
 -29  -8  27   -0.38    0.61
 -29  -8  25   -1.01    0.92
 -29  -8  23    0.86    0.73
 -29  -8  21    0.79    0.81
 -29  -8  19    0.51    0.51
 -29  -8  17    3.20    2.04
 -29  -8  15   -0.17    1.41
 -29  -8  13   11.33    3.12
 -29  -8  11    1.21    1.08
 -29  -8   9    0.69    0.81
 -29  -8   7    8.43    2.57
 -29  -8   5   -0.10    0.63
 -29  -8   3    0.32    0.96
 -29  -8   1    3.01    1.45
 -29  -8  -1   -0.11    1.01
 -29  -8  -3   -0.49    1.08
 -29  -8  -5   -1.07    1.57
 -29  -8  -7    2.49    1.63
 -29  -8  -9    2.32    1.25
 -29  -8 -11    0.91    1.19
 -29  -8 -13   -1.58    1.79
 -29  -8 -15    0.52    1.02
 -29  -8 -17    8.73    3.30
 -29  -8 -19    2.26    1.49
 -29  -9  28    1.74    1.50
 -29  -9  26    1.04    1.24
 -29  -9  24   -1.18    1.13
 -29  -9  22   -0.59    0.93
 -29  -9  20    2.71    1.54
 -29  -9  18    0.47    1.12
 -29  -9  16    2.50    1.63
 -29  -9  14    0.99    0.60
 -29  -9  12    1.26    1.56
 -29  -9  10    5.25    2.29
 -29  -9   8    1.44    1.61
 -29  -9   6   -0.18    0.77
 -29  -9   4    8.99    2.89
 -29  -9   2   -1.61    1.12
 -29  -9   0   -0.13    0.67
 -29  -9  -2   -1.21    1.66
 -29  -9  -4   -0.79    0.93
 -29  -9  -6    1.67    1.05
 -29  -9  -8   -1.19    1.52
 -29  -9 -10    0.14    0.93
 -29  -9 -12    3.55    2.39
 -29  -9 -14   -1.67    1.34
 -29 -10  27   -3.35    1.98
 -29 -10  25    3.20    1.41
 -29 -10  23   -1.69    1.08
 -29 -10  21    0.38    0.45
 -29 -10  19    0.32    0.74
 -29 -10  17    1.89    1.56
 -29 -10  15    1.86    1.72
 -29 -10  13   -0.43    0.83
 -29 -10  11    0.56    0.54
 -29 -10   9    1.16    0.76
 -29 -10   7    1.09    0.89
 -29 -10   5   -0.15    1.18
 -29 -10   3    0.33    1.40
 -29 -10   1    0.06    0.71
 -29 -10  -1    3.13    2.10
 -29 -10  -3    0.43    1.25
 -29 -10  -5   -0.55    0.86
 -29 -10  -7    2.06    1.64
 -29 -10  -9    0.00    0.87
 -29 -11  26    0.62    1.22
 -29 -11  24   -1.75    1.58
 -29 -11  22    0.21    0.77
 -29 -11  20    0.65    1.54
 -29 -11  18    2.43    1.49
 -29 -11  16   -1.39    1.48
 -29 -11  14   -0.46    0.67
 -29 -11  12    0.45    1.20
 -29 -11  10    0.57    0.70
 -29 -11   8    1.17    1.73
 -29 -11   6    0.16    1.09
 -29 -11   4    1.21    1.64
 -29 -11   2    3.25    2.48
 -29 -11   0   -0.76    0.96
 -29 -11  -2   -1.10    1.58
 -29 -11  -4    1.88    2.21
 -29 -12  23    0.05    0.67
 -29 -12  21   -0.47    0.68
 -29 -12  19   -0.71    0.53
 -29 -12  17   -0.83    1.30
 -29 -12  15   -1.29    0.65
 -29 -12  13   -1.47    1.49
 -29 -12  11    0.35    0.97
 -29 -12   9    0.36    0.80
 -29 -12   7   -0.72    1.42
 -29 -12   5   -0.80    1.51
 -29 -13  22   -0.93    1.54
 -29 -13  20    1.18    1.19
 -29 -13  18   -0.77    1.39
 -29 -13  16   -1.27    1.47
 -29 -13  14   -1.56    1.73
  30   0 -34    0.15    0.37
  30   0 -32   -1.11    0.75
  30   0 -30   57.47    5.54
  30   0 -28   -0.68    0.78
  30   0 -26   -3.21    1.91
  30   0 -24   49.55    5.30
  30   0 -22   -0.43    0.96
  30   0 -20   -1.12    1.26
  30   0 -18   94.96    7.59
 -30   0   8    0.52    0.62
 -30   0   6   94.74    8.02
 -30   0   4   -0.85    1.10
 -30   0   2   -0.45    1.51
 -30   0   0   18.18    3.29
 -30   0  -2   -2.32    2.07
 -30   0  -4    0.49    0.94
 -30   0  -6  193.03   12.15
 -30   0  -8   -1.16    1.42
 -30   0 -10   -2.47    1.82
 -30   0 -12  217.44   13.46
 -30   0 -14   -0.41    0.75
 -30   0 -16   -2.68    1.92
 -30   0 -18  236.22   14.62
 -30   0 -20   -2.63    1.79
 -30   0 -22   -2.48    1.82
 -30   0 -24   85.86    9.10
 -30   0 -26   -1.70    2.11
 -30   0 -28    2.35    1.85
  30  -1 -35    0.18    0.46
  30   1 -35    0.30    0.41
  30  -1 -33   33.14    4.25
  30   1 -33   27.41    3.60
  30  -1 -31   -1.36    1.14
  30   1 -31   -0.73    0.74
  30  -1 -29   -0.22    0.31
  30   1 -29   -1.25    1.09
  30  -1 -27  131.63    8.70
  30   1 -27  139.77    8.58
  30  -1 -25   -1.50    0.99
  30   1 -25    0.13    0.62
  30  -1 -23   -1.51    0.90
  30   1 -23   -0.42    0.92
  30   1 -21  166.95    9.74
  30  -1 -21  165.27    9.96
  30   1 -19   -1.06    0.90
  30   1 -17   -0.84    0.98
 -30  -1  15   64.77    6.35
 -30  -1  13   -1.18    1.31
 -30  -1  11   -0.40    0.44
 -30  -1   9  117.32    8.76
 -30  -1   7   -0.35    0.78
 -30  -1   5   -0.97    1.36
 -30  -1   3   25.66    4.22
 -30  -1   1   -1.22    1.54
 -30  -1  -1    0.29    0.58
 -30  -1  -3  155.15   10.84
 -30  -1  -5   -1.00    2.02
 -30  -1  -7   -1.31    1.36
 -30  -1  -9  141.68   10.72
 -30  -1 -11   -1.34    1.50
 -30  -1 -13    0.25    0.91
 -30  -1 -15  207.30   13.44
 -30  -1 -17   -0.46    1.24
 -30  -1 -19    0.11    1.05
 -30  -1 -21  131.47   11.11
 -30  -1 -23   -0.48    0.91
 -30  -1 -25   -0.46    0.67
 -30  -1 -27   97.33    9.93
 -30  -1 -29   -2.90    2.09
 -30  -1 -31   -0.03    1.25
 -30  -1 -33   56.67    7.78
 -30  -1 -35   -1.77    1.74
  30  -2 -34    0.71    0.65
  30   2 -34   -1.04    0.94
  30  -2 -32   -0.91    0.85
  30   2 -32   -0.93    0.97
  30  -2 -30   43.92    5.17
  30   2 -30   46.26    4.75
  30  -2 -28   -0.14    0.96
  30   2 -28   -0.66    0.82
  30   2 -26   -1.47    1.01
  30   2 -24  240.05   11.31
  30   2 -22   -0.93    0.44
 -30  -2  20   -1.18    1.29
  30   2 -20   -1.26    1.16
 -30  -2  18   29.49    4.19
  30   2 -18   28.18    4.05
 -30  -2  16   -1.33    1.58
  30   2 -16   -1.15    1.17
 -30  -2  14   -1.13    1.03
 -30  -2  12  114.42    8.61
 -30  -2  10   -0.59    1.38
 -30  -2   8   -0.11    0.58
 -30  -2   6   45.79    5.71
 -30  -2   4    0.19    0.44
 -30  -2   2    3.53    1.94
 -30  -2   0  320.19   15.40
 -30  -2  -2    0.10    0.89
 -30  -2  -4    0.20    1.16
 -30  -2  -6   39.07    5.52
 -30  -2  -8    0.31    1.25
 -30  -2 -10    0.52    0.92
 -30  -2 -12  146.68   11.29
 -30  -2 -14   -2.18    1.69
 -30  -2 -16   -2.03    2.12
 -30  -2 -18  150.87   11.93
 -30  -2 -20   -0.75    1.11
 -30  -2 -22   -0.51    1.45
 -30  -2 -24  132.58   11.66
 -30  -2 -26   -0.18    1.51
 -30  -2 -28   -0.95    1.28
 -30  -2 -30   71.57    8.79
 -30  -2 -32   -0.73    1.76
 -30  -2 -34    0.48    1.08
  30   3 -33    9.18    2.03
  30   3 -31   -1.04    0.85
  30   3 -29   -0.90    1.00
  30   3 -27   84.30    6.58
 -30  -3  25    0.59    0.75
  30   3 -25   -0.13    0.32
 -30  -3  23    0.77    1.17
  30   3 -23   -0.20    0.67
 -30  -3  21  109.64    8.08
  30   3 -21  116.95    8.10
 -30  -3  19   -1.28    0.90
  30   3 -19   -0.93    1.04
 -30  -3  17   -0.51    0.87
 -30  -3  15   33.11    4.63
 -30  -3  13   -0.19    0.43
 -30  -3  11   -0.84    1.19
 -30  -3   9   84.59    7.67
 -30  -3   7   -0.58    1.28
 -30  -3   5    1.14    1.14
 -30  -3   3  316.80   15.25
 -30  -3   1   -1.09    1.15
 -30  -3  -1    0.94    0.74
 -30  -3  -3  105.97    9.16
 -30  -3  -5    0.89    2.16
 -30  -3  -7    1.72    1.73
 -30  -3  -9   88.06    8.68
 -30  -3 -11   -0.18    1.55
 -30  -3 -13   -0.56    1.19
 -30  -3 -15  151.78   11.79
 -30  -3 -17   -0.39    1.23
 -30  -3 -19   -0.72    1.39
 -30  -3 -21   74.74    8.67
 -30  -3 -23    0.99    0.74
 -30  -3 -25   -2.34    1.64
 -30  -3 -27   92.13    9.97
 -30  -3 -29    0.65    0.98
 -30  -3 -31    1.12    1.28
 -30  -3 -33   48.78    7.58
  30   4 -30    8.68    2.06
 -30  -4  28   -1.63    1.32
  30   4 -28    0.29    0.32
 -30  -4  26   -1.42    1.19
  30   4 -26    0.05    0.67
 -30  -4  24   66.86    6.23
  30   4 -24   62.84    5.95
 -30  -4  22   -1.39    1.25
  30   4 -22    0.31    0.66
 -30  -4  20   -1.21    1.09
  30   4 -20   -1.43    0.97
 -30  -4  18  121.98    8.83
 -30  -4  16    0.07    0.61
 -30  -4  14   -1.71    1.50
 -30  -4  12    7.37    2.32
 -30  -4  10    1.35    0.98
 -30  -4   8    0.92    1.22
 -30  -4   6  364.11   16.32
 -30  -4   4    0.07    0.53
 -30  -4   2   -1.03    1.24
 -30  -4   0   81.79    8.04
 -30  -4  -2    0.73    0.79
 -30  -4  -4    0.96    1.91
 -30  -4  -6  233.62   14.13
 -30  -4  -8    2.34    1.73
 -30  -4 -10   -0.49    0.79
 -30  -4 -12  207.07   13.67
 -30  -4 -14   -0.17    1.20
 -30  -4 -16   -1.94    1.57
 -30  -4 -18   47.32    6.86
 -30  -4 -20   -1.57    1.83
 -30  -4 -22   -0.06    0.96
 -30  -4 -24   71.56    8.81
 -30  -4 -26    0.20    1.21
 -30  -4 -28   -1.33    1.61
 -30  -4 -30   48.18    7.48
 -30  -5  31   -1.79    0.97
 -30  -5  29   -0.42    0.83
  30   5 -29    0.34    0.49
 -30  -5  27   36.05    4.51
  30   5 -27   29.30    4.00
 -30  -5  25    0.23    0.89
  30   5 -25   -0.86    0.87
 -30  -5  23    0.65    0.37
  30   5 -23   -0.35    0.57
 -30  -5  21   38.94    4.96
 -30  -5  19   -0.66    1.15
 -30  -5  17   -1.91    1.55
 -30  -5  15   84.09    7.60
 -30  -5  13    0.77    1.24
 -30  -5  11   -0.15    1.00
 -30  -5   9  160.08   10.88
 -30  -5   7    1.14    1.30
 -30  -5   5   -0.19    0.54
 -30  -5   3  121.61    9.75
 -30  -5   1   -0.86    0.94
 -30  -5  -1   -0.06    0.76
 -30  -5  -3  219.49   13.54
 -30  -5  -5    2.84    2.05
 -30  -5  -7    0.72    0.75
 -30  -5  -9   62.19    7.46
 -30  -5 -11   -1.32    1.24
 -30  -5 -13    0.03    0.93
 -30  -5 -15   23.15    4.87
 -30  -5 -17   -1.93    1.70
 -30  -5 -19   -1.67    1.85
 -30  -5 -21   62.68    8.21
 -30  -5 -23    0.99    0.58
 -30  -5 -25    2.45    1.97
 -30  -5 -27   79.35    9.57
 -30  -6  32   -0.31    0.77
 -30  -6  30   51.91    5.42
 -30  -6  28    0.16    0.61
 -30  -6  26   -0.69    1.08
 -30  -6  24   31.82    4.49
 -30  -6  22   -1.16    1.20
 -30  -6  20   -2.62    1.59
 -30  -6  18   19.40    3.72
 -30  -6  16   -1.26    1.20
 -30  -6  14    0.81    0.82
 -30  -6  12  147.85   10.42
 -30  -6  10   -0.65    0.83
 -30  -6   8    0.83    0.70
 -30  -6   6   31.12    4.94
 -30  -6   4   -0.66    1.56
 -30  -6   2    1.03    1.08
 -30  -6   0  222.52   13.88
 -30  -6  -2   -1.55    1.99
 -30  -6  -4    0.47    1.55
 -30  -6  -6  144.60   11.46
 -30  -6  -8    1.48    0.50
 -30  -6 -10   -0.37    1.06
 -30  -6 -12   19.70    4.26
 -30  -6 -14   -1.01    1.82
 -30  -6 -16   -1.76    1.98
 -30  -6 -18   43.25    6.83
 -30  -6 -20   -3.25    2.88
 -30  -6 -22   -0.33    0.76
 -30  -6 -24   76.21    9.48
 -30  -7  31   -0.77    0.84
 -30  -7  29   -0.22    0.53
 -30  -7  27   38.91    5.06
 -30  -7  25    0.77    0.85
 -30  -7  23   -1.25    0.71
 -30  -7  21   22.12    3.90
 -30  -7  19   -0.43    1.02
 -30  -7  17    0.38    0.44
 -30  -7  15   77.31    7.65
 -30  -7  13    1.50    0.95
 -30  -7  11   -1.48    1.65
 -30  -7   9   45.27    6.05
 -30  -7   7    0.96    0.72
 -30  -7   5    1.40    1.04
 -30  -7   3   76.98    8.22
 -30  -7   1   -0.29    0.46
 -30  -7  -1   -0.58    1.06
 -30  -7  -3   94.62    9.40
 -30  -7  -5    0.34    0.63
 -30  -7  -7    0.16    1.04
 -30  -7  -9   85.72    9.25
 -30  -7 -11    0.80    0.99
 -30  -7 -13   -0.72    0.66
 -30  -7 -15   24.81    5.08
 -30  -7 -17   -1.29    2.15
 -30  -7 -19   -2.55    2.22
 -30  -7 -21   76.09    9.39
 -30  -8  30   24.21    3.98
 -30  -8  28   -0.62    1.21
 -30  -8  26    1.00    0.54
 -30  -8  24   17.78    3.53
 -30  -8  22   -0.24    0.69
 -30  -8  20   -0.61    0.83
 -30  -8  18   55.54    6.46
 -30  -8  16    0.05    0.52
 -30  -8  14   -1.42    1.02
 -30  -8  12   44.43    6.09
 -30  -8  10   -0.42    1.41
 -30  -8   8   -1.68    1.77
 -30  -8   6   52.30    6.85
 -30  -8   4    1.97    1.15
 -30  -8   2   -1.27    1.45
 -30  -8   0   28.25    5.20
 -30  -8  -2   -0.70    1.64
 -30  -8  -4   -0.15    0.66
 -30  -8  -6   48.01    7.11
 -30  -8  -8   -0.33    0.77
 -30  -8 -10   -0.02    1.15
 -30  -8 -12   53.19    7.71
 -30  -8 -14   -1.20    1.15
 -30  -8 -16   -0.45    0.60
 -30  -8 -18   57.28    8.28
 -30  -9  29    3.99    1.89
 -30  -9  27   24.49    4.19
 -30  -9  25   -1.68    1.32
 -30  -9  23   -1.47    1.62
 -30  -9  21   67.31    7.37
 -30  -9  19   -0.81    0.96
 -30  -9  17   -1.75    1.78
 -30  -9  15   28.90    5.05
 -30  -9  13    0.45    0.90
 -30  -9  11   -0.04    0.99
 -30  -9   9   40.25    6.17
 -30  -9   7    0.74    1.15
 -30  -9   5    1.50    1.12
 -30  -9   3   11.78    3.30
 -30  -9   1    0.81    1.66
 -30  -9  -1    0.95    0.58
 -30  -9  -3   17.28    4.46
 -30  -9  -5    2.52    1.78
 -30  -9  -7   -1.79    1.32
 -30  -9  -9   43.53    7.09
 -30  -9 -11    1.50    1.81
 -30  -9 -13    1.72    0.66
 -30 -10  26   -1.01    0.89
 -30 -10  24   17.31    3.74
 -30 -10  22    2.16    1.73
 -30 -10  20   -2.43    1.65
 -30 -10  18   18.33    4.06
 -30 -10  16   -0.91    0.63
 -30 -10  14    2.87    1.83
 -30 -10  12   13.53    3.68
 -30 -10  10   -1.73    1.21
 -30 -10   8    1.59    1.50
 -30 -10   6   22.44    4.89
 -30 -10   4   -0.64    0.98
 -30 -10   2    0.48    1.32
 -30 -10   0   35.25    6.21
 -30 -10  -2    1.04    1.47
 -30 -10  -4    0.03    0.90
 -30 -10  -6   29.59    5.91
 -30 -10  -8    1.19    1.11
 -30 -11  25    1.48    1.30
 -30 -11  23    0.77    0.94
 -30 -11  21    8.76    2.89
 -30 -11  19   -0.36    1.00
 -30 -11  17   -0.81    1.45
 -30 -11  15   14.55    3.92
 -30 -11  13    0.40    0.80
 -30 -11  11    0.81    1.46
 -30 -11   9    7.80    2.99
 -30 -11   7   -0.74    1.26
 -30 -11   5    0.76    1.37
 -30 -11   3   51.02    7.55
 -30 -11   1   -0.19    0.92
 -30 -11  -1    0.07    1.08
 -30 -12  24    6.59    2.46
 -30 -12  22   -3.61    2.18
 -30 -12  20   -0.36    0.81
 -30 -12  18   11.80    3.62
 -30 -12  16    1.94    2.00
 -30 -12  14   -2.13    1.59
 -30 -12  12    4.95    2.33
 -30 -12  10   -1.17    0.75
 -30 -12   8   -0.65    1.12
 -30 -13  19   -1.59    1.25
 -30 -13  17   -3.11    2.17
  31   0 -35    0.65    0.57
  31   0 -33    0.50    0.92
  31   0 -31    1.30    0.97
  31   0 -29   -1.32    1.22
  31   0 -27   -0.39    0.52
  31   0 -25   -1.49    1.27
  31   0 -23   -0.02    0.60
 -31   0   7   -0.05    0.42
 -31   0   5   -1.97    1.82
 -31   0   3   -0.52    1.32
 -31   0   1   -2.32    1.87
 -31   0  -1    0.08    0.59
 -31   0  -3    1.45    1.46
 -31   0  -5    0.81    0.62
 -31   0  -7   -2.06    1.91
 -31   0  -9   -1.46    1.32
 -31   0 -11    0.66    1.15
 -31   0 -13    2.34    1.48
 -31   0 -15    1.45    1.81
 -31   0 -17    2.13    1.91
 -31   0 -19    2.35    1.45
 -31   0 -21   -0.28    0.62
 -31   0 -23   -1.03    1.68
 -31   0 -25    1.33    0.59
 -31   0 -27    3.10    2.30
  31  -1 -34   -0.27    1.03
  31   1 -34    0.77    0.39
  31  -1 -32    4.42    1.57
  31   1 -32    5.76    1.64
  31  -1 -30    0.26    0.51
  31   1 -30    2.96    1.46
  31  -1 -28   -1.13    0.81
  31   1 -28    2.52    1.27
  31   1 -26    2.72    1.40
  31   1 -24    2.07    1.29
  31   1 -22    1.05    1.46
  31   1 -20    8.11    2.26
 -31  -1  14   20.54    3.53
 -31  -1  12    0.60    1.17
 -31  -1  10   -0.30    0.46
 -31  -1   8  117.99    9.08
 -31  -1   6   -1.88    1.35
 -31  -1   4    0.02    0.75
 -31  -1   2  106.67    8.93
 -31  -1   0    1.04    1.47
 -31  -1  -2    0.22    0.68
 -31  -1  -4    0.23    0.76
 -31  -1  -6    0.86    0.60
 -31  -1  -8   -0.94    1.05
 -31  -1 -10    7.12    2.65
 -31  -1 -12    1.32    1.00
 -31  -1 -14    1.84    1.96
 -31  -1 -16    8.11    2.82
 -31  -1 -18    0.29    1.44
 -31  -1 -20    0.08    1.31
 -31  -1 -22    1.83    0.60
 -31  -1 -24    2.16    2.12
 -31  -1 -26   -0.29    0.59
 -31  -1 -28    0.12    1.15
 -31  -1 -30    0.58    1.59
 -31  -1 -32    0.12    1.64
 -31  -1 -34   -0.92    1.37
  31   2 -33    0.60    0.85
  31   2 -31    0.79    0.85
  31   2 -29   11.51    2.45
  31   2 -27    0.62    0.81
  31   2 -25    2.34    1.57
  31   2 -23   20.10    3.34
 -31  -2  21    0.41    0.78
  31   2 -21   -1.46    1.21
 -31  -2  19   -1.52    1.41
 -31  -2  17    0.90    0.64
 -31  -2  15    1.30    1.25
 -31  -2  13   -0.16    0.70
 -31  -2  11   10.38    2.58
 -31  -2   9    0.63    0.98
 -31  -2   7   -1.57    1.59
 -31  -2   5    2.98    1.18
 -31  -2   3    1.59    1.27
 -31  -2   1   -0.26    0.57
 -31  -2  -1   26.46    4.42
 -31  -2  -3   -1.72    1.19
 -31  -2  -5    0.15    1.13
 -31  -2  -7   45.50    6.20
 -31  -2  -9   -1.70    1.44
 -31  -2 -11   -1.33    1.41
 -31  -2 -13   -1.06    1.49
 -31  -2 -15   -1.70    1.33
 -31  -2 -17    0.54    1.04
 -31  -2 -19    5.45    2.54
 -31  -2 -21   -1.42    1.55
 -31  -2 -23    1.35    1.88
 -31  -2 -25    0.21    1.17
 -31  -2 -27    1.66    2.20
 -31  -2 -29    1.73    1.88
 -31  -2 -31    0.21    0.69
 -31  -2 -33   -0.13    1.49
  31   3 -32    1.65    0.59
  31   3 -30    2.53    1.36
  31   3 -28    1.35    0.74
  31   3 -26   26.17    3.79
 -31  -3  24   -0.11    0.42
  31   3 -24    0.59    0.99
 -31  -3  22    1.33    1.24
  31   3 -22    1.24    1.04
 -31  -3  20    6.77    2.30
 -31  -3  18   -0.69    0.72
 -31  -3  16   -1.77    1.42
 -31  -3  14    4.06    1.88
 -31  -3  12    0.38    1.52
 -31  -3  10   -1.01    1.17
 -31  -3   8   26.46    4.30
 -31  -3   6    0.36    0.62
 -31  -3   4    1.08    1.40
 -31  -3   2    9.14    2.51
 -31  -3   0    0.40    0.70
 -31  -3  -2   -2.00    1.54
 -31  -3  -4   57.02    6.88
 -31  -3  -6    1.90    1.21
 -31  -3  -8   -1.06    1.18
 -31  -3 -10    0.44    0.90
 -31  -3 -12   -0.76    1.00
 -31  -3 -14   -0.49    0.54
 -31  -3 -16    0.18    0.70
 -31  -3 -18    0.12    0.85
 -31  -3 -20    1.39    0.85
 -31  -3 -22    0.12    1.20
 -31  -3 -24   -0.54    0.60
 -31  -3 -26    0.00    1.38
 -31  -3 -28    2.82    2.14
 -31  -3 -30    0.56    1.17
  31   4 -31    0.41    0.54
 -31  -4  29    0.10    0.95
  31   4 -29    4.11    1.51
 -31  -4  27   -1.90    1.45
  31   4 -27   -1.78    0.97
 -31  -4  25   -0.24    0.77
  31   4 -25    0.96    1.09
 -31  -4  23    8.21    2.23
 -31  -4  21   -0.88    0.90
 -31  -4  19   -0.75    1.16
 -31  -4  17    0.40    0.89
 -31  -4  15   -1.07    0.92
 -31  -4  13   -0.90    1.25
 -31  -4  11   37.69    5.21
 -31  -4   9    2.49    2.15
 -31  -4   7    0.85    1.01
 -31  -4   5   15.07    3.15
 -31  -4   3   -1.04    1.65
 -31  -4   1   -0.83    1.32
 -31  -4  -1    2.75    1.41
 -31  -4  -3    0.73    1.23
 -31  -4  -5    0.50    0.73
 -31  -4  -7    0.76    0.93
 -31  -4  -9    0.12    1.02
 -31  -4 -11    1.53    1.55
 -31  -4 -13   10.43    3.11
 -31  -4 -15    0.49    1.27
 -31  -4 -17   -0.98    1.61
 -31  -4 -19   -2.18    2.07
 -31  -4 -21    0.85    0.82
 -31  -4 -23    0.20    0.66
 -31  -4 -25    1.16    1.22
 -31  -4 -27   -2.04    1.68
 -31  -5  32    0.39    0.98
 -31  -5  30   -1.12    1.22
 -31  -5  28   -1.09    1.30
  31   5 -28    1.07    0.95
 -31  -5  26    1.85    0.92
  31   5 -26    2.24    1.39
 -31  -5  24   -0.66    1.33
 -31  -5  22    1.10    0.42
 -31  -5  20   -0.47    0.87
 -31  -5  18   -0.53    0.94
 -31  -5  16   -0.07    0.57
 -31  -5  14   36.70    5.14
 -31  -5  12    0.84    1.35
 -31  -5  10   -1.57    1.60
 -31  -5   8   21.90    4.14
 -31  -5   6    0.46    0.85
 -31  -5   4    0.18    0.86
 -31  -5   2    0.23    1.22
 -31  -5   0   -2.11    1.25
 -31  -5  -2    1.21    1.30
 -31  -5  -4   92.56    9.02
 -31  -5  -6   -0.17    0.93
 -31  -5  -8   -0.61    1.58
 -31  -5 -10   10.83    2.87
 -31  -5 -12   -0.01    1.25
 -31  -5 -14   -0.78    1.37
 -31  -5 -16   -1.62    2.39
 -31  -5 -18    0.01    0.56
 -31  -5 -20    2.61    1.93
 -31  -5 -22    1.82    1.73
 -31  -5 -24    2.27    2.70
 -31  -5 -26   -0.85    0.76
 -31  -6  33   -1.07    0.96
 -31  -6  31    0.63    0.77
 -31  -6  29    1.89    1.20
 -31  -6  27   -1.39    1.23
 -31  -6  25   -0.46    0.85
 -31  -6  23   -1.35    1.25
 -31  -6  21    0.11    0.81
 -31  -6  19   -2.40    1.66
 -31  -6  17   12.70    2.99
 -31  -6  15    1.14    0.72
 -31  -6  13    2.17    1.30
 -31  -6  11   24.29    4.19
 -31  -6   9   -0.73    1.14
 -31  -6   7   -0.60    1.26
 -31  -6   5    5.15    1.59
 -31  -6   3    1.75    1.72
 -31  -6   1    2.17    1.90
 -31  -6  -1   26.69    4.93
 -31  -6  -3    1.43    1.79
 -31  -6  -5    0.79    1.72
 -31  -6  -7   17.06    4.11
 -31  -6  -9   -0.11    0.99
 -31  -6 -11    0.20    0.96
 -31  -6 -13   -1.53    2.05
 -31  -6 -15   -0.90    1.49
 -31  -6 -17   -1.63    1.51
 -31  -6 -19   -2.89    2.54
 -31  -6 -21   -0.07    1.24
 -31  -6 -23   -0.52    1.50
 -31  -7  32    2.21    1.12
 -31  -7  30    0.35    0.66
 -31  -7  28    0.20    0.90
 -31  -7  26    0.34    0.79
 -31  -7  24    1.79    1.40
 -31  -7  22    0.49    0.98
 -31  -7  20    5.47    1.82
 -31  -7  18   -0.41    1.00
 -31  -7  16   -0.23    1.44
 -31  -7  14    0.63    0.93
 -31  -7  12   -0.91    0.94
 -31  -7  10   -1.65    1.76
 -31  -7   8   -2.80    2.26
 -31  -7   6   -0.96    1.52
 -31  -7   4   -0.70    1.41
 -31  -7   2    7.72    2.48
 -31  -7   0    2.98    2.35
 -31  -7  -2    0.42    0.96
 -31  -7  -4   -1.31    1.48
 -31  -7  -6    0.40    0.64
 -31  -7  -8    0.27    1.00
 -31  -7 -10   -0.96    2.11
 -31  -7 -12   -1.28    1.73
 -31  -7 -14   -0.10    0.93
 -31  -7 -16    2.24    1.92
 -31  -7 -18   -1.31    2.40
 -31  -7 -20   -2.48    2.05
 -31  -8  29    0.94    1.12
 -31  -8  27   -1.47    1.15
 -31  -8  25    0.38    1.01
 -31  -8  23    1.25    0.80
 -31  -8  21    0.23    0.79
 -31  -8  19   -2.14    1.50
 -31  -8  17    0.40    0.47
 -31  -8  15   -0.57    1.50
 -31  -8  13    0.67    0.60
 -31  -8  11   12.90    3.22
 -31  -8   9   -0.46    0.90
 -31  -8   7   -1.17    1.48
 -31  -8   5    2.69    0.80
 -31  -8   3   -0.91    1.25
 -31  -8   1    0.58    0.99
 -31  -8  -1    6.89    2.85
 -31  -8  -3    0.22    0.80
 -31  -8  -5   -0.71    0.73
 -31  -8  -7   -0.68    0.73
 -31  -8  -9    2.13    2.20
 -31  -8 -11   -1.18    1.43
 -31  -8 -13   -1.12    1.62
 -31  -8 -15   -0.44    1.14
 -31  -9  28    1.31    1.52
 -31  -9  26   -0.38    0.74
 -31  -9  24   -0.02    0.54
 -31  -9  22    1.05    0.86
 -31  -9  20    0.21    0.46
 -31  -9  18   -1.22    0.97
 -31  -9  16   -1.55    1.24
 -31  -9  14    1.72    1.27
 -31  -9  12   -0.08    0.82
 -31  -9  10    0.52    1.24
 -31  -9   8    8.96    2.82
 -31  -9   6   -1.51    1.30
 -31  -9   4   -0.29    0.83
 -31  -9   2    5.29    2.35
 -31  -9   0    0.75    0.88
 -31  -9  -2   -0.84    1.00
 -31  -9  -4   -0.52    1.05
 -31  -9  -6    0.44    1.95
 -31  -9  -8    0.86    2.08
 -31  -9 -10   -0.05    1.24
 -31 -10  27    0.70    0.88
 -31 -10  25    1.48    1.30
 -31 -10  23   -0.77    1.13
 -31 -10  21    0.33    0.91
 -31 -10  19   -0.77    1.14
 -31 -10  17    3.74    1.71
 -31 -10  15    1.65    1.70
 -31 -10  13   -0.70    1.32
 -31 -10  11   -0.82    1.19
 -31 -10   9    2.00    1.72
 -31 -10   7   -0.80    0.61
 -31 -10   5    0.16    0.61
 -31 -10   3   -0.77    1.05
 -31 -10   1   -0.80    0.72
 -31 -10  -1   -1.68    2.02
 -31 -10  -3    0.22    0.93
 -31 -10  -5   -0.46    0.62
 -31 -11  24   -0.11    0.75
 -31 -11  22   -2.05    1.52
 -31 -11  20    5.06    2.39
 -31 -11  18   -0.73    1.13
 -31 -11  16    1.53    0.98
 -31 -11  14   -0.96    1.54
 -31 -11  12   -0.21    1.12
 -31 -11  10   -1.06    1.20
 -31 -11   8    6.64    2.73
 -31 -11   6    3.72    2.33
 -31 -11   4    1.45    1.23
 -31 -11   2    0.96    1.26
 -31 -12  23    0.33    1.26
 -31 -12  21   -0.54    1.02
 -31 -12  19    1.09    1.15
 -31 -12  17   -2.82    1.69
 -31 -12  15    2.05    1.27
 -31 -12  13   -0.22    0.81
 -31 -12  11    2.57    2.14
  32   0 -34   39.66    4.72
  32   0 -32    0.91    0.81
  32   0 -30   -0.41    1.05
  32   0 -28   57.97    5.90
 -32   0   6   -0.09    0.44
 -32   0   4  127.97    9.84
 -32   0   2   -1.17    1.33
 -32   0   0    0.84    0.68
 -32   0  -2  203.97   12.85
 -32   0  -4   -1.58    1.73
 -32   0  -6   -1.31    1.85
 -32   0  -8  143.79   11.17
 -32   0 -10   -1.68    1.25
 -32   0 -12   -0.15    0.54
 -32   0 -14  219.24   14.25
 -32   0 -16   -1.64    1.52
 -32   0 -18   -0.45    1.27
 -32   0 -20   75.08    8.59
 -32   0 -22   -0.24    1.50
 -32   0 -24   -0.33    1.38
 -32   0 -26   79.36    9.10
  32   1 -33   -0.91    0.46
  32  -1 -33    0.79    0.76
  32   1 -31   42.45    4.86
  32   1 -29    0.12    0.61
  32   1 -27   -1.16    1.00
  32   1 -25   66.85    6.33
 -32  -1  15    0.61    0.94
 -32  -1  13   77.69    7.38
 -32  -1  11   -1.25    1.00
 -32  -1   9   -0.61    1.23
 -32  -1   7   52.89    6.29
 -32  -1   5   -1.40    1.21
 -32  -1   3    0.09    0.59
 -32  -1   1  317.70   15.85
 -32  -1  -1   -1.06    1.21
 -32  -1  -3   -1.74    1.40
 -32  -1  -5   95.26    8.99
 -32  -1  -7   -1.07    1.47
 -32  -1  -9   -0.56    1.07
 -32  -1 -11  170.52   12.48
 -32  -1 -13   -2.47    2.07
 -32  -1 -15   -0.28    0.59
 -32  -1 -17  169.34   12.83
 -32  -1 -19   -1.81    1.81
 -32  -1 -21   -0.56    0.98
 -32  -1 -23   84.92    9.39
 -32  -1 -25   -0.56    1.52
 -32  -1 -27   -0.57    1.16
 -32  -1 -29   80.30    9.44
 -32  -1 -31   -2.23    2.18
  32   2 -32   -0.58    0.75
  32   2 -30   -1.10    0.70
  32   2 -28   61.47    5.86
  32   2 -26    0.99    0.92
 -32  -2  20   -2.62    1.62
 -32  -2  18    1.09    1.35
 -32  -2  16  173.06   10.84
 -32  -2  14   -0.91    0.93
 -32  -2  12   -0.01    0.41
 -32  -2  10   90.89    8.13
 -32  -2   8   -0.84    1.43
 -32  -2   6    0.08    0.90
 -32  -2   4  107.19    9.14
 -32  -2   2   -0.56    0.50
 -32  -2   0   -2.00    1.72
 -32  -2  -2  131.10   10.34
 -32  -2  -4    1.26    0.53
 -32  -2  -6    0.94    1.00
 -32  -2  -8  152.09   11.66
 -32  -2 -10   -0.95    1.05
 -32  -2 -12   -2.32    1.99
 -32  -2 -14  139.24   11.62
 -32  -2 -16   -0.47    0.78
 -32  -2 -18   -0.91    1.83
 -32  -2 -20  119.16   11.08
 -32  -2 -22    2.39    1.67
 -32  -2 -24   -0.32    0.64
 -32  -2 -26   82.13    9.57
 -32  -2 -28    1.60    1.56
 -32  -2 -30   -2.27    2.10
  32   3 -31   33.71    4.24
  32   3 -29   -0.38    0.54
  32   3 -27    2.20    1.26
 -32  -3  25   49.41    5.49
  32   3 -25   37.85    4.71
 -32  -3  23   -0.23    0.41
 -32  -3  21    0.66    1.29
 -32  -3  19  100.80    8.24
 -32  -3  17    0.46    0.77
 -32  -3  15   -0.87    0.70
 -32  -3  13  243.86   13.38
 -32  -3  11   -0.30    0.49
 -32  -3   9   -1.21    1.37
 -32  -3   7  182.44   11.93
 -32  -3   5   -2.57    1.87
 -32  -3   3   -0.19    1.17
 -32  -3   1   22.51    4.25
 -32  -3  -1   -0.29    0.93
 -32  -3  -3   -1.03    1.15
 -32  -3  -5  116.07   10.06
 -32  -3  -7   -0.55    1.50
 -32  -3  -9    1.19    0.82
 -32  -3 -11  164.32   12.46
 -32  -3 -13   -1.54    1.27
 -32  -3 -15   -0.36    0.95
 -32  -3 -17   68.58    8.33
 -32  -3 -19    0.82    0.87
 -32  -3 -21   -1.02    1.42
 -32  -3 -23   95.98   10.24
 -32  -3 -25   -1.31    1.74
 -32  -3 -27   -1.40    1.57
  32   4 -30   -1.51    0.68
 -32  -4  28   18.87    3.39
  32   4 -28   16.18    3.14
 -32  -4  26   -0.50    1.15
 -32  -4  24    0.38    0.51
 -32  -4  22   53.77    5.84
 -32  -4  20   -0.66    1.24
 -32  -4  18   -0.80    1.26
 -32  -4  16  110.74    8.82
 -32  -4  14   -0.41    0.86
 -32  -4  12   -0.75    0.64
 -32  -4  10  338.24   15.97
 -32  -4   8    0.02    0.80
 -32  -4   6   -0.37    0.89
 -32  -4   4   31.31    5.01
 -32  -4   2   -1.11    1.63
 -32  -4   0   -1.44    1.50
 -32  -4  -2   60.48    7.25
 -32  -4  -4   -1.33    1.27
 -32  -4  -6   -0.35    1.23
 -32  -4  -8   51.26    7.00
 -32  -4 -10   -1.74    1.72
 -32  -4 -12   -2.61    2.19
 -32  -4 -14   90.71    9.58
 -32  -4 -16    2.09    1.79
 -32  -4 -18   -1.77    1.98
 -32  -4 -20   59.17    7.97
 -32  -4 -22   -0.54    1.49
 -32  -4 -24   -0.63    1.13
 -32  -4 -26   87.70   10.14
 -32  -5  31    4.29    1.19
 -32  -5  29   -0.09    0.76
 -32  -5  27   -2.12    1.34
 -32  -5  25   29.95    4.45
 -32  -5  23   -0.45    1.08
 -32  -5  21   -0.90    1.76
 -32  -5  19   30.73    4.56
 -32  -5  17    0.18    0.67
 -32  -5  15   -1.09    1.64
 -32  -5  13  122.48    9.63
 -32  -5  11    0.59    0.46
 -32  -5   9    1.75    1.09
 -32  -5   7   81.01    8.09
 -32  -5   5    0.30    0.65
 -32  -5   3   -0.79    1.11
 -32  -5   1   97.35    9.27
 -32  -5  -1   -0.49    0.72
 -32  -5  -3   -1.21    1.17
 -32  -5  -5   95.63    9.45
 -32  -5  -7   -1.15    1.61
 -32  -5  -9   -1.20    1.67
 -32  -5 -11   67.22    8.34
 -32  -5 -13   -1.25    1.85
 -32  -5 -15   -0.66    1.16
 -32  -5 -17   80.84    9.35
 -32  -5 -19   -1.34    1.79
 -32  -5 -21   -1.87    2.40
 -32  -5 -23   56.92    8.31
 -32  -6  32   -0.77    0.93
 -32  -6  30    0.04    0.87
 -32  -6  28   11.61    2.66
 -32  -6  26   -0.32    0.40
 -32  -6  24   -0.17    0.78
 -32  -6  22   18.62    3.61
 -32  -6  20   -1.17    1.33
 -32  -6  18   -0.11    1.31
 -32  -6  16   86.74    8.13
 -32  -6  14    0.81    1.40
 -32  -6  12   -0.90    1.42
 -32  -6  10   19.74    3.92
 -32  -6   8   -1.45    1.63
 -32  -6   6   -1.06    1.52
 -32  -6   4  108.92    9.71
 -32  -6   2    0.68    1.29
 -32  -6   0   -0.70    1.15
 -32  -6  -2  106.77   10.04
 -32  -6  -4   -0.33    0.97
 -32  -6  -6    0.55    0.54
 -32  -6  -8   30.21    5.53
 -32  -6 -10    0.98    0.50
 -32  -6 -12    0.53    0.76
 -32  -6 -14   36.38    6.21
 -32  -6 -16   -1.47    1.78
 -32  -6 -18   -1.73    2.13
 -32  -6 -20   56.00    8.12
 -32  -7  31   26.46    4.15
 -32  -7  29    0.34    0.72
 -32  -7  27    0.68    0.85
 -32  -7  25    6.56    2.27
 -32  -7  23   -0.34    0.79
 -32  -7  21   -0.62    0.84
 -32  -7  19   59.11    6.80
 -32  -7  17   -2.23    1.71
 -32  -7  15   -2.60    1.87
 -32  -7  13    8.93    2.37
 -32  -7  11   -2.52    2.18
 -32  -7   9   -1.98    1.60
 -32  -7   7   36.24    5.56
 -32  -7   5   -1.08    1.99
 -32  -7   3   -1.09    1.87
 -32  -7   1   65.81    7.94
 -32  -7  -1   -0.32    1.02
 -32  -7  -3   -0.53    0.83
 -32  -7  -5   61.00    8.00
 -32  -7  -7   -1.03    1.56
 -32  -7  -9   -0.99    1.06
 -32  -7 -11   39.74    6.77
 -32  -7 -13   -2.80    2.24
 -32  -7 -15   -2.20    1.80
 -32  -7 -17   30.04    5.87
 -32  -8  30   -1.79    0.78
 -32  -8  28   13.07    3.02
 -32  -8  26    2.53    1.50
 -32  -8  24    0.36    0.85
 -32  -8  22   35.35    5.20
 -32  -8  20   -2.08    1.67
 -32  -8  18   -1.93    1.53
 -32  -8  16   15.75    3.39
 -32  -8  14   -1.13    1.10
 -32  -8  12   -0.69    1.29
 -32  -8  10   25.74    4.84
 -32  -8   8    0.17    0.53
 -32  -8   6   -3.48    2.30
 -32  -8   4    7.62    2.51
 -32  -8   2   -0.68    1.72
 -32  -8   0    1.05    1.17
 -32  -8  -2   33.47    5.84
 -32  -8  -4    0.15    1.30
 -32  -8  -6   -1.00    1.40
 -32  -8  -8  114.87   11.24
 -32  -8 -10    0.54    1.57
 -32  -8 -12   -1.42    1.37
 -32  -9  27    2.63    1.59
 -32  -9  25   10.96    2.99
 -32  -9  23   -1.85    1.74
 -32  -9  21   -0.05    1.07
 -32  -9  19    6.53    2.48
 -32  -9  17   -1.67    1.35
 -32  -9  15    0.37    0.87
 -32  -9  13   37.87    5.91
 -32  -9  11    0.55    0.66
 -32  -9   9   -0.34    0.90
 -32  -9   7   17.17    4.10
 -32  -9   5    0.29    0.96
 -32  -9   3    0.17    1.10
 -32  -9   1   12.81    3.84
 -32  -9  -1   -1.42    1.04
 -32  -9  -3   -2.03    1.46
 -32  -9  -5   51.65    7.65
 -32  -9  -7   -0.36    0.87
 -32  -9  -9    0.02    1.05
 -32 -10  26   -1.09    1.47
 -32 -10  24   -0.11    0.49
 -32 -10  22    9.06    2.76
 -32 -10  20   -1.71    1.47
 -32 -10  18    2.26    2.23
 -32 -10  16   28.78    5.29
 -32 -10  14    1.84    1.80
 -32 -10  12    1.10    0.88
 -32 -10  10    9.79    3.25
 -32 -10   8    0.64    1.27
 -32 -10   6    0.65    1.14
 -32 -10   4   21.94    4.97
 -32 -10   2   -0.60    0.83
 -32 -10   0    0.59    1.07
 -32 -10  -2   12.79    3.91
 -32 -11  25    3.77    1.41
 -32 -11  23    1.87    1.47
 -32 -11  21    0.56    1.42
 -32 -11  19   17.46    4.13
 -32 -11  17   -2.30    1.79
 -32 -11  15   -1.75    1.03
 -32 -11  13   12.13    3.71
 -32 -11  11    0.75    1.21
 -32 -11   9    0.56    0.93
 -32 -11   7   26.16    5.59
 -32 -11   5   -1.08    0.66
 -32 -12  22    5.16    2.74
 -32 -12  20   -1.76    1.11
 -32 -12  18   -0.16    1.44
 -32 -12  16    9.29    3.02
 -32 -12  14   -1.94    1.96
 -33   0   5    0.72    1.26
 -33   0   3   -0.29    0.68
 -33   0   1    2.49    2.17
 -33   0  -1    0.25    0.73
 -33   0  -3   -0.29    1.17
 -33   0  -5   -1.19    1.26
 -33   0  -7   -0.34    1.21
 -33   0  -9   -1.23    1.26
 -33   0 -11    0.14    0.54
 -33   0 -13    1.73    2.20
 -33   0 -15    0.37    1.33
 -33   0 -17    1.89    2.34
 -33   0 -19   -0.21    1.12
 -33   0 -21   -2.25    1.76
 -33   0 -23    0.95    1.10
  33   1 -32   -0.33    0.88
  33   1 -30    1.69    1.33
 -33  -1  14   -2.14    1.71
 -33  -1  12   51.76    6.15
 -33  -1  10   -0.46    0.44
 -33  -1   8   -0.28    1.10
 -33  -1   6  155.83   11.01
 -33  -1   4    0.27    1.36
 -33  -1   2    1.43    1.40
 -33  -1   0   -2.41    1.82
 -33  -1  -2   -0.22    1.00
 -33  -1  -4   -2.45    1.90
 -33  -1  -6    3.30    1.51
 -33  -1  -8   -1.35    1.48
 -33  -1 -10   -0.22    1.08
 -33  -1 -12    3.39    1.75
 -33  -1 -14    0.54    1.29
 -33  -1 -16    0.99    0.95
 -33  -1 -18    3.70    2.07
 -33  -1 -20   -0.12    1.15
 -33  -1 -22    1.38    1.72
 -33  -1 -24    0.25    1.06
 -33  -1 -26   -0.92    0.99
 -33  -1 -28   -1.73    2.10
  33   2 -31    1.58    1.16
  33   2 -29    1.06    0.97
 -33  -2  19    1.70    1.59
 -33  -2  17   -0.70    0.51
 -33  -2  15    1.32    0.76
 -33  -2  13   -1.17    1.30
 -33  -2  11   -1.55    1.70
 -33  -2   9   26.86    4.48
 -33  -2   7   -1.78    1.84
 -33  -2   5    0.28    0.67
 -33  -2   3   89.77    8.60
 -33  -2   1    0.76    1.38
 -33  -2  -1   -0.59    0.83
 -33  -2  -3   -1.03    1.77
 -33  -2  -5    1.09    1.19
 -33  -2  -7    1.75    1.46
 -33  -2  -9    0.68    0.88
 -33  -2 -11   -1.36    0.76
 -33  -2 -13   -0.36    0.90
 -33  -2 -15    0.30    1.06
 -33  -2 -17    0.31    1.01
 -33  -2 -19   -0.14    1.05
 -33  -2 -21    2.66    1.78
 -33  -2 -23   -0.08    1.06
 -33  -2 -25   -0.90    1.08
 -33  -2 -27    0.04    0.63
 -33  -3  24    2.53    1.65
 -33  -3  22    1.12    1.35
 -33  -3  20    2.97    1.60
 -33  -3  18   18.38    3.62
 -33  -3  16   -0.07    0.99
 -33  -3  14    1.26    1.16
 -33  -3  12   70.19    7.39
 -33  -3  10   -6.73    2.28
 -33  -3   8   -1.05    1.73
 -33  -3   6   -0.43    0.79
 -33  -3   4   -1.80    1.75
 -33  -3   2   -1.39    1.61
 -33  -3   0   22.28    4.26
 -33  -3  -2   -0.53    0.90
 -33  -3  -4    3.21    1.94
 -33  -3  -6    8.02    2.72
 -33  -3  -8    1.20    1.20
 -33  -3 -10    0.80    1.57
 -33  -3 -12    0.13    0.46
 -33  -3 -14    0.09    1.56
 -33  -3 -16    0.74    1.09
 -33  -3 -18    5.67    2.24
 -33  -3 -20   -0.64    1.13
 -33  -3 -22    2.21    2.07
 -33  -3 -24    1.01    1.32
 -33  -3 -26    0.10    1.16
 -33  -4  27    1.29    0.52
 -33  -4  25    0.92    1.14
 -33  -4  23   -0.11    0.69
 -33  -4  21    3.40    1.26
 -33  -4  19   -0.20    0.59
 -33  -4  17    0.23    0.72
 -33  -4  15   52.06    6.19
 -33  -4  13   -0.70    1.32
 -33  -4  11    2.09    1.99
 -33  -4   9    5.53    2.10
 -33  -4   7   -0.97    1.56
 -33  -4   5    0.01    1.02
 -33  -4   3   -0.64    1.47
 -33  -4   1   -1.53    1.40
 -33  -4  -1   -2.86    2.24
 -33  -4  -3    2.21    1.35
 -33  -4  -5    1.21    1.29
 -33  -4  -7    0.42    1.02
 -33  -4  -9    3.33    1.86
 -33  -4 -11   -0.16    1.05
 -33  -4 -13    0.28    1.05
 -33  -4 -15    5.57    2.25
 -33  -4 -17   -0.86    1.26
 -33  -4 -19   -0.14    0.78
 -33  -4 -21    4.98    2.65
 -33  -4 -23    1.66    1.41
 -33  -5  30    0.43    0.56
 -33  -5  28   -0.39    0.55
 -33  -5  26   -2.04    1.28
 -33  -5  24    9.56    2.52
 -33  -5  22   -1.11    1.42
 -33  -5  20   -0.60    1.48
 -33  -5  18   21.98    4.05
 -33  -5  16    0.47    0.70
 -33  -5  14   -1.11    0.89
 -33  -5  12    2.85    1.41
 -33  -5  10    1.32    1.79
 -33  -5   8   -0.96    1.18
 -33  -5   6    0.32    0.42
 -33  -5   4    0.04    0.82
 -33  -5   2   -0.36    0.65
 -33  -5   0    1.18    0.49
 -33  -5  -2   -0.11    0.50
 -33  -5  -4    1.75    1.44
 -33  -5  -6    0.69    1.20
 -33  -5  -8    1.54    1.13
 -33  -5 -10   -0.51    0.60
 -33  -5 -12    0.51    1.58
 -33  -5 -14   -0.49    1.18
 -33  -5 -16    1.22    1.50
 -33  -5 -18   -1.65    1.62
 -33  -5 -20   -0.62    0.89
 -33  -5 -22    0.09    1.09
 -33  -6  31   -1.14    1.24
 -33  -6  29   -1.75    0.99
 -33  -6  27   -0.99    1.19
 -33  -6  25   -0.66    0.76
 -33  -6  23   -0.31    0.58
 -33  -6  21    2.39    1.42
 -33  -6  19   -1.07    1.64
 -33  -6  17    0.01    0.76
 -33  -6  15   -1.65    1.43
 -33  -6  13    0.21    0.57
 -33  -6  11    0.37    0.91
 -33  -6   9   -2.65    1.98
 -33  -6   7    1.92    0.89
 -33  -6   5   -1.36    1.62
 -33  -6   3    5.69    2.61
 -33  -6   1    2.68    1.90
 -33  -6  -1   -0.29    0.87
 -33  -6  -3   -1.00    0.76
 -33  -6  -5   -1.79    2.02
 -33  -6  -7    0.02    1.14
 -33  -6  -9    0.80    1.29
 -33  -6 -11    1.05    1.07
 -33  -6 -13   -0.68    1.09
 -33  -6 -15   -3.07    2.10
 -33  -6 -17    0.32    1.10
 -33  -6 -19    2.60    1.78
 -33  -7  30    0.89    0.86
 -33  -7  28   -0.16    0.43
 -33  -7  26   -0.36    0.74
 -33  -7  24    0.99    0.39
 -33  -7  22   -0.55    1.38
 -33  -7  20    0.80    1.00
 -33  -7  18    0.85    0.69
 -33  -7  16   -2.71    1.91
 -33  -7  14   -1.50    1.58
 -33  -7  12    0.30    1.16
 -33  -7  10   -0.45    1.34
 -33  -7   8   -1.76    1.85
 -33  -7   6    3.71    1.54
 -33  -7   4    0.78    1.99
 -33  -7   2   -0.09    0.85
 -33  -7   0   -1.24    1.49
 -33  -7  -2    2.78    1.89
 -33  -7  -4    2.48    1.79
 -33  -7  -6    2.33    1.82
 -33  -7  -8   -0.92    1.12
 -33  -7 -10    0.00    0.76
 -33  -7 -12   -1.27    1.59
 -33  -7 -14   -0.66    1.43
 -33  -8  29   -0.94    1.17
 -33  -8  27    2.45    1.16
 -33  -8  25    0.00    0.72
 -33  -8  23    1.51    1.29
 -33  -8  21   -0.84    1.24
 -33  -8  19   -0.99    1.43
 -33  -8  17   -2.71    1.96
 -33  -8  15   -1.97    2.00
 -33  -8  13   -1.33    0.94
 -33  -8  11   -0.27    0.84
 -33  -8   9    5.07    2.15
 -33  -8   7   -0.98    1.67
 -33  -8   5   -0.69    1.52
 -33  -8   3   -1.95    1.63
 -33  -8   1    1.56    1.78
 -33  -8  -1   -0.27    0.73
 -33  -8  -3   -2.94    2.49
 -33  -8  -5    0.64    1.97
 -33  -8  -7    1.27    1.65
 -33  -8  -9    0.93    0.97
 -33  -8 -11   -0.83    1.27
 -33  -9  28    0.35    0.49
 -33  -9  26    0.96    1.00
 -33  -9  24   -1.17    1.66
 -33  -9  22    0.32    1.03
 -33  -9  20   -1.95    1.35
 -33  -9  18   -1.69    1.65
 -33  -9  16   -0.19    1.24
 -33  -9  14    1.58    1.26
 -33  -9  12    1.33    0.59
 -33  -9  10   -0.47    1.15
 -33  -9   8    2.09    1.47
 -33  -9   6    3.60    2.42
 -33  -9   4    0.43    0.85
 -33  -9   2   -0.85    1.45
 -33  -9   0   -1.07    2.18
 -33  -9  -2    3.71    2.48
 -33  -9  -4    3.00    2.72
 -33  -9  -6   -0.02    1.23
 -33 -10  25   -0.44    1.04
 -33 -10  23   -0.49    0.85
 -33 -10  21    0.24    1.13
 -33 -10  19    0.62    0.74
 -33 -10  17   -1.51    1.93
 -33 -10  15    2.36    1.71
 -33 -10  13    1.30    1.36
 -33 -10  11    0.44    0.50
 -33 -10   9    1.38    1.53
 -33 -10   7   -1.37    1.30
 -33 -10   5   -0.67    1.77
 -33 -10   3    1.12    1.14
 -33 -10   1   -0.62    0.91
 -33 -11  24    0.41    1.20
 -33 -11  22    2.29    1.87
 -33 -11  20    2.38    1.46
 -33 -11  18    4.55    2.12
 -33 -11  16   -1.34    1.13
 -33 -11  14    2.07    1.52
 -33 -11  12    2.69    2.20
 -33 -11  10    1.49    0.93
 -33 -11   8    1.56    1.60
 -33 -12  21    1.31    1.48
 -33 -12  19   -0.46    1.32
 -33 -12  17   -2.74    1.81
 -34   0   4   -1.96    1.22
 -34   0   2  246.65   14.34
 -34   0   0   -1.50    1.58
 -34   0  -2    0.85    0.67
 -34   0  -4   91.35    8.97
 -34   0  -6   -1.66    1.66
 -34   0  -8    1.19    1.66
 -34   0 -10  194.03   13.52
 -34   0 -12   -1.25    1.61
 -34   0 -14   -1.84    1.91
 -34   0 -16  152.27   12.43
 -34   0 -18   -0.37    1.20
 -34   0 -20    0.31    0.91
 -34   0 -22   77.72    9.18
 -34  -1  13   -1.09    1.60
 -34  -1  11  221.68   13.08
 -34  -1   9    0.51    1.37
 -34  -1   7    0.80    1.67
 -34  -1   5  261.06   14.69
 -34  -1   3    1.04    1.22
 -34  -1   1   -0.32    0.74
 -34  -1  -1  152.02   11.51
 -34  -1  -3   -1.65    1.49
 -34  -1  -5   -0.94    1.34
 -34  -1  -7  134.47   11.24
 -34  -1  -9   -1.96    1.50
 -34  -1 -11    1.43    1.92
 -34  -1 -13  121.87   10.99
 -34  -1 -15   -0.66    0.91
 -34  -1 -17   -0.89    1.39
 -34  -1 -19  113.91   11.02
 -34  -1 -21   -0.49    1.36
 -34  -1 -23   -1.18    0.84
 -34  -1 -25   66.44    8.70
 -34  -1 -27   -1.92    2.16
 -34  -2  18   -1.83    1.60
 -34  -2  16   -2.48    2.21
 -34  -2  14   85.53    8.06
 -34  -2  12   -1.98    1.86
 -34  -2  10   -1.37    1.14
 -34  -2   8   98.28    8.84
 -34  -2   6   -0.84    0.64
 -34  -2   4   -0.68    1.39
 -34  -2   2  184.73   12.47
 -34  -2   0   -0.66    1.49
 -34  -2  -2   -0.66    0.93
 -34  -2  -4  126.15   10.75
 -34  -2  -6   -0.08    0.66
 -34  -2  -8   -0.56    0.85
 -34  -2 -10   66.93    8.14
 -34  -2 -12   -0.21    0.51
 -34  -2 -14   -0.75    1.29
 -34  -2 -16  130.71   11.70
 -34  -2 -18   -0.81    1.33
 -34  -2 -20   -2.12    1.40
 -34  -2 -22   91.43   10.12
 -34  -2 -24    0.21    0.50
 -34  -2 -26   -0.27    1.05
 -34  -3  23  121.59    9.18
 -34  -3  21    1.71    1.20
 -34  -3  19   -0.24    0.73
 -34  -3  17  137.26   10.09
 -34  -3  15    0.12    0.70
 -34  -3  13   -0.60    0.75
 -34  -3  11   60.14    6.93
 -34  -3   9   -1.51    1.36
 -34  -3   7   -0.73    1.04
 -34  -3   5   52.88    6.64
 -34  -3   3   -0.50    1.43
 -34  -3   1    0.37    0.90
 -34  -3  -1  115.84   10.30
 -34  -3  -3    0.43    1.04
 -34  -3  -5   -0.29    0.61
 -34  -3  -7   56.10    7.36
 -34  -3  -9   -0.56    0.98
 -34  -3 -11   -0.05    0.61
 -34  -3 -13  146.84   12.46
 -34  -3 -15   -0.98    1.25
 -34  -3 -17    0.60    1.23
 -34  -3 -19   67.38    8.79
 -34  -3 -21   -1.76    2.03
 -34  -3 -23   -0.97    1.43
 -34  -4  28   -0.06    0.68
 -34  -4  26   57.43    6.25
 -34  -4  24   -0.65    0.70
 -34  -4  22   -0.39    0.44
 -34  -4  20   68.84    7.08
 -34  -4  18   -0.49    1.39
 -34  -4  16   -0.90    0.95
 -34  -4  14  113.01    9.49
 -34  -4  12    0.33    1.35
 -34  -4  10   -0.23    0.76
 -34  -4   8   21.11    4.19
 -34  -4   6   -0.06    1.00
 -34  -4   4   -2.12    1.88
 -34  -4   2   49.08    6.63
 -34  -4   0   -0.93    1.44
 -34  -4  -2   -0.96    1.60
 -34  -4  -4   71.18    8.28
 -34  -4  -6    0.58    0.53
 -34  -4  -8   -0.98    1.17
 -34  -4 -10  131.89   11.70
 -34  -4 -12    0.33    1.02
 -34  -4 -14   -0.99    1.86
 -34  -4 -16   68.74    8.66
 -34  -4 -18   -0.91    1.47
 -34  -4 -20   -0.79    1.42
 -34  -4 -22   66.56    8.91
 -34  -5  31   -0.39    0.46
 -34  -5  29   42.20    5.36
 -34  -5  27   -1.57    1.22
 -34  -5  25   -1.05    0.90
 -34  -5  23    9.49    2.66
 -34  -5  21   -0.42    0.70
 -34  -5  19    0.84    1.01
 -34  -5  17   77.96    7.81
 -34  -5  15   -0.71    1.50
 -34  -5  13   -1.00    1.26
 -34  -5  11   62.37    7.31
 -34  -5   9    1.49    1.27
 -34  -5   7    1.16    0.58
 -34  -5   5   51.82    6.88
 -34  -5   3   -1.20    1.76
 -34  -5   1   -0.87    1.42
 -34  -5  -1   36.83    5.98
 -34  -5  -3   -0.10    0.50
 -34  -5  -5   -0.83    1.61
 -34  -5  -7   36.22    6.22
 -34  -5  -9   -0.31    1.01
 -34  -5 -11   -1.85    2.35
 -34  -5 -13   43.99    6.93
 -34  -5 -15   -1.31    1.42
 -34  -5 -17   -2.56    2.09
 -34  -5 -19   55.78    8.13
 -34  -6  32   24.77    3.96
 -34  -6  30   -0.35    0.63
 -34  -6  28    0.78    1.02
 -34  -6  26   20.58    3.87
 -34  -6  24   -0.80    0.54
 -34  -6  22   -2.08    1.59
 -34  -6  20    4.12    1.39
 -34  -6  18    0.30    1.18
 -34  -6  16   -0.50    1.30
 -34  -6  14   21.04    4.25
 -34  -6  12    0.22    0.67
 -34  -6  10    0.87    1.15
 -34  -6   8   74.45    8.23
 -34  -6   6   -0.09    0.73
 -34  -6   4    0.20    0.92
 -34  -6   2   60.39    7.57
 -34  -6   0   -0.53    0.60
 -34  -6  -2    4.80    2.52
 -34  -6  -4   49.39    7.12
 -34  -6  -6    0.08    1.32
 -34  -6  -8   -0.76    1.49
 -34  -6 -10   22.47    4.96
 -34  -6 -12    0.36    1.34
 -34  -6 -14   -2.04    2.57
 -34  -6 -16   25.27    5.55
 -34  -7  31   -0.38    0.78
 -34  -7  29    9.72    2.68
 -34  -7  27    0.49    0.58
 -34  -7  25   -0.75    0.66
 -34  -7  23   11.44    2.96
 -34  -7  21    1.42    1.41
 -34  -7  19   -0.54    0.45
 -34  -7  17   -1.33    1.65
 -34  -7  15    0.03    0.46
 -34  -7  13    0.37    0.47
 -34  -7  11   49.43    6.76
 -34  -7   9   -0.30    1.38
 -34  -7   7   -1.98    2.16
 -34  -7   5   59.16    7.48
 -34  -7   3   -0.07    0.57
 -34  -7   1   -0.68    1.10
 -34  -7  -1   52.89    7.46
 -34  -7  -3   -0.11    1.04
 -34  -7  -5   -0.25    0.95
 -34  -7  -7   51.85    7.51
 -34  -7  -9   -1.63    2.12
 -34  -7 -11   -0.70    0.91
 -34  -7 -13   21.31    4.97
 -34  -8  28   -0.93    1.65
 -34  -8  26    5.36    2.06
 -34  -8  24   -0.81    1.03
 -34  -8  22   -0.51    0.71
 -34  -8  20    2.89    1.39
 -34  -8  18   -1.43    1.61
 -34  -8  16   -1.84    1.43
 -34  -8  14   27.11    4.89
 -34  -8  12   -1.37    1.90
 -34  -8  10   -1.85    1.93
 -34  -8   8   36.43    6.09
 -34  -8   6   -2.14    1.11
 -34  -8   4   -1.70    1.66
 -34  -8   2   37.93    6.41
 -34  -8   0   -1.01    1.55
 -34  -8  -2   -0.85    1.62
 -34  -8  -4   42.58    6.91
 -34  -8  -6   -1.23    1.19
 -34  -8  -8    0.78    1.67
 -34  -9  27    1.42    1.09
 -34  -9  25    1.06    1.16
 -34  -9  23    9.24    3.00
 -34  -9  21   -2.26    1.97
 -34  -9  19   -0.99    1.14
 -34  -9  17   20.32    4.38
 -34  -9  15   -1.57    1.65
 -34  -9  13   -0.61    0.93
 -34  -9  11   12.67    3.56
 -34  -9   9   -2.14    1.98
 -34  -9   7    0.26    0.69
 -34  -9   5   18.65    4.42
 -34  -9   3    3.46    2.06
 -34  -9   1    0.69    1.68
 -34  -9  -1   33.57    6.21
 -34  -9  -3    2.28    2.43
 -34 -10  26    3.60    1.66
 -34 -10  24    0.16    0.62
 -34 -10  22   -0.03    1.26
 -34 -10  20   21.01    4.62
 -34 -10  18   -1.43    1.33
 -34 -10  16   -0.29    0.57
 -34 -10  14    9.49    2.87
 -34 -10  12    4.02    2.36
 -34 -10  10   -0.42    1.55
 -34 -10   8   17.05    4.27
 -34 -10   6   -1.29    1.48
 -34 -10   4   -1.70    1.35
 -34 -10   2   23.76    5.33
 -34 -11  23   13.37    3.66
 -34 -11  21    0.34    0.81
 -34 -11  19   -0.71    0.86
 -34 -11  17   11.63    3.69
 -34 -11  15    2.82    1.71
 -34 -11  13   -0.76    1.19
 -34 -11  11    8.55    3.01
 -34 -12  20    8.10    3.21
 -35   0   3   -0.49    0.47
 -35   0   1   -0.63    1.26
 -35   0  -1    0.22    0.48
 -35   0  -3    0.21    0.59
 -35   0  -5   -0.69    0.70
 -35   0  -7    1.64    2.38
 -35   0  -9    0.58    1.41
 -35   0 -11    0.59    1.37
 -35   0 -13   -0.30    1.28
 -35   0 -15    4.22    2.88
 -35   0 -17    0.08    1.26
 -35   0 -19   -2.35    1.61
 -35  -1  12    1.23    1.50
 -35  -1  10   24.33    4.65
 -35  -1   8    3.09    2.05
 -35  -1   6    0.32    1.14
 -35  -1   4    0.00    1.19
 -35  -1   2    0.54    0.63
 -35  -1   0   -1.00    1.32
 -35  -1  -2    0.38    0.64
 -35  -1  -4    1.17    1.51
 -35  -1  -6    0.46    1.33
 -35  -1  -8    0.96    0.94
 -35  -1 -10    0.86    0.83
 -35  -1 -12    0.60    1.90
 -35  -1 -14    1.20    1.47
 -35  -1 -16   -0.39    1.10
 -35  -1 -18    0.16    1.11
 -35  -1 -20    4.70    2.08
 -35  -1 -22    1.71    1.62
 -35  -1 -24    1.63    1.26
 -35  -2  19   10.80    2.80
 -35  -2  17   -1.11    1.03
 -35  -2  15   -0.88    0.93
 -35  -2  13    3.85    1.42
 -35  -2  11    0.23    0.64
 -35  -2   9    0.20    0.43
 -35  -2   7   -0.48    1.36
 -35  -2   5    1.49    1.51
 -35  -2   3   -0.07    0.64
 -35  -2   1    6.03    1.72
 -35  -2  -1    1.53    1.41
 -35  -2  -3    1.77    1.48
 -35  -2  -5   10.80    2.98
 -35  -2  -7   -0.08    1.18
 -35  -2  -9    0.08    0.81
 -35  -2 -11    1.18    1.25
 -35  -2 -13    1.53    1.86
 -35  -2 -15    1.30    1.31
 -35  -2 -17    9.42    3.24
 -35  -2 -19   -0.16    0.88
 -35  -2 -21   -1.69    1.37
 -35  -2 -23   -0.88    1.12
 -35  -3  24    2.03    1.50
 -35  -3  22    6.79    2.40
 -35  -3  20    1.08    1.68
 -35  -3  18    1.77    1.35
 -35  -3  16    8.47    2.47
 -35  -3  14   -0.28    1.04
 -35  -3  12   -1.56    1.34
 -35  -3  10    5.67    1.98
 -35  -3   8    2.23    1.70
 -35  -3   6   -0.36    1.59
 -35  -3   4   -0.89    1.64
 -35  -3   2   -0.73    1.58
 -35  -3   0    0.53    0.57
 -35  -3  -2   -0.38    1.03
 -35  -3  -4   -1.26    1.24
 -35  -3  -6    0.43    0.47
 -35  -3  -8    1.04    1.27
 -35  -3 -10   -1.03    1.03
 -35  -3 -12    0.58    1.75
 -35  -3 -14    7.26    2.64
 -35  -3 -16    1.51    0.71
 -35  -3 -18    0.35    1.10
 -35  -3 -20   -0.60    0.88
 -35  -3 -22    0.79    1.37
 -35  -4  27    2.85    1.59
 -35  -4  25    2.84    1.54
 -35  -4  23   -0.34    0.44
 -35  -4  21   -1.22    1.34
 -35  -4  19   -0.44    0.46
 -35  -4  17   -0.64    1.45
 -35  -4  15    0.93    1.13
 -35  -4  13    5.21    2.17
 -35  -4  11   -0.17    1.28
 -35  -4   9   -0.67    1.45
 -35  -4   7   -2.37    2.06
 -35  -4   5   -1.70    1.52
 -35  -4   3   -0.65    1.03
 -35  -4   1    0.18    0.75
 -35  -4  -1    0.38    0.97
 -35  -4  -3    0.91    1.39
 -35  -4  -5    0.61    1.62
 -35  -4  -7    3.51    2.32
 -35  -4  -9    0.73    0.59
 -35  -4 -11    0.00    0.64
 -35  -4 -13   -0.60    1.41
 -35  -4 -15    0.16    0.69
 -35  -4 -17    1.30    1.26
 -35  -4 -19    0.13    1.43
 -35  -5  30    0.59    0.87
 -35  -5  28    0.16    0.62
 -35  -5  26    0.27    0.37
 -35  -5  24    0.49    0.48
 -35  -5  22   -2.23    1.52
 -35  -5  20   -0.78    1.44
 -35  -5  18    0.62    1.06
 -35  -5  16   11.28    3.00
 -35  -5  14    1.45    1.52
 -35  -5  12    0.67    1.52
 -35  -5  10   -0.41    0.84
 -35  -5   8   -0.07    0.56
 -35  -5   6   -0.75    1.06
 -35  -5   4    3.44    1.92
 -35  -5   2    0.03    0.69
 -35  -5   0   -0.33    1.54
 -35  -5  -2    8.62    3.21
 -35  -5  -4    0.68    1.67
 -35  -5  -6   -0.17    1.13
 -35  -5  -8    1.88    1.84
 -35  -5 -10   -1.67    1.43
 -35  -5 -12   -0.89    1.26
 -35  -5 -14   -0.62    1.62
 -35  -5 -16   -0.43    0.93
 -35  -6  31    2.56    1.57
 -35  -6  29    2.23    1.18
 -35  -6  27    0.08    0.80
 -35  -6  25    1.23    1.31
 -35  -6  23   -1.68    1.07
 -35  -6  21   -0.73    1.10
 -35  -6  19    6.72    2.37
 -35  -6  17    1.19    1.35
 -35  -6  15    1.98    1.68
 -35  -6  13    1.08    1.12
 -35  -6  11    1.18    1.06
 -35  -6   9   -0.23    1.00
 -35  -6   7    0.62    1.31
 -35  -6   5    1.52    0.95
 -35  -6   3   -0.59    0.52
 -35  -6   1    1.54    1.73
 -35  -6  -1    1.26    1.42
 -35  -6  -3    0.11    0.57
 -35  -6  -5    9.38    3.09
 -35  -6  -7    1.98    2.12
 -35  -6  -9   -1.80    1.71
 -35  -6 -11    3.81    2.13
 -35  -6 -13   -1.55    2.01
 -35  -7  30   -0.38    0.96
 -35  -7  28    4.76    2.21
 -35  -7  26   -1.80    1.63
 -35  -7  24   -1.58    1.62
 -35  -7  22    6.93    2.32
 -35  -7  20   -0.12    0.50
 -35  -7  18   -0.33    0.70
 -35  -7  16    0.06    1.39
 -35  -7  14    2.36    1.83
 -35  -7  12   -0.19    0.87
 -35  -7  10    2.08    1.23
 -35  -7   8   -0.77    1.18
 -35  -7   6    1.06    1.02
 -35  -7   4   -0.52    1.08
 -35  -7   2    0.81    1.05
 -35  -7   0    1.51    1.75
 -35  -7  -2    1.64    1.50
 -35  -7  -4    1.96    1.75
 -35  -7  -6   -0.75    1.34
 -35  -7  -8   -2.20    2.25
 -35  -7 -10    0.89    1.71
 -35  -8  29    0.16    0.40
 -35  -8  27    1.13    0.60
 -35  -8  25    2.48    1.50
 -35  -8  23    0.46    1.06
 -35  -8  21    0.18    0.48
 -35  -8  19   -0.51    0.69
 -35  -8  17   -1.01    0.92
 -35  -8  15    0.22    0.89
 -35  -8  13    0.54    0.50
 -35  -8  11    0.79    1.32
 -35  -8   9    0.69    1.16
 -35  -8   7    0.22    1.10
 -35  -8   5    0.38    1.09
 -35  -8   3   -0.05    1.28
 -35  -8   1    2.85    1.04
 -35  -8  -1   -0.73    0.51
 -35  -8  -3   -3.18    2.17
 -35  -8  -5    1.62    1.26
 -35  -9  26   -1.74    1.44
 -35  -9  24    2.50    1.63
 -35  -9  22    2.98    2.13
 -35  -9  20    0.03    0.51
 -35  -9  18    0.90    1.20
 -35  -9  16    0.47    0.76
 -35  -9  14   -0.72    1.03
 -35  -9  12   -0.33    0.78
 -35  -9  10   -0.67    1.05
 -35  -9   8   -1.92    2.36
 -35  -9   6    2.38    1.43
 -35  -9   4   -1.67    2.19
 -35  -9   2   -0.95    0.47
 -35  -9   0    2.70    2.10
 -35 -10  25    7.01    2.77
 -35 -10  23    1.46    1.42
 -35 -10  21    1.74    1.61
 -35 -10  19    0.47    0.97
 -35 -10  17    1.73    0.86
 -35 -10  15   -2.41    1.65
 -35 -10  13    0.57    1.11
 -35 -10  11   -2.52    1.99
 -35 -10   9    0.23    0.95
 -35 -10   7   -0.67    0.85
 -35 -10   5    1.75    1.87
 -35 -11  24   -0.54    1.38
 -35 -11  22    2.45    1.81
 -35 -11  20    1.67    1.63
 -35 -11  18    1.19    1.36
 -35 -11  16   -2.04    1.22
 -35 -11  14   -0.74    1.47
 -36   0   0  140.87   11.44
 -36   0  -2   -1.08    1.37
 -36   0  -4   -0.35    1.09
 -36   0  -6  132.05   11.28
 -36   0  -8   -0.21    0.60
 -36   0 -10   -1.03    0.82
 -36   0 -12  109.59   10.69
 -36   0 -14   -0.70    1.35
 -36   0 -16    0.19    0.86
 -36  -1  11    0.61    1.00
 -36  -1   9  131.58   10.57
 -36  -1   7   -0.11    0.44
 -36  -1   5   -0.55    0.83
 -36  -1   3  217.13   13.93
 -36  -1   1    0.56    1.31
 -36  -1  -1   -1.55    1.79
 -36  -1  -3  118.76   10.62
 -36  -1  -5    1.08    1.59
 -36  -1  -7   -2.27    1.66
 -36  -1  -9   80.32    9.13
 -36  -1 -11    0.42    0.93
 -36  -1 -13    0.31    0.56
 -36  -1 -15  108.52   10.84
 -36  -1 -17   -0.38    0.84
 -36  -1 -19   -0.66    0.72
 -36  -1 -21   41.53    6.95
 -36  -2  18   63.53    6.98
 -36  -2  16    1.39    1.73
 -36  -2  14    1.03    1.30
 -36  -2  12   74.64    7.88
 -36  -2  10   -0.43    1.39
 -36  -2   8   -0.87    1.33
 -36  -2   6  105.27    9.70
 -36  -2   4   -1.14    1.00
 -36  -2   2    0.21    1.36
 -36  -2   0  201.14   13.79
 -36  -2  -2   -1.02    1.40
 -36  -2  -4    1.86    1.22
 -36  -2  -6   66.66    8.10
 -36  -2  -8   -1.01    1.04
 -36  -2 -10    2.53    1.80
 -36  -2 -12  112.39   10.98
 -36  -2 -14   -0.49    1.54
 -36  -2 -16   -1.79    1.66
 -36  -2 -18   76.89    9.41
 -36  -2 -20   -2.81    2.32
 -36  -3  23    0.99    1.41
 -36  -3  21   82.01    8.02
 -36  -3  19   -1.67    1.53
 -36  -3  17    0.40    0.75
 -36  -3  15   22.82    4.30
 -36  -3  13   -0.93    0.93
 -36  -3  11   -0.72    1.24
 -36  -3   9   60.70    7.23
 -36  -3   7   -0.96    1.07
 -36  -3   5    1.10    0.52
 -36  -3   3   62.72    7.73
 -36  -3   1    0.35    0.85
 -36  -3  -1   -0.88    1.57
 -36  -3  -3   95.62    9.80
 -36  -3  -5   -0.49    0.84
 -36  -3  -7   -1.12    1.61
 -36  -3  -9  141.24   12.26
 -36  -3 -11   -1.22    1.66
 -36  -3 -13   -0.02    0.64
 -36  -3 -15   49.61    7.51
 -36  -3 -17   -0.50    1.41
 -36  -3 -19   -0.02    0.72
 -36  -4  26   -0.20    1.02
 -36  -4  24   61.07    6.76
 -36  -4  22    1.07    1.11
 -36  -4  20   -3.03    1.86
 -36  -4  18   55.65    6.64
 -36  -4  16    0.56    0.69
 -36  -4  14   -1.44    1.20
 -36  -4  12   28.94    5.06
 -36  -4  10    0.71    0.83
 -36  -4   8   -0.34    0.82
 -36  -4   6   43.97    6.39
 -36  -4   4   -0.81    1.81
 -36  -4   2   -1.26    1.55
 -36  -4   0   20.22    4.46
 -36  -4  -2   -0.43    0.75
 -36  -4  -4    1.06    1.35
 -36  -4  -6   79.04    9.05
 -36  -4  -8   -0.67    1.17
 -36  -4 -10   -0.56    1.25
 -36  -4 -12   66.81    8.66
 -36  -4 -14    1.20    1.22
 -36  -4 -16   -0.65    1.20
 -36  -5  29   -0.07    0.58
 -36  -5  27   16.82    3.51
 -36  -5  25    0.80    0.86
 -36  -5  23    0.74    1.30
 -36  -5  21   27.68    4.67
 -36  -5  19   -0.65    0.97
 -36  -5  17    0.19    0.97
 -36  -5  15   28.51    4.97
 -36  -5  13    2.31    1.60
 -36  -5  11   -2.06    1.74
 -36  -5   9   22.74    4.73
 -36  -5   7    0.21    0.90
 -36  -5   5   -1.67    2.04
 -36  -5   3   35.76    6.00
 -36  -5   1   -0.04    0.53
 -36  -5  -1    0.70    1.18
 -36  -5  -3   93.39    9.97
 -36  -5  -5   -1.06    1.55
 -36  -5  -7   -0.81    0.60
 -36  -5  -9   49.74    7.53
 -36  -5 -11   -1.00    1.89
 -36  -5 -13   -3.26    2.73
 -36  -5 -15   60.72    8.59
 -36  -6  32    0.43    0.68
 -36  -6  30    9.09    2.64
 -36  -6  28    1.01    0.84
 -36  -6  26   -0.05    0.39
 -36  -6  24    2.95    1.72
 -36  -6  22   -1.39    1.35
 -36  -6  20    0.78    0.90
 -36  -6  18   35.07    5.51
 -36  -6  16    0.82    1.01
 -36  -6  14   -2.64    2.01
 -36  -6  12   40.04    6.10
 -36  -6  10    0.77    1.04
 -36  -6   8    2.03    1.68
 -36  -6   6   35.23    5.89
 -36  -6   4   -2.45    2.36
 -36  -6   2    0.48    0.60
 -36  -6   0   47.48    7.17
 -36  -6  -2   -1.03    1.17
 -36  -6  -4   -0.65    1.27
 -36  -6  -6   35.57    6.41
 -36  -6  -8   -1.46    1.57
 -36  -6 -10   -3.47    2.39
 -36  -6 -12   25.66    5.60
 -36  -7  29   -0.75    0.77
 -36  -7  27    0.88    0.67
 -36  -7  25   -0.40    1.09
 -36  -7  23   -0.67    0.64
 -36  -7  21   13.15    3.44
 -36  -7  19   -0.91    1.45
 -36  -7  17    0.90    1.50
 -36  -7  15   52.64    7.05
 -36  -7  13    1.11    1.69
 -36  -7  11    2.50    1.76
 -36  -7   9   25.89    5.09
 -36  -7   7   -0.73    1.21
 -36  -7   5   -0.99    1.15
 -36  -7   3   31.11    5.75
 -36  -7   1    0.48    0.91
 -36  -7  -1   -0.05    0.76
 -36  -7  -3   44.31    7.08
 -36  -7  -5    0.85    1.37
 -36  -7  -7   -0.67    1.34
 -36  -8  28   -0.18    0.80
 -36  -8  26    0.10    0.57
 -36  -8  24    7.95    2.57
 -36  -8  22    0.07    1.12
 -36  -8  20   -1.08    1.56
 -36  -8  18   20.62    4.44
 -36  -8  16   -0.20    0.99
 -36  -8  14   -0.77    1.38
 -36  -8  12   23.25    4.88
 -36  -8  10   -0.74    1.40
 -36  -8   8    0.17    0.91
 -36  -8   6   14.77    3.86
 -36  -8   4   -1.01    1.47
 -36  -8   2    0.11    1.65
 -36  -8   0   33.05    6.07
 -36  -8  -2    0.49    1.26
 -36  -8  -4    1.64    1.24
 -36  -9  27    9.81    3.04
 -36  -9  25    1.71    1.34
 -36  -9  23    2.03    1.62
 -36  -9  21   16.50    4.05
 -36  -9  19    0.17    1.17
 -36  -9  17    2.29    1.29
 -36  -9  15   14.25    3.79
 -36  -9  13    0.02    0.83
 -36  -9  11    1.73    1.56
 -36  -9   9   18.37    4.67
 -36  -9   7    0.05    1.19
 -36  -9   5   -0.72    1.70
 -36  -9   3   23.71    5.26
 -36 -10  24   25.57    5.21
 -36 -10  22    2.20    1.33
 -36 -10  20   -0.40    1.23
 -36 -10  18    8.32    2.90
 -36 -10  16    1.25    1.56
 -36 -10  14   -0.30    0.88
 -36 -10  12    6.74    2.96
 -36 -10  10    0.20    0.66
 -36 -10   8    0.29    1.57
 -36 -11  23   -0.53    1.12
 -36 -11  21    9.69    3.26
 -36 -11  19   -2.37    1.66
 -36 -11  17   -1.38    0.90
 -37   0  -3    1.80    1.84
 -37   0  -5    2.12    1.83
 -37   0  -7   -1.90    2.14
 -37   0  -9   -0.19    0.88
 -37   0 -11    1.73    1.98
 -37   0 -13   -0.82    1.13
 -37  -1  10    0.22    0.49
 -37  -1   8    0.45    0.48
 -37  -1   6    1.35    2.03
 -37  -1   4   -0.71    0.81
 -37  -1   2    0.32    0.86
 -37  -1   0   -1.10    1.07
 -37  -1  -2    0.77    0.65
 -37  -1  -4    2.30    1.30
 -37  -1  -6    0.81    1.60
 -37  -1  -8    0.09    1.39
 -37  -1 -10    4.21    2.03
 -37  -1 -12   -1.38    1.39
 -37  -1 -14    2.46    2.40
 -37  -1 -16    2.35    1.98
 -37  -1 -18   -0.56    1.30
 -37  -1 -20    0.12    0.62
 -37  -2  17    2.86    1.86
 -37  -2  15    1.66    0.75
 -37  -2  13    0.00    0.75
 -37  -2  11   11.67    3.13
 -37  -2   9    0.28    1.04
 -37  -2   7   -0.84    1.26
 -37  -2   5   -0.26    1.01
 -37  -2   3    4.21    2.72
 -37  -2   1   -0.26    0.71
 -37  -2  -1   -1.13    1.33
 -37  -2  -3    0.51    1.10
 -37  -2  -5   -0.50    0.95
 -37  -2  -7   13.00    3.47
 -37  -2  -9    2.44    1.92
 -37  -2 -11   -0.28    0.59
 -37  -2 -13   -1.69    1.57
 -37  -2 -15    0.73    1.45
 -37  -2 -17    2.12    2.26
 -37  -2 -19    1.54    2.00
 -37  -3  22    0.08    0.50
 -37  -3  20    2.79    1.42
 -37  -3  18   -0.43    0.81
 -37  -3  16   -0.80    1.02
 -37  -3  14    1.75    1.31
 -37  -3  12    0.16    0.75
 -37  -3  10   -4.07    1.91
 -37  -3   8    6.12    2.47
 -37  -3   6   -0.73    1.19
 -37  -3   4   -0.55    1.18
 -37  -3   2    0.64    1.49
 -37  -3   0    0.63    1.68
 -37  -3  -2    1.44    1.66
 -37  -3  -4   -0.27    1.65
 -37  -3  -6   -0.20    1.36
 -37  -3  -8    0.59    1.80
 -37  -3 -10    4.27    2.60
 -37  -3 -12    1.71    1.94
 -37  -3 -14   -1.04    1.44
 -37  -3 -16   -0.06    0.96
 -37  -4  27    2.37    1.54
 -37  -4  25   -0.10    0.70
 -37  -4  23    2.55    1.55
 -37  -4  21   -1.61    0.66
 -37  -4  19   -0.64    1.08
 -37  -4  17    1.23    1.04
 -37  -4  15    0.21    0.54
 -37  -4  13   -1.55    1.22
 -37  -4  11   -0.97    1.26
 -37  -4   9   -0.13    1.09
 -37  -4   7    0.36    0.86
 -37  -4   5    6.06    2.39
 -37  -4   3   -0.99    0.72
 -37  -4   1   -3.75    2.25
 -37  -4  -1   16.20    4.30
 -37  -4  -3    2.44    2.13
 -37  -4  -5    0.08    1.03
 -37  -4  -7   -0.41    0.61
 -37  -4  -9    0.55    1.85
 -37  -4 -11    0.89    1.37
 -37  -4 -13   -1.27    1.48
 -37  -4 -15    0.73    1.28
 -37  -5  30   -0.69    1.10
 -37  -5  28   -1.79    1.55
 -37  -5  26   -0.85    0.47
 -37  -5  24    0.21    0.73
 -37  -5  22    0.33    0.82
 -37  -5  20    0.00    1.03
 -37  -5  18   -1.41    1.07
 -37  -5  16    0.31    0.52
 -37  -5  14    2.43    1.62
 -37  -5  12   -0.05    0.82
 -37  -5  10    1.57    1.76
 -37  -5   8   -0.60    1.16
 -37  -5   6    0.89    0.70
 -37  -5   4   -0.36    1.01
 -37  -5   2   16.31    4.01
 -37  -5   0   -0.02    0.69
 -37  -5  -2   -0.01    1.24
 -37  -5  -4    1.91    1.39
 -37  -5  -6   -0.21    1.51
 -37  -5  -8    1.44    1.86
 -37  -5 -10    1.86    1.24
 -37  -5 -12    2.69    2.02
 -37  -6  31    1.25    1.14
 -37  -6  29   -1.93    1.39
 -37  -6  27    0.57    0.67
 -37  -6  25   -0.55    1.15
 -37  -6  23    0.69    0.96
 -37  -6  21   -0.65    1.22
 -37  -6  19    1.30    0.78
 -37  -6  17   -2.80    1.82
 -37  -6  15   -0.08    0.76
 -37  -6  13    0.11    0.85
 -37  -6  11   -1.16    1.62
 -37  -6   9    2.09    1.52
 -37  -6   7    1.35    1.55
 -37  -6   5    0.32    1.26
 -37  -6   3    0.94    1.70
 -37  -6   1    0.16    0.97
 -37  -6  -1   -0.95    1.28
 -37  -6  -3    0.03    1.25
 -37  -6  -5   -1.84    1.70
 -37  -6  -7    6.18    2.95
 -37  -6  -9    2.01    2.02
 -37  -7  30    2.08    1.55
 -37  -7  28    0.49    1.08
 -37  -7  26    0.15    0.92
 -37  -7  24    1.14    1.08
 -37  -7  22   -0.76    1.11
 -37  -7  20    2.03    1.22
 -37  -7  18    1.58    1.75
 -37  -7  16   -1.18    1.25
 -37  -7  14    1.94    1.36
 -37  -7  12   -0.47    0.86
 -37  -7  10   -1.02    1.28
 -37  -7   8    1.53    1.67
 -37  -7   6    1.37    1.81
 -37  -7   4    0.64    1.48
 -37  -7   2    4.63    2.40
 -37  -7   0    0.08    1.25
 -37  -7  -2    1.57    1.61
 -37  -7  -4    0.43    2.01
 -37  -8  27   -0.29    0.62
 -37  -8  25   -0.43    0.93
 -37  -8  23    3.50    1.88
 -37  -8  21    2.00    1.86
 -37  -8  19    0.07    1.00
 -37  -8  17    1.97    1.76
 -37  -8  15   -0.49    0.86
 -37  -8  13    2.74    2.12
 -37  -8  11    4.56    2.48
 -37  -8   9    1.28    1.55
 -37  -8   7   -1.54    1.40
 -37  -8   5    1.98    1.68
 -37  -8   3   -0.45    0.53
 -37  -8   1   -0.13    0.88
 -37  -8  -1    5.02    2.34
 -37  -9  26    0.16    0.66
 -37  -9  24   -0.51    0.64
 -37  -9  22   -0.22    0.89
 -37  -9  20   -0.60    0.66
 -37  -9  18    1.12    1.89
 -37  -9  16    2.01    1.79
 -37  -9  14    0.95    1.54
 -37  -9  12    2.24    1.93
 -37  -9  10   -0.58    1.47
 -37  -9   8    0.67    1.40
 -37  -9   6   -1.25    1.30
 -37 -10  25    0.62    1.13
 -37 -10  23    3.48    2.33
 -37 -10  21    2.70    1.72
 -37 -10  19    2.25    1.46
 -37 -10  17    1.29    0.71
 -37 -10  15    0.29    0.47
 -37 -10  13    0.60    0.91
 -37 -11  20    2.98    1.50
 -38  -1   9    0.90    1.37
 -38  -1   7  115.39   10.36
 -38  -1   5    3.65    2.05
 -38  -1   3   -0.06    0.65
 -38  -1   1   75.02    8.54
 -38  -1  -1    0.68    0.89
 -38  -1  -3    0.05    0.94
 -38  -1  -5   62.26    8.04
 -38  -1  -7   -0.55    1.68
 -38  -1  -9   -0.77    1.91
 -38  -1 -11   74.34    9.12
 -38  -1 -13   -1.20    1.77
 -38  -1 -15   -0.64    1.19
 -38  -1 -17   43.31    7.11
 -38  -2  16   41.58    5.99
 -38  -2  14    0.10    0.60
 -38  -2  12   -0.23    0.81
 -38  -2  10   37.93    5.85
 -38  -2   8   -0.17    0.66
 -38  -2   6    0.20    0.99
 -38  -2   4  126.53   11.15
 -38  -2   2   -1.32    1.42
 -38  -2   0   -1.77    1.54
 -38  -2  -2   63.06    8.04
 -38  -2  -4    0.23    0.69
 -38  -2  -6   -0.74    0.81
 -38  -2  -8   34.02    6.10
 -38  -2 -10    0.14    1.01
 -38  -2 -12    2.32    1.61
 -38  -2 -14  100.34   10.90
 -38  -2 -16   -3.39    2.18
 -38  -3  21    1.86    1.42
 -38  -3  19   22.76    4.43
 -38  -3  17   -1.23    1.59
 -38  -3  15    0.65    1.05
 -38  -3  13   51.83    6.88
 -38  -3  11   -2.01    2.17
 -38  -3   9    1.28    0.99
 -38  -3   7   42.03    6.36
 -38  -3   5   -0.63    1.43
 -38  -3   3    0.44    0.97
 -38  -3   1  116.52   10.91
 -38  -3  -1   -0.99    0.67
 -38  -3  -3   -0.23    1.10
 -38  -3  -5   59.17    7.99
 -38  -3  -7   -2.16    0.76
 -38  -3  -9   -1.99    2.05
 -38  -3 -11   87.68   10.23
 -38  -3 -13    0.79    1.28
 -38  -4  26    0.78    1.21
 -38  -4  24    1.39    1.39
 -38  -4  22   11.16    3.02
 -38  -4  20   -1.04    1.04
 -38  -4  18   -1.80    1.45
 -38  -4  16   39.71    5.92
 -38  -4  14   -1.73    1.69
 -38  -4  12   -1.51    1.27
 -38  -4  10   55.45    7.28
 -38  -4   8   -1.25    1.17
 -38  -4   6   -1.69    2.24
 -38  -4   4   23.80    4.84
 -38  -4   2   -0.24    1.25
 -38  -4   0   -0.22    1.24
 -38  -4  -2  126.05   11.62
 -38  -4  -4    0.98    1.49
 -38  -4  -6    0.47    0.50
 -38  -4  -8   82.97    9.80
 -38  -4 -10   -0.56    1.20
 -38  -4 -12   -1.27    1.02
 -38  -5  29   -0.38    1.09
 -38  -5  27    1.14    1.00
 -38  -5  25   13.57    3.29
 -38  -5  23    0.43    0.50
 -38  -5  21    0.76    1.21
 -38  -5  19   32.76    5.49
 -38  -5  17   -0.19    0.89
 -38  -5  15   -0.35    0.51
 -38  -5  13   65.12    7.96
 -38  -5  11    0.83    0.47
 -38  -5   9    0.22    0.89
 -38  -5   7   41.93    6.53
 -38  -5   5   -1.21    1.22
 -38  -5   3   -0.73    1.19
 -38  -5   1   30.38    5.54
 -38  -5  -1    1.66    1.24
 -38  -5  -3    0.21    1.42
 -38  -5  -5   42.10    6.96
 -38  -5  -7    1.85    2.52
 -38  -5  -9    0.21    0.86
 -38  -6  30    0.35    0.70
 -38  -6  28   12.61    3.18
 -38  -6  26   -1.69    1.33
 -38  -6  24   -2.03    1.65
 -38  -6  22   26.08    4.83
 -38  -6  20   -1.95    1.43
 -38  -6  18   -1.30    1.47
 -38  -6  16   34.55    5.70
 -38  -6  14    0.10    0.83
 -38  -6  12    0.17    0.97
 -38  -6  10   60.15    7.86
 -38  -6   8   -2.10    1.31
 -38  -6   6    0.24    1.04
 -38  -6   4   34.88    6.26
 -38  -6   2    0.05    0.97
 -38  -6   0   -1.21    1.88
 -38  -6  -2   35.44    6.39
 -38  -6  -4    0.39    1.04
 -38  -6  -6    1.92    2.19
 -38  -7  29    1.03    1.63
 -38  -7  27    0.32    0.95
 -38  -7  25   18.36    4.04
 -38  -7  23    1.84    1.72
 -38  -7  21    2.98    1.83
 -38  -7  19   29.35    5.26
 -38  -7  17    0.69    1.63
 -38  -7  15    0.33    0.97
 -38  -7  13   35.38    6.10
 -38  -7  11   -0.45    0.77
 -38  -7   9   -0.32    1.00
 -38  -7   7   39.75    6.63
 -38  -7   5    0.69    0.69
 -38  -7   3   -0.13    1.00
 -38  -7   1   28.33    5.69
 -38  -7  -1   -1.00    1.52
 -38  -7  -3   -0.06    1.02
 -38  -8  28    1.47    1.15
 -38  -8  26    2.93    1.71
 -38  -8  24    1.57    1.21
 -38  -8  22   21.22    4.61
 -38  -8  20    1.81    1.55
 -38  -8  18    1.51    1.30
 -38  -8  16   23.21    4.90
 -38  -8  14   -1.34    1.33
 -38  -8  12   -1.51    1.42
 -38  -8  10   23.28    5.17
 -38  -8   8    3.11    2.08
 -38  -8   6    0.04    1.00
 -38  -8   4   26.55    5.48
 -38  -8   2    1.01    1.02
 -38  -9  25    9.32    2.92
 -38  -9  23    0.08    0.58
 -38  -9  21    1.50    1.47
 -38  -9  19   15.34    4.03
 -38  -9  17    0.59    0.97
 -38  -9  15   -1.85    1.15
 -38  -9  13   14.19    4.01
 -38  -9  11    1.02    1.46
 -38  -9   9   -1.35    1.79
 -38 -10  24   -2.11    1.56
 -38 -10  22    5.68    2.50
 -38 -10  20    2.57    2.05
 -38 -10  18    0.75    1.26
 -38 -10  16    7.95    2.96
 -39  -1   8    1.45    1.47
 -39  -1   6    8.07    2.52
 -39  -1   4    0.82    0.71
 -39  -1   2    0.82    0.93
 -39  -1   0    8.49    2.75
 -39  -1  -2   -1.22    1.32
 -39  -1  -4   -0.70    1.41
 -39  -1  -6    2.40    1.75
 -39  -1  -8    0.19    1.20
 -39  -1 -10   -1.42    1.07
 -39  -1 -12    9.15    2.99
 -39  -1 -14    0.72    1.70
 -39  -2  15    3.39    1.64
 -39  -2  13    0.67    0.91
 -39  -2  11    0.34    0.64
 -39  -2   9   -0.75    0.95
 -39  -2   7   -0.81    1.24
 -39  -2   5    1.51    1.62
 -39  -2   3    2.44    1.77
 -39  -2   1   -1.98    1.36
 -39  -2  -1    0.13    1.50
 -39  -2  -3    6.90    2.56
 -39  -2  -5   -1.58    2.08
 -39  -2  -7    1.29    1.09
 -39  -2  -9    0.67    1.14
 -39  -2 -11    0.72    1.14
 -39  -2 -13    3.33    1.97
 -39  -3  20   -1.20    1.29
 -39  -3  18    1.04    0.77
 -39  -3  16   -1.34    1.84
 -39  -3  14   -1.96    1.67
 -39  -3  12    1.87    1.10
 -39  -3  10   -1.19    1.35
 -39  -3   8   -1.54    1.51
 -39  -3   6   -1.50    1.40
 -39  -3   4    2.80    2.11
 -39  -3   2    0.48    1.71
 -39  -3   0   14.47    3.72
 -39  -3  -2   -0.52    0.96
 -39  -3  -4   -1.23    2.00
 -39  -3  -6   -0.20    1.31
 -39  -3  -8    1.10    1.51
 -39  -3 -10    0.06    0.92
 -39  -3 -12    0.12    1.04
 -39  -4  25    0.21    0.85
 -39  -4  23   -0.28    0.52
 -39  -4  21    0.69    0.55
 -39  -4  19    1.64    1.69
 -39  -4  17   -1.39    1.58
 -39  -4  15    0.91    1.25
 -39  -4  13   -0.57    1.12
 -39  -4  11   -0.97    1.55
 -39  -4   9    8.30    2.85
 -39  -4   7   -0.74    0.86
 -39  -4   5   -0.86    1.80
 -39  -4   3    2.68    1.28
 -39  -4   1    2.78    1.71
 -39  -4  -1    1.49    1.83
 -39  -4  -3    0.16    0.69
 -39  -4  -5    0.15    1.89
 -39  -4  -7   -0.61    0.65
 -39  -4  -9    2.84    1.81
 -39  -5  28   -0.93    0.86
 -39  -5  26    0.75    0.71
 -39  -5  24   -1.22    1.14
 -39  -5  22   -1.05    1.43
 -39  -5  20    0.36    1.25
 -39  -5  18   -1.28    1.64
 -39  -5  16    0.08    0.63
 -39  -5  14    0.70    0.57
 -39  -5  12    0.35    0.63
 -39  -5  10   -0.28    0.85
 -39  -5   8   -0.24    1.16
 -39  -5   6    6.31    2.75
 -39  -5   4    1.26    0.81
 -39  -5   2    0.97    1.23
 -39  -5   0   -0.16    1.31
 -39  -5  -2   -0.27    1.15
 -39  -5  -4   -0.79    1.27
 -39  -5  -6    0.77    0.82
 -39  -6  31   -1.80    1.35
 -39  -6  29    1.22    1.04
 -39  -6  27   -1.53    0.93
 -39  -6  25   -0.31    0.76
 -39  -6  23   -1.53    1.48
 -39  -6  21    0.07    1.39
 -39  -6  19   -1.05    1.12
 -39  -6  17   -1.04    1.50
 -39  -6  15   -1.66    0.84
 -39  -6  13    0.36    1.47
 -39  -6  11   -0.52    0.66
 -39  -6   9   -1.08    1.26
 -39  -6   7   -0.10    1.79
 -39  -6   5   -0.02    1.20
 -39  -6   3    0.63    0.66
 -39  -6   1   -0.62    1.46
 -39  -6  -1   -2.30    2.52
 -39  -6  -3   -0.29    0.62
 -39  -7  28   -0.96    0.89
 -39  -7  26    0.47    0.50
 -39  -7  24   -0.39    0.95
 -39  -7  22    3.13    2.36
 -39  -7  20   -1.87    1.77
 -39  -7  18    1.38    1.05
 -39  -7  16    1.57    1.36
 -39  -7  14   -1.03    1.53
 -39  -7  12   -0.69    1.43
 -39  -7  10    2.79    2.05
 -39  -7   8    3.32    2.61
 -39  -7   6    1.28    1.05
 -39  -7   4    1.51    1.69
 -39  -7   2    0.05    1.14
 -39  -7   0   -0.48    1.23
 -39  -8  27   -1.93    1.35
 -39  -8  25    0.77    1.21
 -39  -8  23   -2.13    1.72
 -39  -8  21    0.34    0.58
 -39  -8  19    0.03    0.58
 -39  -8  17    0.16    0.60
 -39  -8  15   -0.09    1.34
 -39  -8  13    0.48    1.28
 -39  -8  11    1.66    1.48
 -39  -8   9    0.21    0.64
 -39  -8   7    2.66    2.19
 -39  -8   5    2.77    2.03
 -39  -9  26   -0.80    0.86
 -39  -9  24   -0.56    1.11
 -39  -9  22    3.97    2.27
 -39  -9  20   -0.70    1.20
 -39  -9  18   -2.92    2.23
 -39  -9  16   -2.12    1.77
 -39  -9  14   -0.24    1.11
 -39  -9  12    1.91    1.91
 -39 -10  23    2.63    1.98
 -39 -10  21    0.04    0.55
 -39 -10  19    3.08    2.32
 -40  -1   5   40.56    6.48
 -40  -1   3   -3.47    1.92
 -40  -1   1    0.51    1.13
 -40  -1  -1   64.76    8.49
 -40  -1  -3   -0.13    0.86
 -40  -1  -5    1.65    0.77
 -40  -1  -7   33.12    6.21
 -40  -1  -9    0.13    0.98
 -40  -1 -11    1.54    1.87
 -40  -2  14    3.22    1.71
 -40  -2  12   -1.25    1.37
 -40  -2  10    1.99    1.64
 -40  -2   8   85.36    9.19
 -40  -2   6   -0.17    0.95
 -40  -2   4    0.30    1.13
 -40  -2   2   86.88    9.63
 -40  -2   0   -1.94    2.23
 -40  -2  -2   -0.48    1.26
 -40  -2  -4   26.61    5.53
 -40  -2  -6    0.05    1.59
 -40  -2  -8   -0.35    0.69
 -40  -2 -10  102.96   11.11
 -40  -3  21    0.31    0.54
 -40  -3  19   -2.75    1.95
 -40  -3  17    8.34    2.74
 -40  -3  15   -2.67    2.17
 -40  -3  13    1.18    0.68
 -40  -3  11   20.35    4.46
 -40  -3   9   -2.14    2.04
 -40  -3   7   -1.11    1.54
 -40  -3   5  110.99   10.73
 -40  -3   3   -0.36    0.94
 -40  -3   1   -1.79    2.20
 -40  -3  -1   41.56    6.69
 -40  -3  -3    0.24    1.12
 -40  -3  -5    1.10    1.67
 -40  -3  -7   90.93   10.31
 -40  -3  -9   -2.21    2.61
 -40  -4  24   -1.24    1.22
 -40  -4  22    0.90    0.92
 -40  -4  20   46.81    6.56
 -40  -4  18   -0.23    1.00
 -40  -4  16    1.77    1.72
 -40  -4  14   29.42    5.47
 -40  -4  12    0.70    0.78
 -40  -4  10   -0.21    0.93
 -40  -4   8   35.10    6.04
 -40  -4   6    0.14    1.36
 -40  -4   4   -0.51    0.75
 -40  -4   2   54.13    7.74
 -40  -4   0    1.69    2.10
 -40  -4  -2    0.01    0.61
 -40  -4  -4   58.90    8.36
 -40  -4  -6   -1.05    1.10
 -40  -5  29   11.24    3.11
 -40  -5  27   -1.53    1.48
 -40  -5  25    1.84    1.90
 -40  -5  23   19.36    4.13
 -40  -5  21   -0.80    1.37
 -40  -5  19   -0.27    0.96
 -40  -5  17   59.31    7.63
 -40  -5  15    1.94    1.79
 -40  -5  13   -2.78    2.33
 -40  -5  11   29.10    5.62
 -40  -5   9    1.01    1.17
 -40  -5   7    0.44    0.56
 -40  -5   5   36.93    6.44
 -40  -5   3    0.21    1.07
 -40  -5   1   -0.45    1.17
 -40  -5  -1  129.16   12.40
 -40  -5  -3   -0.15    0.99
 -40  -6  30    1.85    1.58
 -40  -6  28    0.25    1.23
 -40  -6  26    8.97    2.52
 -40  -6  24    1.08    1.06
 -40  -6  22    1.67    1.49
 -40  -6  20   27.64    5.20
 -40  -6  18   -1.68    1.88
 -40  -6  16   -1.73    1.33
 -40  -6  14   46.30    6.88
 -40  -6  12   -0.13    0.87
 -40  -6  10   -1.14    1.33
 -40  -6   8   24.92    5.28
 -40  -6   6    0.45    1.16
 -40  -6   4   -0.25    0.68
 -40  -6   2   49.54    7.65
 -40  -6   0    2.11    1.50
 -40  -7  29   11.08    3.03
 -40  -7  27   -2.48    1.71
 -40  -7  25   -0.03    0.82
 -40  -7  23   11.55    3.32
 -40  -7  21   -1.07    1.39
 -40  -7  19    1.21    1.59
 -40  -7  17   22.15    4.69
 -40  -7  15    0.30    1.34
 -40  -7  13    0.27    0.61
 -40  -7  11   36.46    6.34
 -40  -7   9   -0.86    1.08
 -40  -7   7    0.77    0.97
 -40  -7   5   34.54    6.47
 -40  -8  26    7.92    2.72
 -40  -8  24   -1.95    1.72
 -40  -8  22    4.80    2.35
 -40  -8  20    7.18    2.93
 -40  -8  18   -0.88    1.51
 -40  -8  16   -0.52    0.90
 -40  -8  14   21.12    4.95
 -40  -8  12    1.64    1.43
 -40  -8  10   -0.44    0.53
 -40  -9  25   -0.31    1.09
 -40  -9  23    8.34    2.93
 -40  -9  21    0.76    1.04
 -40  -9  19    1.09    1.30
 -40  -9  17    3.94    2.12
 -40  -9  15   -2.98    1.78
 -41  -1   4    1.95    1.82
 -41  -1   2   -0.03    0.70
 -41  -1   0    0.74    1.54
 -41  -1  -2    1.41    1.01
 -41  -1  -4   -1.07    1.34
 -41  -1  -6    0.12    0.62
 -41  -1  -8    9.14    3.47
 -41  -2  13    1.87    1.59
 -41  -2  11    0.54    1.16
 -41  -2   9   -1.82    1.90
 -41  -2   7   -0.35    1.09
 -41  -2   5   -1.00    1.32
 -41  -2   3   -0.52    1.24
 -41  -2   1    3.98    2.15
 -41  -2  -1   -0.47    1.67
 -41  -2  -3    0.23    1.09
 -41  -2  -5    8.62    3.17
 -41  -2  -7    2.04    2.09
 -41  -3  20   -1.31    0.76
 -41  -3  18   -3.39    2.09
 -41  -3  16    1.14    1.57
 -41  -3  14   -0.57    0.80
 -41  -3  12    1.05    0.85
 -41  -3  10    2.58    1.71
 -41  -3   8   -0.36    1.01
 -41  -3   6    0.52    1.51
 -41  -3   4    3.14    1.73
 -41  -3   2    0.67    0.96
 -41  -3   0    0.73    1.03
 -41  -3  -2    9.90    3.24
 -41  -3  -4    1.25    1.10
 -41  -3  -6    0.77    1.08
 -41  -4  23    0.66    0.97
 -41  -4  21   -0.92    1.32
 -41  -4  19   -0.76    0.89
 -41  -4  17    0.59    0.57
 -41  -4  15   -3.33    1.98
 -41  -4  13    4.38    2.19
 -41  -4  11   -0.58    1.16
 -41  -4   9   -0.38    0.87
 -41  -4   7   -1.86    1.56
 -41  -4   5   -1.89    1.92
 -41  -4   3   -0.85    1.24
 -41  -4   1    5.08    2.84
 -41  -4  -1   -0.87    0.87
 -41  -4  -3   -0.32    0.69
 -41  -5  28    0.17    0.74
 -41  -5  26    2.49    1.70
 -41  -5  24   -0.17    0.79
 -41  -5  22    2.26    1.40
 -41  -5  20   -0.63    0.66
 -41  -5  18   -0.42    1.04
 -41  -5  16   -1.76    1.56
 -41  -5  14   -1.57    1.70
 -41  -5  12   -2.69    2.02
 -41  -5  10    1.15    1.38
 -41  -5   8    3.74    2.43
 -41  -5   6   -3.51    2.48
 -41  -5   4    0.90    1.33
 -41  -5   2    1.80    2.02
 -41  -5   0    2.58    2.19
 -41  -6  29    0.19    0.76
 -41  -6  27   -0.56    0.93
 -41  -6  25    0.53    0.80
 -41  -6  23   -0.25    1.09
 -41  -6  21   -0.16    0.65
 -41  -6  19   -0.73    1.42
 -41  -6  17    0.19    1.23
 -41  -6  15    2.33    1.85
 -41  -6  13    0.68    0.83
 -41  -6  11    0.08    1.10
 -41  -6   9    1.94    1.86
 -41  -6   7    1.15    1.64
 -41  -6   5    1.83    1.63
 -41  -6   3   -0.20    1.32
 -41  -7  28   -0.26    0.65
 -41  -7  26   -0.34    1.34
 -41  -7  24   -0.60    1.27
 -41  -7  22    1.89    1.25
 -41  -7  20    2.97    1.83
 -41  -7  18    3.02    2.09
 -41  -7  16   -0.75    1.18
 -41  -7  14   -0.07    0.73
 -41  -7  12    0.85    0.86
 -41  -7  10   -0.81    0.55
 -41  -7   8    3.03    2.01
 -41  -8  27   -3.22    2.16
 -41  -8  25   -0.13    1.48
 -41  -8  23    0.23    1.25
 -41  -8  21    3.88    2.12
 -41  -8  19   -1.80    1.69
 -41  -8  17    0.86    1.13
 -41  -8  15   -0.31    0.65
 -41  -8  13    1.85    1.37
 -41  -9  24   -2.42    1.70
 -41  -9  22    2.24    1.67
 -41  -9  20    3.43    2.39
 -42  -1   1    1.85    1.80
 -42  -1  -1   -1.69    1.75
 -42  -1  -3   15.25    4.03
 -42  -1  -5   -0.53    0.83
 -42  -2  12   71.25    8.69
 -42  -2  10   -0.63    1.20
 -42  -2   8   -1.91    1.48
 -42  -2   6   35.79    6.31
 -42  -2   4   -0.17    1.05
 -42  -2   2   -2.72    2.54
 -42  -2   0   28.22    5.68
 -42  -2  -2   -1.14    1.75
 -42  -2  -4    1.33    1.37
 -42  -3  19   -2.14    1.79
 -42  -3  17   -0.52    1.41
 -42  -3  15   51.59    7.34
 -42  -3  13   -0.68    1.25
 -42  -3  11    1.07    1.27
 -42  -3   9   57.34    7.90
 -42  -3   7   -0.53    1.35
 -42  -3   5    0.36    1.17
 -42  -3   3   12.91    3.81
 -42  -3   1   -0.75    1.32
 -42  -3  -1    2.65    2.13
 -42  -3  -3   96.24   10.76
 -42  -4  24   12.12    3.31
 -42  -4  22   -0.78    0.90
 -42  -4  20   -2.57    0.95
 -42  -4  18   22.70    4.73
 -42  -4  16   -1.23    1.68
 -42  -4  14   -2.35    2.17
 -42  -4  12   40.63    6.60
 -42  -4  10   -0.37    1.30
 -42  -4   8   -2.79    2.01
 -42  -4   6   28.11    5.47
 -42  -4   4   -2.77    2.45
 -42  -4   2   -1.29    0.83
 -42  -4   0   83.39    9.98
 -42  -5  27   15.27    3.71
 -42  -5  25   -0.65    1.41
 -42  -5  23   -3.54    1.97
 -42  -5  21   23.74    4.86
 -42  -5  19    1.01    2.08
 -42  -5  17    0.45    1.53
 -42  -5  15   21.49    4.77
 -42  -5  13   -1.40    1.20
 -42  -5  11   -0.89    1.08
 -42  -5   9   31.59    6.01
 -42  -5   7   -0.72    1.14
 -42  -5   5    0.91    1.50
 -42  -5   3   52.73    8.11
 -42  -6  28   -3.75    2.11
 -42  -6  26   -0.45    1.46
 -42  -6  24   19.06    4.38
 -42  -6  22   -0.34    0.93
 -42  -6  20   -2.79    2.14
 -42  -6  18   21.78    4.88
 -42  -6  16   -1.30    0.88
 -42  -6  14    1.08    0.75
 -42  -6  12   22.73    4.99
 -42  -6  10    1.21    0.98
 -42  -6   8   -0.98    0.99
 -42  -6   6   55.66    8.24
 -42  -7  27    4.73    2.37
 -42  -7  25   -0.42    1.14
 -42  -7  23    0.06    0.75
 -42  -7  21   20.41    4.88
 -42  -7  19    1.08    1.18
 -42  -7  17   -0.71    0.93
 -42  -7  15   19.38    4.71
 -42  -7  13    1.12    1.16
 -42  -7  11    1.54    1.30
 -42  -8  26   -2.95    1.82
 -42  -8  24    5.36    2.50
 -42  -8  22   -1.46    1.38
 -42  -8  20    0.21    0.77
 -42  -8  18   27.20    5.65
 -43  -2  11    2.62    0.72
 -43  -2   9   -0.89    1.64
 -43  -2   7   -0.06    1.53
 -43  -2   5   -1.70    1.51
 -43  -2   3   -1.02    1.07
 -43  -2   1    1.08    1.14
 -43  -2  -1    3.13    1.69
 -43  -3  18    1.35    1.69
 -43  -3  16    0.89    1.14
 -43  -3  14   -0.24    0.77
 -43  -3  12   -0.91    1.40
 -43  -3  10   -0.47    0.62
 -43  -3   8   -0.92    1.66
 -43  -3   6    1.40    1.09
 -43  -3   4   -3.37    2.66
 -43  -3   2   -2.57    1.75
 -43  -4  23    2.48    1.70
 -43  -4  21   -1.21    0.55
 -43  -4  19    1.60    1.35
 -43  -4  17   -0.73    1.72
 -43  -4  15   -0.46    1.53
 -43  -4  13   -2.35    1.69
 -43  -4  11   -0.04    1.29
 -43  -4   9   -0.16    1.31
 -43  -4   7    0.07    0.78
 -43  -4   5   -0.88    1.68
 -43  -4   3   -1.83    1.48
 -43  -5  26    2.85    1.53
 -43  -5  24   -0.30    0.81
 -43  -5  22    1.10    0.77
 -43  -5  20    0.02    1.11
 -43  -5  18   -0.08    0.50
 -43  -5  16   -0.62    1.05
 -43  -5  14   -1.61    1.94
 -43  -5  12   -0.29    0.64
 -43  -5  10   -1.21    1.71
 -43  -5   8    2.46    2.08
 -43  -5   6   -2.02    1.54
 -43  -6  29    0.61    0.95
 -43  -6  27   -0.94    1.52
 -43  -6  25   -2.14    1.94
 -43  -6  23   -1.33    2.00
 -43  -6  21   -0.68    0.97
 -43  -6  19   -0.01    0.80
 -43  -6  17   -0.03    0.71
 -43  -6  15    4.47    2.37
 -43  -6  13   -1.59    1.38
 -43  -6  11    4.20    2.35
 -43  -7  26   -0.93    1.52
 -43  -7  24    1.16    1.70
 -43  -7  22   -0.20    0.50
 -43  -7  20    0.61    0.61
 -43  -7  18    0.48    0.98
 -43  -7  16   -0.11    1.01
 -43  -8  23    0.95    0.82
 -43  -8  21   -4.13    2.31
 -44  -2   8   -0.82    1.40
 -44  -2   6   -2.19    1.79
 -44  -2   4   65.50    8.78
 -44  -3  17    0.54    0.62
 -44  -3  15   -4.20    2.72
 -44  -3  13    7.25    2.79
 -44  -3  11   -1.51    1.22
 -44  -3   9    0.07    0.59
 -44  -3   7   20.99    4.90
 -44  -3   5   -0.93    2.16
 -44  -4  22   20.81    4.68
 -44  -4  20   -1.94    1.82
 -44  -4  18    1.20    0.68
 -44  -4  16   15.24    4.12
 -44  -4  14   -0.70    1.36
 -44  -4  12   -0.39    1.60
 -44  -4  10   16.21    4.28
 -44  -4   8   -1.21    1.42
 -44  -5  25    9.64    3.01
 -44  -5  23   -2.10    1.25
 -44  -5  21   -2.27    1.40
 -44  -5  19   15.90    4.15
 -44  -5  17   -1.68    1.35
 -44  -5  15    0.76    1.00
 -44  -5  13   43.12    7.09
 -44  -5  11   -0.41    1.81
 -44  -6  28   19.31    4.50
 -44  -6  26    0.89    1.04
 -44  -6  24   -0.99    0.54
 -44  -6  22    8.50    2.92
 -44  -6  20   -0.89    1.13
 -44  -6  18    2.02    1.67
 -44  -6  16   35.90    6.38
 -44  -6  14   -2.19    2.01
 -44  -7  27   -0.54    1.66
 -44  -7  25   12.07    3.56
 -44  -7  23   -1.15    0.48
 -44  -7  21    1.72    1.13
 -45  -2   7    2.33    1.70
 -45  -3  14   -1.37    1.52
 -45  -3  12   -1.17    1.60
 -45  -3  10   -2.02    1.15
 -45  -4  21    1.87    1.73
 -45  -4  19   -0.66    1.10
 -45  -4  17   -2.26    2.05
 -45  -4  15   -2.11    1.91
 -45  -4  13   -1.07    1.56
 -45  -4  11   -0.64    1.60
 -45  -5  24    0.80    0.66
 -45  -5  22    0.66    0.54
 -45  -5  20   -1.29    1.57
 -45  -5  18   -1.39    1.67
 -45  -5  16   -0.59    1.33
 -45  -6  27   -0.40    0.92
 -45  -6  25    0.74    0.82
 -45  -6  23   -0.69    1.39
 -45  -6  21    0.75    0.65
 -45  -6  19    2.46    2.10
 -45  -7  24   -1.83    2.47
 -46  -4  20   10.66    3.49
 -46  -4  18    0.97    0.73
 -46  -4  16   -0.42    1.46
 -46  -5  23   14.52    3.83
 -46  -5  21   -0.29    0.93
 -46  -6  26    0.23    1.30
 -46  -6  24    1.99    1.73
   0   0   0    0.00    0.00


TITL Er-1545Cd_autored in I2/a
REM I2/a (#15 in standard setting)
CELL 0.71073  37.010365  12.236936  42.674038  90.0000 105.6996  90.0000
ZERR  207.00   0.001536   0.000539   0.001827   0.0000   0.0041   0.0000
LATT  2
SYMM -x+1/2, y,-z
SFAC C H N O S Cd
UNIT 207.00 207.00 207.00 207.00 207.00 207.00
TREF
HKLF 4
END
_computing_structure_solution     'SHELXT 2014/5 (Sheldrick, 2014)'
;
_shelx_hkl_checksum    2117

