 
data_Er-1029b_auto_a
 
_audit_creation_method            'SHELXL-2019/3'
_shelx_SHELXL_version_number      '2019/3'
_chemical_name_systematic         ?
_chemical_name_common             ?
_chemical_melting_point           ?
_chemical_formula_moiety          ?
_chemical_formula_sum
 'C H La N O' 
_chemical_formula_weight          181.94

loop_
 _atom_type_symbol
 _atom_type_description
 _atom_type_scat_dispersion_real
 _atom_type_scat_dispersion_imag
 _atom_type_scat_source
 'C'  'C'   0.0033   0.0016
 'International Tables Vol C Tables 4.2.6.8 and 6.1.1.4'
 'H'  'H'   0.0000   0.0000
 'International Tables Vol C Tables 4.2.6.8 and 6.1.1.4'
 'N'  'N'   0.0061   0.0033
 'International Tables Vol C Tables 4.2.6.8 and 6.1.1.4'
 'O'  'O'   0.0106   0.0060
 'International Tables Vol C Tables 4.2.6.8 and 6.1.1.4'
 'La'  'La'  -0.2871   2.4523
 'International Tables Vol C Tables 4.2.6.8 and 6.1.1.4'
 
_space_group_crystal_system       triclinic
_space_group_IT_number            2
_space_group_name_H-M_alt         'P -1'
_space_group_name_Hall            '-P 1'
 
_shelx_space_group_comment
;
The symmetry employed for this shelxl refinement is uniquely defined
by the following loop, which should always be used as a source of
symmetry information in preference to the above space-group names.
They are only intended as comments.
;
 
loop_
 _space_group_symop_operation_xyz
 'x, y, z'
 '-x, -y, -z'
 
_cell_length_a                    9.6166(4)
_cell_length_b                    11.5894(5)
_cell_length_c                    13.7322(5)
_cell_angle_alpha                 78.978(3)
_cell_angle_beta                  84.243(3)
_cell_angle_gamma                 84.516(3)
_cell_volume                      1490.08(11)
_cell_formula_units_Z             21
_cell_measurement_temperature     290(2)
_cell_measurement_reflns_used     ?
_cell_measurement_theta_min       ?
_cell_measurement_theta_max       ?
 
_exptl_crystal_description        ?
_exptl_crystal_colour             ?
_exptl_crystal_density_meas       ?
_exptl_crystal_density_method     ?
_exptl_crystal_density_diffrn     4.258          
_exptl_crystal_F_000              1659
_exptl_transmission_factor_min    ?
_exptl_transmission_factor_max    ?
_exptl_crystal_size_max           ?
_exptl_crystal_size_mid           ?
_exptl_crystal_size_min           ?
_exptl_absorpt_coefficient_mu     14.747
_shelx_estimated_absorpt_T_min    ?
_shelx_estimated_absorpt_T_max    ?
_exptl_absorpt_correction_type    ?
_exptl_absorpt_correction_T_min   ?
_exptl_absorpt_correction_T_max   ?
_exptl_absorpt_process_details    ?
_exptl_absorpt_special_details    ?
_diffrn_ambient_temperature       290(2)
_diffrn_radiation_wavelength      0.71073
_diffrn_radiation_type            MoK\a
_diffrn_source                    ?
_diffrn_measurement_device_type   ?
_diffrn_measurement_method        ?
_diffrn_detector_area_resol_mean  ?
_diffrn_reflns_number             9099
_diffrn_reflns_av_unetI/netI      0.0462
_diffrn_reflns_av_R_equivalents   0.0245
_diffrn_reflns_limit_h_min        -8
_diffrn_reflns_limit_h_max        12
_diffrn_reflns_limit_k_min        -14
_diffrn_reflns_limit_k_max        14
_diffrn_reflns_limit_l_min        -18
_diffrn_reflns_limit_l_max        17
_diffrn_reflns_theta_min          2.127
_diffrn_reflns_theta_max          29.250
_diffrn_reflns_theta_full         25.242
_diffrn_measured_fraction_theta_max   0.665
_diffrn_measured_fraction_theta_full  0.835
_diffrn_reflns_Laue_measured_fraction_max    0.665
_diffrn_reflns_Laue_measured_fraction_full   0.835
_diffrn_reflns_point_group_measured_fraction_max   0.665
_diffrn_reflns_point_group_measured_fraction_full  0.835
_reflns_number_total              5396
_reflns_number_gt                 4853
_reflns_threshold_expression      'I > 2\s(I)'
_reflns_Friedel_coverage          0.000
_reflns_Friedel_fraction_max      .
_reflns_Friedel_fraction_full     .
 
_reflns_special_details
;
 Reflections were merged by SHELXL according to the crystal
 class for the calculation of statistics and refinement.
 
 _reflns_Friedel_fraction is defined as the number of unique
 Friedel pairs measured divided by the number that would be
 possible theoretically, ignoring centric projections and
 systematic absences.
;
 
_computing_data_collection        ?
_computing_cell_refinement        ?
_computing_data_reduction         ?
_computing_structure_solution     'SHELXT 2014/5 (Sheldrick, 2014)'
_computing_structure_refinement 'SHELXL-2019/2 (Sheldrick, 2019)'
_computing_molecular_graphics     ?
_computing_publication_material   ?
_refine_special_details           ?
_refine_ls_structure_factor_coef  Fsqd
_refine_ls_matrix_type            full
_refine_ls_weighting_scheme       calc
_refine_ls_weighting_details
'w=1/[\s^2^(Fo^2^)+(0.1000P)^2^] where P=(Fo^2^+2Fc^2^)/3'
_atom_sites_solution_primary      ?
_atom_sites_solution_secondary    ?
_atom_sites_solution_hydrogens    .
_refine_ls_hydrogen_treatment     undef
_refine_ls_extinction_method      none
_refine_ls_extinction_coef        .
_refine_ls_number_reflns          5396
_refine_ls_number_parameters      487
_refine_ls_number_restraints      0
_refine_ls_R_factor_all           0.0501
_refine_ls_R_factor_gt            0.0443
_refine_ls_wR_factor_ref          0.1479
_refine_ls_wR_factor_gt           0.1404
_refine_ls_goodness_of_fit_ref    1.122
_refine_ls_restrained_S_all       1.122
_refine_ls_shift/su_max           0.001
_refine_ls_shift/su_mean          0.000
 
loop_
 _atom_site_label
 _atom_site_type_symbol
 _atom_site_fract_x
 _atom_site_fract_y
 _atom_site_fract_z
 _atom_site_U_iso_or_equiv
 _atom_site_adp_type
 _atom_site_occupancy
 _atom_site_site_symmetry_order  
 _atom_site_calc_flag
 _atom_site_refinement_flags_posn
 _atom_site_refinement_flags_adp
 _atom_site_refinement_flags_occupancy
 _atom_site_disorder_assembly
 _atom_site_disorder_group
La01 La 0.85063(3) 0.27400(2) 0.98916(2) 0.01932(14) Uani 1 1 d . . . . .
O002 O 1.1559(4) 0.5474(3) 0.9174(3) 0.0258(8) Uani 1 1 d . . . . .
O003 O 1.0102(4) 0.4141(4) 0.9003(3) 0.0289(9) Uani 1 1 d . . . . .
O004 O 0.3753(4) 0.5952(4) 0.0526(3) 0.0322(9) Uani 1 1 d . . . . .
O005 O 0.6664(4) 0.2440(4) 1.1432(3) 0.0311(9) Uani 1 1 d . . . . .
O006 O 0.7093(5) 0.1188(4) 0.9559(3) 0.0422(12) Uani 1 1 d . . . . .
O007 O 0.2488(5) 0.3635(4) 0.0649(3) 0.0407(11) Uani 1 1 d . . . . .
O008 O 1.0565(4) 0.1621(4) 0.9015(3) 0.0352(10) Uani 1 1 d . . . . .
O009 O 0.0363(4) 0.2305(4) 0.1111(3) 0.0307(9) Uani 1 1 d . . . . .
O00A O -0.0811(4) 0.0772(3) 0.1107(3) 0.0282(9) Uani 1 1 d . . . . .
O00B O 0.4178(5) 0.4312(4) 0.1609(3) 0.0393(11) Uani 1 1 d . . . . .
N00C N 0.7673(4) 0.2442(4) 0.8204(3) 0.0170(9) Uani 1 1 d . . . . .
N00D N 0.1724(5) 0.0326(4) 0.3766(3) 0.0237(10) Uani 1 1 d . . . . .
N00E N 0.1108(5) -0.0684(5) 0.3765(4) 0.0330(12) Uani 1 1 d . . . . .
N00F N 0.6562(5) 0.4009(5) 0.5626(3) 0.0324(13) Uani 1 1 d . . . . .
N00G N 0.4812(5) 0.2652(4) 0.4115(3) 0.0286(12) Uani 1 1 d . . . . .
N00H N 0.6959(5) 0.7133(4) 0.1953(3) 0.0265(11) Uani 1 1 d . . . . .
C00I C 0.4762(5) 0.0557(4) 0.7076(3) 0.0142(10) Uani 1 1 d . . . . .
C00J C 0.4541(5) -0.0244(5) 0.7916(4) 0.0224(12) Uani 1 1 d . . . . .
C00K C 0.9677(5) 0.6150(4) 0.6197(3) 0.0133(10) Uani 1 1 d . . . . .
C00L C 0.6808(5) 0.6240(4) 0.2752(3) 0.0133(10) Uani 1 1 d . . . . .
C00M C 1.0693(5) 0.6907(5) 0.6172(4) 0.0194(11) Uani 1 1 d . . . . .
C00N C 0.7528(6) 0.4518(5) 0.6055(4) 0.0268(13) Uani 1 1 d . . . . .
C00O C 0.2443(5) 0.0405(5) 0.4586(4) 0.0222(12) Uani 1 1 d . . . . .
C00P C 1.0729(5) 0.5076(5) 0.8682(4) 0.0220(11) Uani 1 1 d . . . . .
C00Q C 0.5033(6) 0.2175(5) 0.5067(4) 0.0229(12) Uani 1 1 d . . . . .
C00R C 0.6397(6) 0.4525(5) 0.4668(4) 0.0266(13) Uani 1 1 d . . . . .
C00S C 0.3800(5) 0.2092(5) 0.3750(4) 0.0226(12) Uani 1 1 d . . . . .
C00T C 0.7252(6) 0.5364(5) 0.4480(4) 0.0265(13) Uani 1 1 d . . . . .
C00U C 0.7953(5) 0.5370(5) 0.5337(4) 0.0233(12) Uani 1 1 d . . . . .
C00V C 0.0509(6) -0.0493(5) 0.2928(4) 0.0285(13) Uani 1 1 d . . . . .
C00W C 0.5718(5) 0.1324(5) 0.7172(4) 0.0247(12) Uani 1 1 d . . . . .
C00X C 0.7538(5) 0.6196(5) 0.3588(4) 0.0222(11) Uani 1 1 d . . . . .
C00Y C 0.4368(6) 0.5410(5) 0.1226(4) 0.0262(12) Uani 1 1 d . . . . .
C00Z C 0.8981(5) 0.6173(5) 0.5350(4) 0.0232(12) Uani 1 1 d . . . . .
C010 C 0.4201(5) 0.1343(5) 0.5336(4) 0.0244(12) Uani 1 1 d . . . . .
C011 C 0.5871(6) 0.5496(5) 0.2596(4) 0.0270(13) Uani 1 1 d . . . . .
C012 C 0.0695(5) 0.0670(5) 0.2381(4) 0.0251(12) Uani 1 1 d . . . . .
C013 C 0.7046(6) 0.1587(5) 0.8634(4) 0.0283(13) Uani 1 1 d . . . . .
C014 C 0.3424(6) 0.1264(5) 0.4517(4) 0.0241(12) Uani 1 1 d . . . . .
C015 C 0.6113(5) 0.1005(5) 0.8112(4) 0.0254(12) Uani 1 1 d . . . . .
C016 C 0.1508(6) 0.1147(5) 0.2943(4) 0.0264(12) Uani 1 1 d . . . . .
C017 C 1.1168(6) 0.6626(5) 0.7057(4) 0.0261(12) Uani 1 1 d . . . . .
C018 C 0.6111(6) 0.6953(5) 0.1319(4) 0.0281(13) Uani 1 1 d . . . . .
C019 C 1.0488(5) 0.5670(5) 0.7661(4) 0.0220(11) Uani 1 1 d . . . . .
C01A C 0.5408(5) 0.5919(5) 0.1700(4) 0.0265(12) Uani 1 1 d . . . . .
C01B C 0.0080(5) 0.1250(5) 0.1486(4) 0.0211(11) Uani 1 1 d . . . . .
C01C C 0.9544(6) 0.5395(5) 0.7082(4) 0.0240(12) Uani 1 1 d . . . . .
C01D C 0.9250(6) 0.6961(6) 0.4472(4) 0.0316(14) Uani 1 1 d . . . . .
C01E C 0.2275(6) -0.0341(6) 0.5465(4) 0.0321(14) Uani 1 1 d . . . . .
C01F C 0.3992(5) 0.0523(5) 0.6264(4) 0.0215(11) Uani 1 1 d . . . . .
C01G C 0.3037(6) -0.0273(6) 0.6287(4) 0.0307(13) Uani 1 1 d . . . . .
C01H C 0.8541(7) 0.6944(6) 0.3624(4) 0.0346(15) Uani 1 1 d . . . . .
C01I C 0.5349(7) 0.0017(6) 0.8544(4) 0.0367(15) Uani 1 1 d . . . . .
 
loop_
 _atom_site_aniso_label
 _atom_site_aniso_U_11
 _atom_site_aniso_U_22
 _atom_site_aniso_U_33
 _atom_site_aniso_U_23
 _atom_site_aniso_U_13
 _atom_site_aniso_U_12
La01 0.02384(19) 0.0169(2) 0.01845(19) -0.00021(15) -0.00966(12) -0.00594(13)
O002 0.033(2) 0.024(2) 0.0223(19) -0.0011(18) -0.0110(15) -0.0076(17)
O003 0.034(2) 0.024(2) 0.029(2) -0.0020(19) -0.0053(17) -0.0103(18)
O004 0.035(2) 0.033(3) 0.030(2) -0.006(2) -0.0155(17) 0.0003(18)
O005 0.036(2) 0.028(2) 0.029(2) -0.0028(19) -0.0017(17) -0.0111(18)
O006 0.066(3) 0.034(3) 0.031(2) 0.003(2) -0.025(2) -0.023(2)
O007 0.042(2) 0.043(3) 0.041(2) -0.006(2) -0.0158(19) -0.013(2)
O008 0.034(2) 0.026(2) 0.047(3) -0.010(2) 0.0015(19) -0.0072(18)
O009 0.041(2) 0.018(2) 0.036(2) 0.0020(19) -0.0213(18) -0.0102(17)
O00A 0.036(2) 0.022(2) 0.028(2) 0.0016(19) -0.0176(16) -0.0067(17)
O00B 0.047(3) 0.033(3) 0.039(2) 0.008(2) -0.024(2) -0.016(2)
N00C 0.023(2) 0.017(2) 0.0126(18) -0.0008(18) -0.0050(16) -0.0115(17)
N00D 0.031(2) 0.021(3) 0.022(2) -0.002(2) -0.0119(18) -0.0080(19)
N00E 0.040(3) 0.031(3) 0.030(3) 0.004(2) -0.015(2) -0.021(2)
N00F 0.044(3) 0.036(3) 0.018(2) 0.017(2) -0.018(2) -0.035(3)
N00G 0.046(3) 0.024(3) 0.017(2) 0.013(2) -0.015(2) -0.031(2)
N00H 0.030(2) 0.026(3) 0.025(2) 0.000(2) -0.0075(19) -0.007(2)
C00I 0.019(2) 0.012(3) 0.012(2) 0.000(2) -0.0066(17) -0.0055(19)
C00J 0.033(3) 0.022(3) 0.015(2) 0.002(2) -0.012(2) -0.017(2)
C00K 0.019(2) 0.011(3) 0.012(2) -0.002(2) -0.0042(17) -0.0094(19)
C00L 0.015(2) 0.014(3) 0.011(2) 0.001(2) -0.0033(17) -0.0073(18)
C00M 0.028(3) 0.014(3) 0.017(2) 0.004(2) -0.007(2) -0.018(2)
C00N 0.035(3) 0.028(3) 0.019(2) 0.005(3) -0.012(2) -0.023(3)
C00O 0.023(2) 0.024(3) 0.021(3) -0.003(3) -0.008(2) -0.006(2)
C00P 0.026(2) 0.019(3) 0.023(3) -0.009(2) -0.003(2) -0.003(2)
C00Q 0.040(3) 0.013(3) 0.017(2) 0.006(2) -0.015(2) -0.016(2)
C00R 0.036(3) 0.026(3) 0.020(2) 0.006(3) -0.012(2) -0.022(3)
C00S 0.032(3) 0.021(3) 0.018(2) 0.002(2) -0.010(2) -0.017(2)
C00T 0.030(3) 0.023(3) 0.029(3) -0.003(3) -0.007(2) -0.010(2)
C00U 0.028(3) 0.022(3) 0.019(3) 0.002(3) -0.011(2) -0.005(2)
C00V 0.036(3) 0.027(3) 0.022(3) 0.009(3) -0.012(2) -0.013(3)
C00W 0.024(2) 0.029(3) 0.023(3) -0.008(3) -0.007(2) -0.005(2)
C00X 0.025(2) 0.024(3) 0.019(2) -0.001(2) -0.006(2) -0.008(2)
C00Y 0.029(3) 0.031(4) 0.020(3) -0.004(3) -0.009(2) 0.001(2)
C00Z 0.028(3) 0.019(3) 0.023(3) 0.002(3) -0.010(2) -0.009(2)
C010 0.029(3) 0.023(3) 0.025(3) -0.008(3) -0.011(2) -0.002(2)
C011 0.027(3) 0.031(4) 0.024(3) -0.004(3) -0.005(2) -0.012(2)
C012 0.026(3) 0.029(3) 0.022(3) -0.006(3) -0.010(2) -0.002(2)
C013 0.033(3) 0.031(4) 0.025(3) -0.011(3) -0.015(2) 0.002(2)
C014 0.032(3) 0.019(3) 0.022(3) -0.001(3) -0.012(2) -0.004(2)
C015 0.024(2) 0.026(3) 0.029(3) -0.010(3) -0.007(2) -0.006(2)
C016 0.029(3) 0.024(3) 0.028(3) -0.004(3) -0.011(2) -0.005(2)
C017 0.033(3) 0.027(3) 0.018(2) 0.002(3) -0.007(2) -0.012(2)
C018 0.031(3) 0.031(4) 0.026(3) -0.010(3) -0.010(2) 0.001(2)
C019 0.030(3) 0.019(3) 0.018(2) -0.003(2) -0.004(2) -0.003(2)
C01A 0.026(3) 0.031(4) 0.024(3) -0.003(3) -0.009(2) -0.006(2)
C01B 0.024(2) 0.024(3) 0.018(2) -0.004(2) -0.0072(19) -0.005(2)
C01C 0.030(3) 0.022(3) 0.021(3) -0.002(3) -0.007(2) -0.007(2)
C01D 0.039(3) 0.031(4) 0.026(3) 0.002(3) -0.014(2) -0.015(3)
C01E 0.034(3) 0.037(4) 0.029(3) -0.006(3) -0.010(2) -0.014(3)
C01F 0.024(2) 0.022(3) 0.021(3) -0.004(2) -0.007(2) -0.005(2)
C01G 0.036(3) 0.034(4) 0.023(3) 0.001(3) -0.011(2) -0.013(3)
C01H 0.045(3) 0.035(4) 0.026(3) 0.002(3) -0.010(3) -0.022(3)
C01I 0.049(4) 0.037(4) 0.026(3) 0.000(3) -0.018(3) -0.016(3)
 
_geom_special_details
;
 All esds (except the esd in the dihedral angle between two l.s. planes)
 are estimated using the full covariance matrix.  The cell esds are taken
 into account individually in the estimation of esds in distances, angles
 and torsion angles; correlations between esds in cell parameters are only
 used when they are defined by crystal symmetry.  An approximate (isotropic)
 treatment of cell esds is used for estimating esds involving l.s. planes.
;
 
loop_
 _geom_bond_atom_site_label_1
 _geom_bond_atom_site_label_2
 _geom_bond_distance
 _geom_bond_site_symmetry_2
 _geom_bond_publ_flag
La01 O003 2.413(4) . ?
La01 O006 2.490(4) . ?
La01 O009 2.520(4) 1_656 ?
La01 O004 2.575(4) 2_666 ?
La01 O008 2.585(4) . ?
La01 O005 2.611(4) . ?
La01 N00C 2.620(4) . ?
La01 O00A 2.626(4) 1_656 ?
La01 O002 2.629(3) 2_767 ?
La01 C013 2.910(5) . ?
La01 C01B 2.964(6) 1_656 ?
O002 C00P 1.267(6) . ?
O003 C00P 1.273(6) . ?
O004 C00Y 1.217(7) . ?
O006 C013 1.269(7) . ?
O009 C01B 1.276(7) . ?
O00A C01B 1.265(6) . ?
O00B C00Y 1.304(8) . ?
N00C C013 1.231(7) . ?
N00D C016 1.351(8) . ?
N00D N00E 1.361(6) . ?
N00D C00O 1.401(6) . ?
N00E C00V 1.309(7) . ?
N00F C00R 1.355(7) . ?
N00F C00N 1.381(6) . ?
N00G C00Q 1.347(7) . ?
N00G C00S 1.402(6) . ?
N00H C018 1.307(7) . ?
N00H C00L 1.364(7) . ?
C00I C00J 1.349(7) . ?
C00I C00W 1.370(6) . ?
C00I C01F 1.408(6) . ?
C00J C01I 1.311(7) . ?
C00K C01C 1.358(8) . ?
C00K C00M 1.369(6) . ?
C00K C00Z 1.393(7) . ?
C00L C011 1.363(6) . ?
C00L C00X 1.394(7) . ?
C00M C017 1.312(8) . ?
C00N C00U 1.319(8) . ?
C00O C01E 1.349(9) . ?
C00O C014 1.420(7) . ?
C00P C019 1.469(8) . ?
C00Q C010 1.288(7) . ?
C00R C00T 1.304(7) . ?
C00S C014 1.328(8) . ?
C00T C00U 1.416(7) . ?
C00T C00X 1.427(8) . ?
C00U C00Z 1.425(7) . ?
C00V C012 1.429(9) . ?
C00W C015 1.355(8) . ?
C00X C01H 1.368(7) . ?
C00Y C01A 1.471(7) . ?
C00Z C01D 1.384(8) . ?
C010 C014 1.433(7) . ?
C010 C01F 1.445(8) . ?
C011 C01A 1.338(8) . ?
C012 C016 1.370(7) . ?
C012 C01B 1.438(8) . ?
C013 C015 1.484(7) . ?
C015 C01I 1.420(8) . ?
C017 C019 1.422(8) . ?
C018 C01A 1.419(8) . ?
C019 C01C 1.362(7) . ?
C01D C01H 1.411(8) . ?
C01E C01G 1.424(8) . ?
C01F C01G 1.356(7) . ?
 
loop_
 _geom_angle_atom_site_label_1
 _geom_angle_atom_site_label_2
 _geom_angle_atom_site_label_3
 _geom_angle
 _geom_angle_site_symmetry_1
 _geom_angle_site_symmetry_3
 _geom_angle_publ_flag
O003 La01 O006 139.24(13) . . ?
O003 La01 O009 82.84(14) . 1_656 ?
O006 La01 O009 122.47(15) . 1_656 ?
O003 La01 O004 95.93(14) . 2_666 ?
O006 La01 O004 81.87(15) . 2_666 ?
O009 La01 O004 142.75(12) 1_656 2_666 ?
O003 La01 O008 71.11(13) . . ?
O006 La01 O008 84.45(14) . . ?
O009 La01 O008 75.11(14) 1_656 . ?
O004 La01 O008 139.73(14) 2_666 . ?
O003 La01 O005 141.18(12) . . ?
O006 La01 O005 76.55(13) . . ?
O009 La01 O005 86.99(13) 1_656 . ?
O004 La01 O005 70.75(14) 2_666 . ?
O008 La01 O005 141.21(14) . . ?
O003 La01 N00C 90.33(12) . . ?
O006 La01 N00C 50.69(14) . . ?
O009 La01 N00C 147.93(13) 1_656 . ?
O004 La01 N00C 68.98(13) 2_666 . ?
O008 La01 N00C 73.04(14) . . ?
O005 La01 N00C 116.19(12) . . ?
O003 La01 O00A 126.13(13) . 1_656 ?
O006 La01 O00A 72.21(14) . 1_656 ?
O009 La01 O00A 50.43(12) 1_656 1_656 ?
O004 La01 O00A 136.92(13) 2_666 1_656 ?
O008 La01 O00A 71.98(14) . 1_656 ?
O005 La01 O00A 70.11(13) . 1_656 ?
N00C La01 O00A 114.40(12) . 1_656 ?
O003 La01 O002 70.52(11) . 2_767 ?
O006 La01 O002 143.75(14) . 2_767 ?
O009 La01 O002 71.45(13) 1_656 2_767 ?
O004 La01 O002 73.11(12) 2_666 2_767 ?
O008 La01 O002 131.33(11) . 2_767 ?
O005 La01 O002 70.72(11) . 2_767 ?
N00C La01 O002 135.18(13) . 2_767 ?
O00A La01 O002 109.47(12) 1_656 2_767 ?
O003 La01 C013 114.86(15) . . ?
O006 La01 C013 25.70(16) . . ?
O009 La01 C013 140.91(15) 1_656 . ?
O004 La01 C013 72.99(14) 2_666 . ?
O008 La01 C013 78.38(14) . . ?
O005 La01 C013 96.36(14) . . ?
N00C La01 C013 25.02(15) . . ?
O00A La01 C013 94.18(15) 1_656 . ?
O002 La01 C013 146.05(15) 2_767 . ?
O003 La01 C01B 105.72(14) . 1_656 ?
O006 La01 C01B 97.44(15) . 1_656 ?
O009 La01 C01B 25.29(12) 1_656 1_656 ?
O004 La01 C01B 145.91(13) 2_666 1_656 ?
O008 La01 C01B 73.37(14) . 1_656 ?
O005 La01 C01B 75.94(14) . 1_656 ?
N00C La01 C01B 135.26(13) . 1_656 ?
O00A La01 C01B 25.23(12) 1_656 1_656 ?
O002 La01 C01B 89.46(13) 2_767 1_656 ?
C013 La01 C01B 118.52(16) . 1_656 ?
C00P O002 La01 136.3(3) . 2_767 ?
C00P O003 La01 163.4(3) . . ?
C00Y O004 La01 142.0(4) . 2_666 ?
C013 O006 La01 96.0(3) . . ?
C01B O009 La01 97.2(3) . 1_454 ?
C01B O00A La01 92.5(3) . 1_454 ?
C013 N00C La01 90.8(3) . . ?
C016 N00D N00E 112.4(4) . . ?
C016 N00D C00O 128.8(4) . . ?
N00E N00D C00O 118.8(5) . . ?
C00V N00E N00D 105.0(5) . . ?
C00R N00F C00N 113.3(4) . . ?
C00Q N00G C00S 112.2(4) . . ?
C018 N00H C00L 105.9(4) . . ?
C00J C00I C00W 112.0(4) . . ?
C00J C00I C01F 118.2(4) . . ?
C00W C00I C01F 129.7(5) . . ?
C01I C00J C00I 105.0(5) . . ?
C01C C00K C00M 112.0(4) . . ?
C01C C00K C00Z 128.0(4) . . ?
C00M C00K C00Z 119.9(4) . . ?
C011 C00L N00H 110.6(4) . . ?
C011 C00L C00X 128.9(5) . . ?
N00H C00L C00X 120.5(4) . . ?
C017 C00M C00K 104.5(4) . . ?
C00U C00N N00F 103.4(5) . . ?
C01E C00O N00D 122.3(5) . . ?
C01E C00O C014 116.7(5) . . ?
N00D C00O C014 121.0(5) . . ?
O002 C00P O003 123.9(5) . . ?
O002 C00P C019 120.1(5) . . ?
O003 C00P C019 116.0(4) . . ?
C010 C00Q N00G 106.5(4) . . ?
C00T C00R N00F 104.6(4) . . ?
C014 C00S N00G 103.5(5) . . ?
C00R C00T C00U 109.6(5) . . ?
C00R C00T C00X 130.1(5) . . ?
C00U C00T C00X 120.4(5) . . ?
C00N C00U C00T 109.1(5) . . ?
C00N C00U C00Z 128.4(5) . . ?
C00T C00U C00Z 122.5(5) . . ?
N00E C00V C012 111.4(5) . . ?
C015 C00W C00I 106.4(5) . . ?
C01H C00X C00L 123.3(5) . . ?
C01H C00X C00T 115.6(5) . . ?
C00L C00X C00T 121.1(4) . . ?
O004 C00Y O00B 122.5(5) . . ?
O004 C00Y C01A 123.4(6) . . ?
O00B C00Y C01A 114.0(5) . . ?
C01D C00Z C00K 122.6(4) . . ?
C01D C00Z C00U 115.9(5) . . ?
C00K C00Z C00U 121.5(5) . . ?
C00Q C010 C014 109.2(5) . . ?
C00Q C010 C01F 131.3(5) . . ?
C014 C010 C01F 119.4(5) . . ?
C01A C011 C00L 107.2(5) . . ?
C016 C012 C00V 104.5(5) . . ?
C016 C012 C01B 127.2(6) . . ?
C00V C012 C01B 128.1(5) . . ?
N00C C013 O006 122.4(5) . . ?
N00C C013 C015 121.7(5) . . ?
O006 C013 C015 115.8(5) . . ?
N00C C013 La01 64.2(3) . . ?
O006 C013 La01 58.3(3) . . ?
C015 C013 La01 171.1(4) . . ?
C00S C014 C00O 129.4(5) . . ?
C00S C014 C010 108.6(5) . . ?
C00O C014 C010 122.0(5) . . ?
C00W C015 C01I 105.0(4) . . ?
C00W C015 C013 129.1(5) . . ?
C01I C015 C013 125.7(6) . . ?
N00D C016 C012 106.7(5) . . ?
C00M C017 C019 111.8(4) . . ?
N00H C018 C01A 110.4(6) . . ?
C01C C019 C017 104.9(5) . . ?
C01C C019 C00P 126.1(5) . . ?
C017 C019 C00P 129.0(5) . . ?
C011 C01A C018 105.9(5) . . ?
C011 C01A C00Y 126.4(5) . . ?
C018 C01A C00Y 127.7(6) . . ?
O00A C01B O009 119.4(5) . . ?
O00A C01B C012 121.5(5) . . ?
O009 C01B C012 118.9(4) . . ?
O00A C01B La01 62.3(3) . 1_454 ?
O009 C01B La01 57.5(3) . 1_454 ?
C012 C01B La01 168.9(4) . 1_454 ?
C00K C01C C019 106.8(5) . . ?
C00Z C01D C01H 120.9(5) . . ?
C00O C01E C01G 121.9(5) . . ?
C01G C01F C00I 123.3(5) . . ?
C01G C01F C010 115.9(5) . . ?
C00I C01F C010 120.9(4) . . ?
C01F C01G C01E 124.0(5) . . ?
C00X C01H C01D 124.7(5) . . ?
C00J C01I C015 111.6(6) . . ?
 
_refine_diff_density_max    0.872
_refine_diff_density_min   -0.552
_refine_diff_density_rms    0.136

_shelx_res_file
;
TITL Er-1029b_auto_a.res in P-1
    Er-1029b_auto_a.res
    created by SHELXL-2019/3 at 17:03:11 on 04-Oct-2023
REM Old TITL Er-1029b_auto in P1

REM SHELXT solution in P-1
REM R1 0.102,  Rweak 0.011,  Alpha 0.059,  Orientation as input
REM Formula found by SHELXT:  C37 N6 O10 La

CELL  0.71073   9.6166  11.5894  13.7322   78.978   84.243   84.516
ZERR   21.000   0.0004   0.0005   0.0005    0.003    0.003    0.003
LATT  1
SFAC C H N O LA
UNIT 21.00 21.00 21.00 21.00 21.00
ACTA
TEMP 17
L.S. 10
BOND $H
LIST 6
FMAP 2
PLAN 20
WGHT    0.100000
FVAR       0.28258
LA01  5    0.850633    0.273996    0.989156    11.00000    0.02384    0.01695 =
         0.01845   -0.00021   -0.00966   -0.00594
O002  4    1.155866    0.547391    0.917400    11.00000    0.03263    0.02406 =
         0.02229   -0.00109   -0.01097   -0.00763
O003  4    1.010196    0.414093    0.900349    11.00000    0.03423    0.02438 =
         0.02917   -0.00204   -0.00528   -0.01032
O004  4    0.375256    0.595224    0.052602    11.00000    0.03471    0.03344 =
         0.03045   -0.00608   -0.01551    0.00028
O005  4    0.666375    0.244002    1.143152    11.00000    0.03636    0.02827 =
         0.02921   -0.00276   -0.00170   -0.01112
O006  4    0.709326    0.118781    0.955865    11.00000    0.06649    0.03406 =
         0.03064    0.00257   -0.02461   -0.02330
O007  4    0.248773    0.363466    0.064905    11.00000    0.04245    0.04301 =
         0.04063   -0.00637   -0.01577   -0.01332
O008  4    1.056521    0.162078    0.901486    11.00000    0.03361    0.02624 =
         0.04712   -0.00994    0.00145   -0.00719
O009  4    0.036269    0.230485    0.111107    11.00000    0.04104    0.01800 =
         0.03560    0.00198   -0.02132   -0.01021
O00A  4   -0.081056    0.077231    0.110706    11.00000    0.03605    0.02205 =
         0.02798    0.00158   -0.01762   -0.00665
O00B  4    0.417758    0.431163    0.160937    11.00000    0.04717    0.03264 =
         0.03891    0.00804   -0.02361   -0.01578
N00C  3    0.767304    0.244228    0.820402    11.00000    0.02347    0.01685 =
         0.01257   -0.00079   -0.00501   -0.01148
N00D  3    0.172369    0.032582    0.376615    11.00000    0.03060    0.02096 =
         0.02166   -0.00159   -0.01186   -0.00804
N00E  3    0.110835   -0.068365    0.376508    11.00000    0.04045    0.03123 =
         0.02972    0.00350   -0.01521   -0.02053
N00F  3    0.656226    0.400879    0.562567    11.00000    0.04353    0.03635 =
         0.01809    0.01699   -0.01799   -0.03529
N00G  3    0.481210    0.265176    0.411547    11.00000    0.04593    0.02410 =
         0.01729    0.01270   -0.01464   -0.03125
N00H  3    0.695859    0.713252    0.195285    11.00000    0.02962    0.02571 =
         0.02454   -0.00010   -0.00753   -0.00697
C00I  1    0.476207    0.055744    0.707577    11.00000    0.01919    0.01241 =
         0.01194    0.00033   -0.00661   -0.00548
C00J  1    0.454068   -0.024444    0.791593    11.00000    0.03259    0.02162 =
         0.01541    0.00249   -0.01154   -0.01676
C00K  1    0.967682    0.614954    0.619671    11.00000    0.01897    0.01103 =
         0.01209   -0.00185   -0.00417   -0.00936
C00L  1    0.680826    0.623952    0.275217    11.00000    0.01544    0.01384 =
         0.01120    0.00059   -0.00329   -0.00733
C00M  1    1.069337    0.690741    0.617209    11.00000    0.02828    0.01437 =
         0.01697    0.00392   -0.00716   -0.01763
C00N  1    0.752810    0.451794    0.605539    11.00000    0.03489    0.02849 =
         0.01924    0.00486   -0.01151   -0.02268
C00O  1    0.244331    0.040503    0.458619    11.00000    0.02322    0.02442 =
         0.02066   -0.00277   -0.00849   -0.00557
C00P  1    1.072855    0.507563    0.868192    11.00000    0.02606    0.01916 =
         0.02321   -0.00884   -0.00273   -0.00287
C00Q  1    0.503272    0.217490    0.506670    11.00000    0.04002    0.01324 =
         0.01742    0.00594   -0.01535   -0.01609
C00R  1    0.639691    0.452532    0.466821    11.00000    0.03581    0.02593 =
         0.01954    0.00645   -0.01174   -0.02225
C00S  1    0.379962    0.209165    0.375019    11.00000    0.03204    0.02054 =
         0.01779    0.00178   -0.01042   -0.01718
C00T  1    0.725157    0.536362    0.447973    11.00000    0.03027    0.02250 =
         0.02862   -0.00333   -0.00746   -0.00961
C00U  1    0.795316    0.537017    0.533694    11.00000    0.02814    0.02233 =
         0.01947    0.00236   -0.01058   -0.00506
C00V  1    0.050907   -0.049274    0.292830    11.00000    0.03564    0.02685 =
         0.02191    0.00869   -0.01225   -0.01272
C00W  1    0.571777    0.132421    0.717185    11.00000    0.02422    0.02945 =
         0.02330   -0.00835   -0.00693   -0.00482
C00X  1    0.753792    0.619554    0.358786    11.00000    0.02459    0.02381 =
         0.01887   -0.00109   -0.00565   -0.00767
C00Y  1    0.436812    0.540986    0.122604    11.00000    0.02857    0.03121 =
         0.01957   -0.00417   -0.00915    0.00058
C00Z  1    0.898148    0.617326    0.534952    11.00000    0.02791    0.01899 =
         0.02323    0.00244   -0.00986   -0.00904
C010  1    0.420074    0.134294    0.533644    11.00000    0.02883    0.02259 =
         0.02484   -0.00760   -0.01052   -0.00176
C011  1    0.587149    0.549576    0.259640    11.00000    0.02698    0.03133 =
         0.02444   -0.00350   -0.00483   -0.01209
C012  1    0.069480    0.066964    0.238118    11.00000    0.02626    0.02919 =
         0.02191   -0.00570   -0.00992   -0.00194
C013  1    0.704566    0.158676    0.863425    11.00000    0.03328    0.03063 =
         0.02511   -0.01128   -0.01482    0.00233
C014  1    0.342439    0.126389    0.451679    11.00000    0.03240    0.01908 =
         0.02206   -0.00113   -0.01208   -0.00369
C015  1    0.611308    0.100528    0.811199    11.00000    0.02437    0.02633 =
         0.02912   -0.00975   -0.00749   -0.00552
C016  1    0.150780    0.114699    0.294254    11.00000    0.02938    0.02433 =
         0.02775   -0.00444   -0.01133   -0.00514
C017  1    1.116788    0.662598    0.705685    11.00000    0.03330    0.02716 =
         0.01833    0.00190   -0.00722   -0.01231
C018  1    0.611113    0.695322    0.131938    11.00000    0.03064    0.03094 =
         0.02570   -0.01019   -0.01006    0.00076
C019  1    1.048841    0.566998    0.766134    11.00000    0.03002    0.01851 =
         0.01786   -0.00282   -0.00361   -0.00347
C01A  1    0.540834    0.591865    0.170042    11.00000    0.02551    0.03096 =
         0.02428   -0.00322   -0.00883   -0.00590
C01B  1    0.007957    0.124971    0.148608    11.00000    0.02360    0.02373 =
         0.01809   -0.00421   -0.00720   -0.00547
C01C  1    0.954427    0.539490    0.708210    11.00000    0.03034    0.02233 =
         0.02068   -0.00227   -0.00744   -0.00654
C01D  1    0.924965    0.696063    0.447159    11.00000    0.03898    0.03109 =
         0.02648    0.00196   -0.01419   -0.01500
C01E  1    0.227532   -0.034118    0.546512    11.00000    0.03426    0.03706 =
         0.02884   -0.00619   -0.00971   -0.01400
C01F  1    0.399163    0.052270    0.626388    11.00000    0.02373    0.02162 =
         0.02074   -0.00435   -0.00654   -0.00469
C01G  1    0.303731   -0.027315    0.628717    11.00000    0.03634    0.03408 =
         0.02269    0.00113   -0.01100   -0.01253
C01H  1    0.854066    0.694408    0.362356    11.00000    0.04478    0.03514 =
         0.02583    0.00204   -0.00964   -0.02161
C01I  1    0.534931    0.001679    0.854400    11.00000    0.04940    0.03748 =
         0.02646   -0.00042   -0.01780   -0.01616
HKLF 4




REM  Er-1029b_auto_a.res in P-1
REM wR2 = 0.1479, GooF = S = 1.122, Restrained GooF = 1.122 for all data
REM R1 = 0.0443 for 4853 Fo > 4sig(Fo) and 0.0501 for all 5396 data
REM 487 parameters refined using 0 restraints

END

WGHT      0.0648      4.5115

REM Highest difference peak  0.872,  deepest hole -0.552,  1-sigma level  0.136
Q1    1   0.4393 -0.0546  0.7878  11.00000  0.05    0.84
Q2    1   0.5100  0.2322  0.5234  11.00000  0.05    0.81
Q3    1   0.4777  0.0022  0.7453  11.00000  0.05    0.80
Q4    1   0.4787  0.0435  0.6838  11.00000  0.05    0.78
Q5    1   0.7013  0.6492  0.2480  11.00000  0.05    0.73
Q6    1   0.5948  0.1971  0.6587  11.00000  0.05    0.72
Q7    1   0.8164  0.2437  0.8005  11.00000  0.05    0.70
Q8    1   0.8980  0.4822  0.7252  11.00000  0.05    0.70
Q9    1   0.2262  0.4004  0.0802  11.00000  0.05    0.69
Q10   1   0.9944  0.7547  0.4397  11.00000  0.05    0.67
Q11   1   0.4580 -0.0026  0.8117  11.00000  0.05    0.67
Q12   1   0.7601  0.2778  0.8277  11.00000  0.05    0.66
Q13   1   0.6638  0.4216  0.4585  11.00000  0.05    0.66
Q14   1   0.1592 -0.0850  0.5547  11.00000  0.05    0.66
Q15   1   0.7016  0.3741  0.5426  11.00000  0.05    0.65
Q16   1   1.0121  0.6531  0.6087  11.00000  0.05    0.65
Q17   1   0.7432  0.2566  0.8413  11.00000  0.05    0.65
Q18   1   0.3630  0.2333  0.3843  11.00000  0.05    0.64
Q19   1   1.0752  0.7149  0.6243  11.00000  0.05    0.64
Q20   1   1.1328  0.1832  0.8856  11.00000  0.05    0.63
;
_shelx_res_checksum   70126

_shelx_hkl_file
;
  -8  -6  -8   93.88    6.77
  -8  -5  -7   44.50    4.75
  -8   4  -4   25.34    3.52
  -8   5  -4   80.46    6.18
  -8   5  -3  135.59    8.14
  -7  -8  -8  182.21    8.84
  -7  -8  -7  306.61   11.88
  -7  -8  -6  108.12    7.41
  -7  -7  -8    8.72    2.04
  -7  -7  -7   15.95    2.82
  -7  -7  -6   62.13    5.40
  -7  -7  -5   12.34    2.52
  -7  -6  -8  428.71   13.00
  -7  -6  -7  522.52   14.47
  -7  -6  -6  152.15    8.19
  -7  -6  -5  129.20    7.80
  -7  -6  -4   86.28    6.52
  -7  -5  -8    2.91    1.43
  -7  -5  -7    1.17    0.90
  -7  -5  -6   86.46    5.99
  -7  -5  -5    8.70    2.06
  -7  -5  -4   27.03    3.58
  -7  -5  -3   27.83    3.69
  -7  -4  -7   92.36    6.17
  -7  -4  -6  485.94   14.35
  -7  -4  -5  138.11    7.68
  -7  -4  -4  148.83    8.17
  -7  -4  -3  380.46   13.31
  -7  -4  -2  316.56   12.40
  -7  -4  -1  284.84   12.05
  -7  -3  -6  110.07    6.83
  -7  -3  -5  131.88    7.54
  -7  -3  -4    2.83    1.05
  -7  -3  -3   50.88    4.79
  -7  -3  -2   38.03    4.29
  -7  -3  -1   -1.07    0.90
  -7  -3   0    0.49    0.88
  -7  -2  -5   32.24    3.84
  -7  -2  -4  413.66   13.66
  -7  -2  -3   98.17    6.66
  -7  -2  -2  246.73   10.61
  -7  -2  -1  337.08   12.63
  -7  -2   0  212.94   10.26
  -7  -1  -3   36.55    4.09
  -7  -1  -2    7.98    1.95
  -7  -1  -1   -0.20    0.80
  -7  -1   0    0.95    0.81
  -7  -1   1   19.10    3.25
  -7   0  -2  242.74   10.81
  -7   0  -1  501.13   15.58
  -7   0   0  175.12    9.30
  -7   0   1  300.19   12.20
  -7   1   0   17.82    3.11
  -7   1   1   24.39    3.48
  -7   2   0   86.64    6.30
  -7   2   1  117.75    7.50
  -7   3  -1   96.51    6.53
  -7   3   0   73.37    5.84
  -7   3   1   77.42    6.20
  -7   4  -3   34.39    3.78
  -7   4  -2    3.35    1.28
  -7   4  -1   52.26    4.81
  -7   4   0   26.85    3.60
  -7   4   1   63.93    5.67
  -7   5  -6  170.65    7.83
  -7   5  -5   90.42    5.85
  -7   5  -4  204.66    8.88
  -7   5  -3  180.58    8.55
  -7   5  -2   72.97    5.67
  -7   5  -1  109.94    7.07
  -7   5   0  141.87    8.22
  -7   6  -4    3.01    1.60
  -7   6  -3    2.65    1.27
  -7   6  -2   86.85    6.13
  -7   6  -1    8.11    2.03
  -7   6   0   11.50    2.44
  -6 -10  -5    4.21    2.14
  -6 -10  -4   49.77    5.16
  -6 -10  -3   24.34    3.47
  -6  -9  -7   74.96    5.73
  -6  -9  -6  110.90    7.29
  -6  -9  -5  163.75    9.11
  -6  -9  -4  124.79    7.56
  -6  -9  -3  502.20   14.19
  -6  -9  -2   72.97    5.15
  -6  -9  -1  383.80   10.78
  -6  -9   0  194.07    7.15
  -6  -8  -8   45.99    4.11
  -6  -8  -7  238.31    9.71
  -6  -8  -6   32.52    3.80
  -6  -8  -5   45.92    4.66
  -6  -8  -4   -0.28    0.60
  -6  -8  -2   11.21    2.01
  -6  -8  -1   23.17    2.46
  -6  -8   0   16.52    1.89
  -6  -8   1   74.40    3.48
  -6  -8   2   52.95    2.52
  -6  -7  -9  344.35   10.02
  -6  -7  -8  391.81   11.27
  -6  -7  -7  155.66    7.54
  -6  -7  -6   67.18    5.23
  -6  -7  -5  138.28    7.73
  -6  -7  -4  119.80    7.39
  -6  -7  -3  241.45   10.81
  -6  -7  -2  467.90   15.42
  -6  -6  -8  129.82    6.40
  -6  -6  -7    3.16    1.22
  -6  -6  -6  364.24   11.62
  -6  -6  -5    2.14    1.30
  -6  -6  -4    5.85    1.87
  -6  -6  -3    5.36    1.66
  -6  -6  -2    8.82    2.03
  -6  -6  -1  121.92    7.74
  -6  -5  -8  439.59   11.72
  -6  -5  -7    1.92    1.03
  -6  -5  -6  754.97   16.16
  -6  -5  -5  244.89    9.58
  -6  -5  -4  425.37   12.99
  -6  -5  -3  891.77   19.31
  -6  -5  -2  118.53    7.25
  -6  -5  -1  496.50   15.18
  -6  -5   0   64.94    5.60
  -6  -5   1  142.32    8.55
  -6  -4  -7   27.95    3.13
  -6  -4  -6   84.60    5.44
  -6  -4  -5   67.28    4.93
  -6  -4  -4   29.87    3.44
  -6  -4  -3  155.23    7.82
  -6  -4  -2   78.71    5.76
  -6  -4  -1   97.16    6.54
  -6  -4   0   90.91    6.47
  -6  -4   1   32.37    3.99
  -6  -4   2   27.39    3.74
  -6  -3  -6    2.82    1.19
  -6  -3  -5  122.39    6.57
  -6  -3  -4   76.60    5.27
  -6  -3  -3  342.96   11.42
  -6  -3  -2  329.11   11.47
  -6  -3  -1  217.49    9.52
  -6  -3   0  229.33   10.04
  -6  -3   1  403.62   13.62
  -6  -3   2   25.40    3.51
  -6  -3   3  133.30    8.18
  -6  -3   4  496.33   15.29
  -6  -2  -5  672.55   15.54
  -6  -2  -4  224.54    9.05
  -6  -2  -3   68.41    5.04
  -6  -2  -2  154.03    7.75
  -6  -2  -1  319.10   11.35
  -6  -2   0  598.31   15.79
  -6  -2   1   10.33    2.25
  -6  -2   2  167.43    8.78
  -6  -2   3   -1.10    0.88
  -6  -2   4   11.90    2.42
  -6  -2   4   10.60    2.34
  -6  -2   5   14.62    2.76
  -6  -1  -3   41.81    4.08
  -6  -1  -2  318.50   11.14
  -6  -1  -1  374.90   12.08
  -6  -1   0  218.67    9.47
  -6  -1   1  204.73    9.34
  -6  -1   2  325.50   11.97
  -6  -1   3  308.79   11.58
  -6  -1   3  287.32   11.49
  -6  -1   4  265.71   11.30
  -6  -1   4  278.18   11.35
  -6  -1   5   95.29    6.91
  -6   0  -2  429.42   13.09
  -6   0  -1   58.72    4.89
  -6   0   0   58.80    4.95
  -6   0   1  365.50   12.27
  -6   0   2   91.76    6.35
  -6   0   3   45.32    4.57
  -6   0   3   58.45    5.10
  -6   0   4   79.90    6.10
  -6   0   4   74.68    5.95
  -6   0   5   42.46    4.55
  -6   0   6  113.03    7.59
  -6   1   0  129.90    7.42
  -6   1   1   61.29    5.15
  -6   1   2   98.05    6.64
  -6   1   2   94.46    6.38
  -6   1   3   35.74    3.99
  -6   1   3   36.70    4.07
  -6   1   4   15.06    2.72
  -6   1   4   14.94    2.75
  -6   1   5   85.39    6.42
  -6   1   6  184.37    9.58
  -6   2   1  302.08   11.01
  -6   2   2  187.44    9.17
  -6   2   2  191.85    9.00
  -6   2   3  136.07    7.91
  -6   2   3  146.35    8.21
  -6   2   4  126.99    7.84
  -6   2   4  118.00    7.47
  -6   2   5   31.43    3.97
  -6   2   6  114.29    7.43
  -6   2   7  176.73    9.49
  -6   3  -1   53.33    4.45
  -6   3   0   12.56    2.28
  -6   3   1   -0.42    0.85
  -6   3   2    1.19    0.88
  -6   3   3   27.07    3.56
  -6   3   4   75.52    6.18
  -6   3   5    5.42    1.78
  -6   3   6  108.83    7.40
  -6   3   7   71.21    6.05
  -6   4  -3  240.91    8.94
  -6   4  -2  262.65    9.59
  -6   4  -1  102.70    6.15
  -6   4   0  213.77    9.22
  -6   4   1  339.00   11.93
  -6   4   2  311.25   11.83
  -6   4   3  218.56   10.26
  -6   5  -5   54.19    4.01
  -6   5  -4   88.18    5.23
  -6   5  -3   31.94    3.28
  -6   5  -2    5.32    1.45
  -6   5  -1   12.69    2.25
  -6   5   0    0.90    1.00
  -6   5   1    0.30    0.65
  -6   5   2    1.83    1.25
  -6   6  -6    2.51    0.90
  -6   6  -5  133.64    6.06
  -6   6  -4  179.78    7.33
  -6   6  -3  111.24    6.05
  -6   6  -2  136.03    6.91
  -6   6  -1  246.37    9.73
  -5 -10  -7  104.09    6.70
  -5 -10  -6   41.37    4.46
  -5 -10  -5  266.78   12.33
  -5 -10  -5  262.21   11.54
  -5 -10  -4  157.26    8.95
  -5 -10  -3  385.65   13.47
  -5 -10  -2   93.91    6.49
  -5 -10  -1  308.29   11.22
  -5 -10   0  278.60   10.37
  -5  -9  -8  118.38    6.29
  -5  -9  -7    2.43    1.46
  -5  -9  -6    5.41    1.86
  -5  -9  -6    4.77    1.65
  -5  -9  -5    7.11    1.98
  -5  -9  -5   11.77    2.37
  -5  -9  -4   91.06    6.60
  -5  -9  -4   94.53    6.77
  -5  -9  -3  344.50   11.98
  -5  -9  -2  327.93   11.13
  -5  -9  -1   32.73    3.43
  -5  -9   0    3.44    1.23
  -5  -9   1    0.02    0.85
  -5  -9   2    0.85    0.88
  -5  -8  -9   17.84    2.04
  -5  -8  -8  283.00    9.03
  -5  -8  -7  111.76    6.18
  -5  -8  -6  127.27    8.14
  -5  -8  -6  132.18    7.07
  -5  -8  -5   71.68    5.41
  -5  -8  -5   81.09    6.23
  -5  -8  -4   60.31    5.16
  -5  -8  -4   60.76    5.05
  -5  -8  -3   61.38    4.80
  -5  -8  -3   61.56    5.32
  -5  -8  -2  559.22   13.54
  -5  -8  -2  628.79   17.65
  -5  -8  -1  379.44   10.54
  -5  -8   0  252.69    8.11
  -5  -8   1  155.10    6.18
  -5  -8   2  160.49    6.02
  -5  -8   5  239.11   10.39
  -5  -8   6  116.00    7.29
  -5  -7  -9  156.72    5.77
  -5  -7  -8  509.60   11.42
  -5  -7  -7   89.30    5.15
  -5  -7  -6  321.79   10.34
  -5  -7  -5  240.45    9.37
  -5  -7  -5  223.95    9.85
  -5  -7  -4   91.50    5.92
  -5  -7  -4   91.71    6.03
  -5  -7  -3   25.28    3.30
  -5  -7  -3   22.25    2.78
  -5  -7  -2  119.64    5.85
  -5  -7  -2  129.35    7.66
  -5  -7  -1   79.11    4.38
  -5  -7  -1   81.40    6.23
  -5  -7   0  283.41   12.00
  -5  -7   0  279.26    7.58
  -5  -7   1   44.10    2.83
  -5  -7   2   12.78    1.43
  -5  -7   5   -2.79    1.27
  -5  -7   6    3.73    1.61
  -5  -7   7   11.67    2.62
  -5  -6  -8    0.56    0.64
  -5  -6  -7  178.43    6.96
  -5  -6  -6  117.65    5.96
  -5  -6  -5   55.74    4.35
  -5  -6  -4  166.46    7.72
  -5  -6  -3  184.29    8.40
  -5  -6  -2  461.86   13.65
  -5  -6  -2  441.09   10.40
  -5  -6  -1   64.06    3.56
  -5  -6  -1   58.84    5.13
  -5  -6   0   56.77    2.93
  -5  -6   0   60.61    5.25
  -5  -6   1   83.29    3.10
  -5  -6   1   82.35    6.37
  -5  -6   2   88.39    2.87
  -5  -6   3   69.68    2.55
  -5  -6   5  188.22    9.04
  -5  -6   6  142.49    8.02
  -5  -6   6  147.52    5.47
  -5  -6   7  105.72    7.11
  -5  -6   7  101.77    5.03
  -5  -6   8  133.35    6.25
  -5  -6   8  140.39    8.44
  -5  -5  -7 1062.60   16.27
  -5  -5  -6  120.74    5.81
  -5  -5  -5   80.81    4.98
  -5  -5  -4  615.57   14.24
  -5  -5  -3   64.77    4.81
  -5  -5  -2  104.53    6.27
  -5  -5  -1   46.28    4.36
  -5  -5   0   83.72    6.00
  -5  -5   1   99.01    6.67
  -5  -5   2  207.61    9.93
  -5  -5   3   12.67    2.56
  -5  -5   5    1.85    1.16
  -5  -5   5    0.99    0.39
  -5  -5   6  197.68    5.66
  -5  -5   6  206.80    9.63
  -5  -5   7   23.51    2.30
  -5  -5   7   28.03    3.70
  -5  -5   8    9.52    1.65
  -5  -5   9    2.80    0.98
  -5  -5  10    2.89    1.18
  -5  -4  -7   57.00    3.79
  -5  -4  -6    0.29    0.82
  -5  -4  -5  258.91    8.59
  -5  -4  -4   63.10    4.44
  -5  -4  -3  111.33    6.04
  -5  -4  -2   74.86    5.13
  -5  -4  -1   95.16    5.91
  -5  -4   0    5.68    1.54
  -5  -4   1   52.93    4.68
  -5  -4   2   29.48    3.64
  -5  -4   3   60.34    5.33
  -5  -4   4  221.58   10.43
  -5  -4   5  245.24    4.43
  -5  -4   5  284.61   10.91
  -5  -4   6  292.42    6.49
  -5  -4   6  316.37   11.93
  -5  -4   7   93.62    6.72
  -5  -4   7   91.91    4.32
  -5  -4   8  197.70    7.12
  -5  -4   9  142.25    6.65
  -5  -4  10   92.19    5.81
  -5  -4  11   30.00    3.55
  -5  -3  -6  393.04   10.36
  -5  -3  -5  314.29    9.32
  -5  -3  -4  330.71    9.74
  -5  -3  -3  366.01   10.64
  -5  -3  -2  583.64   13.83
  -5  -3  -1  624.88   14.78
  -5  -3   0   11.07    2.12
  -5  -3   1  567.98   14.85
  -5  -3   2  238.27    9.87
  -5  -3   3  208.91    9.52
  -5  -3   4   81.58    5.72
  -5  -3   4   75.89    5.92
  -5  -3   5   52.10    4.63
  -5  -3   5   53.25    5.06
  -5  -3   6   28.20    3.58
  -5  -3   6   23.36    3.53
  -5  -3   6   21.86    1.79
  -5  -3   7  178.84    6.10
  -5  -3   7  186.65    9.48
  -5  -3   8  255.34    8.14
  -5  -3   9  109.25    5.91
  -5  -3  10   29.23    3.35
  -5  -3  11   30.44    3.64
  -5  -3  12    0.16    0.78
  -5  -2  -5   19.65    2.39
  -5  -2  -4   45.71    3.70
  -5  -2  -3   42.97    3.61
  -5  -2  -2  200.88    7.95
  -5  -2  -1   26.20    2.97
  -5  -2   0  573.16   14.08
  -5  -2   1    6.35    1.81
  -5  -2   2  210.48    9.05
  -5  -2   3  211.69    9.34
  -5  -2   4  439.63   13.72
  -5  -2   4  463.80   13.49
  -5  -2   5  109.50    7.08
  -5  -2   5  114.58    6.93
  -5  -2   6   66.75    5.50
  -5  -2   6   70.55    5.87
  -5  -2   7   62.46    3.70
  -5  -2   7   77.51    6.11
  -5  -2   7   67.69    5.90
  -5  -2   8   21.32    2.50
  -5  -2   9   59.43    4.41
  -5  -2  10   70.82    5.25
  -5  -2  11  157.55    8.35
  -5  -2  12   13.87    2.80
  -5  -2  13   65.77    6.15
  -5  -1  -3  141.72    6.63
  -5  -1  -2  964.93   17.22
  -5  -1  -1  917.83   17.19
  -5  -1   0 1124.17   19.38
  -5  -1   1 1278.95   21.22
  -5  -1   2  576.69   14.57
  -5  -1   3  414.80   12.30
  -5  -1   3  390.18   12.31
  -5  -1   4  194.19    8.94
  -5  -1   4  186.32    8.55
  -5  -1   5   56.39    4.93
  -5  -1   5   54.74    4.92
  -5  -1   6   52.74    4.89
  -5  -1   6   54.69    4.97
  -5  -1   7   55.90    5.21
  -5  -1   7   45.78    4.73
  -5  -1   8   94.39    6.94
  -5  -1   8   89.41    5.11
  -5  -1   9   33.37    3.46
  -5  -1  10   13.18    2.50
  -5  -1  11   75.00    5.91
  -5  -1  12   41.18    4.63
  -5  -1  13   20.46    3.52
  -5   0  -2   26.17    2.94
  -5   0  -1    1.86    0.88
  -5   0   0    2.35    0.98
  -5   0   1   29.73    3.24
  -5   0   2   10.73    2.01
  -5   0   3   32.55    3.52
  -5   0   3   33.16    3.54
  -5   0   4   15.98    2.59
  -5   0   4   17.47    2.71
  -5   0   5   66.63    5.38
  -5   0   5   62.52    5.05
  -5   0   6   62.13    5.40
  -5   0   6   64.89    5.32
  -5   0   7   93.40    6.55
  -5   0   8    2.50    1.23
  -5   0   9   63.72    5.74
  -5   0  11   19.40    3.08
  -5   0  12   63.63    5.88
  -5   0  13   25.12    3.94
  -5   0  14   95.21    7.91
  -5   1   0  390.97   11.64
  -5   1   1  165.71    7.59
  -5   1   2  670.36   15.31
  -5   1   2  645.96   15.12
  -5   1   3   90.39    5.72
  -5   1   3   99.43    6.12
  -5   1   4  166.72    8.10
  -5   1   4  195.01    8.93
  -5   1   5  292.58   10.82
  -5   1   5  298.94   11.46
  -5   1   6  172.08    9.07
  -5   1   6  162.90    8.31
  -5   1   7  251.24   10.47
  -5   1   8   88.01    6.35
  -5   1   9  210.90   10.03
  -5   1  10  129.06    8.09
  -5   2   1  134.81    6.69
  -5   2   2   95.09    5.81
  -5   2   2   86.63    5.67
  -5   2   3  108.71    6.52
  -5   2   3  104.91    6.40
  -5   2   4    1.31    1.03
  -5   2   4   -0.04    0.78
  -5   2   5   37.48    3.87
  -5   2   5   40.79    4.30
  -5   2   6    0.75    0.82
  -5   2   7    2.34    1.17
  -5   2   8   21.66    3.15
  -5   2   9    9.21    2.34
  -5   2  10    2.41    1.13
  -5   2  11   14.30    2.87
  -5   3  -1  178.43    7.24
  -5   3   0  259.31    8.97
  -5   3   1  183.24    7.90
  -5   3   2   35.16    3.67
  -5   3   3  289.11   10.77
  -5   3   4  251.93   10.44
  -5   3   4  249.97   10.07
  -5   3   5   82.82    5.88
  -5   3   6  159.81    8.32
  -5   3   7  382.86   12.79
  -5   3   8  343.69   12.29
  -5   3   9  142.07    8.02
  -5   3  10  134.10    7.91
  -5   3  11   57.90    5.44
  -5   4  -3   58.08    3.90
  -5   4  -2   27.57    2.77
  -5   4  -1    1.52    0.82
  -5   4   0    3.53    1.17
  -5   4   1  130.00    6.80
  -5   4   2   90.20    5.89
  -5   4   3  247.24   10.11
  -5   4  10    3.25    1.62
  -5   4  11    6.76    2.05
  -5   5  -5   88.33    4.40
  -5   5  -4   40.13    3.08
  -5   5  -3  113.62    5.44
  -5   5  -2   49.49    3.73
  -5   5  -1  117.30    6.00
  -5   5   0  276.95    9.63
  -5   5   1  179.42    8.13
  -5   6  -7  359.49    6.84
  -5   6  -6  240.59    6.24
  -5   6  -5  191.65    6.05
  -5   6  -4  234.19    7.21
  -5   6  -3   89.67    4.77
  -4 -11  -6   88.83    6.68
  -4 -11  -2   85.83    6.90
  -4 -11  -1  161.95    9.09
  -4 -11   0  147.92    8.61
  -4 -10  -8  404.46   11.56
  -4 -10  -7   33.12    3.71
  -4 -10  -6  214.72    9.63
  -4 -10  -5  153.21    8.54
  -4 -10  -4  290.62   12.33
  -4 -10  -4  289.46   12.16
  -4 -10  -3  147.26    8.52
  -4 -10  -2   24.58    3.51
  -4 -10  -1  153.03    8.33
  -4 -10   0   56.90    5.12
  -4  -9  -9   28.87    2.50
  -4  -9  -8   86.72    4.95
  -4  -9  -7   24.26    2.91
  -4  -9  -6   60.52    4.85
  -4  -9  -6   60.87    5.95
  -4  -9  -5   21.20    3.32
  -4  -9  -5   20.00    2.99
  -4  -9  -4    7.00    2.03
  -4  -9  -4    6.76    1.77
  -4  -9  -3   14.48    2.56
  -4  -9  -3   20.63    3.24
  -4  -9  -2   78.87    5.70
  -4  -9  -2   87.68    6.83
  -4  -9  -1  113.50    6.63
  -4  -9   0   32.78    3.51
  -4  -9   5  243.00    9.46
  -4  -8  -9  547.78    9.52
  -4  -8  -8   14.37    1.86
  -4  -8  -7  516.34   12.04
  -4  -8  -7  517.24   17.11
  -4  -8  -6  289.94   12.16
  -4  -8  -6  274.60    9.42
  -4  -8  -5  320.27   12.24
  -4  -8  -5  315.97   10.61
  -4  -8  -4  397.85   12.92
  -4  -8  -4  387.08   12.44
  -4  -8  -3  602.09   15.19
  -4  -8  -3  597.77   15.90
  -4  -8  -2   69.61    5.68
  -4  -8  -2   70.40    5.03
  -4  -8  -1  167.84    7.42
  -4  -8  -1  160.00    8.89
  -4  -8   0   24.79    3.76
  -4  -8   0   25.77    2.82
  -4  -8   5    2.66    1.23
  -4  -8   6   21.80    3.01
  -4  -7  -9   68.91    3.02
  -4  -7  -8  257.91    7.03
  -4  -7  -7   28.92    3.98
  -4  -7  -7   23.49    2.43
  -4  -7  -6   25.88    3.57
  -4  -7  -6   27.33    2.82
  -4  -7  -5   36.19    3.95
  -4  -7  -5   33.24    3.19
  -4  -7  -4   93.03    5.94
  -4  -7  -4   91.12    5.57
  -4  -7  -3    6.56    1.69
  -4  -7  -3    7.18    1.60
  -4  -7  -2  252.41    8.69
  -4  -7  -2  264.28   10.34
  -4  -7  -1   59.32    3.97
  -4  -7  -1   61.85    5.21
  -4  -7   0   28.03    2.65
  -4  -7   0   35.48    4.08
  -4  -7   1  257.69   11.42
  -4  -7   5   47.65    4.20
  -4  -7   6  167.12    7.99
  -4  -7   7   49.04    4.45
  -4  -6  -8  193.36    5.60
  -4  -6  -7  201.37    6.43
  -4  -6  -6  254.63   10.61
  -4  -6  -6  254.67    7.84
  -4  -6  -5  145.36    6.30
  -4  -6  -5  137.91    7.46
  -4  -6  -4  310.79   10.29
  -4  -6  -4  318.34    9.74
  -4  -6  -3  247.68    8.99
  -4  -6  -3  246.25    8.56
  -4  -6  -2  194.84    7.00
  -4  -6  -2  198.52    8.47
  -4  -6  -1  449.48   13.13
  -4  -6  -1  455.46   10.00
  -4  -6   0  306.34    7.64
  -4  -6   0  285.52   10.83
  -4  -6   1  280.60    7.01
  -4  -6   1  297.76   11.48
  -4  -6   2  481.03   15.14
  -4  -6   3  430.13   14.75
  -4  -6   5  264.85    9.71
  -4  -6   6  153.24    7.62
  -4  -6   7  171.88    8.25
  -4  -6  10   37.64    4.34
  -4  -6  11   41.32    4.80
  -4  -5  -7   20.82    1.96
  -4  -5  -6    0.17    0.51
  -4  -5  -5  134.70    5.70
  -4  -5  -4    9.69    1.63
  -4  -5  -4    6.93    1.55
  -4  -5  -3    8.62    1.57
  -4  -5  -3   10.88    1.74
  -4  -5  -2    9.75    1.85
  -4  -5  -2   11.07    1.55
  -4  -5  -1   13.64    1.56
  -4  -5  -1   12.55    2.17
  -4  -5   0  324.80   10.96
  -4  -5   0  324.41    6.71
  -4  -5   1    1.47    0.48
  -4  -5   1    0.95    0.91
  -4  -5   2   44.67    4.40
  -4  -5   3   37.01    4.15
  -4  -5   4   13.09    2.57
  -4  -5   5   35.32    4.38
  -4  -5   5   32.72    3.41
  -4  -5   6   54.83    4.60
  -4  -5   7   76.12    5.52
  -4  -5   8  149.17    7.27
  -4  -5   9   24.77    3.13
  -4  -5  10  133.14    7.81
  -4  -5  11  205.27   10.24
  -4  -5  12   85.33    7.03
  -4  -4  -6  502.74    9.81
  -4  -4  -5  790.31   13.01
  -4  -4  -4  934.53   14.96
  -4  -4  -3  264.60    8.31
  -4  -4  -2  264.63    8.66
  -4  -4  -1 1159.88   18.84
  -4  -4   0   74.14    2.67
  -4  -4   0   71.54    4.85
  -4  -4   1  673.55    6.07
  -4  -4   1  669.86   15.34
  -4  -4   2  206.59    8.91
  -4  -4   3  172.47    8.41
  -4  -4   4  304.85   11.63
  -4  -4   5  492.10   15.32
  -4  -4   5  506.43    9.30
  -4  -4   5  537.52   13.60
  -4  -4   6  299.46   10.66
  -4  -4   6  293.96   12.20
  -4  -4   6  301.13    8.15
  -4  -4   7  231.79    9.64
  -4  -4   7  228.89    7.92
  -4  -4   8  316.60   10.15
  -4  -4   9  224.46    9.19
  -4  -4  10   26.69    3.48
  -4  -4  11   13.66    2.62
  -4  -4  12   58.71    5.72
  -4  -4  13   27.90    4.27
  -4  -3  -6   59.06    3.43
  -4  -3  -5  126.23    5.04
  -4  -3  -4  355.71    8.84
  -4  -3  -3  147.03    5.96
  -4  -3  -2   16.12    2.08
  -4  -3  -1   36.91    3.23
  -4  -3   0  162.44    6.99
  -4  -3   1   21.22    2.65
  -4  -3   2    3.23    1.13
  -4  -3   3   77.53    5.40
  -4  -3   4   28.01    1.60
  -4  -3   4   31.07    3.54
  -4  -3   4   30.56    3.17
  -4  -3   5    7.58    1.94
  -4  -3   5    7.02    1.03
  -4  -3   5    8.19    1.68
  -4  -3   6    3.56    1.37
  -4  -3   6    3.49    1.41
  -4  -3   6    3.25    0.89
  -4  -3   7   13.02    1.85
  -4  -3   7   14.39    2.51
  -4  -3   7   12.19    2.43
  -4  -3   8   98.03    5.47
  -4  -3   9   12.99    2.14
  -4  -3  10   50.29    4.62
  -4  -3  11    8.85    2.12
  -4  -3  12   40.33    4.72
  -4  -3  13   47.19    5.41
  -4  -3  14   58.53    6.30
  -4  -2  -4  693.18   12.33
  -4  -2  -3 1706.10   19.84
  -4  -2  -2  731.65   13.35
  -4  -2  -1  119.24    5.61
  -4  -2   0  630.97   13.29
  -4  -2   1  577.85   13.08
  -4  -2   2  287.35    9.56
  -4  -2   3  509.78   13.13
  -4  -2   4   94.03    5.52
  -4  -2   4   89.22    5.69
  -4  -2   4   83.29    2.82
  -4  -2   5  146.51    7.16
  -4  -2   5  133.10    7.20
  -4  -2   5  131.04    4.43
  -4  -2   6  354.90   12.14
  -4  -2   6  348.02    8.32
  -4  -2   6  380.97   12.10
  -4  -2   7  519.29   11.30
  -4  -2   7  549.21   15.26
  -4  -2   7  518.48   15.15
  -4  -2   8  177.68    9.19
  -4  -2   8  180.20    7.36
  -4  -2   9   46.72    4.81
  -4  -2   9   51.29    4.28
  -4  -2  10   45.92    4.42
  -4  -2  11  133.07    7.93
  -4  -2  12   11.54    2.53
  -4  -2  13  127.09    8.70
  -4  -2  14   89.08    7.76
  -4  -1  -3  368.76    9.25
  -4  -1  -2   87.15    4.52
  -4  -1  -1  137.68    5.91
  -4  -1   0   39.85    3.28
  -4  -1   1   40.29    3.38
  -4  -1   2    2.99    1.02
  -4  -1   3   56.00    4.25
  -4  -1   3   52.18    3.97
  -4  -1   4   31.98    3.33
  -4  -1   4   36.23    3.47
  -4  -1   5    4.23    1.46
  -4  -1   5    5.99    1.70
  -4  -1   5    3.66    0.77
  -4  -1   6   13.31    1.76
  -4  -1   6   14.79    2.42
  -4  -1   6    9.78    1.91
  -4  -1   7   63.85    4.10
  -4  -1   7   63.29    5.13
  -4  -1   8    0.49    0.63
  -4  -1   8    0.77    0.87
  -4  -1   9   15.65    2.66
  -4  -1   9   13.72    2.30
  -4  -1  10    2.51    1.12
  -4  -1  10    2.56    1.21
  -4  -1  11    5.31    1.77
  -4  -1  12    0.19    0.75
  -4  -1  13   11.22    2.80
  -4  -1  14   19.14    3.68
  -4  -1  15   21.87    4.18
  -4   0  -2   78.02    4.44
  -4   0  -1   64.21    4.08
  -4   0   0  291.09    8.66
  -4   0   1  604.26   12.89
  -4   0   2  539.57   12.41
  -4   0   3  828.16   15.78
  -4   0   3  787.56   15.49
  -4   0   4  232.19    8.65
  -4   0   4  219.48    8.59
  -4   0   5   94.00    5.73
  -4   0   5   99.02    6.03
  -4   0   6  215.18    8.87
  -4   0   6  206.40    9.19
  -4   0   7  153.16    7.67
  -4   0   7  147.52    6.46
  -4   0   8  298.77    9.92
  -4   0   8  291.89   10.92
  -4   0   9  176.15    8.77
  -4   0   9  179.44    8.26
  -4   0  10   85.32    6.10
  -4   0  10   97.32    6.69
  -4   0  11  202.22    9.98
  -4   0  11  192.02    9.66
  -4   0  12   76.47    6.54
  -4   0  13   90.67    7.51
  -4   0  14   54.72    6.17
  -4   0  15   46.65    6.01
  -4   0  16   63.38    7.27
  -4   1   0  255.43    8.36
  -4   1   1  667.95   13.58
  -4   1   2  245.80    8.32
  -4   1   2  226.68    7.97
  -4   1   3   17.33    2.36
  -4   1   3   13.56    2.05
  -4   1   4  192.87    8.12
  -4   1   4  180.54    7.44
  -4   1   5    3.28    1.38
  -4   1   5    2.61    1.08
  -4   1   6    0.31    0.58
  -4   1   7  164.01    7.75
  -4   1   8   31.25    3.57
  -4   1   8   26.98    3.12
  -4   1   9   60.08    5.02
  -4   1   9   56.90    4.78
  -4   1  10    5.16    1.65
  -4   1  10    1.78    1.07
  -4   1  11   13.58    2.65
  -4   1  11   17.93    2.88
  -4   1  12    1.21    0.94
  -4   1  12    2.55    1.07
  -4   1  13   10.09    2.55
  -4   1  14   -0.30    1.62
  -4   1  15    1.90    2.31
  -4   1  16   14.52    3.78
  -4   1  17   12.81    3.79
  -4   2   1  209.08    7.42
  -4   2   2   49.40    3.85
  -4   2   2   44.89    3.64
  -4   2   3   30.43    3.14
  -4   2   3   28.90    2.95
  -4   2   4  526.69   12.72
  -4   2   4  548.87   13.98
  -4   2   5  730.21   15.16
  -4   2   6  357.13   10.97
  -4   2   7  320.77   10.57
  -4   2   8  318.64   10.77
  -4   2   9  106.47    6.57
  -4   2  10   69.08    5.37
  -4   2  11   76.43    5.82
  -4   2  11   90.97    7.02
  -4   2  12   85.79    7.21
  -4   2  12   94.65    6.56
  -4   2  13  103.87    8.28
  -4   2  14   75.22    7.46
  -4   2  15   32.99    5.27
  -4   2  16   27.51    4.91
  -4   2  17   43.92    6.52
  -4   3  -1  409.57    9.64
  -4   3   0  480.33   10.90
  -4   3   1  282.94    8.85
  -4   3   2  144.71    6.66
  -4   3   3  109.33    6.12
  -4   3   4   60.93    4.41
  -4   3   5  154.39    7.08
  -4   3   6  536.44   13.38
  -4   3   7  140.93    6.98
  -4   3   8  140.82    7.10
  -4   3   9   47.55    4.20
  -4   3  10    1.02    1.04
  -4   3  11    0.71    1.25
  -4   3  12    0.95    1.12
  -4   4  -3    2.55    0.73
  -4   4  -2   64.39    3.66
  -4   4  -1   73.36    4.13
  -4   4   0   23.17    2.47
  -4   4   1  426.90   11.08
  -4   4  10  106.64    6.38
  -4   4  11   74.91    5.50
  -4   5  -6  360.24    6.83
  -4   5  -5  240.69    5.83
  -4   5  -4  378.50    7.91
  -4   5  -3   63.32    3.44
  -4   5  -2   96.96    4.51
  -4   5  -1  312.08    8.65
  -3 -11  -7  169.99    8.51
  -3 -11  -6   73.11    5.97
  -3 -11  -5   17.37    3.13
  -3 -10  -8    9.56    1.80
  -3 -10  -7    1.80    1.02
  -3 -10  -6   13.28    2.45
  -3 -10  -5    5.36    1.55
  -3 -10  -4   65.99    5.71
  -3 -10  -3    3.65    1.41
  -3 -10  -3    2.04    1.28
  -3 -10  -2   15.49    2.79
  -3 -10  -1   46.87    4.83
  -3  -9  -9  228.23    6.29
  -3  -9  -8  115.94    5.32
  -3  -9  -7  267.42    8.98
  -3  -9  -6  576.91   14.13
  -3  -9  -5  537.19   14.44
  -3  -9  -5  526.08   16.56
  -3  -9  -4  284.50   10.97
  -3  -9  -4  270.93   11.47
  -3  -9  -3  146.34    8.29
  -3  -9  -3  153.82    8.42
  -3  -9  -2   15.02    2.74
  -3  -9  -2   13.54    2.42
  -3  -9  -1  221.71    9.64
  -3  -9  -1  234.49   11.12
  -3  -9   5   42.10    3.41
  -3  -8  -9  250.23    5.15
  -3  -8  -8   73.49    3.73
  -3  -8  -7   45.24    5.13
  -3  -8  -7   35.29    2.94
  -3  -8  -6   32.62    3.14
  -3  -8  -6   31.15    4.01
  -3  -8  -5   14.48    2.27
  -3  -8  -5   18.49    3.07
  -3  -8  -4   31.25    3.46
  -3  -8  -4   31.85    3.75
  -3  -8  -3   25.65    3.26
  -3  -8  -3   23.92    3.18
  -3  -8  -2    6.37    1.76
  -3  -8  -2    2.87    1.49
  -3  -8  -1    0.69    0.85
  -3  -8  -1    2.69    1.30
  -3  -8   0    2.01    1.17
  -3  -8   1    1.30    0.91
  -3  -8   5   33.05    3.06
  -3  -8   6   15.12    2.13
  -3  -7  -8  618.88    9.10
  -3  -7  -8  631.76   19.11
  -3  -7  -7  339.05   13.33
  -3  -7  -7  342.68    8.09
  -3  -7  -6   59.74    3.76
  -3  -7  -6   54.90    5.14
  -3  -7  -5  476.28   14.19
  -3  -7  -5  462.25   11.20
  -3  -7  -4  288.61    9.42
  -3  -7  -4  289.80   10.52
  -3  -7  -3  511.34   13.24
  -3  -7  -3  502.01   13.17
  -3  -7  -2  165.28    7.85
  -3  -7  -2  163.59    7.28
  -3  -7  -1  314.29   11.31
  -3  -7  -1  301.63    9.47
  -3  -7   0  145.98    8.05
  -3  -7   1  523.82   15.58
  -3  -7   2  164.41    9.17
  -3  -7   3  703.18   19.49
  -3  -7   5  210.77    7.68
  -3  -7   6  163.76    6.96
  -3  -6  -8   93.78    2.86
  -3  -6  -8   94.53    7.22
  -3  -6  -7  278.26   11.69
  -3  -6  -7  272.92    6.33
  -3  -6  -6  107.47    4.49
  -3  -6  -6  102.05    6.74
  -3  -6  -5  185.80    8.46
  -3  -6  -5  184.78    6.36
  -3  -6  -4  137.97    5.95
  -3  -6  -4  132.35    6.69
  -3  -6  -3  312.55    9.42
  -3  -6  -3  298.52    9.45
  -3  -6  -2   31.13    3.18
  -3  -6  -2   33.75    3.02
  -3  -6  -1  127.99    5.52
  -3  -6  -1  123.47    6.61
  -3  -6   0   10.64    2.15
  -3  -6   1    2.72    1.37
  -3  -6   2   77.98    5.90
  -3  -6   3   35.27    4.10
  -3  -6   4   30.14    3.98
  -3  -6   5    4.32    1.14
  -3  -6   6    5.32    1.34
  -3  -6   7    0.43    0.77
  -3  -6  12    2.46    1.91
  -3  -5  -7  120.55    3.61
  -3  -5  -6  194.67    5.41
  -3  -5  -6  194.72    8.95
  -3  -5  -5  134.96    4.98
  -3  -5  -5  134.06    6.90
  -3  -5  -4   21.42    2.14
  -3  -5  -4   23.84    2.72
  -3  -5  -3  118.47    5.33
  -3  -5  -3  117.88    5.51
  -3  -5  -2  799.60   14.59
  -3  -5  -2  796.24   13.29
  -3  -5  -1   38.88    2.75
  -3  -5  -1   41.40    3.57
  -3  -5   0  477.32    8.99
  -3  -5   0  469.63   12.41
  -3  -5   1  577.91   14.33
  -3  -5   2  888.10   18.45
  -3  -5   3  728.85   17.59
  -3  -5   4  387.73   13.39
  -3  -5   5   37.59    4.26
  -3  -5   5   34.37    3.12
  -3  -5   6    9.13    1.75
  -3  -5   6    9.78    2.38
  -3  -5  11  206.35   10.95
  -3  -5  12   16.69    3.28
  -3  -5  13   33.72    4.92
  -3  -4  -6   44.24    2.35
  -3  -4  -5  608.88    9.64
  -3  -4  -4 1839.11   22.84
  -3  -4  -4 1840.97   18.13
  -3  -4  -3  911.46   14.51
  -3  -4  -3  904.37   13.54
  -3  -4  -2 1494.62   18.30
  -3  -4  -2 1487.20   16.55
  -3  -4  -1    7.56    1.40
  -3  -4  -1    9.26    1.19
  -3  -4   0  351.75    9.93
  -3  -4   0  356.22    6.52
  -3  -4   1  154.63    6.96
  -3  -4   2  220.99    8.69
  -3  -4   3   20.98    2.86
  -3  -4   4    9.01    1.59
  -3  -4   4    7.13    1.87
  -3  -4   5    7.35    1.52
  -3  -4   5    2.36    1.37
  -3  -4   6    5.07    1.34
  -3  -4   6    5.58    1.88
  -3  -4   7   32.73    4.06
  -3  -4   9   33.07    3.77
  -3  -4  10   86.83    6.57
  -3  -4  11    0.99    0.75
  -3  -4  12   -0.47    0.89
  -3  -4  13   11.88    2.91
  -3  -4  14    6.57    2.03
  -3  -3  -5  166.09    4.73
  -3  -3  -4    1.27    0.46
  -3  -3  -3   34.92    2.50
  -3  -3  -2   25.33    2.25
  -3  -3  -1   25.04    1.74
  -3  -3  -1   24.93    2.37
  -3  -3   0  259.68    4.39
  -3  -3   0  256.02    7.88
  -3  -3   1  403.86   10.42
  -3  -3   1  445.93    4.61
  -3  -3   2  421.51   11.17
  -3  -3   3  584.30   13.66
  -3  -3   4  621.27   12.63
  -3  -3   4  612.86   14.51
  -3  -3   5  562.95   12.67
  -3  -3   5  504.81   13.97
  -3  -3   6  328.10   10.11
  -3  -3   6  296.85   11.03
  -3  -3   7  393.23   10.88
  -3  -3   7  376.89   12.90
  -3  -3   8  245.99   10.82
  -3  -3   8  249.93    9.42
  -3  -3   9   74.13    5.52
  -3  -3   9   75.21    6.28
  -3  -3  10   74.72    5.89
  -3  -3  11  127.37    8.11
  -3  -3  12  184.18   10.42
  -3  -3  13   92.64    7.74
  -3  -3  14   81.71    7.65
  -3  -3  15   49.04    6.47
  -3  -2  -4 1000.42   12.24
  -3  -2  -3  240.25    6.23
  -3  -2  -2  182.92    5.71
  -3  -2  -1   10.61    1.48
  -3  -2   0   34.46    2.75
  -3  -2   1   70.24    4.07
  -3  -2   2  245.44    7.91
  -3  -2   3  361.89   10.02
  -3  -2   3  367.96    5.32
  -3  -2   4  361.72    9.62
  -3  -2   4  349.74   10.36
  -3  -2   4  352.63    6.74
  -3  -2   5  344.47    9.98
  -3  -2   5  334.62    7.74
  -3  -2   5  346.86   10.80
  -3  -2   6    6.42    1.23
  -3  -2   6    8.42    1.79
  -3  -2   6    6.38    1.60
  -3  -2   7  281.53   10.51
  -3  -2   7  270.18    8.78
  -3  -2   8   69.73    5.47
  -3  -2   8   62.54    4.63
  -3  -2   9    0.47    0.58
  -3  -2   9    2.20    1.10
  -3  -2  10   23.83    3.40
  -3  -2  10   24.44    3.35
  -3  -2  11   -0.04    0.64
  -3  -2  12   37.05    4.59
  -3  -2  13   17.10    3.37
  -3  -2  14    0.52    1.53
  -3  -2  15    0.65    1.82
  -3  -2  16   -1.12    2.29
  -3  -1  -3  471.45    8.90
  -3  -1  -2  233.67    6.32
  -3  -1  -1  222.17    6.42
  -3  -1   0   56.17    3.36
  -3  -1   1  642.11   11.80
  -3  -1   2   53.11    3.53
  -3  -1   3  209.70    7.27
  -3  -1   3  212.32    4.34
  -3  -1   3  217.97    7.20
  -3  -1   4  147.29    6.26
  -3  -1   4  143.62    6.26
  -3  -1   4  144.30    4.38
  -3  -1   5   31.40    3.05
  -3  -1   5   34.67    3.22
  -3  -1   5   33.22    2.44
  -3  -1   6  319.43    8.61
  -3  -1   6  319.72   10.17
  -3  -1   7   15.47    2.41
  -3  -1   7   15.81    2.13
  -3  -1   8  186.21    7.86
  -3  -1   8  180.61    8.32
  -3  -1   9  325.92   11.54
  -3  -1   9  318.04   11.13
  -3  -1  10   95.07    6.44
  -3  -1  10   88.85    6.32
  -3  -1  11   71.83    5.85
  -3  -1  11   84.45    6.54
  -3  -1  12   84.27    6.52
  -3  -1  12   76.44    6.62
  -3  -1  13  100.14    7.94
  -3  -1  14  160.82   10.56
  -3  -1  15   76.04    7.68
  -3  -1  16   62.23    7.27
  -3  -1  17   66.79    7.90
  -3   0  -2  110.87    4.53
  -3   0  -1  120.89    4.74
  -3   0   0   80.53    3.95
  -3   0   1  231.52    6.88
  -3   0   2 1018.66   14.90
  -3   0   2 1019.87   14.85
  -3   0   3 1240.02   17.06
  -3   0   3 1281.16   17.54
  -3   0   4  587.79   12.16
  -3   0   4  580.28   12.62
  -3   0   4  582.85    9.61
  -3   0   5  387.03   10.25
  -3   0   5  415.30   11.35
  -3   0   5  389.93    8.82
  -3   0   6  260.04    8.04
  -3   0   6  264.14    8.83
  -3   0   7   46.14    3.85
  -3   0   7   43.85    3.61
  -3   0   8   22.04    2.84
  -3   0   8   20.44    2.67
  -3   0   9   26.97    3.29
  -3   0   9   34.20    3.58
  -3   0  10  144.79    7.57
  -3   0  10  154.42    8.31
  -3   0  11   46.32    4.88
  -3   0  11   51.72    4.67
  -3   0  12   32.45    3.92
  -3   0  12   32.30    4.29
  -3   0  13   44.66    5.38
  -3   0  14    9.01    2.64
  -3   0  15    2.95    2.35
  -3   0  16    0.75    1.56
  -3   0  17   10.51    3.50
  -3   1   0   18.85    1.99
  -3   1   1   52.79    3.31
  -3   1   1   47.88    3.06
  -3   1   2   12.66    1.66
  -3   1   2   13.35    1.77
  -3   1   3  666.22   12.99
  -3   1   3  666.42   12.35
  -3   1   4  234.66    8.17
  -3   1   4  235.04    7.51
  -3   1   5    1.15    0.64
  -3   1   6   25.70    2.70
  -3   1   6   29.06    2.82
  -3   1   7  149.93    6.63
  -3   1   7  148.09    6.80
  -3   1   8   30.10    3.34
  -3   1   8   35.69    3.41
  -3   1   9  190.31    8.00
  -3   1   9  204.14    9.19
  -3   1  10  150.05    8.35
  -3   1  10  164.73    7.69
  -3   1  11  105.25    6.41
  -3   1  11  114.70    7.77
  -3   1  12   45.76    5.19
  -3   1  12   39.45    4.16
  -3   1  13   46.28    5.55
  -3   1  14  151.86   10.49
  -3   1  15   48.99    6.33
  -3   1  16   46.00    6.46
  -3   1  17   33.81    5.82
  -3   2   0  693.06   11.12
  -3   2   1  320.17    8.09
  -3   2   2 1033.92   15.51
  -3   2   2 1039.29   15.40
  -3   2   3  884.99   15.40
  -3   2   3  886.50   14.20
  -3   2   4  831.83   13.87
  -3   2   5   53.28    3.66
  -3   2   6  245.14    8.08
  -3   2   7  141.75    6.24
  -3   2   7  150.59    7.19
  -3   2   8  223.94    8.15
  -3   2   8  234.62    9.56
  -3   2   9  153.45    8.16
  -3   2   9  146.71    6.78
  -3   2  10   46.69    3.97
  -3   2  10   45.41    4.75
  -3   2  11   35.78    4.42
  -3   2  11   35.56    3.62
  -3   2  12   54.05    4.49
  -3   2  12   52.41    5.55
  -3   2  13   13.40    3.26
  -3   2  14   56.44    6.50
  -3   2  15    2.12    1.76
  -3   2  16    7.29    2.65
  -3   2  17   34.94    5.96
  -3   3  -1  186.89    5.53
  -3   3   0  331.44    7.93
  -3   3   1   10.50    1.57
  -3   3   2   61.52    3.91
  -3   3   5   78.57    4.48
  -3   3   6    6.96    1.39
  -3   3   7   10.66    1.72
  -3   3   8    6.28    1.41
  -3   3   9   19.75    3.10
  -3   3   9   24.97    2.76
  -3   3  10   50.82    3.95
  -3   3  10   58.74    5.47
  -3   3  11   32.68    3.24
  -3   3  11   33.22    4.40
  -3   3  12  125.02    6.38
  -3   3  12  129.28    8.99
  -3   3  13  106.53    8.59
  -3   3  14   13.71    3.36
  -3   3  15   39.45    5.84
  -3   3  16   34.03    5.71
  -3   3  17   14.88    4.04
  -3   4  -3  245.73    5.48
  -3   4  -2  563.94    9.07
  -3   4  -1  476.44    9.01
  -3   4   0 1427.45   16.97
  -3   4  13   44.62    5.77
  -3   4  14   25.64    4.76
  -3   4  15   47.59    6.48
  -3   4  16   23.14    4.85
  -3   5 -10  273.63    5.45
  -3   5  -9    6.54    0.75
  -3   5  -8  290.18    4.13
  -3   5  -5  146.23    2.79
  -3   5   8   11.56    2.24
  -3   5   9   26.78    3.28
  -3   5  10    5.30    1.59
  -3   5  11    1.89    0.81
  -3   6   8  245.05   10.51
  -3   6   9  191.58    9.39
  -3   6  10  184.21    9.33
  -3   6  11  102.86    7.07
  -3   6  12  125.30    7.84
  -3   7   8   -0.07    1.15
  -3   7   9    8.47    2.37
  -3   7  10    0.24    1.30
  -3   7  11    1.58    0.96
  -3   7  12    0.23    1.00
  -3   8   9   72.00    6.71
  -3   8  10  135.95    9.20
  -3   8  11   10.65    2.82
  -3   8  12   65.77    6.63
  -2 -11  -7   55.43    4.89
  -2 -11  -6   74.08    5.96
  -2 -11  -5   65.15    5.78
  -2 -10  -8   72.26    4.69
  -2 -10  -7   75.07    5.21
  -2 -10  -6   54.42    4.74
  -2 -10  -5   58.38    5.16
  -2 -10  -4  297.45   11.96
  -2 -10  -3  267.39   11.70
  -2 -10  -2  291.27   12.45
  -2  -9  -9  320.81    7.01
  -2  -9  -8   45.08    3.26
  -2  -9  -7  135.79    6.28
  -2  -9  -6  302.01   10.10
  -2  -9  -5  112.15    7.77
  -2  -9  -5  108.33    6.41
  -2  -9  -4  388.31   14.07
  -2  -9  -4  375.02   12.53
  -2  -9  -3   46.25    4.74
  -2  -9  -3   52.09    4.87
  -2  -9  -2   25.56    3.51
  -2  -9  -2   27.68    3.64
  -2  -9  -1  134.45    8.80
  -2  -9  -1  131.62    8.31
  -2  -9   0   17.66    3.17
  -2  -9   1   14.49    2.84
  -2  -9   2  107.08    7.57
  -2  -9   3    4.68    1.51
  -2  -9   4   79.00    6.36
  -2  -9   5    0.21    1.19
  -2  -9   5    0.55    0.56
  -2  -9   6    1.22    1.26
  -2  -8  -9   40.13    1.67
  -2  -8  -8   46.04    2.75
  -2  -8  -7  116.96    5.14
  -2  -8  -6   98.20    5.18
  -2  -8  -6   97.16    7.09
  -2  -8  -5  180.74    7.53
  -2  -8  -5  200.88    9.77
  -2  -8  -4  210.01    8.59
  -2  -8  -4  214.70    9.87
  -2  -8  -3   24.37    3.11
  -2  -8  -3   24.00    3.22
  -2  -8  -2  126.36    7.11
  -2  -8  -2  116.50    7.01
  -2  -8  -1  108.69    7.41
  -2  -8  -1   84.72    6.16
  -2  -8   0   18.99    3.02
  -2  -8   0   20.41    3.22
  -2  -8   1  106.50    7.32
  -2  -8   1   99.37    6.93
  -2  -8   2  294.44   11.60
  -2  -8   3   51.44    4.84
  -2  -8   4  167.51    8.61
  -2  -8   5  183.92    8.81
  -2  -8   5  195.48    6.06
  -2  -8   6  409.45   12.95
  -2  -8   7  257.68   10.14
  -2  -7  -8  422.65    6.36
  -2  -7  -7  192.35   10.00
  -2  -7  -7  187.12    5.55
  -2  -7  -6  411.40    9.33
  -2  -7  -6  412.23   13.97
  -2  -7  -5  177.24    6.65
  -2  -7  -5  188.68    9.02
  -2  -7  -4  291.26   10.75
  -2  -7  -4  309.59    9.38
  -2  -7  -3   37.40    3.77
  -2  -7  -3   42.52    3.70
  -2  -7  -2  539.67   13.97
  -2  -7  -2  511.62   13.30
  -2  -7  -1    1.69    1.13
  -2  -7  -1    2.12    1.23
  -2  -7   0   41.54    4.17
  -2  -7   0   36.71    4.06
  -2  -7   1  212.90    9.69
  -2  -7   1  212.91    9.20
  -2  -7   2   98.26    6.14
  -2  -7   2  107.98    7.46
  -2  -7   3  300.36   12.57
  -2  -7   3  301.12   10.61
  -2  -7   4  121.46    6.70
  -2  -7   5  108.80    6.25
  -2  -7   5  112.10    4.74
  -2  -7   6   61.76    4.64
  -2  -7   7    3.40    1.42
  -2  -7   8   53.72    4.10
  -2  -6  -8   19.42    3.29
  -2  -6  -7   14.19    2.68
  -2  -6  -7   14.27    1.23
  -2  -6  -6   15.89    1.57
  -2  -6  -6   16.26    2.70
  -2  -6  -5  120.50    4.83
  -2  -6  -5  127.53    7.05
  -2  -6  -4   10.40    1.97
  -2  -6  -4    6.50    1.31
  -2  -6  -3    7.07    1.58
  -2  -6  -3    6.27    1.32
  -2  -6  -2  428.22   11.20
  -2  -6  -2  439.70   11.23
  -2  -6  -1   16.18    2.40
  -2  -6   0  383.74   11.64
  -2  -6   0  394.48   11.80
  -2  -6   1  474.99   13.68
  -2  -6   1  469.65   12.49
  -2  -6   2  168.62    7.48
  -2  -6   2  173.86    8.75
  -2  -6   3  106.76    7.21
  -2  -6   3  111.80    5.86
  -2  -6   4  144.67    6.63
  -2  -6   4  156.72    8.72
  -2  -6   5  119.20    4.98
  -2  -6   5  125.48    8.06
  -2  -6   5  114.39    5.71
  -2  -6   6   59.04    4.03
  -2  -6   7  117.80    5.55
  -2  -6   8  443.87   10.38
  -2  -6   9  303.77    8.12
  -2  -6  14   63.11    7.53
  -2  -5  -8  364.96   13.91
  -2  -5  -7  243.46   10.51
  -2  -5  -6  201.24    8.92
  -2  -5  -6  197.41    4.44
  -2  -5  -5  389.41   11.58
  -2  -5  -5  367.37    7.21
  -2  -5  -4  618.99   13.76
  -2  -5  -4  586.75   10.17
  -2  -5  -3  401.39   10.35
  -2  -5  -3  390.38    8.96
  -2  -5  -2  250.80    7.76
  -2  -5  -2  249.41    7.70
  -2  -5  -1  904.41   15.58
  -2  -5   0  760.70   15.05
  -2  -5   1 1107.74   19.27
  -2  -5   1 1134.62   17.80
  -2  -5   2  449.68   10.71
  -2  -5   2  463.67   13.08
  -2  -5   3  175.03    6.60
  -2  -5   3  206.48    9.00
  -2  -5   4   63.59    5.29
  -2  -5   4   61.79    3.79
  -2  -5   4   64.09    3.51
  -2  -5   5  209.17    6.79
  -2  -5   5  232.09   10.29
  -2  -5   5  221.05    6.83
  -2  -5   6  221.89    6.77
  -2  -5   6  211.68   10.45
  -2  -5   7    0.88    0.97
  -2  -5   7    1.29    0.65
  -2  -5   8   34.35    2.41
  -2  -5  13   18.57    4.04
  -2  -5  14   -0.68    2.73
  -2  -5  15    3.93    3.06
  -2  -4  -6  186.64    8.36
  -2  -4  -6  189.91    3.24
  -2  -4  -5  339.63   10.43
  -2  -4  -5  339.06    5.73
  -2  -4  -4    7.67    1.46
  -2  -4  -4    5.18    0.84
  -2  -4  -3   44.95    2.69
  -2  -4  -3   50.04    3.38
  -2  -4  -2   59.92    3.40
  -2  -4  -2   62.85    3.43
  -2  -4  -1   21.66    1.90
  -2  -4  -1   19.45    2.06
  -2  -4   0  248.99    7.82
  -2  -4   1  262.32    8.47
  -2  -4   2 1328.67   16.35
  -2  -4   2 1362.28   20.36
  -2  -4   3  503.26    9.73
  -2  -4   3  513.90   13.11
  -2  -4   4  106.18    6.32
  -2  -4   4  107.31    4.30
  -2  -4   4  108.45    4.54
  -2  -4   5    4.61    0.88
  -2  -4   5    4.69    1.08
  -2  -4   5    4.57    1.53
  -2  -4   6  165.69    8.44
  -2  -4   6  151.56    4.63
  -2  -4   7  272.73   11.34
  -2  -4   7  289.32    5.97
  -2  -4   8   56.81    5.51
  -2  -4  12   65.13    6.61
  -2  -4  13   50.04    6.13
  -2  -4  14   87.50    8.44
  -2  -4  15   68.69    7.84
  -2  -4  16   45.30    6.63
  -2  -3  -5  228.49    4.01
  -2  -3  -4 1065.12   16.41
  -2  -3  -4 1042.79   10.04
  -2  -3  -3  758.09    9.51
  -2  -3  -3  772.93   12.46
  -2  -3  -2 1384.65   14.25
  -2  -3  -2 1415.70   14.91
  -2  -3  -1  710.52   10.98
  -2  -3  -1  720.67    9.36
  -2  -3   0  949.96   13.73
  -2  -3   1  422.60    9.79
  -2  -3   2  493.15   11.17
  -2  -3   3  652.19   13.60
  -2  -3   4  703.62   14.85
  -2  -3   4  692.79   11.53
  -2  -3   5  519.74   13.49
  -2  -3   5  545.57   11.05
  -2  -3   6   69.94    5.16
  -2  -3   7  236.33    9.97
  -2  -3   8   79.28    5.94
  -2  -3   9   23.43    3.40
  -2  -3  10   42.11    4.67
  -2  -3  10   41.16    4.62
  -2  -3  11  104.33    7.75
  -2  -3  12   48.41    5.55
  -2  -3  13   23.83    4.10
  -2  -3  14   15.64    3.54
  -2  -3  15    9.84    3.11
  -2  -3  16    4.32    2.40
  -2  -2  -4    3.03    0.56
  -2  -2  -3    0.49    0.27
  -2  -2  -2   34.74    2.04
  -2  -2  -1  172.96    4.86
  -2  -2  -1  172.44    4.01
  -2  -2   0    1.32    0.28
  -2  -2   0    1.21    0.55
  -2  -2   1    1.02    0.49
  -2  -2   2  193.97    6.35
  -2  -2   3   60.61    3.82
  -2  -2   3   59.05    3.22
  -2  -2   4    2.30    0.81
  -2  -2   4    0.69    0.47
  -2  -2   5    4.23    1.27
  -2  -2   5    6.22    1.25
  -2  -2   6   32.70    3.33
  -2  -2   7  102.39    6.00
  -2  -2   8  168.48    7.96
  -2  -2   8  176.03    8.25
  -2  -2   9   15.98    2.66
  -2  -2   9   17.29    2.83
  -2  -2  10  174.57    9.20
  -2  -2  10  187.57    9.13
  -2  -2  11   67.14    5.71
  -2  -2  11   82.32    6.69
  -2  -2  12  158.66    9.82
  -2  -2  12  152.12    8.88
  -2  -2  13   55.08    6.13
  -2  -2  14   37.23    5.42
  -2  -2  15   84.20    8.28
  -2  -2  16   44.35    6.30
  -2  -2  17   29.30    5.46
  -2  -1  -2  660.69    8.41
  -2  -1  -1    7.00    0.98
  -2  -1   0  886.56   11.04
  -2  -1   1 1553.22   15.41
  -2  -1   2  114.59    4.46
  -2  -1   2  110.06    2.49
  -2  -1   3 1128.09   10.91
  -2  -1   3 1167.36   14.38
  -2  -1   3 1116.51   14.81
  -2  -1   4  495.55    8.80
  -2  -1   4  521.25   10.45
  -2  -1   4  503.51   10.59
  -2  -1   5  118.18    4.96
  -2  -1   5  118.30    5.42
  -2  -1   6 1306.39   18.87
  -2  -1   6 1317.22   18.33
  -2  -1   7   69.52    4.64
  -2  -1   7   68.72    4.64
  -2  -1   8  390.60   11.40
  -2  -1   8  390.16   11.87
  -2  -1   9  106.83    6.68
  -2  -1   9  101.54    6.09
  -2  -1  10  382.16   13.46
  -2  -1  10  382.75   12.21
  -2  -1  11  161.99    9.28
  -2  -1  11  175.31    8.55
  -2  -1  12   80.18    6.90
  -2  -1  12   86.46    6.25
  -2  -1  13   25.11    4.05
  -2  -1  13   43.85    4.61
  -2  -1  14  117.93    9.26
  -2  -1  15   45.70    6.09
  -2  -1  16    0.08    1.74
  -2  -1  17   32.17    5.50
  -2   0  -1   11.41    1.20
  -2   0   0   43.97    2.39
  -2   0   1   23.67    1.84
  -2   0   2 1225.94   13.91
  -2   0   2 1204.21   13.65
  -2   0   3  812.20   12.32
  -2   0   3  772.10    9.61
  -2   0   3  772.41   11.60
  -2   0   4  173.39    6.22
  -2   0   4  154.32    5.00
  -2   0   4  150.66    5.36
  -2   0   5  156.56    5.73
  -2   0   5  147.26    5.60
  -2   0   6    7.87    1.39
  -2   0   6    7.29    1.41
  -2   0   7   95.90    4.98
  -2   0   7   93.79    5.38
  -2   0   8  200.31    7.53
  -2   0   8  210.03    8.69
  -2   0   9  107.12    5.78
  -2   0   9  110.47    6.75
  -2   0  10   67.93    4.81
  -2   0  10   78.95    6.09
  -2   0  11   26.61    3.11
  -2   0  11   27.69    3.86
  -2   0  12   21.65    3.62
  -2   0  12   27.64    3.40
  -2   0  13   42.10    5.29
  -2   0  13   46.81    4.65
  -2   0  14   44.20    5.78
  -2   0  15    6.51    2.56
  -2   0  16   24.86    4.76
  -2   0  17   37.71    5.97
  -2   1   1  450.71    7.93
  -2   1   1  442.73    7.96
  -2   1   2  609.01   10.16
  -2   1   2  589.12    9.27
  -2   1   3  413.16    8.16
  -2   1   3  419.75    9.19
  -2   1   4   28.19    2.31
  -2   1   4   37.15    2.54
  -2   1   5  761.71   13.23
  -2   1   5  768.39   12.21
  -2   1   6  446.30    9.71
  -2   1   6  469.58   11.23
  -2   1   6  453.14    7.16
  -2   1   7  440.13    7.17
  -2   1   7  453.68   12.06
  -2   1   7  437.88   10.04
  -2   1   8  612.58   12.45
  -2   1   8  562.86    8.73
  -2   1   8  624.04   15.16
  -2   1   9  217.25    7.69
  -2   1   9  212.81    9.43
  -2   1   9  204.49    5.08
  -2   1  10  246.00   10.80
  -2   1  10  233.60    5.51
  -2   1  10  245.44    8.50
  -2   1  11  216.80    8.29
  -2   1  11  214.00    5.26
  -2   1  11  218.65   10.78
  -2   1  12  188.83    8.06
  -2   1  12  179.55    4.70
  -2   1  12  194.78   10.70
  -2   1  13  210.44   11.78
  -2   1  13  202.13    8.59
  -2   1  14    0.63    1.62
  -2   1  15   36.86    5.49
  -2   1  16  105.93    9.78
  -2   1  17   11.54    3.71
  -2   2 -15  119.10    7.75
  -2   2   0  414.34    7.13
  -2   2   1 4581.08   26.53
  -2   2   3   15.02    1.65
  -2   2   4   53.40    2.96
  -2   2   4   50.56    2.90
  -2   2   5   57.28    3.24
  -2   2   5   57.43    3.11
  -2   2   5   58.16    3.86
  -2   2   6  273.33    6.85
  -2   2   6  261.81    7.04
  -2   2   6  267.04    8.93
  -2   2   7   48.29    3.15
  -2   2   7   47.18    4.06
  -2   2   7   46.58    2.89
  -2   2   8   -0.25    0.48
  -2   2   8   -0.09    0.79
  -2   2   8    0.13    0.31
  -2   2   9   23.83    2.42
  -2   2   9   21.01    3.04
  -2   2   9   24.25    2.17
  -2   2  10   52.47    3.25
  -2   2  10   53.37    3.71
  -2   2  10   52.72    5.11
  -2   2  11    7.12    2.22
  -2   2  11    6.28    1.36
  -2   2  11    5.64    1.18
  -2   2  12   12.34    1.58
  -2   2  12    8.68    1.74
  -2   2  12    9.66    2.52
  -2   2  13   84.05    7.51
  -2   2  13   91.28    5.29
  -2   2  13   95.96    4.43
  -2   2  14   44.23    5.77
  -2   2  15   32.70    5.44
  -2   2  16   27.29    5.17
  -2   2  17   14.28    3.96
  -2   3 -13    0.73    0.66
  -2   3  -2   65.69    2.32
  -2   3  -1   19.12    1.43
  -2   3   0  224.63    5.50
  -2   3   4  765.00   13.17
  -2   3   5  651.41   12.22
  -2   3   6  351.32    9.11
  -2   3   6  340.07    7.98
  -2   3   7  162.08    7.77
  -2   3   7  151.40    5.43
  -2   3   7  147.31    5.93
  -2   3   8   52.92    3.64
  -2   3   8   46.29    4.45
  -2   3   8   46.24    3.08
  -2   3   9   61.71    3.98
  -2   3   9   74.20    5.91
  -2   3   9   65.69    3.72
  -2   3  10  128.77    5.87
  -2   3  10  122.22    5.17
  -2   3  10  130.45    8.18
  -2   3  11  167.44    6.78
  -2   3  11  154.97    5.96
  -2   3  11  162.05    9.63
  -2   3  12  157.90    9.96
  -2   3  12  155.92    6.65
  -2   3  12  135.62    5.71
  -2   3  13  131.24    9.60
  -2   3  13  143.04    6.38
  -2   3  14   63.45    7.05
  -2   3  15   61.24    7.26
  -2   3  16   73.05    8.26
  -2   3  17   68.42    8.14
  -2   4 -12   67.30    4.30
  -2   4 -11  314.26    8.65
  -2   4 -10  336.15    8.26
  -2   4  -9  288.20    7.04
  -2   4   3   29.10    2.86
  -2   4   4   39.15    3.41
  -2   4   5   31.16    3.04
  -2   4   6  199.44    7.60
  -2   4   7   31.18    3.07
  -2   4   8    0.05    0.49
  -2   4   9   22.46    3.33
  -2   4   9   29.00    3.05
  -2   4  10   37.60    3.55
  -2   4  10   33.16    4.31
  -2   4  11   30.13    3.26
  -2   4  11   29.67    4.26
  -2   4  12   10.61    3.06
  -2   4  12   15.37    2.39
  -2   4  13   69.33    7.06
  -2   4  13   77.41    5.26
  -2   4  14   41.55    5.77
  -2   4  14   43.82    4.01
  -2   4  15    4.35    2.42
  -2   4  16    5.83    2.68
  -2   4  17   -2.64    2.15
  -2   5   3  340.80   10.79
  -2   5   4   32.78    3.40
  -2   5   5  390.54   11.70
  -2   5   6  222.79    8.86
  -2   5   7  221.91    8.89
  -2   5   8  172.87    7.91
  -2   5   9   11.54    2.12
  -2   5  10  238.21    9.70
  -2   5  11  108.85    6.64
  -2   5  12   95.51    8.10
  -2   5  12   95.18    6.31
  -2   5  13  146.86   10.49
  -2   5  13  167.36    8.45
  -2   5  14   91.87    8.71
  -2   5  14  113.64    7.12
  -2   5  15   62.60    7.56
  -2   5  16   46.41    6.66
  -2   6   3  179.14    8.46
  -2   6   4  164.25    8.17
  -2   6   5  486.07   14.04
  -2   6   6  353.39   12.12
  -2   6   7  174.61    8.60
  -2   6   8   91.93    6.30
  -2   6   9   41.89    4.30
  -2   6  10   10.48    2.37
  -2   6  11    4.19    1.63
  -2   6  12    9.98    2.27
  -2   6  13   14.05    2.67
  -2   6  14    3.03    1.43
  -2   7   3   35.11    4.07
  -2   7   4   28.69    3.73
  -2   7   5   76.34    6.02
  -2   7   6   42.92    4.69
  -2   7   7  103.67    7.12
  -2   7   8   50.12    5.07
  -2   7   9  156.75    8.98
  -2   7  10   30.75    4.00
  -2   7  11  205.07   10.52
  -2   7  12  163.05    9.57
  -2   7  13   88.89    7.21
  -2   7  14   20.14    3.55
  -2   8   4  274.72   12.19
  -2   8   5  195.30   10.36
  -2   8   6  389.41   14.78
  -2   8   7  178.91   10.04
  -2   8   8  106.49    7.80
  -2   8   9   97.77    7.66
  -2   8  10  127.44    8.76
  -2   8  11   34.33    4.64
  -2   8  12   21.95    3.73
  -2   8  13    1.93    1.41
  -2   8  14   -0.58    1.43
  -2   9   4   28.57    4.24
  -2   9   5    0.17    0.78
  -2   9   6   17.55    3.38
  -2   9   7   15.66    3.22
  -2   9   8   -0.36    2.24
  -2   9   9    7.16    2.37
  -2   9  10    6.74    2.18
  -2   9  11   57.22    6.48
  -2   9  12   76.84    7.67
  -2   9  13   39.05    5.51
  -2   9  14   30.72    5.29
  -2   9  15   25.20    4.87
  -2  10   5  188.16   11.52
  -2  10   6   73.16    7.31
  -2  10   7   92.03    8.20
  -2  10   8   75.09    7.62
  -2  10   9   30.42    4.93
  -2  10  10   52.92    6.59
  -2  10  11   86.12    8.34
  -2  10  12   45.08    6.37
  -2  10  13   28.87    5.10
  -2  10  14   32.89    5.56
  -2  10  15   38.97    6.21
  -2  11   6    2.50    1.89
  -2  11   7    5.22    2.32
  -2  11   8   -0.89    2.17
  -2  11   9    6.23    2.72
  -2  11  10    7.63    3.10
  -2  11  11    1.09    2.21
  -2  11  12    0.85    1.68
  -2  11  13   17.35    3.92
  -2  11  14   -5.76    2.60
  -2  12   8   97.77    9.51
  -2  12   9   41.23    6.25
  -2  12  10   37.34    6.14
  -2  12  11   45.73    6.64
  -2  12  12   49.54    7.22
  -1 -11  -7   -0.18    1.19
  -1 -10  -8  166.13    7.27
  -1 -10  -7  179.83    8.14
  -1  -9  -9    0.49    0.39
  -1  -9  -9   -0.33    0.46
  -1  -9  -8   10.34    1.60
  -1  -9  -7   20.07    2.48
  -1  -9  -4   61.97    5.75
  -1  -9  -3    9.47    2.22
  -1  -9  -1   13.84    2.89
  -1  -9   0   93.44    7.27
  -1  -9   1    0.99    0.62
  -1  -9   2  208.70   10.67
  -1  -9   3   38.29    4.51
  -1  -9   4   70.75    2.35
  -1  -9   4   67.11    5.93
  -1  -9   5  125.54    8.06
  -1  -9   6   90.05    6.78
  -1  -9   7   52.21    5.14
  -1  -8  -9  104.59    2.93
  -1  -8  -9  110.12    3.15
  -1  -8  -8  166.27    5.46
  -1  -8  -7  149.41    5.94
  -1  -8  -6  185.69    9.94
  -1  -8  -5  121.89    8.27
  -1  -8  -5  112.89    7.51
  -1  -8  -4  443.38   14.38
  -1  -8  -4  454.03   15.71
  -1  -8  -3  251.29   10.57
  -1  -8  -3  247.00   11.32
  -1  -8  -2  520.58   16.24
  -1  -8  -1  396.24   14.03
  -1  -8   0  112.35    7.43
  -1  -8   1  208.45    9.97
  -1  -8   2  178.28    9.09
  -1  -8   3  268.92   11.14
  -1  -8   4  163.09    4.04
  -1  -8   4  140.43    8.00
  -1  -8   5  204.13    9.52
  -1  -8   6  350.54   12.40
  -1  -8   7  348.47   12.31
  -1  -8   8   92.38    6.29
  -1  -7  -8  144.22    3.80
  -1  -7  -8  141.62    3.62
  -1  -7  -7   43.45    4.76
  -1  -7  -7   40.91    2.68
  -1  -7  -6   -0.23    0.70
  -1  -7  -5   18.56    2.96
  -1  -7  -4   43.43    4.57
  -1  -7  -4   36.41    3.94
  -1  -7  -3  108.23    7.06
  -1  -7  -3  101.44    6.26
  -1  -7  -2    0.28    0.79
  -1  -7  -1    7.17    1.89
  -1  -7   0   52.63    4.74
  -1  -7   1    9.94    2.20
  -1  -7   2    6.59    1.66
  -1  -7   3  155.75    7.85
  -1  -7   4  140.93    3.95
  -1  -7   4  129.89    7.03
  -1  -7   5    0.96    1.07
  -1  -7   6    0.86    0.77
  -1  -7   7    1.21    0.84
  -1  -7   8  286.60   10.17
  -1  -7   9   71.84    5.05
  -1  -6  -8  485.22   16.02
  -1  -6  -7   30.34    3.99
  -1  -6  -7   23.16    1.51
  -1  -6  -6   33.20    2.27
  -1  -6  -6   32.02    3.79
  -1  -6  -5  218.46    9.29
  -1  -6  -4  234.43    9.77
  -1  -6  -4  230.45    9.16
  -1  -6  -3 1153.36   21.05
  -1  -6  -3 1092.88   19.00
  -1  -6  -2  313.37   10.82
  -1  -6  -1  433.40   12.48
  -1  -6   0  540.42   13.74
  -1  -6   1 1410.01   21.64
  -1  -6   2  484.91   12.55
  -1  -6   3  493.49   12.57
  -1  -6   4  232.06    5.17
  -1  -6   4  227.97    8.49
  -1  -6   5  166.79    7.18
  -1  -6   6  169.44    7.18
  -1  -6   7   62.98    4.41
  -1  -6   8  561.03   12.88
  -1  -6   9   98.74    5.34
  -1  -6  15   16.83    4.34
  -1  -5  -9  256.54   11.98
  -1  -5  -8  333.68   12.87
  -1  -5  -7  194.13    9.30
  -1  -5  -6   42.86    1.91
  -1  -5  -6   48.42    4.39
  -1  -5  -5   20.18    2.74
  -1  -5  -5   19.93    1.63
  -1  -5  -4    5.80    1.38
  -1  -5  -3    3.93    1.13
  -1  -5  -3    2.79    0.99
  -1  -5  -2   10.16    1.82
  -1  -5  -1   53.46    4.00
  -1  -5   0   20.91    2.47
  -1  -5   1  110.37    5.46
  -1  -5   2  177.02    6.79
  -1  -5   3   37.27    3.12
  -1  -5   4    9.24    1.08
  -1  -5   4    6.46    1.30
  -1  -5   5   21.18    2.30
  -1  -5   6  135.31    5.74
  -1  -5   7  192.73    9.99
  -1  -5   7  183.98    6.63
  -1  -5   8  181.67    6.55
  -1  -5   9    7.00    1.35
  -1  -5  10    0.62    0.46
  -1  -5  15   54.19    7.44
  -1  -5  16   48.90    7.10
  -1  -4  -8   53.45    5.08
  -1  -4  -7  871.10   19.17
  -1  -4  -6  364.15   11.50
  -1  -4  -5  944.22    7.88
  -1  -4  -5  985.25   17.53
  -1  -4  -4  839.97    9.50
  -1  -4  -4  857.71   15.16
  -1  -4  -3 1101.48   16.24
  -1  -4  -2  488.18   11.14
  -1  -4  -2  511.16   10.28
  -1  -4  -1  704.73   12.85
  -1  -4   0  150.33    5.81
  -1  -4   1  464.20    9.82
  -1  -4   2  361.26    8.55
  -1  -4   3  440.59    9.23
  -1  -4   4  980.51   11.12
  -1  -4   4  963.30   13.60
  -1  -4   5    7.96    1.23
  -1  -4   6  440.69    9.07
  -1  -4   6  448.67   13.65
  -1  -4   7  222.75    9.97
  -1  -4   7  212.86    6.22
  -1  -4   8  137.65    8.31
  -1  -4   8  139.49    5.00
  -1  -4   9  190.62    5.79
  -1  -4   9  179.19    9.97
  -1  -4  10   87.32    3.85
  -1  -4  11  494.68    8.62
  -1  -4  14   43.90    6.31
  -1  -4  15   24.00    4.98
  -1  -4  16   11.45    3.36
  -1  -3  -6  406.07   11.85
  -1  -3  -5  691.64   14.17
  -1  -3  -4  191.20    6.80
  -1  -3  -4  191.00    3.05
  -1  -3  -3   95.88    2.83
  -1  -3  -3  100.02    4.46
  -1  -3  -2    2.70    0.73
  -1  -3  -2    2.02    0.57
  -1  -3  -1 1447.65   16.30
  -1  -3   0   73.92    3.50
  -1  -3   1  451.72    8.35
  -1  -3   2   39.46    2.39
  -1  -3   3   89.45    3.50
  -1  -3   3   90.16    3.17
  -1  -3   4   20.87    1.69
  -1  -3   4   20.89    1.66
  -1  -3   5  230.96    5.44
  -1  -3   5  196.77    8.49
  -1  -3   6   62.16    2.84
  -1  -3   6   63.59    4.73
  -1  -3   7   48.77    4.36
  -1  -3   7   51.19    2.59
  -1  -3   8   13.13    2.39
  -1  -3   8   10.03    1.18
  -1  -3   9    2.52    0.65
  -1  -3   9    2.08    1.48
  -1  -3  10   18.56    1.58
  -1  -3  10   14.51    2.75
  -1  -3  11    1.60    0.50
  -1  -3  11    0.79    0.91
  -1  -3  12    3.32    1.56
  -1  -3  13   17.01    3.56
  -1  -3  14    8.59    2.95
  -1  -3  15    6.24    2.67
  -1  -3  16   45.91    6.72
  -1  -3  17   20.59    4.75
  -1  -2 -18    2.16    2.03
  -1  -2  -4  184.22    6.58
  -1  -2  -3  221.36    6.26
  -1  -2  -2  691.20    9.53
  -1  -2  -2  689.27    6.75
  -1  -2  -1  289.66    5.20
  -1  -2  -1  302.20    5.35
  -1  -2   0  135.65    4.06
  -1  -2   1  277.21    6.55
  -1  -2   1  280.71    5.20
  -1  -2   2  436.77    8.78
  -1  -2   2  421.70    6.01
  -1  -2   3  633.20    8.61
  -1  -2   3  620.80   11.33
  -1  -2   3  628.89    6.97
  -1  -2   4  716.48   13.44
  -1  -2   4  779.71    7.63
  -1  -2   5  958.45    8.55
  -1  -2   5  919.53   15.54
  -1  -2   6  610.62   13.40
  -1  -2   6  636.83    7.42
  -1  -2   7  359.69    5.95
  -1  -2   7  338.78   10.66
  -1  -2   8   93.20    5.92
  -1  -2   9  340.72   11.58
  -1  -2  10  159.77    8.38
  -1  -2  10  180.89    4.60
  -1  -2  11  226.61    4.97
  -1  -2  11  197.96   10.76
  -1  -2  11  200.98    9.56
  -1  -2  11  204.70    4.48
  -1  -2  12  174.50    9.29
  -1  -2  12  182.69   10.86
  -1  -2  13  175.64   11.23
  -1  -2  13  174.94    9.80
  -1  -2  14   87.91    8.28
  -1  -2  15   38.50    5.85
  -1  -2  16   65.52    7.93
  -1  -2  17   30.87    5.62
  -1  -1 -18   62.20    7.28
  -1  -1 -17   55.66    6.68
  -1  -1  -2  349.07    3.85
  -1  -1  -1  259.95    4.26
  -1  -1  -1  267.41    3.95
  -1  -1   0  105.24    2.89
  -1  -1   1 3391.10   18.72
  -1  -1   2  427.55    6.41
  -1  -1   2  410.07    7.35
  -1  -1   3   48.95    2.51
  -1  -1   3   46.08    2.68
  -1  -1   4  249.24    6.76
  -1  -1   5  231.68    6.99
  -1  -1   6   23.53    2.39
  -1  -1   7  271.62    8.63
  -1  -1   8   29.24    3.40
  -1  -1   8   29.56    2.99
  -1  -1   9   31.20    3.31
  -1  -1   9   31.48    3.79
  -1  -1  10   31.96    1.90
  -1  -1  10   34.21    3.56
  -1  -1  10   29.95    3.90
  -1  -1  11    0.71    0.97
  -1  -1  11    0.39    0.83
  -1  -1  11    1.79    0.45
  -1  -1  12   19.70    3.52
  -1  -1  12   18.76    2.78
  -1  -1  12   21.17    1.89
  -1  -1  13   45.53    4.62
  -1  -1  13   41.92    5.38
  -1  -1  14   17.34    3.88
  -1  -1  15    9.51    2.98
  -1  -1  16    1.93    1.69
  -1  -1  17    3.44    1.97
  -1   0 -17    4.97    2.20
  -1   0 -16    9.95    2.61
  -1   0   1  563.32    6.56
  -1   0   1  567.60    6.69
  -1   0   2  378.69    6.46
  -1   0   2  355.86    5.37
  -1   0   2  352.23    5.76
  -1   0   3 1788.77   15.19
  -1   0   3 1808.28   14.42
  -1   0   4   55.59    3.11
  -1   0   4   51.42    2.70
  -1   0   5  181.38    6.41
  -1   0   5  174.31    3.34
  -1   0   5  184.72    5.51
  -1   0   6  171.88    6.94
  -1   0   6  165.52    5.62
  -1   0   6  164.87    3.70
  -1   0   7  388.73   11.32
  -1   0   7  383.40    6.23
  -1   0   7  375.27    9.00
  -1   0   8 1025.08   15.67
  -1   0   8 1023.81   19.65
  -1   0   8  993.33   10.86
  -1   0   9  506.99    8.28
  -1   0   9  505.48   11.69
  -1   0   9  510.41   14.86
  -1   0  10  388.09    7.57
  -1   0  10  371.63   13.60
  -1   0  10  378.27   10.58
  -1   0  11  311.19   13.05
  -1   0  11  307.12    9.92
  -1   0  11  313.90    7.01
  -1   0  12   54.16    4.33
  -1   0  12   62.28    3.17
  -1   0  12   62.06    6.19
  -1   0  13  267.77   13.46
  -1   0  13  283.87    6.60
  -1   0  13  280.03   10.19
  -1   0  14   56.67    6.49
  -1   0  15   11.19    3.39
  -1   0  16   51.15    6.90
  -1   0  17   57.10    7.57
  -1   1 -16   77.43    7.00
  -1   1 -15  114.53    8.04
  -1   1 -14  215.85   10.62
  -1   1   0  733.54    6.69
  -1   1   1  888.47    9.01
  -1   1   1  883.84    8.47
  -1   1   2  772.70    8.01
  -1   1   2  760.74    7.95
  -1   1   2  800.65    9.30
  -1   1   3  479.05    6.45
  -1   1   3  494.00    8.46
  -1   1   3  484.65    6.81
  -1   1   4  434.60    6.98
  -1   1   4  437.92    6.52
  -1   1   4  445.84    9.11
  -1   1   5  429.92    7.46
  -1   1   5  446.60    7.07
  -1   1   5  453.88   10.31
  -1   1   6  220.42    5.32
  -1   1   6  228.05    5.81
  -1   1   6  223.60    7.97
  -1   1   7  151.92    5.09
  -1   1   7  147.52    4.64
  -1   1   7  144.37    6.92
  -1   1   8   69.26    3.68
  -1   1   8   77.42    3.53
  -1   1   8   70.82    5.23
  -1   1   9   36.02    2.81
  -1   1   9   37.75    2.59
  -1   1   9   35.21    3.93
  -1   1  10  100.67    4.91
  -1   1  10  109.52    4.59
  -1   1  10  108.14    7.32
  -1   1  11   35.56    2.74
  -1   1  11   33.88    4.30
  -1   1  11   31.12    2.89
  -1   1  12    3.39    0.90
  -1   1  12    5.05    1.24
  -1   1  12    3.87    1.79
  -1   1  13   16.82    2.03
  -1   1  13   18.55    3.69
  -1   1  13   14.27    2.16
  -1   1  14   -0.53    1.34
  -1   1  15   -0.76    1.75
  -1   1  16    1.73    2.04
  -1   1  17    2.03    1.09
  -1   2 -15   51.11    5.23
  -1   2 -14   43.55    5.24
  -1   2 -13  178.81    8.78
  -1   2 -12  152.86    7.81
  -1   2   1  397.39    7.31
  -1   2   2  207.09    5.28
  -1   2   3   36.78    2.31
  -1   2   4  106.33    4.75
  -1   2   4  114.85    4.19
  -1   2   4  107.83    3.29
  -1   2   5  268.20    5.40
  -1   2   5  287.32    8.57
  -1   2   5  276.49    6.73
  -1   2   6  246.01    6.64
  -1   2   6  255.04    8.72
  -1   2   6  254.10    5.58
  -1   2   7  280.31    7.36
  -1   2   7  270.02    6.14
  -1   2   7  260.08    9.50
  -1   2   8   41.97    2.59
  -1   2   8   47.30    3.19
  -1   2   8   43.69    4.17
  -1   2   9  104.17    4.33
  -1   2   9   99.01    6.66
  -1   2   9  103.91    4.85
  -1   2  10   84.62    4.52
  -1   2  10   74.64    6.11
  -1   2  10   85.05    4.09
  -1   2  11  218.98    6.88
  -1   2  11  241.97    7.88
  -1   2  11  217.09   10.97
  -1   2  12  153.15    5.93
  -1   2  12  160.18    6.60
  -1   2  12  157.55    9.82
  -1   2  13   96.03    5.18
  -1   2  13   86.90    7.69
  -1   2  13   97.79    4.86
  -1   2  14  113.38    5.67
  -1   2  14  104.13    8.87
  -1   2  15  155.62   11.37
  -1   2  16   55.57    7.16
  -1   2  17   57.49    7.53
  -1   3 -14   32.48    3.76
  -1   3 -13   66.34    5.07
  -1   3 -12  118.62    6.41
  -1   3 -11  426.63   11.44
  -1   3 -10   62.90    4.11
  -1   3  -9  199.39    6.79
  -1   3   1  992.68   13.85
  -1   3   2 1505.79   16.87
  -1   3   3  783.99   12.49
  -1   3   4 1181.86   15.72
  -1   3   5  450.69   11.30
  -1   3   5  428.33    9.79
  -1   3   6  614.75   12.01
  -1   3   6  646.95   14.38
  -1   3   7  310.01    8.70
  -1   3   7  303.10   10.59
  -1   3   7  280.79    5.76
  -1   3   8   34.73    3.05
  -1   3   8   33.30    3.77
  -1   3   8   34.09    2.08
  -1   3   9    6.59    1.48
  -1   3   9    7.58    1.93
  -1   3   9    6.52    0.99
  -1   3  10   42.05    2.47
  -1   3  10   50.89    3.90
  -1   3  10   47.67    4.98
  -1   3  11  155.71    9.45
  -1   3  11  154.59    7.01
  -1   3  11  138.83    4.61
  -1   3  12   31.49    2.25
  -1   3  12   33.18    4.60
  -1   3  12   29.44    3.14
  -1   3  13  210.60    5.84
  -1   3  13  212.78   12.14
  -1   3  13  229.07    8.84
  -1   3  14    1.86    1.41
  -1   3  14    1.22    1.11
  -1   3  15   15.98    3.83
  -1   3  16   19.49    4.52
  -1   3  17    0.55    1.16
  -1   4 -12  129.13    6.13
  -1   4 -11   64.70    4.10
  -1   4 -10  131.16    5.36
  -1   4  -9   66.65    3.50
  -1   4  -8  190.02    5.26
  -1   4  -7   32.49    1.86
  -1   4   1    3.20    1.07
  -1   4   2   22.21    2.39
  -1   4   3   30.27    2.86
  -1   4   4   80.40    4.63
  -1   4   5   45.73    3.55
  -1   4   6   54.12    3.96
  -1   4   7   44.74    4.24
  -1   4   7   53.25    4.04
  -1   4   8    8.94    2.00
  -1   4   8    7.18    1.56
  -1   4   9   97.66    5.73
  -1   4   9   94.17    6.80
  -1   4  10   21.17    3.46
  -1   4  10   22.48    2.83
  -1   4  11   78.83    5.41
  -1   4  11   79.31    6.94
  -1   4  12  113.79    6.70
  -1   4  12  100.25    8.13
  -1   4  13  108.89    8.90
  -1   4  13  107.25    6.65
  -1   4  14   70.50    5.43
  -1   4  14   55.38    6.67
  -1   4  15  137.23   11.02
  -1   4  16   61.73    7.62
  -1   4  17   83.08    9.31
  -1   5   1  494.98   12.35
  -1   5   2  787.32   15.72
  -1   5   3  102.18    5.64
  -1   5   4  544.43   13.42
  -1   5   5  552.82   13.81
  -1   5   6  372.93   11.48
  -1   5   7   85.09    5.63
  -1   5   8  100.05    6.15
  -1   5   9   58.02    5.55
  -1   5   9   59.69    4.88
  -1   5  10  122.24    7.10
  -1   5  10  118.81    8.28
  -1   5  11   89.22    7.50
  -1   5  11   92.48    6.33
  -1   5  12  197.96    9.39
  -1   5  12  196.60   11.64
  -1   5  13  128.19    7.74
  -1   5  13  126.29    9.77
  -1   5  14  117.47    9.86
  -1   5  14  138.32    8.17
  -1   5  15   19.39    4.42
  -1   5  15   21.31    3.26
  -1   5  16    2.00    1.14
  -1   6   1   32.87    3.53
  -1   6   2  218.44    9.01
  -1   6   3    6.32    1.66
  -1   6   4   -0.09    0.85
  -1   6   5    7.97    1.84
  -1   6   6   43.20    4.31
  -1   6   7   91.64    6.30
  -1   6   8    7.71    1.99
  -1   6   9  202.51    9.65
  -1   6  10   11.19    2.37
  -1   6  11   26.55    3.69
  -1   6  12   45.80    4.90
  -1   6  12   49.41    6.00
  -1   6  13   64.36    7.18
  -1   6  13   61.59    5.74
  -1   6  14   46.46    6.51
  -1   6  14   52.66    5.42
  -1   6  15    4.06    2.20
  -1   6  15    5.70    1.93
  -1   6  16   16.82    4.22
  -1   7   1  292.68   11.23
  -1   7   2  525.20   15.19
  -1   7   3  398.51   13.21
  -1   7   4  371.11   12.81
  -1   7   5  402.55   13.47
  -1   7   6  204.08    9.83
  -1   7   7  248.84   11.07
  -1   7   8  235.52   10.89
  -1   7   9  177.11    9.73
  -1   7  10  151.48    8.96
  -1   7  11  144.78    8.96
  -1   7  12  155.68    9.53
  -1   7  13   57.43    5.88
  -1   7  14   41.55    5.16
  -1   7  15   23.29    3.88
  -1   8   1    1.63    1.35
  -1   8   2    0.69    0.83
  -1   8   3   19.13    3.19
  -1   8   4   42.62    4.75
  -1   8   5    6.30    1.98
  -1   8   6    1.12    0.90
  -1   8   7    2.05    1.19
  -1   8   8    6.29    2.02
  -1   8   9   65.96    6.21
  -1   8  10   19.50    3.54
  -1   8  11   21.84    3.73
  -1   8  12   30.17    4.45
  -1   8  13    7.58    2.44
  -1   8  14    4.44    2.24
  -1   8  15   14.85    3.68
  -1   9   2   83.01    6.89
  -1   9   3   91.53    7.27
  -1   9   4  145.92    9.31
  -1   9   5  296.07   13.26
  -1   9   6  113.89    8.32
  -1   9   7  138.75    9.19
  -1   9   8  233.73   12.10
  -1   9   9  217.31   11.90
  -1   9  10   75.53    7.10
  -1   9  11   71.05    7.12
  -1   9  12   78.41    7.49
  -1   9  13   46.61    5.80
  -1   9  14   75.03    7.76
  -1   9  15   79.33    7.93
  -1  10   2  138.14    9.50
  -1  10   3   56.91    6.18
  -1  10   4   25.80    4.20
  -1  10   5   69.31    6.88
  -1  10   6   25.78    4.24
  -1  10   7   55.82    6.31
  -1  10   8   30.39    4.75
  -1  10   9   10.94    3.13
  -1  10  10    1.33    1.56
  -1  10  11    0.67    1.58
  -1  10  12   -1.78    1.77
  -1  10  13    0.06    1.78
  -1  10  14   -0.41    1.68
  -1  10  15   -0.34    1.82
  -1  11   3   23.11    4.32
  -1  11   4   97.79    8.62
  -1  11   5   47.31    6.14
  -1  11   6  183.89   12.01
  -1  11   7   71.65    7.61
  -1  11   8   46.57    6.26
  -1  11   9   46.15    6.30
  -1  11  10  109.41    9.70
  -1  11  11  105.96    9.59
  -1  11  12   16.43    4.31
  -1  11  13   97.02    9.43
  -1  11  14   63.77    7.81
  -1  11  15   27.71    5.47
  -1  12   4  109.77    9.58
  -1  12   5  143.86   11.06
  -1  12   6   71.27    7.92
  -1  12   7   45.83    6.57
  -1  12   8    6.95    3.07
  -1  12   9    2.01    1.85
  -1  12  10    5.95    2.75
  -1  12  11   12.46    3.32
  -1  12  12    9.21    3.51
  -1  13   5   17.04    4.24
  -1  13   6   84.96    9.12
  -1  13   7   93.56    9.46
  -1  13   8   44.13    6.65
  -1  13   9   26.29    5.25
   0 -11  -9  100.22    5.79
   0 -11   2   57.28    2.54
   0 -10  -9   77.87    4.56
   0  -9 -10   33.91    2.08
   0  -9  -9   89.29    4.27
   0  -8  -9   29.66    2.06
   0  -8  -8   45.88    3.05
   0  -8  -6   67.83    6.27
   0  -8  -5  122.22    7.85
   0  -8  -5  118.75    8.09
   0  -8  -4  428.30   15.21
   0  -8  -4  460.32   14.91
   0  -8  -3  110.82    7.72
   0  -8  -2  422.14   14.76
   0  -8  -1  266.72   11.62
   0  -8   0   25.90    3.68
   0  -8   1    4.02    1.69
   0  -8   2    7.27    1.90
   0  -8   3   12.53    2.52
   0  -8   4   21.93    3.32
   0  -8   5    0.98    0.93
   0  -8   6   81.30    6.25
   0  -8   7    1.13    0.88
   0  -8   8   23.19    3.46
   0  -7  -9   93.73    2.74
   0  -7  -9   95.03    2.64
   0  -7  -8   37.38    2.23
   0  -7  -7   12.22    2.58
   0  -7  -6    3.31    1.47
   0  -7  -6    0.55    0.82
   0  -7  -5   87.71    6.55
   0  -7  -5   85.70    6.38
   0  -7  -4  172.86    8.67
   0  -7  -4  195.12    9.57
   0  -7  -3   80.22    6.06
   0  -7  -2  301.26   11.64
   0  -7  -1  290.74   11.24
   0  -7   0  545.67   15.19
   0  -7   1  497.55   14.39
   0  -7   2  310.60   11.41
   0  -7   3   71.20    5.43
   0  -7   4  252.43   10.19
   0  -7   5  653.53   16.36
   0  -7   6  439.58   13.45
   0  -7   7  572.92   15.39
   0  -7   8   56.80    4.88
   0  -7   9  143.11    7.72
   0  -6  -8   61.06    2.20
   0  -6  -8   56.60    5.40
   0  -6  -7  139.46    4.15
   0  -6  -7  149.68    8.53
   0  -6  -6  433.15   13.90
   0  -6  -6  441.54   13.94
   0  -6  -5  470.53   13.91
   0  -6  -5  482.03   14.00
   0  -6  -4   82.57    5.82
   0  -6  -4   77.06    5.45
   0  -6  -3  350.40   11.73
   0  -6  -2  295.39   10.47
   0  -6  -1  458.01   12.90
   0  -6   0  897.12   17.89
   0  -6   1  164.89    7.65
   0  -6   2   39.92    3.78
   0  -6   3    9.09    1.80
   0  -6   4  115.06    6.28
   0  -6   5   60.06    4.56
   0  -6   6    8.53    1.83
   0  -6   7   28.33    3.20
   0  -6   8   17.89    2.62
   0  -6   9   20.30    2.80
   0  -6  10    1.57    1.01
   0  -5  -9  115.60    8.06
   0  -5  -8   43.64    4.67
   0  -5  -7   76.33    5.83
   0  -5  -7   70.58    2.25
   0  -5  -6    0.79    0.32
   0  -5  -6    0.70    0.73
   0  -5  -5  129.62    6.79
   0  -5  -5  145.91    7.20
   0  -5  -4  106.95    5.99
   0  -5  -4  110.06    5.99
   0  -5  -3  499.52   12.73
   0  -5  -3  492.19   12.07
   0  -5  -2  297.09    9.58
   0  -5  -1  380.48   10.68
   0  -5   0  156.52    6.76
   0  -5   1   82.15    4.85
   0  -5   2   24.87    2.74
   0  -5   3  135.86    6.17
   0  -5   4  541.48   12.33
   0  -5   5  210.37    7.68
   0  -5   6  476.60   11.61
   0  -5   7  533.84   12.35
   0  -5   8  353.38   10.15
   0  -5   9  122.64    6.04
   0  -5  10  163.01    7.06
   0  -4  -9  451.94   15.48
   0  -4  -8  676.15   17.78
   0  -4  -7  757.71   17.75
   0  -4  -6  755.77    6.65
   0  -4  -6  784.25   16.87
   0  -4  -5  489.76   11.95
   0  -4  -5  492.79    6.40
   0  -4  -5  507.25   12.62
   0  -4  -4  174.92    7.01
   0  -4  -4  179.10    6.94
   0  -4  -3    3.28    0.96
   0  -4  -3    3.35    1.01
   0  -4  -2  223.12    7.42
   0  -4  -1  222.11    7.31
   0  -4   0  380.01    9.35
   0  -4   1  166.18    6.10
   0  -4   2  296.90    8.12
   0  -4   3  179.37    6.31
   0  -4   4   40.38    3.00
   0  -4   5  601.91   11.76
   0  -4   6  177.74    6.48
   0  -4   7    7.75    1.47
   0  -4   8  131.24    5.81
   0  -4   9   48.36    3.60
   0  -4  10  132.44    6.02
   0  -4  11    1.12    0.69
   0  -4  15    4.69    2.71
   0  -4  16    0.87    1.35
   0  -3 -18   61.59    7.83
   0  -3 -17   47.60    6.63
   0  -3  -8  109.81    7.01
   0  -3  -7  300.54   10.82
   0  -3  -6   10.30    2.00
   0  -3  -5  209.64    7.66
   0  -3  -4  157.11    3.08
   0  -3  -4  161.68    5.93
   0  -3  -4  161.77    6.23
   0  -3  -3  892.56   13.37
   0  -3  -3  865.86   13.42
   0  -3  -2   37.93    2.69
   0  -3  -1    3.89    0.94
   0  -3   0  235.34    6.34
   0  -3   1    7.97    1.20
   0  -3   2  221.33    5.94
   0  -3   3  389.87    8.06
   0  -3   4    0.76    0.50
   0  -3  10  132.89    8.41
   0  -3  11  220.87   10.87
   0  -3  14  238.88   14.30
   0  -3  15   65.56    7.90
   0  -3  16  144.38   12.14
   0  -2 -18   15.94    4.01
   0  -2 -17   21.94    4.60
   0  -2 -16   67.14    7.25
   0  -2  -6  641.10   14.22
   0  -2  -5  703.52   13.87
   0  -2  -4   93.12    4.46
   0  -2  -3  683.07   10.09
   0  -2  -3  689.70   10.90
   0  -2  -2  957.06   11.25
   0  -2  -2  949.62   11.31
   0  -2  -1 1378.70   12.84
   0  -2   0    3.34    0.65
   0  -2   1 1063.03   10.63
   0  -2   2  808.58    9.40
   0  -2   9   47.86    4.48
   0  -2  10   37.51    4.00
   0  -2  11   53.01    4.91
   0  -2  12   21.89    3.58
   0  -2  12   28.94    4.43
   0  -2  13   -0.64    1.03
   0  -2  13    0.63    1.18
   0  -2  14   23.91    4.50
   0  -2  15   27.65    5.23
   0  -2  16    0.96    1.92
   0  -1 -18   36.82    5.71
   0  -1 -17   45.41    5.93
   0  -1 -16   53.76    6.46
   0  -1 -15   24.36    4.04
   0  -1  -3    2.23    0.69
   0  -1  -2   10.93    1.11
   0  -1  -1    4.34    0.55
   0  -1   8   64.56    4.35
   0  -1   9  118.25    6.11
   0  -1  10   53.50    4.39
   0  -1  11  116.98    6.64
   0  -1  11  134.18    8.95
   0  -1  12  515.96   18.47
   0  -1  12  548.60   14.75
   0  -1  13   84.91    7.87
   0  -1  13   87.78    6.13
   0  -1  14   26.74    4.75
   0  -1  15  134.51   10.93
   0  -1  16   47.35    6.85
   0  -1  17  104.57   10.20
   0   0 -17   13.30    3.42
   0   0 -16   28.66    4.57
   0   0 -15   15.78    3.22
   0   0 -14   38.77    4.75
   0   0 -13  181.78    9.87
   0   0   5  120.10    4.24
   0   0   6  173.02    5.45
   0   0   7  637.02   14.96
   0   0   7  647.53   11.18
   0   0   8  442.85   13.50
   0   0   8  420.58    9.63
   0   0   9   34.77    2.96
   0   0   9   37.86    4.29
   0   0  10  112.15    5.56
   0   0  10  127.54    8.13
   0   0  11  452.40   11.62
   0   0  11  421.61   15.64
   0   0  12   40.00    3.65
   0   0  12   43.41    5.29
   0   0  13  199.59    7.52
   0   0  13  204.61   12.00
   0   0  13  195.95    8.19
   0   0  14   40.97    5.67
   0   0  14   38.66    3.33
   0   0  15   17.60    4.05
   0   0  16   28.34    5.09
   0   0  17   17.41    4.37
   0   1 -16   53.85    5.96
   0   1 -15  139.78    9.06
   0   1 -14   25.45    3.74
   0   1 -13   91.36    6.70
   0   1 -12  548.37   15.63
   0   1 -11  117.40    6.90
   0   1   1    9.03    0.80
   0   1   1    9.38    0.80
   0   1   2   12.04    1.06
   0   1   2   11.63    1.16
   0   1   3    1.02    0.51
   0   1   4   11.94    1.57
   0   1   4    6.63    0.65
   0   1   5  137.66    5.83
   0   1   5  131.05    3.32
   0   1   6  258.76    8.77
   0   1   6  247.82    5.22
   0   1   7  218.01    5.39
   0   1   7  207.78    8.46
   0   1   8   92.58    3.83
   0   1   8   85.53    5.83
   0   1   9   51.61    4.90
   0   1   9   52.79    3.10
   0   1  10  101.55    5.11
   0   1  10   99.68    4.55
   0   1  10  104.79    7.37
   0   1  11   55.11    5.63
   0   1  11   53.26    3.89
   0   1  11   51.50    3.42
   0   1  12   97.81    5.40
   0   1  12   99.56    7.90
   0   1  12   96.97    4.89
   0   1  13   79.87    4.61
   0   1  13   83.22    5.09
   0   1  13   71.95    7.09
   0   1  14   40.25    3.65
   0   1  14   36.41    5.36
   0   1  15   26.47    4.90
   0   1  16   61.39    7.65
   0   1  17   36.40    6.07
   0   2 -15   21.71    3.55
   0   2 -14   20.94    3.29
   0   2 -13    2.33    1.23
   0   2 -12   27.34    3.46
   0   2 -11   61.62    4.81
   0   2 -10   32.44    3.25
   0   2  -9   49.05    3.75
   0   2  -8  215.68    7.27
   0   2  -7  303.44    8.00
   0   2  -6  728.48   11.28
   0   2  -5  641.12    9.27
   0   2  -4  564.44    7.49
   0   2  -3  323.72    4.52
   0   2  -1 1149.22   11.05
   0   2   0    2.68    0.60
   0   2   1 1377.31   12.89
   0   2   2  925.37   11.18
   0   2   2  954.06   11.09
   0   2   3  668.42   10.73
   0   2   3  674.06   10.02
   0   2   4   89.89    3.85
   0   2   4   96.32    4.53
   0   2   5  705.08   13.44
   0   2   5  713.87   11.43
   0   2   6  598.10    6.02
   0   2   6  614.45   13.72
   0   2   6  636.28   11.26
   0   2   7  255.35    7.53
   0   2   7  246.04    9.30
   0   2   7  245.82    4.44
   0   2   8  272.82    5.25
   0   2   8  290.23    8.44
   0   2   8  290.20   10.89
   0   2   9  302.08    6.08
   0   2   9  305.26    9.09
   0   2   9  292.47   11.58
   0   2  10  657.86   18.42
   0   2  10  664.70    9.69
   0   2  10  670.05   13.95
   0   2  11   21.96    1.86
   0   2  11   24.40    3.80
   0   2  11   14.58    2.15
   0   2  12  583.05   10.04
   0   2  12  576.35   19.12
   0   2  12  598.79   14.24
   0   2  13    9.63    1.78
   0   2  13   10.09    1.44
   0   2  13    4.71    1.50
   0   2  14  100.97    6.07
   0   2  14   98.92    8.76
   0   2  15   34.30    5.46
   0   2  16   68.21    7.95
   0   2  17   19.85    4.56
   0   3 -14  250.66   10.58
   0   3 -13  215.68    9.37
   0   3 -12   36.73    3.70
   0   3 -11  220.53    8.62
   0   3 -10  136.29    6.37
   0   3  -9  173.36    6.68
   0   3  -8    9.47    1.50
   0   3  -7  361.59    8.03
   0   3  -6  178.82    5.04
   0   3  -5 1009.51   10.39
   0   3  -1    7.14    1.15
   0   3   0  229.41    6.14
   0   3   1    4.46    0.93
   0   3   2   38.19    2.73
   0   3   3  845.63   13.06
   0   3   4  161.96    6.23
   0   3   4  164.34    5.94
   0   3   5  201.78    7.56
   0   3   5  198.26    6.80
   0   3   6    9.64    1.86
   0   3   6   10.70    1.69
   0   3   7  294.05    8.92
   0   3   7  281.68   10.17
   0   3   8  114.64    5.81
   0   3   8  108.57    6.72
   0   3   9   56.15    5.16
   0   3   9   62.87    4.44
   0   3  10    5.82    1.79
   0   3  10    7.91    1.74
   0   3  10    5.78    0.62
   0   3  11    0.73    0.62
   0   3  11    0.27    0.21
   0   3  11    0.29    1.16
   0   3  12   25.67    4.16
   0   3  12   24.65    1.31
   0   3  12   25.73    3.19
   0   3  13   25.90    4.40
   0   3  13   26.56    3.26
   0   3  14   48.29    6.19
   0   3  14   34.86    3.88
   0   3  15   60.52    5.10
   0   3  15   48.20    6.60
   0   3  16   24.55    5.00
   0   3  17   52.66    7.28
   0   4 -11    0.61    0.76
   0   4 -10  131.40    5.81
   0   4  -1  178.52    6.26
   0   4   0  385.57    9.24
   0   4   1  216.98    7.08
   0   4   2  219.61    7.33
   0   4   3    3.45    1.03
   0   4   4  173.69    6.79
   0   4   5  507.28   12.53
   0   4   5  514.92   12.01
   0   4   6  763.33   16.30
   0   4   6  787.53   15.31
   0   4   7  724.58   16.93
   0   4   7  742.58   15.29
   0   4   8  651.87   16.98
   0   4   8  625.71   14.56
   0   4   9  424.42   14.45
   0   4   9  437.49   12.56
   0   4  10  244.81   11.56
   0   4  10  245.05    9.66
   0   4  11  162.97    8.10
   0   4  11  145.86    9.40
   0   4  12  153.28    8.08
   0   4  12  145.79    9.83
   0   4  13   86.59    6.24
   0   4  13   88.16    8.06
   0   4  14  154.89    8.52
   0   4  14  167.88   11.53
   0   4  15  185.84    9.49
   0   4  15  177.84   12.49
   0   4  16   98.54    9.71
   0   4  17   60.53    8.05
   0   5  -1   83.88    4.85
   0   5   0  156.34    6.59
   0   5   1  359.50   10.17
   0   5   2  296.03    9.36
   0   5   3  464.79   12.05
   0   5   4  110.44    6.02
   0   5   5  114.86    6.30
   0   5   6    0.76    0.88
   0   5   7   64.33    5.23
   0   5   7   68.10    5.08
   0   5   8   40.79    4.42
   0   5   8   41.76    4.04
   0   5   9  104.62    7.39
   0   5   9  115.88    6.94
   0   5  10   28.51    4.09
   0   5  10   28.63    3.57
   0   5  11    2.20    1.38
   0   5  11    0.61    0.70
   0   5  12   25.05    3.47
   0   5  12   21.48    3.95
   0   5  13    1.72    0.99
   0   5  13    4.98    2.24
   0   5  14    3.66    2.13
   0   5  14    5.84    2.03
   0   5  15    6.77    2.59
   0   5  15    6.11    1.93
   0   5  16    2.13    1.69
   0   6  -1  168.95    7.59
   0   6   0  925.20   17.71
   0   6   1  446.07   12.37
   0   6   2  295.61   10.30
   0   6   3  351.85   11.31
   0   6   4   74.96    5.36
   0   6   5  455.55   13.42
   0   6   6  398.69   12.81
   0   6   7  133.23    7.60
   0   6   8   54.72    4.94
   0   6   9  294.25   12.78
   0   6   9  305.28   11.93
   0   6  10  306.84   13.62
   0   6  10  305.21   12.20
   0   6  11  273.57   11.89
   0   6  11  266.19   13.26
   0   6  12  306.07   14.85
   0   6  12  286.81   12.40
   0   6  13   71.56    6.35
   0   6  13   72.27    7.61
   0   6  14   18.32    4.23
   0   6  14   18.95    3.41
   0   6  15   -0.08    1.04
   0   6  15    2.08    2.06
   0   6  16  142.83   12.04
   0   7  -1  496.84   14.02
   0   7   0  560.70   15.03
   0   7   1  278.29   10.58
   0   7   2  296.74   11.10
   0   7   3   71.45    5.58
   0   7   4  176.09    8.80
   0   7   5   81.75    6.10
   0   7   6    3.30    1.49
   0   7   7   12.68    2.59
   0   7   8   41.21    4.56
   0   7   9   98.19    7.19
   0   7  10   66.41    6.11
   0   7  11    9.82    2.44
   0   7  12    3.81    1.70
   0   7  13    3.64    1.73
   0   7  13    3.13    2.12
   0   7  14    2.62    1.27
   0   7  14    0.08    1.74
   0   7  15    4.64    2.28
   0   7  15    6.59    2.28
   0   7  16   -0.28    1.43
   0   8  -1    3.09    1.35
   0   8   0   26.92    3.59
   0   8   1  263.87   11.20
   0   8   2  387.04   13.58
   0   8   3   90.11    6.64
   0   8   4  424.71   14.70
   0   8   5  117.87    7.86
   0   8   6   52.64    5.28
   0   8   7  194.81   10.39
   0   8   8   52.06    5.48
   0   8   9   30.62    4.31
   0   8  10   57.28    6.03
   0   8  11  114.45    8.58
   0   8  12   92.28    7.93
   0   8  13   38.34    5.31
   0   8  14  115.71    9.36
   0   8  15  169.72   11.33
   0   8  16   13.15    3.55
   0   9   0  205.58   10.51
   0   9   1  237.61   11.42
   0   9   2  220.65   11.02
   0   9   3  652.76   19.04
   0   9   4   63.40    6.06
   0   9   5  238.24   11.84
   0   9   6   85.20    7.16
   0   9   7  153.45    9.82
   0   9   8   62.04    6.41
   0   9   9   96.13    7.98
   0   9  10   29.63    4.59
   0   9  11   57.72    6.54
   0   9  12    6.72    2.38
   0   9  13    3.62    2.14
   0   9  14   18.05    3.93
   0   9  15    7.80    3.04
   0   9  16   21.27    4.59
   0  10   0   29.96    4.36
   0  10   1   19.91    3.58
   0  10   2    1.58    1.35
   0  10   3    3.77    1.61
   0  10   4   19.83    3.63
   0  10   5   12.87    2.96
   0  10   6   11.49    2.85
   0  10   7   45.64    5.65
   0  10   8   42.82    5.61
   0  10   9   78.38    7.62
   0  10  10   61.54    6.91
   0  10  11   88.38    8.40
   0  10  12   65.28    7.46
   0  10  13   42.13    6.22
   0  10  14   80.99    8.46
   0  10  15   28.81    5.39
   0  10  16   25.70    5.22
   0  11   1  191.37   11.55
   0  11   2  254.09   13.41
   0  11   3  110.33    8.92
   0  11   4  189.82   11.76
   0  11   5  225.36   12.84
   0  11   6   79.68    7.78
   0  11   7  105.33    9.04
   0  11   8   78.67    7.93
   0  11   9   89.60    8.64
   0  11  10  177.06   12.28
   0  11  11   12.00    3.59
   0  11  12   94.20    9.24
   0  11  13   20.04    4.37
   0  11  14    8.79    2.87
   0  11  15   43.50    6.57
   0  12   2    0.79    1.72
   0  12   3   17.38    3.81
   0  12   4   18.94    4.13
   0  12   5    1.72    1.99
   0  12   6    6.27    2.31
   0  12   7    3.92    1.54
   0  12   8   11.19    3.17
   0  12   9   34.13    5.70
   0  12  10   42.72    6.37
   0  12  11    3.65    2.30
   0  12  12   87.46    9.28
   0  13   3   86.88    8.98
   0  13   4  197.57   13.44
   0  13   5  121.31   10.73
   0  13   6   91.98    9.44
   0  13   7   67.83    8.24
   0  13   8   57.16    7.41
   0  13   9   70.28    8.38
   0  14   4    1.57    1.45
   0  14   5   -7.26    2.97
   1 -12  -1   26.43    3.02
   1 -11  -9   60.13    4.78
   1 -11   0  119.23    5.56
   1 -11   1   17.81    1.84
   1 -10  -9   12.66    2.01
   1 -10  -8   36.30    3.62
   1 -10   0   62.53    3.93
   1 -10   1   64.77    3.40
   1  -9 -10   76.19    4.06
   1  -9  -9  223.22    7.61
   1  -9  -8  256.46    8.81
   1  -9   1  222.16    6.11
   1  -9   2   97.56    2.78
   1  -8 -11   19.97    1.10
   1  -8 -10   19.75    1.77
   1  -8  -9   62.11    3.62
   1  -8  -8    5.43    1.17
   1  -8  -7    2.84    0.94
   1  -8  -5    5.47    1.76
   1  -8  -4   48.43    5.15
   1  -8  -3   22.52    3.49
   1  -8  -2    1.92    1.25
   1  -8  -1    0.58    0.99
   1  -8   0  133.52    8.31
   1  -8   1  195.29   10.03
   1  -8   1  163.28    5.03
   1  -8   2  428.12   14.87
   1  -8   2  411.14    5.60
   1  -8   3  332.33   13.14
   1  -8   4  380.74   13.96
   1  -8   5  236.11   10.99
   1  -8   6    3.07    1.29
   1  -8   7  121.72    8.09
   1  -7 -10  157.23    4.22
   1  -7  -9  184.13    5.52
   1  -7  -8  241.77    6.91
   1  -7  -8  234.85   11.57
   1  -7  -7  270.34   11.70
   1  -7  -7  245.80    7.45
   1  -7  -6  239.04   10.97
   1  -7  -6  214.29   10.49
   1  -7  -5  402.24   13.98
   1  -7  -5  412.05   14.22
   1  -7  -4  408.59   13.86
   1  -7  -3  395.11   13.54
   1  -7  -2  568.91   16.03
   1  -7  -1  294.73   11.56
   1  -7   0  174.52    8.82
   1  -7   1  250.29   10.56
   1  -7   2  277.72   11.06
   1  -7   2  270.75    4.24
   1  -7   3  238.27   10.31
   1  -7   4  245.57   10.52
   1  -7   5  197.45    9.41
   1  -7   6  191.32    9.33
   1  -7   7    1.86    1.25
   1  -7   8   11.58    2.29
   1  -7   9   32.89    3.96
   1  -6 -10    8.93    0.91
   1  -6  -9  212.60    5.21
   1  -6  -8    5.95    1.78
   1  -6  -8    6.67    1.03
   1  -6  -7   90.26    6.37
   1  -6  -7   96.62    6.95
   1  -6  -7   98.04    4.15
   1  -6  -6   37.57    4.04
   1  -6  -6   38.28    4.29
   1  -6  -6   42.42    2.92
   1  -6  -5    8.78    2.10
   1  -6  -5    8.97    2.14
   1  -6  -4    0.63    0.94
   1  -6  -4    1.07    0.94
   1  -6  -3    5.77    1.69
   1  -6  -2  238.05    9.57
   1  -6  -1   41.53    4.03
   1  -6   0  137.07    7.22
   1  -6   1   49.86    4.38
   1  -6   2   10.96    2.05
   1  -6   2   11.67    0.78
   1  -6   3  532.06   14.15
   1  -6   4    1.51    0.88
   1  -6   5  246.48    9.74
   1  -6   6  158.93    7.88
   1  -6   7  155.54    7.92
   1  -6   8   84.51    5.90
   1  -6   9    2.20    1.10
   1  -6  10   79.72    5.88
   1  -5 -16    3.62    2.43
   1  -5  -9   71.45    6.43
   1  -5  -9   66.19    2.69
   1  -5  -8  107.96    3.71
   1  -5  -8  116.12    7.63
   1  -5  -7   92.88    3.74
   1  -5  -7   91.05    5.97
   1  -5  -7   96.85    6.63
   1  -5  -6  382.90    7.66
   1  -5  -6  422.01   13.10
   1  -5  -6  377.73   11.78
   1  -5  -5  581.45   10.15
   1  -5  -5  606.79   15.07
   1  -5  -5  609.81   14.69
   1  -5  -4  591.55   14.34
   1  -5  -4  604.84   14.23
   1  -5  -3  107.07    5.95
   1  -5  -2  797.72   16.03
   1  -5  -1  503.69   12.57
   1  -5   0 1528.74   21.90
   1  -5   1  663.59    7.85
   1  -5   1  671.37   14.30
   1  -5   2  270.06    9.07
   1  -5   3  601.49   13.86
   1  -5   4   13.91    2.08
   1  -5   5  158.26    7.23
   1  -5   6  351.08   11.04
   1  -5   7  311.60   10.52
   1  -5   8  274.05    9.97
   1  -5   9   45.62    4.30
   1  -5  10   28.96    3.55
   1  -5  11   61.58    5.34
   1  -4 -17   66.02    7.93
   1  -4 -16   57.66    7.21
   1  -4 -15  140.27   10.66
   1  -4  -9   99.82    3.43
   1  -4  -9  107.18    7.53
   1  -4  -8    8.50    2.22
   1  -4  -8    7.93    0.99
   1  -4  -7   46.59    2.39
   1  -4  -7   47.09    4.43
   1  -4  -6   52.65    3.99
   1  -4  -6   51.88    2.65
   1  -4  -6   48.43    4.25
   1  -4  -5   48.98    2.55
   1  -4  -5   53.56    4.22
   1  -4  -5   53.30    3.90
   1  -4  -4   82.91    4.74
   1  -4  -4   80.63    4.89
   1  -4  -3   31.08    2.89
   1  -4  -2   23.53    2.48
   1  -4  -1    4.50    1.07
   1  -4   0    0.95    0.55
   1  -4   1   97.12    2.64
   1  -4   1  103.47    5.08
   1  -4   2  152.28    6.21
   1  -4   3   62.11    4.05
   1  -3 -17   11.78    3.71
   1  -3 -16   19.83    4.27
   1  -3 -15   12.56    3.30
   1  -3 -14    3.00    1.87
   1  -3  -9    7.99    2.15
   1  -3  -8   38.89    2.32
   1  -3  -8   42.61    4.39
   1  -3  -7  315.17    6.19
   1  -3  -7  306.70   10.92
   1  -3  -6  662.53   12.64
   1  -3  -6  650.36   14.69
   1  -3  -6  635.23    8.52
   1  -3  -5  437.75    7.07
   1  -3  -5  417.57    9.77
   1  -3  -5  461.11   11.48
   1  -3  -4 1175.74   11.55
   1  -3  -4 1167.38   17.57
   1  -3  -4 1182.32   15.98
   1  -3  -3  807.01   13.29
   1  -3  -3  788.25   12.69
   1  -3  -2 1493.21   17.18
   1  -3  -1  971.14   13.54
   1  -3   0  732.77   11.90
   1  -3   1 1043.34   14.21
   1  -3   1 1004.24    7.23
   1  -3  15   25.71    5.08
   1  -3  16    8.89    3.05
   1  -2 -18   60.86    7.76
   1  -2 -17   59.87    7.15
   1  -2 -16   58.94    6.90
   1  -2 -15  153.03   10.54
   1  -2 -14  113.13    8.80
   1  -2 -13   90.22    7.47
   1  -2  -7  294.90    6.56
   1  -2  -7  252.11   10.03
   1  -2  -6  248.28    5.59
   1  -2  -6  265.53    9.09
   1  -2  -5  278.24    8.52
   1  -2  -5  266.92    6.70
   1  -2  -5  288.97    5.64
   1  -2  -4  112.29    3.41
   1  -2  -4  118.63    4.30
   1  -2  -4  115.81    5.00
   1  -2  -3   33.61    1.82
   1  -2  -3   34.25    2.50
   1  -2  -3   38.84    2.39
   1  -2  -2  203.52    4.51
   1  -2  -2  211.08    5.41
   1  -2  -1  367.17    6.99
   1  -2   0  432.12    7.68
   1  -2   0  422.37    5.58
   1  -2  12  141.57    8.21
   1  -2  13  169.71    9.34
   1  -2  14   41.15    6.07
   1  -2  15   41.00    6.33
   1  -2  16   23.49    4.86
   1  -1 -18    4.65    2.00
   1  -1 -17    0.60    1.84
   1  -1 -16    6.67    2.49
   1  -1 -15   -2.58    1.72
   1  -1 -14    0.40    1.16
   1  -1 -13   17.67    3.32
   1  -1 -12    4.09    1.63
   1  -1 -11   29.19    3.86
   1  -1  -6  229.64    6.04
   1  -1  -5  449.84   10.44
   1  -1  -5  455.13    7.77
   1  -1  -4  398.13    6.49
   1  -1  -4  439.05    9.19
   1  -1  -4  443.69    6.96
   1  -1  -3  505.18    6.82
   1  -1  -3  495.66    6.64
   1  -1  -3  480.17    8.44
   1  -1  -2  805.17    8.21
   1  -1  -2  782.89    9.95
   1  -1  -2  801.29    9.38
   1  -1  -2  773.74    7.97
   1  -1  -1  932.16    8.51
   1  -1  -1  947.04    8.86
   1  -1  -1  920.82    9.21
   1  -1  11   62.26    4.88
   1  -1  12  191.83    8.86
   1  -1  12  208.29   12.00
   1  -1  13  180.60   11.77
   1  -1  13  155.82    8.52
   1  -1  14  184.44   12.45
   1  -1  15  113.56   10.16
   1  -1  16   64.02    8.12
   1   0 -18   80.15    8.22
   1   0 -17   56.78    6.76
   1   0 -16   52.84    6.33
   1   0 -15    8.11    2.69
   1   0 -14   53.65    5.82
   1   0 -13  287.27   12.60
   1   0 -12   57.18    5.40
   1   0 -11  320.84   12.08
   1   0 -10  376.70   12.43
   1   0  -9  485.64   13.31
   1   0  -8  997.49   18.25
   1   0  -7  400.30   10.77
   1   0  -6  169.36    6.53
   1   0  -5  184.24    6.34
   1   0  -4   55.87    3.13
   1   0  -4   54.64    2.82
   1   0  -3 1877.09   16.25
   1   0  -3 1885.68   14.85
   1   0  -2  358.84    5.54
   1   0  -2  408.20    6.72
   1   0  -2  368.55    5.93
   1   0  -1  571.33    6.57
   1   0   0  281.31    4.23
   1   0   1  493.41    5.45
   1   0  10   34.62    3.12
   1   0  10   32.28    4.29
   1   0  11    5.14    1.33
   1   0  11    5.77    1.97
   1   0  12    2.21    1.63
   1   0  12    1.04    0.92
   1   0  13    0.83    1.12
   1   0  13   -0.23    0.98
   1   0  14   33.03    5.25
   1   0  15   21.68    4.66
   1   0  16    8.16    2.74
   1   0  17   -1.36    1.94
   1   1 -17    3.45    2.18
   1   1 -16    1.73    1.83
   1   1 -15    8.64    2.32
   1   1 -14   25.59    3.86
   1   1 -13   39.80    4.60
   1   1 -12   18.31    2.96
   1   1 -11    1.67    1.00
   1   1 -10   31.14    3.49
   1   1  -9   31.43    3.34
   1   1  -8   29.59    3.01
   1   1  -7  277.53    8.52
   1   1  -6   18.54    2.16
   1   1  -5  223.46    6.59
   1   1  -4  248.47    6.34
   1   1  -3   48.76    2.49
   1   1  -2  453.54    7.75
   1   1  -1 3419.53   18.92
   1   1   0  106.21    2.92
   1   1   1  263.29    4.20
   1   1   1  256.01    3.88
   1   1   2  357.14    4.02
   1   1   2  336.01    6.38
   1   1   3  854.19   11.94
   1   1   3  857.62    6.10
   1   1   4  119.06    5.10
   1   1   5  480.87   11.60
   1   1   6  956.26   17.46
   1   1   7  953.73   18.84
   1   1   8  252.67    6.30
   1   1   8  269.11   10.78
   1   1   9   96.98    6.83
   1   1   9   89.53    3.99
   1   1  10  293.20   12.61
   1   1  10  280.27    7.46
   1   1  11   27.54    4.12
   1   1  11   28.20    2.48
   1   1  12  384.48    9.48
   1   1  12  391.63   16.05
   1   1  13  161.32   10.82
   1   1  13  168.45    6.44
   1   1  14   80.89    5.84
   1   1  14   77.34    7.87
   1   1  15  106.15    6.75
   1   1  15   91.82    8.97
   1   1  16  112.59   10.22
   1   1  17   63.25    8.08
   1   2 -15   40.63    4.94
   1   2 -14   91.97    6.98
   1   2 -13  177.56    9.31
   1   2 -12  173.84    8.75
   1   2 -11  192.29    8.83
   1   2 -10  182.12    8.08
   1   2  -9  342.19   10.50
   1   2  -8   93.61    5.14
   1   2  -7  342.09    9.18
   1   2  -6  579.03   10.95
   1   2  -5  899.51   12.46
   1   2  -2  435.00    5.99
   1   2  -1  291.96    5.33
   1   2   0  136.95    3.95
   1   2   1  293.72    6.27
   1   2   2  708.35    7.01
   1   2   2  717.24    9.62
   1   2   3  228.66    6.28
   1   2   4  190.06    6.47
   1   2   5   61.86    4.09
   1   2   6    3.73    1.08
   1   2   7  267.03    3.70
   1   2   7  243.22    9.45
   1   2   8   34.28    3.85
   1   2   8   33.95    1.57
   1   2   9  183.32    4.11
   1   2   9  169.18    8.96
   1   2  10   66.26    5.96
   1   2  10   59.19    2.55
   1   2  11   51.57    5.54
   1   2  11   55.45    2.63
   1   2  12    0.11    0.86
   1   2  12    1.47    0.53
   1   2  12   -0.09    0.82
   1   2  13   14.47    2.55
   1   2  13   16.20    1.55
   1   2  13   17.03    3.59
   1   2  14   16.27    3.77
   1   2  14   16.17    2.78
   1   2  15   -0.71    1.80
   1   2  15   -0.45    0.82
   1   2  16    5.51    2.63
   1   2  17   11.71    3.70
   1   3 -14    8.83    2.26
   1   3 -13   21.57    3.22
   1   3 -12    3.42    1.31
   1   3 -11    0.18    0.72
   1   3 -10   15.66    2.30
   1   3  -9    4.36    1.17
   1   3  -8    8.27    1.53
   1   3  -2   39.77    2.36
   1   3  -1  481.05    8.45
   1   3   0   76.39    3.51
   1   3   1 1462.45   16.20
   1   3   2    1.77    0.70
   1   3   3   94.43    4.56
   1   3   3   99.44    4.41
   1   3   4  195.90    6.88
   1   3   4  193.76    6.80
   1   3   5  685.56   13.40
   1   3   5  667.71   13.68
   1   3   6  424.20   10.89
   1   3   6  399.11   11.44
   1   3   7  629.56   13.90
   1   3   7  568.73   14.64
   1   3   8  310.49   10.13
   1   3   8  303.88   11.44
   1   3   9  292.21   10.18
   1   3   9  278.66   11.62
   1   3  10  163.76    7.96
   1   3  10  149.16    9.01
   1   3  11   80.63    5.75
   1   3  11   73.95    6.66
   1   3  12  186.00    8.95
   1   3  12  175.54   10.76
   1   3  13  237.71   10.41
   1   3  13  224.72   12.74
   1   3  14  286.15   15.08
   1   3  14  269.23   11.40
   1   3  15  116.65    7.73
   1   3  15  110.19    9.87
   1   3  16   48.13    6.82
   1   3  17   96.31   10.01
   1   4  -3  446.57    9.23
   1   4  -2  354.62    8.41
   1   4  -1  442.06    9.64
   1   4   0  148.39    5.71
   1   4   1  725.37   12.90
   1   4   2  494.04   11.06
   1   4   3 1101.01   17.15
   1   4   4  860.96   15.10
   1   4   4  898.57   15.98
   1   4   5  984.80   17.31
   1   4   5 1021.85   17.46
   1   4   6  361.23   11.24
   1   4   6  360.25   10.84
   1   4   7  856.52   17.16
   1   4   7  828.53   18.04
   1   4   8   44.49    4.05
   1   4   8   40.06    4.22
   1   4   9  135.02    8.24
   1   4   9  137.96    7.37
   1   4  10  111.90    6.82
   1   4  10   97.59    7.38
   1   4  11   59.13    5.15
   1   4  11   45.54    5.33
   1   4  12   -0.48    1.53
   1   4  12    1.71    1.12
   1   4  13   21.53    4.11
   1   4  13   21.01    3.36
   1   4  14   -2.10    1.76
   1   4  14    2.47    1.38
   1   4  15    1.55    1.84
   1   4  15    0.23    0.98
   1   4  16    6.06    2.49
   1   4  16   12.47    2.71
   1   5  -3   37.79    3.12
   1   5  -2  188.72    6.95
   1   5  -1  118.92    5.56
   1   5   0   20.43    2.43
   1   5   1   62.23    4.24
   1   5   2    8.31    1.68
   1   5   3    3.96    1.35
   1   5   4    6.10    1.52
   1   5   5   19.70    2.71
   1   5   6   42.86    4.04
   1   5   6   40.07    3.91
   1   5   7  189.49    8.93
   1   5   7  201.59    8.96
   1   5   8  315.77   12.20
   1   5   8  321.69   11.64
   1   5   9  268.57   10.93
   1   5   9  230.50   11.02
   1   5  10  176.34   10.07
   1   5  10  196.91    9.64
   1   5  11  254.98   12.70
   1   5  11  264.41   11.45
   1   5  12  132.46    9.65
   1   5  12  122.62    7.99
   1   5  13  100.93    8.81
   1   5  13   99.66    7.39
   1   5  14   43.23    6.18
   1   5  14   37.55    4.69
   1   5  15  239.90   14.88
   1   5  15  240.27   11.97
   1   5  16   75.62    6.86
   1   5  16   82.79    9.10
   1   6  -3  508.59   12.52
   1   6  -2  493.30   12.52
   1   6  -1 1397.54   21.05
   1   6   0  521.02   13.15
   1   6   1  432.13   12.19
   1   6   2  320.49   10.69
   1   6   3 1121.58   20.38
   1   6   4  213.39    9.10
   1   6   5  224.45    9.54
   1   6   6   37.87    4.05
   1   6   7   21.35    3.09
   1   6   7   21.16    3.16
   1   6   8  440.57   14.84
   1   6   8  451.48   14.55
   1   6   9  268.37   12.16
   1   6   9  270.21   11.51
   1   6  10  205.07   11.10
   1   6  10  224.96   10.79
   1   6  11   40.57    5.23
   1   6  11   41.97    4.81
   1   6  12   46.10    5.80
   1   6  12   49.53    5.34
   1   6  13  114.91    9.53
   1   6  13  113.90    8.29
   1   6  14   26.51    4.87
   1   6  14   31.54    4.61
   1   6  15   24.92    5.08
   1   6  15   22.51    4.06
   1   6  16    5.29    2.47
   1   6  16   11.00    3.06
   1   7  -2    9.09    1.88
   1   7  -1   10.80    2.04
   1   7   0   47.76    4.33
   1   7   1    5.23    1.54
   1   7   2    0.03    0.62
   1   7   3   91.62    6.30
   1   7   4   40.69    4.26
   1   7   5   21.13    3.17
   1   7   6    0.94    0.80
   1   7   7   44.85    4.74
   1   7   8  152.33    8.97
   1   7   9   77.05    6.52
   1   7  10   38.67    4.95
   1   7  10   42.32    4.94
   1   7  11   32.53    4.89
   1   7  11   34.67    4.61
   1   7  12   13.77    4.47
   1   7  12   13.47    2.86
   1   7  13   10.81    3.08
   1   7  13   13.89    3.06
   1   7  14   15.05    3.33
   1   7  14   14.72    3.78
   1   7  15  115.95    9.18
   1   7  15  117.46   10.67
   1   7  16   74.69    7.56
   1   7  16   76.93    8.92
   1   8  -2  187.78    9.13
   1   8  -1  194.62    9.28
   1   8   0  107.57    6.95
   1   8   1  404.47   13.69
   1   8   2  497.22   15.40
   1   8   3  235.54   10.79
   1   8   4  421.41   14.67
   1   8   5  108.13    7.59
   1   8   6  170.40    9.68
   1   8   7  150.32    9.17
   1   8   8  183.07   10.35
   1   8   9  103.87    7.98
   1   8  10  127.67    9.00
   1   8  11  127.98    9.25
   1   8  12  103.45    8.50
   1   8  13  106.50    8.79
   1   8  14   49.75    6.18
   1   8  15  119.03    9.74
   1   8  15  128.98   11.45
   1   8  16   41.29    5.97
   1   9  -2  215.94   10.50
   1   9  -1    0.16    0.81
   1   9   0   93.03    6.96
   1   9   1   12.11    2.64
   1   9   2  100.95    7.41
   1   9   3    5.74    1.74
   1   9   4   52.38    5.49
   1   9   5   22.74    3.63
   1   9   6    9.39    2.57
   1   9   7   17.07    3.44
   1   9   8   10.45    2.74
   1   9   9   -0.35    1.58
   1   9  10   92.28    8.10
   1   9  11    3.21    1.68
   1   9  12    6.67    2.36
   1   9  13   26.91    4.87
   1   9  14   57.08    6.92
   1   9  15    8.43    3.21
   1   9  16   17.26    4.15
   1  10  -1  257.92   12.31
   1  10   0   72.16    6.61
   1  10   1  203.78   10.99
   1  10   2  141.37    9.28
   1  10   3  145.37    9.49
   1  10   4  206.68   11.59
   1  10   5  278.11   13.51
   1  10   6  210.36   11.92
   1  10   7  162.49   10.67
   1  10   8  178.20   11.40
   1  10   9  143.46   10.40
   1  10  10  149.15   10.88
   1  10  11   51.74    6.66
   1  10  12  122.45   10.27
   1  10  13   96.33    9.27
   1  10  14   75.87    8.46
   1  10  15   63.80    7.74
   1  10  16   24.19    4.89
   1  11  -1  119.42    8.98
   1  11   0    6.88    2.37
   1  11   1   81.89    7.54
   1  11   2   77.11    7.29
   1  11   3   17.18    3.59
   1  11   4  144.93   10.14
   1  11   5   89.66    8.22
   1  11   6   14.08    3.39
   1  11   7    1.30    1.55
   1  11   8   21.02    4.35
   1  11   9    1.31    1.66
   1  11  10    2.73    2.41
   1  11  11   10.79    3.60
   1  11  12   18.40    4.45
   1  11  13    2.18    1.74
   1  11  14   -0.94    1.35
   1  12   0  104.95    9.03
   1  12   1   88.95    8.30
   1  12   2  102.51    8.93
   1  12   3  159.09   11.24
   1  12   4  130.46   10.16
   1  12   5   55.37    6.88
   1  12   6   19.94    4.34
   1  12   7   36.42    5.73
   1  12   8  206.47   13.62
   1  12   9  267.62   15.70
   1  12  10  143.71   11.72
   1  12  11  207.33   14.16
   1  12  12   17.09    4.42
   1  13   1   51.58    6.84
   1  13   2   48.79    6.71
   1  13   3   59.39    7.42
   1  13   4   45.16    6.49
   1  13   5    0.90    1.57
   1  13   6   57.00    7.30
   1  13   7   75.08    8.34
   1  13   8   49.89    7.00
   1  13   9   15.24    4.00
   1  13  10   14.02    4.01
   1  14   2   22.19    4.80
   1  14   3   95.10    9.66
   1  14   4   70.49    8.29
   1  14   5   12.91    3.78
   2 -14  -9   44.12    6.42
   2 -14  -8   47.10    6.36
   2 -14  -7   49.93    6.41
   2 -14  -6  108.46    8.74
   2 -13 -10    6.33    2.53
   2 -13  -9    3.49    2.55
   2 -13  -8    0.77    1.85
   2 -13  -7   -1.46    2.02
   2 -13  -6   -1.47    1.52
   2 -13  -5    8.01    2.44
   2 -13  -4    1.97    1.48
   2 -12 -11   51.60    7.02
   2 -12 -10   40.29    6.03
   2 -12  -8   92.16    7.02
   2 -12  -7  136.62    9.72
   2 -12  -6   51.53    5.84
   2 -12  -5  112.01    8.07
   2 -12  -4  138.81    8.58
   2 -12  -3   50.07    4.88
   2 -12  -2   64.75    5.19
   2 -12  -1  171.46    7.61
   2 -11 -12    2.69    1.76
   2 -11  -9   10.07    2.11
   2 -11  -8   -0.72    0.88
   2 -11  -5   39.57    4.68
   2 -11  -4    6.72    2.05
   2 -11  -3    3.77    1.48
   2 -11  -2   39.83    3.94
   2 -11  -1   48.47    4.04
   2 -11   0   26.28    2.56
   2 -10 -13   42.07    6.68
   2 -10  -9   32.29    3.46
   2 -10  -8  105.97    6.64
   2 -10  -7   97.46    6.59
   2 -10  -3  105.68    6.63
   2 -10  -2  178.00    8.02
   2 -10  -1  192.81    7.75
   2 -10   0  249.89    7.88
   2  -9 -10   12.60    1.95
   2  -9  -9    9.44    1.79
   2  -9  -8    0.39    0.78
   2  -9  -7   16.81    2.54
   2  -9  -3   14.63    2.43
   2  -9  -2   14.84    2.29
   2  -9  -1    1.65    0.73
   2  -9   0   20.19    2.23
   2  -9   1   60.61    3.25
   2  -8 -14   -3.83    2.09
   2  -8 -11   31.39    2.55
   2  -8 -10  135.27    5.83
   2  -8  -9   99.26    5.28
   2  -8  -8  113.00    5.85
   2  -8  -7  180.20    7.73
   2  -8  -6  430.66   12.32
   2  -8  -3   69.51    6.23
   2  -8  -2   54.25    4.14
   2  -8  -2   59.15    5.70
   2  -8  -1  194.91    7.28
   2  -8  -1  204.10   10.60
   2  -8   0  303.71    8.20
   2  -8   0  299.29   12.71
   2  -8   1  482.92    8.91
   2  -8   1  490.67   16.42
   2  -7 -15   27.90    5.31
   2  -7 -14   32.24    5.51
   2  -7 -13  103.86    9.37
   2  -7 -11  204.68    6.10
   2  -7 -10   29.84    2.58
   2  -7  -9  187.02   10.15
   2  -7  -9  174.29    6.53
   2  -7  -8   62.39    5.77
   2  -7  -8   50.59    3.69
   2  -7  -7   98.26    5.20
   2  -7  -7   99.33    7.26
   2  -7  -6   45.87    5.04
   2  -7  -6   50.04    5.06
   2  -7  -6   50.91    3.92
   2  -7  -5   77.55    6.27
   2  -7  -5   70.82    5.96
   2  -7  -4   38.14    4.35
   2  -7  -3   37.65    4.29
   2  -7  -2   20.95    3.26
   2  -7  -2   21.33    2.48
   2  -7  -1   21.64    2.32
   2  -7  -1   18.22    3.08
   2  -7   0    1.00    0.49
   2  -7   0    1.03    0.90
   2  -7   1    2.33    1.24
   2  -7   1    0.97    0.52
   2  -7   2    5.30    1.66
   2  -7   3   33.07    4.01
   2  -7   4    1.08    0.92
   2  -7   5    1.38    1.11
   2  -7   6    0.14    1.01
   2  -7   7   25.15    3.82
   2  -6 -15   15.25    3.90
   2  -6 -14   -0.01    1.98
   2  -6 -13   11.81    3.33
   2  -6 -11    3.98    0.99
   2  -6 -10   14.40    1.72
   2  -6  -9   44.58    4.76
   2  -6  -9   40.38    2.95
   2  -6  -8   91.36    4.63
   2  -6  -8   97.22    6.81
   2  -6  -7  192.32    6.84
   2  -6  -7  201.11   10.11
   2  -6  -7  189.31    9.44
   2  -6  -6  323.38    9.06
   2  -6  -6  337.89   12.82
   2  -6  -6  335.23   12.35
   2  -6  -5  491.25   11.51
   2  -6  -5  508.14   15.12
   2  -6  -5  499.64   14.56
   2  -6  -4  160.24    8.19
   2  -6  -3  178.56    8.55
   2  -6  -2  381.50   10.18
   2  -6  -2  439.30   13.32
   2  -6  -1  409.68    9.58
   2  -6  -1  419.53   13.18
   2  -6   0  235.33    9.71
   2  -6   0  237.26    6.59
   2  -6   1  468.18    7.97
   2  -6   1  476.66   13.77
   2  -6   2  424.61   13.22
   2  -6   3   53.09    4.77
   2  -6   4  384.19   12.88
   2  -6   5  358.85   12.51
   2  -6   6  139.51    7.93
   2  -6   7   75.80    6.01
   2  -6   8   70.26    5.87
   2  -6   9  286.74   12.27
   2  -6  10   60.21    5.68
   2  -5 -16   50.33    6.84
   2  -5 -15   69.67    8.05
   2  -5 -14  109.40    9.51
   2  -5 -13  184.00   11.74
   2  -5 -12   91.82    7.97
   2  -5 -11  113.29    4.69
   2  -5 -10  247.19    6.97
   2  -5  -9   10.27    1.49
   2  -5  -8  185.62    6.22
   2  -5  -8  199.97   10.08
   2  -5  -8  190.06    8.79
   2  -5  -7  242.13    7.22
   2  -5  -7  252.28   10.78
   2  -5  -7  237.50    9.59
   2  -5  -6  214.21    6.91
   2  -5  -6  229.96    9.96
   2  -5  -6  212.82    8.86
   2  -5  -5  382.39    9.40
   2  -5  -5  397.68   12.57
   2  -5  -5  381.73   11.87
   2  -5  -4   35.54    2.97
   2  -5  -4   36.45    3.67
   2  -5  -3  330.59   10.76
   2  -5  -2  274.51    8.23
   2  -5  -2  283.84    9.90
   2  -5  -1  111.96    4.81
   2  -5  -1  107.33    6.05
   2  -5   0  179.76    5.46
   2  -5   0  179.11    7.78
   2  -5   1   93.84    5.74
   2  -5   2    7.38    1.74
   2  -5   3  237.73    9.44
   2  -4 -16    3.54    2.03
   2  -4 -15    4.50    2.24
   2  -4 -14   47.18    6.15
   2  -4 -13   79.45    7.68
   2  -4 -12   17.34    3.48
   2  -4 -11   31.90    4.48
   2  -4 -10   39.72    2.93
   2  -4  -9   27.25    3.79
   2  -4  -9   23.56    2.20
   2  -4  -8    0.56    0.82
   2  -4  -8    0.71    0.45
   2  -4  -8    0.69    0.73
   2  -4  -7   27.21    2.33
   2  -4  -7   31.12    3.66
   2  -4  -7   30.31    3.18
   2  -4  -6  195.13    8.66
   2  -4  -6  195.95    7.73
   2  -4  -6  186.35    6.09
   2  -4  -5   29.45    3.21
   2  -4  -5   29.41    2.97
   2  -4  -5   25.72    2.31
   2  -4  -4   45.02    3.07
   2  -4  -4   53.05    4.10
   2  -4  -4   50.47    3.81
   2  -4  -3   25.88    2.61
   2  -4  -3   28.17    2.46
   2  -4  -3   23.14    2.60
   2  -4  -2  653.09   13.53
   2  -4  -2  654.55   12.09
   2  -4  -1    8.87    1.33
   2  -4  -1    7.09    1.44
   2  -4   0  599.32   13.04
   2  -4   0  601.30    9.36
   2  -4   1  647.35   13.71
   2  -3 -17   67.44    8.08
   2  -3 -16   78.15    8.22
   2  -3 -15   67.92    7.44
   2  -3 -14   56.42    6.60
   2  -3 -13  147.03    9.95
   2  -3 -12  144.89    9.65
   2  -3 -11  169.48    9.84
   2  -3 -10  127.16    8.19
   2  -3 -10  136.00    5.69
   2  -3  -9   62.68    5.78
   2  -3  -9   72.55    5.91
   2  -3  -9   75.31    4.07
   2  -3  -8   51.20    3.26
   2  -3  -8   49.74    4.81
   2  -3  -8   52.10    4.77
   2  -3  -7  162.00    5.57
   2  -3  -7  176.02    8.19
   2  -3  -7  152.97    6.20
   2  -3  -6  361.39    8.23
   2  -3  -6  368.98   11.35
   2  -3  -6  353.91   10.96
   2  -3  -6  342.36    9.23
   2  -3  -5  672.65   11.12
   2  -3  -5  631.97   12.30
   2  -3  -5  668.29   14.13
   2  -3  -5  655.45   14.31
   2  -3  -4  757.40   14.53
   2  -3  -4  802.19   11.91
   2  -3  -4  824.57   13.63
   2  -3  -4  812.80   14.68
   2  -3  -3 1070.72   15.81
   2  -3  -3 1064.25   13.80
   2  -3  -3 1061.85   15.37
   2  -3  -2 1333.36   15.76
   2  -3  -2 1332.86   16.48
   2  -3  -2 1344.80   17.02
   2  -3  -1  725.68   12.65
   2  -3  -1  695.87   10.76
   2  -3   0  239.00    5.63
   2  -2 -17   10.89    3.47
   2  -2 -16   22.21    4.56
   2  -2 -15   27.35    4.87
   2  -2 -14   35.00    5.19
   2  -2 -13   91.77    7.71
   2  -2 -12   10.63    2.57
   2  -2 -11    5.56    1.84
   2  -2 -10   54.31    5.18
   2  -2  -9   22.69    2.42
   2  -2  -9   25.76    3.47
   2  -2  -8    1.65    0.67
   2  -2  -8   -0.04    0.86
   2  -2  -8    0.30    0.68
   2  -2  -7   50.13    4.31
   2  -2  -7   48.51    4.29
   2  -2  -7   50.84    3.24
   2  -2  -6  263.74    6.89
   2  -2  -6  278.41    9.21
   2  -2  -6  286.35    9.72
   2  -2  -6  272.26    7.23
   2  -2  -5   62.83    3.36
   2  -2  -5   63.01    4.30
   2  -2  -5   63.24    3.30
   2  -2  -5   65.02    4.13
   2  -2  -4   49.10    2.93
   2  -2  -4   49.84    3.60
   2  -2  -4   51.98    3.00
   2  -2  -4   49.68    3.36
   2  -2  -3   16.61    1.66
   2  -2  -3   16.99    2.08
   2  -2  -3   16.57    1.68
   2  -2  -3   16.50    1.84
   2  -2  -2 9812.35   40.81
   2  -2  -2 9999.00   39.49
   2  -2  -2 9727.75   42.97
   2  -2  -1 4890.22   28.01
   2  -2  -1 4828.55   27.08
   2  -2  15  100.94   10.09
   2  -2  16   97.92   10.35
   2  -1 -17   15.20    3.79
   2  -1 -16  102.51    9.18
   2  -1 -15   36.56    5.41
   2  -1 -14    2.43    1.79
   2  -1 -13  225.14   11.78
   2  -1 -12  205.17   10.82
   2  -1 -11  219.32   10.65
   2  -1 -10  246.29   10.80
   2  -1  -9  210.81    9.63
   2  -1  -8  653.50   15.72
   2  -1  -8  673.96   13.21
   2  -1  -7  460.42   12.57
   2  -1  -7  477.74   10.57
   2  -1  -6  472.02   11.80
   2  -1  -6  481.69   12.27
   2  -1  -6  476.75   10.09
   2  -1  -5  757.78    9.26
   2  -1  -5  763.82   14.38
   2  -1  -5  774.67   13.59
   2  -1  -5  783.88   12.19
   2  -1  -4   32.70    2.80
   2  -1  -4   34.87    2.46
   2  -1  -4   32.66    1.90
   2  -1  -4   32.43    2.50
   2  -1  -3  433.68    8.35
   2  -1  -3  441.41    6.93
   2  -1  -3  433.48    9.47
   2  -1  -3  420.39    8.06
   2  -1  -2  607.26    9.56
   2  -1  -2  604.12   10.18
   2  -1  -1  469.82    8.18
   2  -1   0  275.99    6.28
   2  -1  13   -0.42    1.39
   2  -1  14    9.50    2.99
   2  -1  15    2.19    1.59
   2  -1  16    4.99    2.25
   2   0 -17   45.28    6.20
   2   0 -16   29.95    4.86
   2   0 -15   16.66    3.61
   2   0 -14   38.70    5.15
   2   0 -13   46.52    5.34
   2   0 -12   24.06    3.59
   2   0 -11   33.62    4.08
   2   0 -10   69.10    5.61
   2   0  -9  110.75    6.71
   2   0  -8  208.38    8.72
   2   0  -7   98.94    5.18
   2   0  -7   94.65    5.57
   2   0  -6    7.21    1.41
   2   0  -6    6.96    1.42
   2   0  -5  160.65    5.90
   2   0  -5  156.04    6.27
   2   0  -4  172.78    5.45
   2   0  -4  179.44    6.27
   2   0  -4  170.81    5.77
   2   0  -3  782.29   11.56
   2   0  -3  769.37    6.82
   2   0  -3  800.20    9.92
   2   0  -3  784.12   12.21
   2   0  -2 1218.73   13.59
   2   0  -2 1167.28    9.99
   2   0  -1   22.76    1.83
   2   0   0   46.27    2.47
   2   0   1   10.43    1.16
   2   0   2  207.04    5.07
   2   0  12   70.62    7.03
   2   0  13  180.01    8.02
   2   0  13  196.16   12.38
   2   0  14   96.61    9.12
   2   0  15  242.63   15.00
   2   0  16  176.01   13.22
   2   1 -17   33.81    5.21
   2   1 -16    2.83    1.68
   2   1 -15   47.57    5.71
   2   1 -14  133.58    8.97
   2   1 -13   41.99    4.86
   2   1 -12   68.52    6.06
   2   1 -11  153.98    8.46
   2   1 -10  372.41   12.58
   2   1  -9  100.87    6.19
   2   1  -8  401.59   11.67
   2   1  -7   78.56    4.92
   2   1  -6 1304.30   18.68
   2   1  -5  121.96    5.44
   2   1  -5  114.56    5.44
   2   1  -4  506.67   10.74
   2   1  -3 1167.09   15.36
   2   1  -2  117.33    4.58
   2   1  -1 1565.28   15.81
   2   1   0  897.12   11.08
   2   1   1    4.23    0.80
   2   1   2  658.33    8.59
   2   1   3  467.82    7.00
   2   1   4  944.79    9.95
   2   1   5 1507.92   12.97
   2   1   9  107.50    7.57
   2   1  10  234.43   11.60
   2   1  11  128.41    8.97
   2   1  12  133.12    5.91
   2   1  12  126.64    9.37
   2   1  13  125.08    9.71
   2   1  13  130.94    5.84
   2   1  14   26.99    4.90
   2   1  15   52.46    6.92
   2   1  16   25.14    5.03
   2   2 -14   36.10    4.63
   2   2 -13   62.39    5.81
   2   2 -12  164.92    8.99
   2   2 -11   68.42    5.57
   2   2 -10  178.30    8.45
   2   2  -9   14.13    2.37
   2   2  -8  169.72    7.43
   2   2  -7  101.39    5.44
   2   2  -3   60.89    3.92
   2   2  -3   59.14    2.06
   2   2  -2  191.65    4.33
   2   2  -2  199.38    6.57
   2   2  -1    1.18    0.71
   2   2   0    0.89    0.60
   2   2   1  175.99    3.90
   2   2   1  170.75    4.92
   2   2   2   33.17    2.01
   2   2   2   33.07    2.13
   2   2   3    1.81    0.80
   2   2   3    0.37    0.31
   2   2   4    2.36    0.86
   2   2   4    2.75    0.57
   2   2   5   24.45    1.46
   2   2   5   20.45    2.47
   2   2   6   40.10    1.82
   2   2   6   41.03    3.76
   2   2   7  116.94    3.13
   2   2   7  121.98    6.93
   2   2   8   98.91    6.68
   2   2   8  108.24    3.21
   2   2   9  109.70    7.38
   2   2   9  114.18    3.49
   2   2  10   89.52    7.04
   2   2  10   81.13    3.28
   2   2  11  111.61    8.29
   2   2  11  127.55    4.19
   2   2  12   63.31    6.61
   2   2  12   67.05    3.06
   2   2  13  109.88    9.07
   2   2  13  110.31    3.93
   2   2  13  109.88    4.00
   2   2  14   96.36    8.78
   2   2  15  117.24   10.20
   2   2  15  116.88    8.11
   2   2  16  145.31   11.84
   2   3  -4  688.90    8.74
   2   3  -3  653.74    8.84
   2   3  -2  460.73    8.00
   2   3  -1  434.53    8.38
   2   3  -1  450.59   10.12
   2   3   0  966.38   13.24
   2   3   0  955.94   14.05
   2   3   1  743.89   11.44
   2   3   2 1439.01   14.77
   2   3   2 1454.90   14.70
   2   3   3  796.52   12.41
   2   3   3  794.37    9.96
   2   3   4 1028.10   15.76
   2   3   4 1035.57   10.23
   2   3   5  223.18    4.16
   2   3   5  214.73    7.88
   2   3   6 1023.29   18.58
   2   3   6 1014.06    7.34
   2   3   7   14.05    2.31
   2   3   8  242.13   10.36
   2   3   9  537.06   16.30
   2   3  10  365.73   14.25
   2   3  11  143.92    9.42
   2   3  12   28.61    4.47
   2   3  13    7.48    2.37
   2   3  14   71.09    6.34
   2   3  14   74.82    7.84
   2   3  15   87.77    7.16
   2   3  15   80.40    8.59
   2   3  16  101.22    9.89
   2   3  16  108.19    8.07
   2   4  -4  110.32    4.22
   2   4  -3  510.63    9.39
   2   4  -2 1419.64   16.54
   2   4  -1  256.25    7.31
   2   4   0  263.98    7.82
   2   4   1   22.03    2.40
   2   4   2   67.86    4.27
   2   4   3   50.60    3.87
   2   4   3   51.75    3.39
   2   4   4    5.14    1.19
   2   4   4    4.51    1.41
   2   4   5  341.16   10.18
   2   4   6  189.25    8.21
   2   4   7   17.93    2.68
   2   4   8    2.24    1.36
   2   4   9    1.49    1.11
   2   4  10   17.42    3.14
   2   4  10   20.87    3.16
   2   4  11  257.87   11.33
   2   4  11  254.20   12.57
   2   4  12  336.91   13.30
   2   4  12  330.31   15.06
   2   4  13  256.29   11.93
   2   4  13  235.76   13.34
   2   4  14    1.19    1.25
   2   4  14    1.17    0.98
   2   4  15   26.16    4.99
   2   4  15   19.62    3.55
   2   4  16   21.90    4.66
   2   4  16   21.83    3.92
   2   5  -4   62.90    3.75
   2   5  -3  188.46    6.52
   2   5  -2  449.48   10.59
   2   5  -1 1178.90   17.60
   2   5   0  781.98   14.70
   2   5   1  920.16   16.57
   2   5   2  250.57    8.94
   2   5   3  397.16   11.57
   2   5   4  597.46   14.61
   2   5   5  387.21   12.09
   2   5   5  386.71   11.26
   2   5   6  200.37    8.65
   2   5   6  192.74    8.76
   2   5   7  253.13   10.34
   2   5   7  227.02    9.86
   2   5   8  336.75   12.33
   2   5   8  322.36   12.36
   2   5   9  480.87   15.19
   2   5   9  466.64   15.70
   2   5  10  354.41   13.38
   2   5  10  364.18   14.54
   2   5  11  188.65   10.98
   2   5  11  205.37   10.43
   2   5  12  170.23   10.94
   2   5  12  181.77   10.13
   2   5  13   42.24    5.02
   2   5  13   39.27    5.48
   2   5  14  113.33    9.83
   2   5  14  106.44    8.21
   2   5  15   45.16    6.57
   2   5  15   46.39    5.54
   2   5  16   78.28    8.90
   2   5  16   55.75    6.22
   2   6  -4  155.24    6.60
   2   6  -3  114.35    5.78
   2   6  -2  168.94    7.19
   2   6  -1  449.83   12.02
   2   6   0  396.83   11.46
   2   6   1   13.82    2.29
   2   6   2  431.41   12.54
   2   6   3    6.65    1.73
   2   6   4    5.38    1.51
   2   6   5  128.82    7.46
   2   6   6   19.78    2.89
   2   6   6   15.75    2.70
   2   6   7   11.99    2.37
   2   6   7   13.00    2.53
   2   6   8   14.40    2.74
   2   6   8   11.77    2.50
   2   6   9    6.19    2.04
   2   6   9    4.98    1.62
   2   6  10   -0.18    0.98
   2   6  10   -0.03    0.96
   2   6  11   20.86    3.81
   2   6  11   25.60    3.85
   2   6  12   42.36    5.16
   2   6  12   53.16    6.26
   2   6  13    4.04    2.06
   2   6  13    2.92    1.59
   2   6  14   93.74    9.09
   2   6  14  107.10    8.56
   2   6  15   27.06    5.08
   2   6  15   22.88    4.20
   2   6  16   13.97    3.91
   2   6  16   14.38    3.35
   2   7  -3  326.70   10.71
   2   7  -2   98.25    5.97
   2   7  -1  225.52    9.22
   2   7   0   40.52    3.99
   2   7   1    2.94    1.16
   2   7   2  528.43   14.96
   2   7   3   36.73    4.11
   2   7   4  309.45   11.98
   2   7   5  187.04    9.51
   2   7   6  422.49   14.64
   2   7   7  196.00   10.21
   2   7   8  393.29   14.51
   2   7   8  419.17   15.22
   2   7   9  249.42   12.09
   2   7   9  255.48   12.16
   2   7  10  456.63   17.04
   2   7  10  478.44   16.99
   2   7  11  200.35   11.84
   2   7  11  240.43   12.39
   2   7  12   71.59    7.46
   2   7  12   87.60    7.66
   2   7  13  111.82    9.73
   2   7  13  117.95    9.10
   2   7  14   24.31    4.94
   2   7  14   31.98    4.98
   2   7  15  112.01   10.51
   2   7  15  104.05    9.00
   2   7  16  116.52    9.77
   2   7  17   82.05    8.38
   2   8  -3   53.73    4.71
   2   8  -2  318.55   11.50
   2   8  -1  100.12    6.57
   2   8   0   16.00    2.82
   2   8   1   77.98    6.07
   2   8   2  119.47    7.64
   2   8   3   21.84    3.39
   2   8   4  192.84   10.07
   2   8   5  178.86    9.85
   2   8   6   87.34    7.06
   2   8   7  112.12    8.10
   2   8   8   44.59    5.24
   2   8   9   38.68    4.98
   2   8  10   20.70    3.75
   2   8  11    0.26    0.90
   2   8  11    0.11    1.06
   2   8  12   23.03    4.32
   2   8  12   24.74    4.27
   2   8  13    2.03    1.69
   2   8  13   -0.61    1.44
   2   8  14   -1.04    1.50
   2   8  14    2.45    2.17
   2   8  15    0.29    1.50
   2   8  15    3.96    2.32
   2   8  16   18.49    4.37
   2   8  17   16.02    4.11
   2   9  -3    3.88    1.37
   2   9  -2  113.79    7.55
   2   9  -1    8.54    2.06
   2   9   0   15.28    2.81
   2   9   1  129.12    8.30
   2   9   2   25.95    3.85
   2   9   3   44.25    5.10
   2   9   4  379.15   14.89
   2   9   5   95.26    7.62
   2   9   6  332.34   14.41
   2   9   7  146.09    9.75
   2   9   8   45.85    5.60
   2   9   9  331.95   15.20
   2   9  10    2.57    1.73
   2   9  11  212.94   12.75
   2   9  12  139.24   10.51
   2   9  13   30.52    5.14
   2   9  14  230.77   14.10
   2   9  15   78.74    8.46
   2   9  16   78.49    8.55
   2   9  17   51.81    7.40
   2  10  -2    2.81    1.58
   2  10  -1  461.45   16.19
   2  10   0  135.64    8.88
   2  10   1  105.77    7.93
   2  10   2  303.09   13.64
   2  10   3  264.00   12.86
   2  10   4  319.80   14.43
   2  10   5   60.02    6.46
   2  10   6   46.60    5.67
   2  10   7   70.70    7.11
   2  10   8   73.89    7.46
   2  10   9    0.69    1.68
   2  10  10  223.33   13.39
   2  10  11   -0.92    1.60
   2  10  12   -0.17    2.32
   2  10  13    1.05    1.75
   2  10  14   13.50    3.56
   2  10  15    4.74    1.83
   2  10  16   -4.52    2.63
   2  11  -2   16.54    3.46
   2  11  -1    0.25    0.99
   2  11   0  125.53    9.13
   2  11   1   10.84    2.90
   2  11   2   -0.41    1.46
   2  11   3   42.82    5.55
   2  11   4   57.00    6.47
   2  11   5   61.61    6.78
   2  11   6   66.36    7.80
   2  11   7   50.50    6.43
   2  11   8   72.28    7.82
   2  11   9   32.40    5.39
   2  11  10  107.52    9.77
   2  11  11  123.05   10.67
   2  11  12   51.95    7.09
   2  11  13   36.57    6.10
   2  11  14   54.02    7.48
   2  12  -1  104.88    8.81
   2  12   0  236.64   13.39
   2  12   1  268.07   14.18
   2  12   2  248.94   13.68
   2  12   3  123.89    9.84
   2  12   4  164.19   11.56
   2  12   5   93.37    8.86
   2  12   6    7.81    3.16
   2  12   7   40.75    6.01
   2  12   8   33.90    5.58
   2  12   9  210.89   14.00
   2  12  10    5.81    2.57
   2  12  11  102.70   10.14
   2  12  12   74.62    8.69
   2  13   0   21.18    4.65
   2  13   1   -0.18    1.61
   2  13   2   12.09    3.52
   2  13   3   15.60    4.14
   2  13   4   16.79    4.01
   2  13   5   13.60    3.55
   2  13   6   34.48    5.70
   2  13   7    4.01    2.14
   2  13   8   17.85    4.44
   2  13   9   31.14    5.62
   2  14   0   57.71    7.37
   2  14   1   78.82    8.72
   2  14   2   70.95    8.39
   2  14   3  102.87   10.06
   2  14   4   62.47    7.92
   2  14   5  128.94   11.31
   2  14   6  144.95   12.19
   3 -14  -8    8.08    3.24
   3 -14  -7    6.55    3.10
   3 -13  -9   49.36    6.82
   3 -13  -8   14.77    3.76
   3 -13  -7   76.00    7.31
   3 -13  -7   67.06    7.36
   3 -13  -6   45.50    5.82
   3 -13  -5   76.13    7.01
   3 -13  -4   59.77    5.93
   3 -12 -10   34.23    5.57
   3 -12  -9   13.22    3.48
   3 -12  -8   11.71    2.64
   3 -12  -8    8.17    2.81
   3 -12  -7   10.12    2.62
   3 -12  -7   13.96    3.53
   3 -12  -6    6.74    2.40
   3 -12  -5   21.29    3.65
   3 -12  -4   31.11    4.19
   3 -12  -3    0.53    1.00
   3 -12  -2    2.58    1.11
   3 -11 -11    5.71    2.47
   3 -11 -10   10.42    3.29
   3 -11  -9   34.98    4.22
   3 -11  -9   36.64    5.53
   3 -11  -8   49.04    5.08
   3 -11  -8   44.36    5.95
   3 -11  -7   20.08    3.36
   3 -11  -7   15.92    3.53
   3 -11  -6   41.00    5.21
   3 -11  -6   48.31    5.42
   3 -11  -5   73.73    6.59
   3 -11  -4   83.57    6.66
   3 -11  -3   68.50    5.77
   3 -11  -2  114.86    6.84
   3 -11  -1  150.54    7.23
   3 -10 -12   28.84    5.14
   3 -10 -11  124.72   10.38
   3 -10 -10   17.14    4.15
   3 -10  -9   34.78    3.94
   3 -10  -9   35.03    5.27
   3 -10  -8   29.77    3.77
   3 -10  -8   18.43    3.79
   3 -10  -7   44.22    4.78
   3 -10  -7   37.13    4.94
   3 -10  -6  147.86    8.82
   3 -10  -6  126.04    8.66
   3 -10  -5   87.31    6.83
   3 -10  -4   31.90    4.00
   3 -10  -3   26.68    3.49
   3 -10  -2   59.70    4.86
   3 -10  -1   51.39    4.17
   3  -9 -13   -4.66    2.27
   3  -9 -12    9.30    3.22
   3  -9 -11   16.90    4.08
   3  -9 -10    8.08    1.73
   3  -9 -10    7.31    2.75
   3  -9  -9   15.05    2.52
   3  -9  -9   13.39    3.41
   3  -9  -8   24.08    3.24
   3  -9  -8   25.51    4.13
   3  -9  -7    9.83    2.12
   3  -9  -7   11.86    2.85
   3  -9  -6   35.72    4.10
   3  -9  -6   28.77    4.07
   3  -9  -5   56.17    5.34
   3  -9  -4   60.37    5.33
   3  -9  -3  118.49    7.08
   3  -9  -2  139.18    7.18
   3  -9  -1   98.26    5.58
   3  -8 -14   37.62    6.29
   3  -8 -13   69.65    8.03
   3  -8 -12   72.51    7.93
   3  -8 -11   11.27    1.96
   3  -8 -11   16.07    3.94
   3  -8 -10  152.64    7.18
   3  -8 -10  145.43   10.22
   3  -8  -9   59.32    6.43
   3  -8  -9   58.33    4.67
   3  -8  -8  128.55    8.99
   3  -8  -8  134.39    7.08
   3  -8  -7  177.06   10.00
   3  -8  -7  207.89    8.91
   3  -8  -6  162.89    9.31
   3  -8  -6  169.93    8.36
   3  -8  -5  213.68   10.04
   3  -8  -5  235.60    9.99
   3  -8  -4  299.85   11.40
   3  -8  -3   79.13    5.61
   3  -8  -2   87.74    5.57
   3  -8  -1   12.37    1.98
   3  -7 -14   16.20    4.00
   3  -7 -13    0.31    1.62
   3  -7 -12   -0.64    1.67
   3  -7 -11    1.28    0.76
   3  -7 -11    1.77    1.43
   3  -7 -10    0.37    1.77
   3  -7 -10   -0.24    0.78
   3  -7  -9    7.52    1.69
   3  -7  -9    4.76    1.90
   3  -7  -8    0.13    0.52
   3  -7  -8    0.85    1.09
   3  -7  -8    1.24    1.41
   3  -7  -7    9.29    1.87
   3  -7  -7    7.88    2.20
   3  -7  -7    8.56    2.28
   3  -7  -6   89.78    5.65
   3  -7  -6   77.27    6.25
   3  -7  -6   89.39    6.83
   3  -7  -5  164.42    7.85
   3  -7  -5  171.50    9.50
   3  -7  -5  154.23    8.28
   3  -7  -4   50.66    4.56
   3  -7  -4   47.75    4.95
   3  -7  -3   16.48    2.48
   3  -7  -3   14.88    2.76
   3  -7  -2   -0.17    0.99
   3  -7  -2    9.69    1.89
   3  -7  -1   68.31    5.91
   3  -7  -1   70.61    4.42
   3  -7   0  100.08    7.13
   3  -7   1  100.82    7.18
   3  -7   2  437.18   15.03
   3  -7   3  181.92    9.86
   3  -6 -15   38.83    6.05
   3  -6 -14   50.49    6.77
   3  -6 -13   96.45    9.06
   3  -6 -12  126.20    9.78
   3  -6 -12  134.62    5.99
   3  -6 -11   95.46    8.33
   3  -6 -11  106.48    5.47
   3  -6 -10  195.29    7.51
   3  -6 -10  192.76    9.95
   3  -6 -10  191.56   11.26
   3  -6  -9  196.13    9.80
   3  -6  -9  196.53   10.81
   3  -6  -9  190.95    7.56
   3  -6  -8  247.55    8.74
   3  -6  -8  244.33   11.60
   3  -6  -8  233.38   10.81
   3  -6  -7  239.18   10.98
   3  -6  -7  245.66    8.76
   3  -6  -7  260.52   11.84
   3  -6  -7  247.95   10.72
   3  -6  -6  221.10    8.38
   3  -6  -6  233.83   10.42
   3  -6  -6  232.18   10.82
   3  -6  -6  245.05   10.59
   3  -6  -5  392.46   12.79
   3  -6  -5  392.28   11.39
   3  -6  -5  400.50   13.53
   3  -6  -5  434.68   14.45
   3  -6  -4  155.41    7.29
   3  -6  -4  158.86    7.77
   3  -6  -4  177.37    8.87
   3  -6  -3   58.78    4.52
   3  -6  -3   67.16    5.44
   3  -6  -2  126.23    7.38
   3  -6  -2  115.83    5.95
   3  -6  -1   27.10    3.48
   3  -6  -1   30.51    2.84
   3  -6   0   87.20    6.21
   3  -6   1  201.04    9.53
   3  -6   2  293.38   11.58
   3  -6   3  308.67   12.00
   3  -6   4  152.70    8.56
   3  -5 -15   85.55    8.88
   3  -5 -14    3.86    2.27
   3  -5 -13   48.59    6.29
   3  -5 -12    4.98    1.36
   3  -5 -12    6.21    2.48
   3  -5 -11    0.36    0.71
   3  -5 -11    1.40    1.37
   3  -5 -10    2.91    1.00
   3  -5 -10    4.20    1.86
   3  -5  -9   25.86    3.90
   3  -5  -9   28.26    3.44
   3  -5  -9   29.19    2.93
   3  -5  -8    9.83    2.18
   3  -5  -8   11.75    1.88
   3  -5  -8    9.70    2.39
   3  -5  -8    9.07    2.13
   3  -5  -7    0.11    0.92
   3  -5  -7    1.99    0.84
   3  -5  -7    1.21    1.05
   3  -5  -7    0.56    1.09
   3  -5  -6    9.05    2.16
   3  -5  -6    9.60    1.69
   3  -5  -6   14.09    2.43
   3  -5  -6   13.77    2.54
   3  -5  -5    5.41    1.69
   3  -5  -5    5.10    1.44
   3  -5  -5    3.74    1.10
   3  -5  -5    3.63    1.29
   3  -5  -4    9.38    1.97
   3  -5  -4   11.19    1.89
   3  -5  -4    5.45    1.53
   3  -5  -3 1318.26   20.16
   3  -5  -3 1241.80   21.79
   3  -5  -3 1302.20   20.29
   3  -5  -2  103.50    6.15
   3  -5  -2  100.13    5.32
   3  -5  -1   19.55    2.23
   3  -5  -1   20.28    2.92
   3  -5   0  181.46    8.46
   3  -5   1   93.82    6.04
   3  -4 -16   22.39    4.82
   3  -4 -15   53.45    6.96
   3  -4 -14   24.90    4.56
   3  -4 -13   51.73    6.36
   3  -4 -12  134.94    9.69
   3  -4 -12  144.60    6.64
   3  -4 -11  115.87    8.76
   3  -4 -11  128.15    6.21
   3  -4 -10  163.70    9.90
   3  -4 -10  178.56    7.19
   3  -4  -9   65.57    4.80
   3  -4  -9   82.19    6.61
   3  -4  -9   68.26    4.40
   3  -4  -8  178.41    6.99
   3  -4  -8  169.09    9.39
   3  -4  -8  187.68    9.44
   3  -4  -8  187.95    7.92
   3  -4  -7  201.45    7.41
   3  -4  -7  199.15    9.47
   3  -4  -7  197.52    9.24
   3  -4  -7  209.42    8.33
   3  -4  -6  285.66    8.77
   3  -4  -6  266.26   10.67
   3  -4  -6  271.73    9.39
   3  -4  -6  280.20   10.59
   3  -4  -5  419.41   12.54
   3  -4  -5  443.67   11.88
   3  -4  -5  455.56   12.87
   3  -4  -5  443.88   10.87
   3  -4  -4  196.55    7.17
   3  -4  -4  187.08    7.95
   3  -4  -4  189.24    7.67
   3  -4  -3  294.30    8.93
   3  -4  -3  309.44    9.73
   3  -4  -3  295.57    9.42
   3  -4  -2  310.32    9.26
   3  -4  -2  325.49   10.11
   3  -4  -2  306.55    9.12
   3  -4  -1  544.57   11.07
   3  -4  -1  546.10   13.21
   3  -3 -16   33.20    5.58
   3  -3 -15   46.50    6.47
   3  -3 -14   12.73    3.43
   3  -3 -13  104.47    8.81
   3  -3 -12  130.91    9.37
   3  -3 -11   34.90    4.71
   3  -3 -11   42.18    3.79
   3  -3 -10   61.39    6.10
   3  -3 -10   56.12    5.59
   3  -3 -10   61.67    4.37
   3  -3  -9   20.72    3.24
   3  -3  -9   26.02    3.84
   3  -3  -9   23.62    2.66
   3  -3  -8   10.62    2.33
   3  -3  -8    9.10    1.60
   3  -3  -8    8.79    1.55
   3  -3  -8    7.56    2.07
   3  -3  -7   16.08    2.62
   3  -3  -7   12.87    1.89
   3  -3  -7   12.92    1.93
   3  -3  -7   12.42    2.55
   3  -3  -6    7.97    1.78
   3  -3  -6    7.87    1.86
   3  -3  -6    8.47    1.47
   3  -3  -6    8.78    1.53
   3  -3  -5   89.86    4.76
   3  -3  -5   83.97    5.47
   3  -3  -5   92.04    4.87
   3  -3  -5   90.82    5.40
   3  -3  -4  249.90    7.83
   3  -3  -4  256.45    7.98
   3  -3  -4  260.27    9.20
   3  -3  -4  256.86    8.60
   3  -3  -3  286.49    8.33
   3  -3  -3  278.95    8.39
   3  -3  -3  288.30    8.93
   3  -3  -2   50.56    3.57
   3  -3  -2   56.74    3.75
   3  -3  -2   56.20    3.80
   3  -3  -1   12.34    1.86
   3  -2 -16    1.76    1.36
   3  -2 -15    1.48    1.94
   3  -2 -14   59.80    6.98
   3  -2 -13   20.74    3.90
   3  -2 -12   52.21    5.84
   3  -2 -11   33.07    4.41
   3  -2 -10   51.29    5.28
   3  -2 -10   55.19    4.38
   3  -2  -9  147.61    8.54
   3  -2  -9  164.51    7.21
   3  -2  -8  244.06   10.53
   3  -2  -8  249.87    8.53
   3  -2  -8  243.56   10.26
   3  -2  -7  148.72    5.40
   3  -2  -7  141.32    7.67
   3  -2  -7  152.00    6.46
   3  -2  -7  155.22    7.44
   3  -2  -6  256.26    8.14
   3  -2  -6  267.84   10.03
   3  -2  -6  265.71    7.21
   3  -2  -6  273.90    9.24
   3  -2  -5   63.11    3.94
   3  -2  -5   52.64    3.29
   3  -2  -5   59.79    4.46
   3  -2  -5   57.96    3.97
   3  -2  -4  903.16   14.68
   3  -2  -4  902.55   13.11
   3  -2  -4  899.00   14.74
   3  -2  -4  870.07   16.01
   3  -2  -3  892.83   15.47
   3  -2  -3  890.41   13.35
   3  -2  -3  929.22   14.51
   3  -2  -2 1090.64   15.61
   3  -2  -1  318.60    8.32
   3  -2   0  705.71   12.68
   3  -1 -17   24.28    4.89
   3  -1 -16   40.31    5.93
   3  -1 -15   46.15    6.23
   3  -1 -14  171.10   10.98
   3  -1 -13   34.48    4.84
   3  -1 -12   38.67    4.93
   3  -1 -11  107.79    7.78
   3  -1 -10  154.97    8.98
   3  -1  -9  213.78    8.57
   3  -1  -9  199.11    9.70
   3  -1  -8   34.99    3.94
   3  -1  -8   31.63    3.20
   3  -1  -7  164.58    6.99
   3  -1  -7  155.55    7.87
   3  -1  -7  156.92    7.43
   3  -1  -6   31.76    3.36
   3  -1  -6   29.49    1.96
   3  -1  -6   28.67    2.87
   3  -1  -6   28.98    2.83
   3  -1  -5    3.63    1.06
   3  -1  -5    2.95    1.04
   3  -1  -5    2.07    0.90
   3  -1  -5    1.71    0.51
   3  -1  -4  223.71    7.28
   3  -1  -4  227.72    5.71
   3  -1  -4  229.36    8.08
   3  -1  -4  240.77    6.91
   3  -1  -3  701.19   12.54
   3  -1  -3  670.83   10.64
   3  -1  -2   12.43    1.69
   3  -1  -1   45.01    3.09
   3  -1   0   17.33    1.91
   3  -1   1    0.96    0.64
   3  -1   2  116.66    4.96
   3  -1  15   54.43    7.35
   3  -1  16   24.90    5.30
   3   0 -17    6.31    2.81
   3   0 -16   -0.55    2.27
   3   0 -15   -2.41    1.87
   3   0 -14    8.43    2.51
   3   0 -13   50.77    5.68
   3   0 -12   29.21    4.15
   3   0 -11   45.53    5.08
   3   0 -10  151.80    8.59
   3   0  -9   26.08    3.48
   3   0  -8   22.60    2.92
   3   0  -8   22.86    3.16
   3   0  -7   48.25    3.95
   3   0  -7   50.20    4.36
   3   0  -6  283.55    9.74
   3   0  -6  280.27    9.16
   3   0  -5  390.25   10.91
   3   0  -5  368.19    5.33
   3   0  -5  409.92   10.60
   3   0  -5  403.84    9.34
   3   0  -4  566.03    7.42
   3   0  -4  595.63    9.93
   3   0  -4  599.22   12.41
   3   0  -3 1233.84   12.49
   3   0  -3 1262.35   17.09
   3   0  -2  992.98   14.75
   3   0  -2 1008.18   10.03
   3   0  -1  240.51    7.06
   3   0   0   80.32    3.98
   3   0   1  122.10    4.81
   3   0   2  110.87    4.53
   3   0   3  449.82    9.14
   3   0   4  869.27   12.98
   3   0  13  106.09    9.32
   3   0  14  194.73   13.24
   3   0  15  100.72    9.89
   3   0  16   12.99    3.83
   3   1 -14  161.54   10.40
   3   1 -13  104.96    8.00
   3   1 -12   74.91    6.48
   3   1 -11   70.85    6.04
   3   1 -10   83.07    6.25
   3   1  -9  319.07   11.68
   3   1  -8  179.11    8.50
   3   1  -7   16.66    2.52
   3   1  -7   12.38    2.16
   3   1  -6  343.46   10.71
   3   1  -5   34.75    3.27
   3   1  -4  135.77    6.18
   3   1  -3  225.54    7.61
   3   1  -2   50.53    1.66
   3   1  -2   50.33    3.46
   3   1  -1  671.99   12.08
   3   1   0   61.80    3.53
   3   1   1  230.41    6.64
   3   1   2  238.91    6.50
   3   1   3  484.55    9.16
   3   1   4  132.55    4.72
   3   1   5  200.12    5.74
   3   1   6    1.02    0.53
   3   1   7    0.52    0.52
   3   1   8   21.43    2.07
   3   1  10    0.77    0.80
   3   1  11    8.77    2.60
   3   1  12    9.80    2.72
   3   1  13   66.40    7.36
   3   1  14   63.42    7.48
   3   1  15   17.43    4.11
   3   1  16   52.01    7.28
   3   2  -6    5.77    1.51
   3   2  -5  350.79   11.04
   3   2  -4  358.22    5.13
   3   2  -4  355.77   10.61
   3   2  -3  378.08   10.49
   3   2  -2  270.56    8.49
   3   2  -1   74.70    4.24
   3   2   0   35.83    2.84
   3   2   1    8.99    1.41
   3   2   1   11.02    1.07
   3   2   2  173.04    5.59
   3   2   2  174.85    5.19
   3   2   3  223.43    6.18
   3   2   3  227.82    6.88
   3   2   4  988.49   12.61
   3   2   4  977.23   16.03
   3   2   5  478.49    8.52
   3   2   5  472.18   12.16
   3   2   6 1420.71   14.49
   3   2   6 1402.39   22.87
   3   2   7  407.61    7.74
   3   2   7  417.22   13.14
   3   2   8  258.05    6.20
   3   2   8  250.45   10.86
   3   2   9  310.28    6.84
   3   2   9  327.35   13.13
   3   2  10  563.54    9.28
   3   2  10  588.56   18.60
   3   2  11  529.65    9.21
   3   2  11  525.87   18.42
   3   2  12  300.06   14.48
   3   2  12  292.34    6.91
   3   2  13  150.76    4.92
   3   2  13  148.98   10.71
   3   2  13  170.50    5.60
   3   2  14   46.17    6.38
   3   2  15   68.60    8.01
   3   2  16   55.03    7.44
   3   3  -4  591.83    8.03
   3   3  -4  642.17   15.16
   3   3  -3  606.81    9.32
   3   3  -3  627.68   14.44
   3   3  -2  451.28    8.79
   3   3  -2  433.70   11.45
   3   3  -1  428.21   10.85
   3   3   0  265.05    8.19
   3   3   1   26.39    1.69
   3   3   1   23.76    2.39
   3   3   2   20.93    2.10
   3   3   2   22.78    1.90
   3   3   3   31.99    2.57
   3   3   3   32.87    2.48
   3   3   4    1.24    0.74
   3   3   4    0.51    0.37
   3   3   5  156.93    4.79
   3   3   5  160.99    6.96
   3   3   6  239.08    5.62
   3   3   6  239.92    9.27
   3   3   7   89.97    3.27
   3   3   7   92.05    6.18
   3   3   8   64.62    2.64
   3   3   8   59.29    5.29
   3   3   9   17.83    1.36
   3   3   9   20.41    3.28
   3   3  10    1.40    1.24
   3   3  10    1.01    0.41
   3   3  11   13.40    0.95
   3   3  11   10.03    2.52
   3   3  11   12.74    0.99
   3   3  12   19.23    3.69
   3   3  13   74.60    7.61
   3   3  14   13.60    3.50
   3   3  15    7.13    2.84
   3   3  16   32.23    5.63
   3   3  16   26.15    4.26
   3   4  -5   10.64    1.20
   3   4  -4    9.17    1.25
   3   4  -3   21.22    1.99
   3   4  -2  226.43    7.01
   3   4  -1  155.83    7.05
   3   4  -1  161.03    6.11
   3   4   0  382.61    9.96
   3   4   0  374.35   10.53
   3   4   1    6.21    1.28
   3   4   2 1533.87   19.06
   3   4   3  925.00   14.10
   3   4   3  946.51   14.09
   3   4   4 1833.83   22.00
   3   4   4 1850.10   18.50
   3   4   5  566.59   13.24
   3   4   5  569.11    9.61
   3   4   6   42.56    3.92
   3   4   6   41.46    2.41
   3   4   7  111.51    6.83
   3   4   7  116.22    3.57
   3   4   8  104.69    7.02
   3   4   8  105.80    2.89
   3   4   9  357.03   13.66
   3   4  10   86.90    7.13
   3   4  11   46.76    5.54
   3   4  12  232.57   12.85
   3   4  13  163.59   11.27
   3   4  14  263.93   13.20
   3   4  14  279.04   15.43
   3   4  15  158.49   10.43
   3   4  15  160.13   12.16
   3   4  16  106.44    8.79
   3   4  16  108.28   10.37
   3   4  17   40.17    5.54
   3   5  -5   38.66    2.74
   3   5  -4  431.75    9.49
   3   5  -3  720.17   12.95
   3   5  -2  930.54   15.49
   3   5  -1  575.04   12.61
   3   5   0  473.35   11.93
   3   5   1   38.60    3.57
   3   5   2  794.41   16.61
   3   5   3  125.10    6.82
   3   5   4   24.28    3.16
   3   5   4   18.87    2.38
   3   5   5  135.02    6.67
   3   5   6  182.04    8.34
   3   5   7  109.96    6.87
   3   5   8   57.26    5.30
   3   5   9   32.32    4.18
   3   5  10   39.13    4.85
   3   5  11    3.60    1.86
   3   5  11    1.87    1.39
   3   5  12   -0.07    1.06
   3   5  12    0.23    0.95
   3   5  13   57.11    6.15
   3   5  13   60.87    6.93
   3   5  14    2.49    2.31
   3   5  14    1.83    1.83
   3   5  15    4.17    2.32
   3   5  15    4.41    2.42
   3   5  16    0.80    1.22
   3   5  16   -0.71    1.36
   3   5  17    2.38    2.30
   3   6  -4   22.26    2.42
   3   6  -3   37.50    3.29
   3   6  -2   80.04    5.01
   3   6  -1    2.13    1.01
   3   6   0   13.14    2.18
   3   6   1  123.54    6.75
   3   6   2   33.47    3.64
   3   6   3  298.57   11.13
   3   6   4  131.92    7.58
   3   6   5  184.22    9.20
   3   6   5  190.19    8.25
   3   6   6  116.35    6.90
   3   6   6  116.56    7.52
   3   6   7  281.73   12.02
   3   6   7  263.40   10.89
   3   6   8   88.93    6.94
   3   6   8   78.63    6.36
   3   6   9  143.42    9.06
   3   6   9  149.03    9.13
   3   6  10  168.93   10.05
   3   6  10  176.82   10.42
   3   6  11   90.70    7.53
   3   6  11   83.74    7.55
   3   6  12  190.02   11.85
   3   6  12  182.43   10.98
   3   6  13   24.79    4.62
   3   6  13   31.70    4.66
   3   6  14  160.90   11.95
   3   6  14  176.04   11.33
   3   6  15  155.98   12.28
   3   6  15  121.72    9.76
   3   6  16   77.75    8.08
   3   6  16  116.25   10.95
   3   6  17   61.67    7.47
   3   7  -4   55.47    4.30
   3   7  -3  752.21   16.07
   3   7  -2  165.17    7.75
   3   7  -1  565.18   14.75
   3   7   0  144.38    7.64
   3   7   1  293.53   11.16
   3   7   2  160.60    8.48
   3   7   3  517.01   15.47
   3   7   4  284.50   11.87
   3   7   5  459.38   15.38
   3   7   6   58.10    5.65
   3   7   7  338.74   12.80
   3   7   7  364.82   14.33
   3   7   8  584.31   17.65
   3   7   8  613.77   18.94
   3   7   9    8.04    2.30
   3   7   9    6.79    2.02
   3   7  10  104.09    8.15
   3   7  10  105.98    8.26
   3   7  11   60.86    6.64
   3   7  11   70.53    7.09
   3   7  12  124.30    9.46
   3   7  12  147.14   10.65
   3   7  13    3.90    2.38
   3   7  13    4.27    2.14
   3   7  14   10.94    3.43
   3   7  14   11.54    3.27
   3   7  15   32.09    5.63
   3   7  15   26.49    4.66
   3   7  16    1.37    2.30
   3   7  17    3.02    2.38
   3   8  -4   37.75    3.90
   3   8  -3   26.90    3.31
   3   8  -2   67.26    5.38
   3   8  -1   -0.35    0.85
   3   8   0    1.56    1.00
   3   8   1    0.20    0.70
   3   8   2    6.20    1.86
   3   8   3   25.48    3.71
   3   8   4   29.40    3.98
   3   8   5   19.48    3.39
   3   8   6   26.97    3.95
   3   8   7   34.09    4.63
   3   8   8   62.27    6.36
   3   8   9  234.02   12.60
   3   8  10   45.31    5.58
   3   8  10   50.84    6.03
   3   8  11   94.95    8.45
   3   8  11  104.15    8.79
   3   8  12  133.79   10.42
   3   8  12  140.99   10.43
   3   8  13  108.39    9.85
   3   8  13  112.09    9.54
   3   8  14   89.94    9.36
   3   8  14   81.31    8.35
   3   8  15   93.89    9.80
   3   8  15   84.48    8.81
   3   8  16   66.80    7.77
   3   8  17   79.66    8.71
   3   9  -4  191.52    9.35
   3   9  -3  253.44   11.02
   3   9  -2  623.35   17.24
   3   9  -1  189.12    9.77
   3   9   0  199.21   10.18
   3   9   1  229.37   11.13
   3   9   2   14.30    2.90
   3   9   3  136.92    8.96
   3   9   4  280.99   13.01
   3   9   5  544.93   18.50
   3   9   6  585.75   19.53
   3   9   7  268.88   13.48
   3   9   8  111.91    8.87
   3   9   9  221.87   12.71
   3   9  10    8.54    2.61
   3   9  11   93.88    8.67
   3   9  12   32.65    5.34
   3   9  13  105.48    9.59
   3   9  14   71.49    8.43
   3   9  14   71.67    8.07
   3   9  15   35.78    5.92
   3   9  16    6.70    2.70
   3  10  -3    0.58    0.92
   3  10  -2   37.11    4.63
   3  10  -1    5.86    1.86
   3  10   0   27.85    4.08
   3  10   1   53.72    5.75
   3  10   2   12.09    2.86
   3  10   3    4.28    1.91
   3  10   4   63.94    6.55
   3  10   5    5.66    2.04
   3  10   6   19.07    3.79
   3  10   7    2.77    2.15
   3  10   8   10.09    3.04
   3  10   9    1.28    1.27
   3  10  10  179.78   12.30
   3  10  11   34.86    5.51
   3  10  12   41.04    6.25
   3  10  13   14.23    3.96
   3  10  14   42.86    6.45
   3  10  15   25.36    5.10
   3  11  -3   72.97    6.72
   3  11  -2  313.78   14.12
   3  11  -1  143.15    9.56
   3  11   0  159.22   10.18
   3  11   1  148.18   10.05
   3  11   2  271.73   13.77
   3  11   3  326.42   15.33
   3  11   4   34.51    5.12
   3  11   5   19.49    4.06
   3  11   6   75.06    7.80
   3  11   7  177.12   12.03
   3  11   8  168.08   11.95
   3  11   9  279.36   15.66
   3  11  10   66.29    7.84
   3  11  11   60.11    7.58
   3  11  12   61.78    7.83
   3  11  13   92.68    9.72
   3  12  -2   52.63    6.31
   3  12  -1   17.84    3.89
   3  12   0   50.90    6.17
   3  12   1  201.17   12.26
   3  12   2   40.57    5.76
   3  12   3    2.89    1.83
   3  12   4   28.92    4.96
   3  12   5   21.36    4.49
   3  12   6    1.48    1.51
   3  12   7   23.75    4.78
   3  12   8    1.55    1.74
   3  12   9   -3.81    2.25
   3  12  10    1.69    1.41
   3  12  11    6.51    2.82
   3  13  -2   46.67    6.40
   3  13  -1    8.45    2.95
   3  13   0   88.01    8.61
   3  13   1   38.07    5.76
   3  13   2   40.63    6.07
   3  13   3  148.43   11.46
   3  13   4   72.92    8.20
   3  13   5  133.22   11.17
   3  13   6   48.72    6.84
   3  13   7  190.78   13.61
   3  13   8  117.10   10.87
   3  13   9   42.47    6.62
   3  14  -1   44.03    6.47
   3  14   0   55.23    7.21
   3  14   1   44.88    6.64
   3  14   2   28.72    5.38
   3  14   3   31.69    5.54
   3  14   4   31.58    5.66
   3  14   5    2.79    1.85
   4 -14  -6   16.45    4.02
   4 -14  -5   46.07    6.45
   4 -13  -9   37.60    6.12
   4 -13  -8   37.70    5.98
   4 -13  -7    8.14    2.94
   4 -13  -7   10.31    3.33
   4 -13  -6   51.73    6.53
   4 -13  -6   38.14    5.52
   4 -13  -5   14.82    3.34
   4 -13  -5   19.81    4.24
   4 -12 -10    4.90    1.81
   4 -12  -9    6.96    2.78
   4 -12  -8   10.06    3.28
   4 -12  -8   13.95    3.16
   4 -12  -7    6.07    2.98
   4 -12  -7    3.86    2.02
   4 -12  -6   23.99    4.35
   4 -12  -6   32.97    5.03
   4 -12  -5    8.53    2.66
   4 -12  -5   16.75    3.89
   4 -12  -4   13.00    2.94
   4 -12  -3   13.53    2.65
   4 -11 -11   63.93    7.97
   4 -11 -10   84.08    8.67
   4 -11  -9   61.20    5.94
   4 -11  -9   59.83    7.21
   4 -11  -8   70.47    7.52
   4 -11  -8   52.54    5.65
   4 -11  -7   70.22    6.55
   4 -11  -7   72.49    7.31
   4 -11  -6   26.82    4.53
   4 -11  -6   26.81    4.28
   4 -11  -5   40.63    5.23
   4 -11  -5   37.22    4.82
   4 -11  -4   45.66    5.13
   4 -11  -3   88.23    6.62
   4 -10 -11    2.51    1.71
   4 -10 -10    0.52    1.63
   4 -10  -9    0.99    1.92
   4 -10  -9    2.92    1.28
   4 -10  -8    5.51    2.48
   4 -10  -8    5.04    2.01
   4 -10  -7    2.02    1.73
   4 -10  -7   -4.20    1.69
   4 -10  -6    3.38    1.77
   4 -10  -6   -1.49    1.17
   4 -10  -5   18.07    3.32
   4 -10  -5   24.25    3.78
   4 -10  -4   12.43    2.67
   4 -10  -3    8.91    2.32
   4 -10  -2   16.34    2.68
   4  -9 -12   90.11    9.10
   4  -9 -11   33.62    5.69
   4  -9 -10   71.59    5.78
   4  -9 -10   65.84    7.45
   4  -9  -9   62.47    5.54
   4  -9  -9   53.96    6.53
   4  -9  -8  104.16    7.18
   4  -9  -8   92.61    8.18
   4  -9  -7  105.61    7.33
   4  -9  -7  114.66    8.63
   4  -9  -6  110.62    7.63
   4  -9  -6  115.51    8.29
   4  -9  -5  138.78    8.67
   4  -9  -5  132.84    8.57
   4  -9  -4  161.10    9.49
   4  -9  -4  139.36    8.31
   4  -9  -3  132.43    7.73
   4  -9  -2  200.34    9.03
   4  -8 -13    7.75    3.31
   4  -8 -12    7.27    3.10
   4  -8 -11    5.28    2.85
   4  -8 -11    6.26    1.76
   4  -8 -10   11.95    3.40
   4  -8 -10    3.35    1.37
   4  -8  -9   16.88    3.72
   4  -8  -9   18.92    2.91
   4  -8  -8   30.76    4.55
   4  -8  -8   37.70    4.17
   4  -8  -7   29.78    3.76
   4  -8  -7   29.04    4.35
   4  -8  -6   -0.88    1.23
   4  -8  -6    1.25    1.03
   4  -8  -5    1.09    1.22
   4  -8  -5   -0.42    0.81
   4  -8  -4   40.40    4.48
   4  -8  -4   37.58    4.22
   4  -8  -3    4.10    1.50
   4  -8  -2   24.96    3.13
   4  -7 -13   35.15    5.86
   4  -7 -12   35.47    5.71
   4  -7 -11   88.28    8.46
   4  -7 -11  104.71    6.37
   4  -7 -10   42.38    4.13
   4  -7 -10   34.71    5.15
   4  -7  -9   47.27    4.45
   4  -7  -9   49.44    5.90
   4  -7  -8   68.89    5.38
   4  -7  -8   70.76    6.77
   4  -7  -7   84.26    5.96
   4  -7  -7   86.61    7.12
   4  -7  -6  193.98    9.11
   4  -7  -6  174.16    9.65
   4  -7  -5  120.41    7.22
   4  -7  -5  119.35    7.73
   4  -7  -4  205.43    9.57
   4  -7  -4  196.00    9.40
   4  -7  -3  199.28    9.05
   4  -7  -3  204.87    9.75
   4  -7  -2  171.77    7.89
   4  -6 -14    3.87    2.12
   4  -6 -13   56.37    7.22
   4  -6 -12   41.40    5.97
   4  -6 -12   40.91    3.93
   4  -6 -11   16.61    3.86
   4  -6 -11   16.12    2.59
   4  -6 -10   12.16    3.13
   4  -6 -10   18.53    2.65
   4  -6 -10   13.90    2.80
   4  -6  -9   69.78    5.19
   4  -6  -9   58.77    5.50
   4  -6  -9   65.98    6.66
   4  -6  -8  111.73    8.18
   4  -6  -8  112.37    6.61
   4  -6  -8   99.19    7.01
   4  -6  -7   28.84    3.40
   4  -6  -7   26.39    3.87
   4  -6  -7   28.85    3.89
   4  -6  -6   13.55    2.78
   4  -6  -6   14.63    2.91
   4  -6  -6   14.13    2.75
   4  -6  -6   13.73    2.38
   4  -6  -5    3.06    1.46
   4  -6  -5    1.70    1.27
   4  -6  -5    0.84    0.92
   4  -6  -5    1.65    1.02
   4  -6  -4   35.71    3.83
   4  -6  -4   41.74    4.49
   4  -6  -4   40.38    4.16
   4  -6  -3   30.30    3.60
   4  -6  -3   39.38    4.30
   4  -6  -3   32.33    3.55
   4  -6  -2   74.14    5.08
   4  -6  -2   72.56    5.59
   4  -6  -2   67.67    5.66
   4  -6  -1   15.05    2.87
   4  -6   0    2.97    1.30
   4  -6   1   -1.57    1.00
   4  -6   2    1.98    1.12
   4  -5 -14    4.19    2.46
   4  -5 -13    7.10    2.66
   4  -5 -12   19.23    2.64
   4  -5 -12   17.91    4.22
   4  -5 -11   43.60    5.65
   4  -5 -11   49.56    4.37
   4  -5 -10   76.96    5.85
   4  -5 -10   84.48    7.49
   4  -5 -10   75.19    5.32
   4  -5  -9   65.06    4.93
   4  -5  -9   64.94    5.31
   4  -5  -9   62.44    6.31
   4  -5  -8   88.63    5.71
   4  -5  -8   84.08    6.98
   4  -5  -8   92.78    6.29
   4  -5  -7   81.81    5.50
   4  -5  -7   88.66    6.92
   4  -5  -7   89.31    6.18
   4  -5  -7   81.27    6.45
   4  -5  -6  140.51    7.13
   4  -5  -6  135.51    7.52
   4  -5  -6  123.88    7.78
   4  -5  -6  137.67    8.09
   4  -5  -5   65.04    4.88
   4  -5  -5   67.75    5.30
   4  -5  -5   62.67    5.35
   4  -5  -5   61.27    5.23
   4  -5  -4   58.32    4.58
   4  -5  -4   71.50    5.41
   4  -5  -4   67.02    5.20
   4  -5  -3  192.33    8.42
   4  -5  -3  197.97    8.55
   4  -5  -3  208.61    9.18
   4  -5  -2  545.09   15.06
   4  -5  -2  532.28   14.18
   4  -5  -1  611.48   16.13
   4  -5   0  394.59   13.06
   4  -4 -15    2.38    1.43
   4  -4 -14  134.32   10.66
   4  -4 -13   63.78    5.07
   4  -4 -13   57.85    6.97
   4  -4 -12   28.10    4.86
   4  -4 -12   30.88    3.59
   4  -4 -11   77.74    7.41
   4  -4 -11   80.90    5.61
   4  -4 -10  115.39    6.42
   4  -4 -10  113.69    8.55
   4  -4 -10  121.48    6.73
   4  -4  -9  261.61   11.85
   4  -4  -9  247.40    9.36
   4  -4  -9  243.27   12.11
   4  -4  -9  251.45    9.57
   4  -4  -8  230.90    9.00
   4  -4  -8  236.08   11.34
   4  -4  -8  220.42    8.89
   4  -4  -8  225.07   10.63
   4  -4  -7  106.88    6.15
   4  -4  -7  113.71    7.60
   4  -4  -7   99.61    5.95
   4  -4  -7  108.81    7.04
   4  -4  -6   95.02    5.82
   4  -4  -6  102.74    6.01
   4  -4  -6  100.62    6.52
   4  -4  -6  100.73    6.79
   4  -4  -5    5.82    1.72
   4  -4  -5   13.03    2.43
   4  -4  -5    7.10    1.67
   4  -4  -5    8.51    1.67
   4  -4  -4  641.71   14.64
   4  -4  -4  601.01   14.44
   4  -4  -4  589.48   15.09
   4  -4  -3 2003.13   25.56
   4  -4  -3 2004.48   26.60
   4  -4  -3 2008.79   26.72
   4  -4  -2   75.34    5.09
   4  -4  -2   72.62    5.13
   4  -4  -1  429.36   12.20
   4  -4   0   25.05    3.01
   4  -3 -15   16.02    3.95
   4  -3 -14    7.28    3.10
   4  -3 -13   -2.61    1.95
   4  -3 -12    1.28    1.20
   4  -3 -12    0.37    1.25
   4  -3 -11    0.23    0.60
   4  -3 -11    1.26    1.20
   4  -3 -10   -0.39    1.01
   4  -3 -10    0.78    0.74
   4  -3 -10    0.71    0.94
   4  -3  -9   45.01    5.07
   4  -3  -9   53.74    5.22
   4  -3  -9   48.22    4.22
   4  -3  -9   52.98    3.83
   4  -3  -8  142.59    8.58
   4  -3  -8  148.84    6.55
   4  -3  -8  150.62    8.29
   4  -3  -8  135.15    6.93
   4  -3  -7  152.60    7.25
   4  -3  -7  156.02    6.69
   4  -3  -7  145.00    8.31
   4  -3  -7  152.05    7.89
   4  -3  -6  542.46   13.53
   4  -3  -6  560.02   12.76
   4  -3  -6  560.03   14.41
   4  -3  -6  559.75   15.61
   4  -3  -5  168.17    7.38
   4  -3  -5  157.87    6.69
   4  -3  -5  159.60    7.35
   4  -3  -5  158.59    7.97
   4  -3  -4   55.43    4.54
   4  -3  -4   62.67    4.29
   4  -3  -4   61.14    4.39
   4  -3  -4   59.99    4.39
   4  -3  -3  109.24    5.84
   4  -3  -3  117.36    5.95
   4  -3  -2  150.95    6.79
   4  -3  -1  281.47    9.29
   4  -3   0  501.11   12.58
   4  -3   1  414.61   11.60
   4  -2 -16   20.75    4.90
   4  -2 -15   40.11    5.89
   4  -2 -14   65.04    7.43
   4  -2 -13  113.69    9.15
   4  -2 -12  105.06    8.46
   4  -2 -11   91.95    6.33
   4  -2 -11   91.42    7.60
   4  -2 -10   65.92    5.24
   4  -2 -10   72.37    6.50
   4  -2  -9   99.45    7.38
   4  -2  -9  112.23    6.59
   4  -2  -9  107.35    7.30
   4  -2  -8  309.25   11.47
   4  -2  -8  308.99    8.10
   4  -2  -8  318.74   12.65
   4  -2  -8  320.05   10.78
   4  -2  -7  350.86    8.76
   4  -2  -7  356.23   11.45
   4  -2  -7  341.31   12.57
   4  -2  -7  354.06   11.05
   4  -2  -6  387.05   11.30
   4  -2  -6  371.52    9.15
   4  -2  -6  375.33   12.60
   4  -2  -6  386.92   11.19
   4  -2  -5  815.25   16.19
   4  -2  -5  790.56   17.45
   4  -2  -5  803.75   13.47
   4  -2  -5  802.69   15.23
   4  -2  -4  546.03   13.09
   4  -2  -4  532.47   11.23
   4  -2  -4  546.46   11.93
   4  -2  -3   26.44    2.89
   4  -2  -2   40.60    3.46
   4  -2  -1  225.15    8.08
   4  -2   0  119.20    5.82
   4  -2   1   19.46    2.42
   4  -2   2  107.36    5.70
   4  -1 -16   17.69    3.72
   4  -1 -15    0.57    1.76
   4  -1 -14    2.97    1.92
   4  -1 -13   12.67    3.29
   4  -1 -12    0.11    1.56
   4  -1 -11   14.11    2.73
   4  -1 -11   18.50    3.41
   4  -1 -10    1.44    0.98
   4  -1 -10    2.58    1.42
   4  -1  -9   55.70    5.42
   4  -1  -9   59.47    4.93
   4  -1  -8   30.44    3.93
   4  -1  -8   25.57    3.23
   4  -1  -7  172.07    8.70
   4  -1  -7  164.83    4.94
   4  -1  -7  181.44    8.09
   4  -1  -7  175.71    7.76
   4  -1  -6    0.32    0.58
   4  -1  -6    1.54    0.77
   4  -1  -6    0.73    0.54
   4  -1  -6    1.00    0.77
   4  -1  -5    1.57    0.73
   4  -1  -5    1.45    0.61
   4  -1  -4  176.43    7.39
   4  -1  -4  192.64    6.39
   4  -1  -3   17.14    2.32
   4  -1  -3   13.88    1.67
   4  -1  -2  257.11    8.58
   4  -1  -1  669.44   13.60
   4  -1   0  255.64    8.36
   4  -1   1  309.36    9.11
   4  -1   2  221.99    7.73
   4  -1   3  245.48    8.24
   4  -1   4 1727.17   22.10
   4  -1  15  216.12   14.93
   4   0 -13   88.57    7.83
   4   0 -12   70.59    6.76
   4   0 -11  198.17   10.87
   4   0 -10   82.28    6.69
   4   0 -10   94.56    6.68
   4   0  -9  177.82    9.45
   4   0  -9  190.77    9.24
   4   0  -8  290.20   10.99
   4   0  -7  155.46    7.76
   4   0  -7  111.32    2.55
   4   0  -6  194.82    4.47
   4   0  -6  210.70    8.76
   4   0  -5  100.98    3.58
   4   0  -5  100.87    4.63
   4   0  -5   98.15    5.77
   4   0  -4  215.56    6.02
   4   0  -4  223.13    8.38
   4   0  -3  788.64   15.45
   4   0  -3  779.53   10.46
   4   0  -2  556.03   12.67
   4   0  -1  614.54   13.07
   4   0   0  297.58    8.90
   4   0   1   68.04    4.19
   4   0   2   77.53    4.44
   4   0   3  282.33    8.38
   4   0   4  350.74    9.29
   4   0   5  431.09   10.56
   4   0   6  191.39    7.13
   4   0   7  166.99    6.79
   4   0   8   56.05    4.07
   4   0  14    0.64    1.71
   4   0  14    1.86    1.03
   4   0  15   -1.96    1.72
   4   0  16   -1.45    2.10
   4   1  -9   14.08    2.67
   4   1  -8   -0.18    0.69
   4   1  -7   61.16    5.12
   4   1  -6   11.91    2.17
   4   1  -5    2.22    1.00
   4   1  -4   37.09    3.54
   4   1  -3   51.76    2.20
   4   1  -3   45.29    3.84
   4   1  -2    3.41    1.10
   4   1  -2    2.23    0.41
   4   1  -1   44.22    3.56
   4   1   0   40.59    3.34
   4   1   1  130.76    5.85
   4   1   2   88.21    4.71
   4   1   3  371.62    9.51
   4   1   4   13.47    1.81
   4   1   5  976.71   15.01
   4   1   6   95.47    4.71
   4   1   7   82.96    4.40
   4   1   8  294.55    8.49
   4   1   9  546.21   11.80
   4   1  10  985.84   16.22
   4   1  11  420.66   10.82
   4   1  12  117.56    5.85
   4   1  12  129.28    9.98
   4   1  13   45.09    3.67
   4   1  13   51.44    6.73
   4   1  14   25.39    4.96
   4   1  15   63.44    7.90
   4   1  16  243.79   15.96
   4   2  -7  539.51   15.78
   4   2  -6  368.09   12.55
   4   2  -5  149.86    7.73
   4   2  -5  130.34    3.28
   4   2  -4   88.26    5.72
   4   2  -3  513.79   13.36
   4   2  -2  270.35    9.35
   4   2  -1  552.36   12.99
   4   2   0  609.35    6.06
   4   2   0  619.68   13.19
   4   2   1  101.24    5.21
   4   2   1  113.29    3.73
   4   2   2  727.29   13.41
   4   2   3 1704.54   20.18
   4   2   4  712.62   12.78
   4   2   5  112.11    4.98
   4   2   6  224.45    6.99
   4   2   7  247.79    7.28
   4   2   8  239.51    7.13
   4   2   8  236.61   10.85
   4   2   9  360.55    8.81
   4   2   9  357.69   14.17
   4   2  10  237.58    7.17
   4   2  10  226.40   11.91
   4   2  11   36.52    2.85
   4   2  11   39.27    5.29
   4   2  12   49.91    3.33
   4   2  12   51.92    6.31
   4   2  13   13.16    3.59
   4   2  13   13.23    1.76
   4   2  14    5.01    2.51
   4   2  15   -0.16    1.84
   4   2  16   -1.39    1.44
   4   3  -6    0.28    0.81
   4   3  -5    6.64    1.78
   4   3  -5    6.59    0.82
   4   3  -4   30.78    3.59
   4   3  -4   28.87    2.08
   4   3  -3   73.70    5.31
   4   3  -2    4.14    1.27
   4   3  -1   17.18    2.42
   4   3   0  167.88    7.18
   4   3   1   36.08    1.97
   4   3   1   32.73    3.06
   4   3   2   17.28    1.72
   4   3   2   15.59    2.14
   4   3   3  144.05    5.60
   4   3   3  132.84    5.78
   4   3   4  330.90    8.69
   4   3   4  340.38    9.61
   4   3   5  122.26    5.13
   4   3   5  115.06    6.12
   4   3   6   56.47    3.40
   4   3   6   56.44    4.60
   4   3   7   14.19    1.68
   4   3   7   13.07    2.48
   4   3   8   50.69    3.08
   4   3   8   47.16    4.83
   4   3   9  117.19    4.58
   4   3   9  113.34    7.88
   4   3  10  167.85    5.33
   4   3  10  173.88   10.25
   4   3  11  340.03    7.27
   4   3  11  323.95   14.69
   4   3  12  157.21   10.78
   4   3  12  160.73    4.69
   4   3  13  231.39   13.58
   4   3  14   68.94    7.84
   4   3  15  133.00   11.27
   4   3  16   97.51   10.05
   4   4  -5  542.76    8.57
   4   4  -4  288.59   11.49
   4   4  -4  303.84    7.42
   4   4  -3  160.38    8.29
   4   4  -3  167.20    6.05
   4   4  -2  223.77    7.44
   4   4  -2  222.04    9.39
   4   4  -1  685.41   15.89
   4   4   0   78.98    5.20
   4   4   1 1172.78   19.29
   4   4   2  251.03    8.62
   4   4   2  266.54    6.77
   4   4   3  271.97    8.54
   4   4   3  272.55    7.70
   4   4   4  906.90   15.61
   4   4   4  879.98   14.83
   4   4   5  749.08   15.53
   4   4   5  754.07   13.04
   4   4   6  492.06   13.65
   4   4   6  508.42   10.27
   4   4   7   29.78    2.40
   4   4   7   28.00    3.54
   4   4   8  120.70    4.52
   4   4   8  113.71    7.45
   4   4   9   77.40    6.52
   4   4   9   82.65    3.47
   4   4  10   20.87    3.56
   4   4  10   21.45    1.60
   4   4  11   88.46    7.63
   4   4  11   90.27    2.47
   4   4  12  394.66   16.95
   4   4  13  171.08   11.69
   4   4  14   97.30    9.26
   4   4  15  106.06   10.10
   4   4  16   27.85    5.33
   4   4  17    1.84    2.04
   4   5  -5   36.22    2.60
   4   5  -4   16.63    1.96
   4   5  -3   36.47    3.06
   4   5  -2   45.13    3.62
   4   5  -1    0.29    0.65
   4   5  -1    1.53    0.71
   4   5   0  321.43   10.38
   4   5   0  338.89   11.38
   4   5   1   13.50    2.29
   4   5   2   11.22    1.94
   4   5   3   11.19    1.66
   4   5   3    9.26    1.68
   4   5   4   12.74    1.94
   4   5   4    8.20    1.54
   4   5   5  133.67    6.68
   4   5   5  142.52    5.96
   4   5   6   -0.51    0.97
   4   5   6    0.28    0.48
   4   5   7   20.62    2.97
   4   5   7   20.08    2.00
   4   5   8   27.17    2.15
   4   5   8   32.93    4.06
   4   5   9   66.47    6.06
   4   5   9   72.31    3.14
   4   5  10   98.13    7.73
   4   5  11   44.44    5.48
   4   5  12  186.69   11.71
   4   5  13   11.94    3.34
   4   5  14   43.34    6.37
   4   5  15   46.50    6.24
   4   5  15   71.84    8.33
   4   5  16   83.19    9.30
   4   5  16   48.61    6.68
   4   5  17   55.38    7.10
   4   6  -5  274.57    8.19
   4   6  -4   74.21    4.52
   4   6  -3  441.02   11.56
   4   6  -2  497.44   12.75
   4   6  -1  286.28   10.06
   4   6   0  305.78   10.77
   4   6   1  450.85   13.44
   4   6   2  194.94    9.14
   4   6   3  255.08   10.81
   4   6   4  321.25   12.47
   4   6   5  143.99    8.52
   4   6   5  153.25    7.40
   4   6   6  257.80   10.22
   4   6   7  199.24    9.57
   4   6   8  184.53    9.73
   4   6   9  339.40   13.91
   4   6  10  112.17    8.39
   4   6  11  282.37   13.89
   4   6  11  279.06   13.87
   4   6  12   88.47    7.98
   4   6  12  100.73    8.70
   4   6  13  114.45    9.41
   4   6  13  135.07   10.54
   4   6  14  181.85   12.01
   4   6  14  194.55   13.26
   4   6  15   79.50    8.28
   4   6  15   94.07    9.54
   4   6  16   62.02    7.41
   4   6  17   24.12    4.94
   4   7  -5   43.78    3.66
   4   7  -4  254.52    9.10
   4   7  -3   52.36    4.32
   4   7  -2  128.33    7.01
   4   7  -1  272.49   10.54
   4   7   0   30.59    3.62
   4   7   1   52.34    4.90
   4   7   2  265.20   11.25
   4   7   3    5.51    1.67
   4   7   4   93.04    6.97
   4   7   5   34.08    4.39
   4   7   6   24.17    3.82
   4   7   7   23.30    3.46
   4   7   7   22.23    3.70
   4   7   8  244.07   12.40
   4   7   8  246.36   11.44
   4   7   9   72.70    6.95
   4   7   9   64.54    6.18
   4   7  10   32.35    4.65
   4   7  10   32.53    4.85
   4   7  11   49.60    6.22
   4   7  11   57.25    6.43
   4   7  12    4.82    2.22
   4   7  12    5.49    2.67
   4   7  13   70.97    7.88
   4   7  13   66.86    7.35
   4   7  14   35.97    6.03
   4   7  14   29.58    5.08
   4   7  15   44.54    6.72
   4   7  15   44.85    6.33
   4   7  16   23.96    4.61
   4   7  17    8.25    2.80
   4   8  -5    2.97    1.16
   4   8  -4  605.54   15.16
   4   8  -3    3.73    1.38
   4   8  -2  291.27   11.26
   4   8  -1  176.90    8.99
   4   8   0   23.84    3.45
   4   8   1  168.27    9.27
   4   8   2   73.09    6.24
   4   8   3  625.06   18.60
   4   8   4  437.18   15.92
   4   8   5  298.40   13.46
   4   8   6  278.47   13.24
   4   8   7  498.71   18.09
   4   8   8   13.31    3.11
   4   8   9  506.71   17.71
   4   8   9  526.39   19.39
   4   8  10  299.50   14.26
   4   8  10  328.51   15.62
   4   8  11  196.09   12.43
   4   8  11  178.95   11.52
   4   8  12   65.82    7.43
   4   8  12   78.23    8.04
   4   8  13   87.80    8.70
   4   8  13   96.14    9.32
   4   8  14   90.97    9.46
   4   8  14   93.76    9.17
   4   8  15   58.01    7.65
   4   8  15   43.79    6.62
   4   8  16   22.60    4.69
   4   8  17   13.42    4.23
   4   9  -4  239.75   10.48
   4   9  -3  122.60    7.56
   4   9  -2  445.55   14.85
   4   9  -1   55.60    5.41
   4   9   0   30.03    4.14
   4   9   1  109.39    7.82
   4   9   2   88.69    7.22
   4   9   3   13.61    3.02
   4   9   4    6.56    2.10
   4   9   5   17.99    3.51
   4   9   6   65.13    6.73
   4   9   7   29.83    4.62
   4   9   8   75.28    7.56
   4   9   9   36.80    5.33
   4   9  10   16.09    3.73
   4   9  11   31.21    5.21
   4   9  12    4.98    2.73
   4   9  12   12.10    3.62
   4   9  13   20.87    4.80
   4   9  13   24.25    4.77
   4   9  14    5.71    2.47
   4   9  14    3.13    2.02
   4   9  15    3.60    2.13
   4  10  -4    0.76    0.94
   4  10  -3   79.57    6.55
   4  10  -2   38.20    4.65
   4  10  -1   38.25    4.85
   4  10   0   66.21    6.32
   4  10   1  157.00    9.97
   4  10   2   28.23    4.28
   4  10   3  130.56    9.33
   4  10   4  303.13   14.50
   4  10   5  151.71   10.51
   4  10   6  192.61   12.00
   4  10   7   41.07    5.70
   4  10   8  418.06   18.33
   4  10   9   23.42    4.62
   4  10  10   64.97    7.55
   4  10  11  219.00   14.15
   4  10  12  141.35   11.57
   4  10  13  165.16   12.69
   4  10  14  103.51   10.18
   4  11  -4  159.39    9.73
   4  11  -3   54.41    5.87
   4  11  -2   27.65    4.25
   4  11  -1  139.95    9.55
   4  11   0  164.76   10.53
   4  11   1  182.34   11.24
   4  11   2   90.66    8.14
   4  11   3    2.75    1.76
   4  11   4  181.09   11.82
   4  11   5    9.06    2.84
   4  11   6   93.15    8.78
   4  11   7   72.28    7.94
   4  11   8   49.15    6.74
   4  11   9   21.82    4.52
   4  11  10   29.59    5.32
   4  11  11   18.76    4.52
   4  11  12    6.76    2.86
   4  12  -3   23.70    4.14
   4  12  -2   24.07    4.12
   4  12  -1   23.53    4.32
   4  12   0   19.02    4.02
   4  12   1    6.82    2.78
   4  12   2   22.16    4.29
   4  12   3    2.13    1.97
   4  12   4    9.81    3.03
   4  12   5   79.05    8.33
   4  12   6  143.89   11.44
   4  12   7  126.44   10.95
   4  12   8   45.70    6.62
   4  12   9   40.69    6.43
   4  12  10   77.50    8.98
   4  13  -2   27.29    4.80
   4  13  -1  103.41    9.27
   4  13   0  100.67    9.14
   4  13   1   68.29    7.59
   4  13   2  103.88    9.67
   4  13   3  123.28   10.73
   4  13   4   70.43    8.14
   4  13   5   71.64    8.32
   4  13   6   60.72    7.76
   4  13   7  128.93   11.36
   4  13   8   61.60    8.08
   4  14  -2    3.76    2.39
   4  14  -1    3.55    2.66
   4  14   0    7.67    2.84
   4  14   1    5.86    2.47
   4  14   2   11.37    3.26
   4  14   3   12.86    3.94
   4  14   4   10.46    3.53
   5 -13  -8    5.68    3.25
   5 -13  -7   -2.13    2.25
   5 -13  -7    6.61    3.00
   5 -13  -6   -5.11    2.58
   5 -13  -5    0.69    1.51
   5 -13  -4    1.86    2.29
   5 -13  -3   -6.02    2.52
   5 -12  -9   18.22    4.38
   5 -12  -8   18.88    4.13
   5 -12  -8   11.89    3.39
   5 -12  -7   49.75    6.25
   5 -12  -7   48.57    6.61
   5 -12  -6   57.26    6.69
   5 -12  -6   68.30    7.45
   5 -12  -5   44.66    6.22
   5 -12  -5   49.44    5.88
   5 -12  -4   47.11    6.38
   5 -12  -3   36.71    5.65
   5 -11 -10    9.07    3.47
   5 -11  -9   15.53    3.90
   5 -11  -8   14.22    3.72
   5 -11  -8   12.25    3.35
   5 -11  -7   10.70    3.04
   5 -11  -7   10.90    2.99
   5 -11  -6    3.12    1.73
   5 -11  -6    1.71    1.67
   5 -11  -5    1.54    1.48
   5 -11  -5    0.67    1.24
   5 -11  -4   -1.51    1.65
   5 -11  -3   -1.09    1.70
   5 -10 -10   21.32    4.35
   5 -10  -9   27.94    4.18
   5 -10  -9   21.58    4.34
   5 -10  -8   57.66    6.04
   5 -10  -8   49.40    6.47
   5 -10  -7   31.84    5.03
   5 -10  -7   24.23    4.06
   5 -10  -6   24.14    4.08
   5 -10  -6   29.03    4.50
   5 -10  -5   75.68    6.94
   5 -10  -5   78.38    7.31
   5 -10  -4   98.15    8.24
   5 -10  -4   96.81    7.48
   5 -10  -3  159.23   10.61
   5  -9 -11   32.95    5.54
   5  -9 -10   23.28    3.58
   5  -9 -10   24.03    4.85
   5  -9  -9   43.14    4.93
   5  -9  -9   45.42    6.20
   5  -9  -8   78.95    6.83
   5  -9  -8   68.61    7.27
   5  -9  -7   44.11    5.14
   5  -9  -7   43.30    5.59
   5  -9  -6   22.13    3.86
   5  -9  -6   22.61    3.79
   5  -9  -5   -2.50    1.46
   5  -9  -5    1.40    1.19
   5  -9  -4   19.83    3.60
   5  -9  -4   19.03    3.34
   5  -9  -3   22.62    3.90
   5  -8 -12    6.74    2.60
   5  -8 -11   10.82    2.37
   5  -8 -11    8.40    3.25
   5  -8 -10   17.98    3.18
   5  -8 -10   11.80    3.69
   5  -8  -9   24.99    3.65
   5  -8  -9   24.27    4.40
   5  -8  -8   31.71    4.85
   5  -8  -8   23.87    3.64
   5  -8  -7   12.56    2.90
   5  -8  -7   21.95    3.58
   5  -8  -6   88.05    7.02
   5  -8  -6   84.02    7.23
   5  -8  -5  107.64    7.82
   5  -8  -5  101.00    7.58
   5  -8  -4   88.07    7.09
   5  -8  -4   85.52    6.70
   5  -8  -3  131.50    8.67
   5  -8  -2  106.03    7.91
   5  -7 -12   42.15    6.28
   5  -7 -11   26.99    3.68
   5  -7 -11   35.52    5.67
   5  -7 -10   43.93    4.70
   5  -7 -10   42.41    5.87
   5  -7  -9   40.77    4.54
   5  -7  -9   39.17    5.38
   5  -7  -8   39.71    5.36
   5  -7  -8   43.01    4.69
   5  -7  -7   78.51    6.32
   5  -7  -7   80.60    7.15
   5  -7  -6   82.26    6.44
   5  -7  -6   76.37    6.69
   5  -7  -5  657.38   18.23
   5  -7  -5  633.60   18.58
   5  -7  -4    6.39    2.01
   5  -7  -4    4.06    1.62
   5  -7  -3  149.34    8.86
   5  -7  -2  101.93    7.39
   5  -7  -1   75.44    6.46
   5  -6 -13    0.67    1.16
   5  -6 -12    4.26    2.42
   5  -6 -12    3.92    1.67
   5  -6 -11   27.04    4.81
   5  -6 -11   27.91    3.68
   5  -6 -10    3.33    2.02
   5  -6 -10    5.36    1.80
   5  -6 -10    4.77    1.99
   5  -6  -9    3.17    1.78
   5  -6  -9    3.77    1.15
   5  -6  -9    3.71    1.60
   5  -6  -8    2.49    1.63
   5  -6  -8    4.48    1.71
   5  -6  -8    3.34    1.26
   5  -6  -7   -1.56    1.04
   5  -6  -7   -2.84    1.39
   5  -6  -6   22.18    3.53
   5  -6  -6   14.58    2.71
   5  -6  -6   16.76    3.16
   5  -6  -5   14.51    2.81
   5  -6  -5   22.91    3.54
   5  -6  -5   16.68    2.91
   5  -6  -4   54.61    5.10
   5  -6  -4   57.91    5.25
   5  -6  -4   64.94    5.85
   5  -6  -3   43.41    4.51
   5  -6  -3   40.98    4.68
   5  -6  -2   46.72    4.81
   5  -6  -2   56.89    5.55
   5  -6  -1  232.80   10.70
   5  -5 -14   23.84    4.85
   5  -5 -13   70.94    7.93
   5  -5 -12   48.32    6.46
   5  -5 -12   48.98    4.86
   5  -5 -11   80.38    6.13
   5  -5 -11   86.14    8.18
   5  -5 -10  121.90    7.47
   5  -5 -10  121.57    9.34
   5  -5 -10  123.64    7.53
   5  -5  -9  147.49    8.19
   5  -5  -9  157.05   10.23
   5  -5  -9  144.98    8.15
   5  -5  -8  155.92    8.38
   5  -5  -8  160.67    8.56
   5  -5  -8  162.34    9.99
   5  -5  -7   84.47    6.16
   5  -5  -7   75.28    5.89
   5  -5  -7   82.98    6.70
   5  -5  -7   80.98    6.84
   5  -5  -6   50.35    5.24
   5  -5  -6   50.68    4.76
   5  -5  -6   46.53    4.64
   5  -5  -6   62.17    5.64
   5  -5  -5   60.06    5.16
   5  -5  -5   55.18    5.28
   5  -5  -5   55.70    5.08
   5  -5  -5   60.18    5.41
   5  -5  -4  178.23    8.86
   5  -5  -4  168.85    8.71
   5  -5  -3  303.42   11.39
   5  -5  -3  312.59   11.95
   5  -5  -2  419.97   13.56
   5  -5  -2  406.08   13.75
   5  -5  -1  197.89    9.70
   5  -5  -1  187.76    9.18
   5  -5   0  310.35   11.92
   5  -4 -14    7.09    2.37
   5  -4 -13    0.69    1.02
   5  -4 -13    0.55    1.43
   5  -4 -12    3.93    1.49
   5  -4 -12   12.71    3.47
   5  -4 -11    8.64    2.23
   5  -4 -11    6.64    2.73
   5  -4 -10    3.56    1.38
   5  -4 -10    7.68    2.62
   5  -4 -10    4.74    1.85
   5  -4  -9    5.95    1.74
   5  -4  -9    8.01    2.58
   5  -4  -9    8.36    2.02
   5  -4  -8   -1.20    0.97
   5  -4  -8   -0.26    0.77
   5  -4  -8   -0.34    1.13
   5  -4  -8    0.56    0.97
   5  -4  -7   12.69    2.60
   5  -4  -7   16.57    3.12
   5  -4  -7   10.95    2.25
   5  -4  -7   14.75    2.57
   5  -4  -6   16.80    2.82
   5  -4  -6   10.70    2.46
   5  -4  -6   11.84    2.28
   5  -4  -6    7.25    1.84
   5  -4  -5    0.13    0.80
   5  -4  -5    0.36    0.92
   5  -4  -5    1.98    1.13
   5  -4  -4   41.38    4.17
   5  -4  -4   37.34    3.86
   5  -4  -3  248.75   10.07
   5  -4  -3  246.50    9.92
   5  -4  -2   88.52    6.00
   5  -4  -1  132.01    7.35
   5  -4   0    2.11    0.93
   5  -4   1    0.39    0.89
   5  -4   2   24.54    3.35
   5  -3 -14   55.26    7.10
   5  -3 -13   35.98    4.41
   5  -3 -13   37.19    5.93
   5  -3 -12   24.87    4.53
   5  -3 -12   21.09    3.35
   5  -3 -11   56.20    6.43
   5  -3 -11   57.58    5.33
   5  -3 -10  141.28    6.40
   5  -3 -10  158.36   10.37
   5  -3 -10  152.72    8.49
   5  -3  -9  131.33    9.05
   5  -3  -9  141.79    6.59
   5  -3  -9  139.14    8.50
   5  -3  -9  146.66    8.16
   5  -3  -8  391.73   15.05
   5  -3  -8  374.72   13.17
   5  -3  -8  372.04   10.80
   5  -3  -8  383.63   12.89
   5  -3  -7  411.24   13.14
   5  -3  -7  404.15   14.62
   5  -3  -7  401.17   11.41
   5  -3  -7  406.46   13.14
   5  -3  -6  197.91    8.98
   5  -3  -6  190.40    7.85
   5  -3  -6  183.00    8.49
   5  -3  -5   88.85    6.06
   5  -3  -5   80.55    5.14
   5  -3  -5   87.30    5.69
   5  -3  -4  258.69   10.13
   5  -3  -4  271.10    9.57
   5  -3  -3  304.21   10.83
   5  -3  -2   32.25    3.51
   5  -3  -1  169.63    8.03
   5  -3   0  266.14   10.02
   5  -3   1  186.96    8.54
   5  -3   2  126.67    7.12
   5  -3   3  189.79    8.78
   5  -2 -14   21.52    4.45
   5  -2 -13   37.68    5.75
   5  -2 -12   52.01    6.43
   5  -2 -12   51.11    5.34
   5  -2 -11   11.49    2.60
   5  -2 -11   13.44    3.21
   5  -2 -10    3.32    1.56
   5  -2 -10    0.26    1.25
   5  -2  -9    8.54    2.26
   5  -2  -9    8.95    2.20
   5  -2  -9   16.34    3.21
   5  -2  -9   10.13    1.58
   5  -2  -8   26.30    3.41
   5  -2  -8   24.90    3.36
   5  -2  -8   25.84    2.51
   5  -2  -7    3.69    1.51
   5  -2  -7    1.12    0.99
   5  -2  -7    2.13    0.97
   5  -2  -6    2.16    1.02
   5  -2  -6    1.17    0.60
   5  -2  -6    0.88    0.90
   5  -2  -5   38.93    3.94
   5  -2  -5   45.97    3.57
   5  -2  -5   44.15    3.75
   5  -2  -4    0.53    0.50
   5  -2  -4   -0.58    0.90
   5  -2  -3  106.98    6.36
   5  -2  -2   92.06    5.83
   5  -2  -1  119.92    6.57
   5  -2   0  103.94    6.09
   5  -2   1   25.63    3.04
   5  -2   2    2.11    0.89
   5  -2   3  112.48    6.46
   5  -2   4   16.07    2.44
   5  -2   5  132.93    7.20
   5  -1 -11   32.43    4.34
   5  -1 -10  130.64    8.17
   5  -1  -9  216.12   10.17
   5  -1  -8   85.62    3.72
   5  -1  -8   83.06    6.19
   5  -1  -7  243.93    6.84
   5  -1  -7  250.21    9.25
   5  -1  -7  253.76   10.54
   5  -1  -6  156.42    5.66
   5  -1  -6  167.51    7.03
   5  -1  -6  165.31    8.23
   5  -1  -5  298.47   10.91
   5  -1  -5  276.05    7.95
   5  -1  -5  275.29    8.48
   5  -1  -4  174.28    8.17
   5  -1  -4  189.09    6.63
   5  -1  -3   94.30    5.90
   5  -1  -2  664.96   15.46
   5  -1  -1  157.60    7.46
   5  -1   0  418.54   11.98
   5  -1   1  390.42   11.53
   5  -1   2  532.93   13.39
   5  -1   3  308.10   10.11
   5  -1   4  433.60   12.19
   5  -1   5  240.26    9.17
   5  -1   6  253.03    9.55
   5  -1   7  269.76   10.05
   5  -1   8   39.04    3.94
   5  -1   9  133.01    7.44
   5  -1  10   11.01    2.20
   5  -1  11  251.06   10.72
   5  -1  12   74.25    5.90
   5  -1  13   36.94    4.31
   5  -1  14   51.19    5.14
   5   0 -11   15.10    3.13
   5   0 -10   96.36    7.25
   5   0  -9   61.19    5.60
   5   0  -8    2.84    1.46
   5   0  -7   92.41    3.34
   5   0  -7   95.17    6.60
   5   0  -6   59.65    3.15
   5   0  -6   68.97    5.48
   5   0  -6   65.67    4.15
   5   0  -5   53.14    3.39
   5   0  -5   59.63    4.98
   5   0  -4   16.00    2.63
   5   0  -4   13.94    1.61
   5   0  -3   32.43    3.52
   5   0  -3   33.84    2.34
   5   0  -2   10.52    2.07
   5   0  -1   23.26    2.83
   5   0   0    1.42    0.96
   5   0   1    2.98    1.17
   5   0   2   23.21    2.77
   5   0   3    7.38    1.58
   5   0   4   10.20    1.87
   5   0   5  110.39    5.92
   5   0   6  127.06    6.38
   5   0   7   41.90    3.77
   5   0   8    4.73    1.52
   5   0   9   69.83    5.04
   5   0  10  101.92    6.21
   5   0  11  193.51    8.68
   5   0  12  216.66    9.39
   5   0  13   90.85    6.18
   5   0  14   89.97    6.24
   5   0  14   95.61    9.74
   5   0  15   38.10    6.51
   5   1 -10   16.76    3.23
   5   1  -9   40.53    4.72
   5   1  -8  103.41    7.32
   5   1  -7   49.36    4.93
   5   1  -6   46.10    2.24
   5   1  -6   53.34    4.95
   5   1  -5   57.16    4.99
   5   1  -4  188.15    8.83
   5   1  -3  378.60    6.01
   5   1  -3  388.19   12.24
   5   1  -2  551.34   14.22
   5   1  -2  555.91    6.84
   5   1  -1 1297.71   21.32
   5   1   0 1108.36   19.41
   5   1   1  914.23   17.33
   5   1   2  959.43   17.48
   5   1   3  141.57    6.69
   5   1   4   86.24    5.16
   5   1   5  144.65    6.60
   5   1   6  199.25    7.79
   5   1   7  411.55   11.27
   5   1   8  387.58   11.01
   5   1   9  532.46   12.99
   5   1  10  243.87    8.84
   5   1  11    7.65    1.68
   5   1  12  206.36    8.33
   5   1  12  203.08   12.84
   5   1  13   69.46    4.91
   5   1  13   62.61    7.63
   5   1  14   62.29    7.91
   5   1  15   24.91    5.33
   5   2  -8   22.51    3.60
   5   2  -7   73.69    6.19
   5   2  -6   62.62    5.57
   5   2  -6   71.05    2.66
   5   2  -5  119.88    7.45
   5   2  -4  428.97   13.67
   5   2  -3  227.70    9.66
   5   2  -2  198.48    8.81
   5   2  -1    7.88    1.82
   5   2   0  549.15   13.84
   5   2   1   21.97    2.69
   5   2   2  194.88    7.95
   5   2   3   46.20    3.83
   5   2   4   43.36    3.66
   5   2   5   19.26    2.44
   5   2   6    2.73    0.99
   5   2   7   -0.27    0.49
   5   2   8  258.46    8.56
   5   2   9  186.85    7.29
   5   2   9  178.06   10.16
   5   2  10   29.21    3.01
   5   2  10   30.89    4.46
   5   2  11   23.16    2.60
   5   2  11   19.61    3.73
   5   2  12    1.10    1.23
   5   2  12    0.43    0.66
   5   2  13   33.17    3.08
   5   2  13   34.22    5.50
   5   2  14   30.38    5.38
   5   2  15   88.35    9.31
   5   3  -7  195.99   10.54
   5   3  -6   23.04    3.50
   5   3  -6   23.42    1.28
   5   3  -5   48.73    4.97
   5   3  -5   51.23    2.94
   5   3  -4   82.26    6.25
   5   3  -3  219.38    9.88
   5   3  -2  240.86   10.07
   5   3  -1  536.64   14.56
   5   3   0   12.08    2.14
   5   3   1  625.70    8.43
   5   3   1  630.49   14.89
   5   3   2  562.37   10.02
   5   3   2  575.68   13.81
   5   3   3  334.17   10.27
   5   3   3  337.07    8.90
   5   3   4  315.03    9.72
   5   3   4  317.94    9.69
   5   3   5  308.39    9.43
   5   3   5  309.48   10.39
   5   3   6  379.01   10.37
   5   3   6  390.35   12.63
   5   3   7  350.71    9.80
   5   3   7  373.17   13.10
   5   3   8  249.37    8.10
   5   3   8  234.06   11.06
   5   3   9  442.01   10.62
   5   3   9  445.93   16.03
   5   3  10  333.01    9.06
   5   3  10  330.10   14.47
   5   3  11   87.84    4.57
   5   3  11   87.57    7.83
   5   3  12  248.58    7.43
   5   3  12  222.90   13.02
   5   3  13   97.37    9.20
   5   3  14   81.16    8.61
   5   3  15   74.71    8.66
   5   4  -6  342.28    5.72
   5   4  -5  270.74    6.84
   5   4  -5  273.14   12.26
   5   4  -4  224.22   10.72
   5   4  -4  223.37    7.02
   5   4  -3   66.73    4.20
   5   4  -3   62.35    5.47
   5   4  -2   37.06    4.13
   5   4  -1   53.02    4.80
   5   4   0    7.48    1.87
   5   4   1   85.22    5.68
   5   4   2   77.10    3.62
   5   4   2   77.99    5.29
   5   4   3  112.85    5.06
   5   4   3  117.09    6.27
   5   4   4   57.81    4.06
   5   4   4   64.57    4.58
   5   4   5  234.34    8.87
   5   4   5  242.15    8.51
   5   4   6   -0.26    0.72
   5   4   6    0.92    0.70
   5   4   7   50.29    4.76
   5   4   7   44.81    3.45
   5   4   8    3.35    1.42
   5   4   8    2.00    0.76
   5   4   9   13.95    2.90
   5   4   9   15.26    1.88
   5   4  10    0.11    0.77
   5   4  10    1.37    0.46
   5   4  11  108.31    8.73
   5   4  11  117.22    4.71
   5   4  12   17.75    3.82
   5   4  12   19.02    1.67
   5   4  13    2.58    2.07
   5   4  14    2.83    1.88
   5   4  15   10.39    3.37
   5   5  -6  236.14    5.86
   5   5  -5    1.15    0.65
   5   5  -4  273.36    8.27
   5   5  -3   16.35    2.95
   5   5  -3   19.72    2.44
   5   5  -2  209.83    8.25
   5   5  -2  205.25   10.17
   5   5  -1  105.49    6.10
   5   5  -1  106.05    7.08
   5   5   0   86.81    6.15
   5   5   1   49.73    4.54
   5   5   2  100.65    6.29
   5   5   3   69.97    4.04
   5   5   3   67.44    4.98
   5   5   4  592.57   13.16
   5   5   4  609.22   14.45
   5   5   5   74.90    5.06
   5   5   5   79.48    5.07
   5   5   6  111.92    6.66
   5   5   6  117.31    5.88
   5   5   7 1007.77   21.31
   5   5   7 1023.98   16.86
   5   5   8  197.76   10.04
   5   5   8  191.30    6.92
   5   5   9  236.52   11.62
   5   5   9  243.60    7.45
   5   5  10   46.48    5.50
   5   5  10   46.01    2.97
   5   5  11  423.04   17.15
   5   5  11  439.27    7.82
   5   5  12  233.55   13.37
   5   5  13  180.76   12.30
   5   5  14  299.00   16.46
   5   5  15  154.49   12.29
   5   5  17   27.66    5.30
   5   6  -6  148.22    5.51
   5   6  -5  191.49    6.91
   5   6  -4  634.67   13.76
   5   6  -3   71.51    4.89
   5   6  -2   94.45    5.82
   5   6  -1   85.87    5.80
   5   6   0   58.25    4.95
   5   6   0   59.89    5.40
   5   6   1   57.30    5.10
   5   6   1   63.32    5.39
   5   6   2  461.73   14.04
   5   6   3  199.93    8.94
   5   6   4  165.20    7.08
   5   6   4  160.67    7.79
   5   6   5   51.88    4.25
   5   6   5   55.24    4.49
   5   6   6  112.51    6.83
   5   6   6  121.39    6.25
   5   6   7  182.75    7.38
   5   6   7  164.07    8.77
   5   6   8    0.35    1.07
   5   6   8    0.25    0.51
   5   6   9   54.28    5.67
   5   6   9   57.38    3.64
   5   6  10   46.96    5.51
   5   6  11    6.25    2.39
   5   6  12    4.25    1.43
   5   6  13    8.33    2.99
   5   6  14   -0.57    1.88
   5   6  14    0.44    1.65
   5   6  15   -5.48    2.42
   5   6  15    2.52    2.52
   5   6  16   10.06    3.21
   5   6  17   17.88    4.27
   5   7  -6    1.28    0.74
   5   7  -5    0.59    0.91
   5   7  -4   34.77    3.50
   5   7  -3   43.99    4.10
   5   7  -2   13.22    2.38
   5   7  -1   45.89    4.48
   5   7   0  279.82   11.41
   5   7   1   81.09    6.30
   5   7   2  119.50    7.80
   5   7   3   23.32    3.61
   5   7   4   83.65    6.92
   5   7   5  233.67   11.89
   5   7   6  310.28   14.00
   5   7   6  321.04   11.77
   5   7   7   90.51    7.76
   5   7   7   90.36    6.65
   5   7   8  484.65   18.29
   5   7   8  479.94   16.06
   5   7   9  130.67    9.74
   5   7   9  142.19    9.27
   5   7  10  199.94   12.36
   5   7  10  203.71   11.63
   5   7  11   56.20    6.91
   5   7  11   48.48    6.07
   5   7  12  123.74   10.23
   5   7  12  124.47    9.97
   5   7  13  119.39   10.19
   5   7  13  130.27   10.76
   5   7  14  169.21   12.47
   5   7  14  174.32   12.90
   5   7  15   74.44    8.81
   5   7  15   55.90    7.38
   5   7  16   80.86    8.90
   5   8  -5  263.78    9.77
   5   8  -4  145.15    7.59
   5   8  -3  257.55   10.49
   5   8  -2  164.63    8.69
   5   8  -1  156.67    8.74
   5   8   0  256.29   11.47
   5   8   1  404.05   14.68
   5   8   2  607.19   18.57
   5   8   3   69.79    6.44
   5   8   4   66.74    6.47
   5   8   5   71.54    6.79
   5   8   6  142.40    9.74
   5   8   7  109.36    8.75
   5   8   8  288.92   14.52
   5   8   8  285.59   12.70
   5   8   9   18.08    3.44
   5   8   9   13.17    3.47
   5   8  10   21.79    3.91
   5   8  10   21.54    4.14
   5   8  11    3.92    1.70
   5   8  11    4.25    2.27
   5   8  12   71.39    7.72
   5   8  12   68.74    7.88
   5   8  13    0.29    1.33
   5   8  13    2.52    2.12
   5   8  14    4.16    2.23
   5   8  14    3.37    2.13
   5   8  15    1.72    1.32
   5   9  -5    6.19    1.94
   5   9  -4   32.19    3.86
   5   9  -3    1.39    1.06
   5   9  -2    3.27    1.43
   5   9  -1    2.80    1.55
   5   9   0    4.02    1.62
   5   9   1   22.06    3.66
   5   9   2  350.26   14.64
   5   9   3  372.28   15.49
   5   9   4   92.14    7.89
   5   9   5    9.33    2.77
   5   9   6    8.52    2.67
   5   9   7    1.50    1.36
   5   9   8  107.91    9.31
   5   9   9   86.42    8.45
   5   9  10  117.59   10.10
   5   9  11   58.64    6.89
   5   9  11   56.16    7.35
   5   9  12   88.39    8.84
   5   9  12  107.14   10.16
   5   9  13  125.93   10.96
   5   9  13  141.56   11.96
   5   9  14   85.98    9.33
   5   9  14   88.05    9.39
   5  10  -5  118.82    7.62
   5  10  -4  102.40    7.32
   5  10  -3  236.69   11.27
   5  10  -2  133.63    8.73
   5  10  -1   30.95    4.39
   5  10   0  276.20   13.15
   5  10   1  320.16   14.50
   5  10   2   94.07    8.01
   5  10   3  378.12   16.35
   5  10   4  157.13   10.72
   5  10   5  269.95   14.37
   5  10   6   46.50    6.19
   5  10   7  113.31    9.71
   5  10   8  104.75    9.52
   5  10   9   19.26    4.37
   5  10  10   38.24    6.09
   5  10  11   98.60    9.76
   5  10  12   31.53    5.77
   5  10  13   33.54    5.87
   5  11  -4   14.71    3.01
   5  11  -3   -0.32    1.03
   5  11  -2   32.73    4.65
   5  11  -1    3.04    1.80
   5  11   0    1.17    1.35
   5  11   1   13.48    3.36
   5  11   2   -1.02    2.14
   5  11   3    8.26    2.82
   5  11   4   17.11    3.80
   5  11   5   10.41    3.20
   5  11   6   14.92    3.91
   5  11   7   15.91    4.06
   5  11   8   27.92    5.29
   5  11   9   23.77    4.94
   5  11  10   89.71    9.47
   5  11  11   31.97    5.89
   5  12  -4   54.69    6.16
   5  12  -3  115.57    9.09
   5  12  -2   82.46    7.67
   5  12  -1  122.00    9.48
   5  12   0  118.02    9.57
   5  12   1   76.94    7.85
   5  12   2  120.62   10.07
   5  12   3  106.81    9.52
   5  12   4   13.78    3.88
   5  12   5   79.77    8.61
   5  12   6  185.75   13.15
   5  12   7  273.18   16.27
   5  12   8  198.38   14.03
   5  12   9  112.52   10.68
   5  13  -3   31.60    5.35
   5  13  -2   24.22    4.70
   5  13  -1   36.77    5.61
   5  13   0   -0.57    1.56
   5  13   1   23.43    4.67
   5  13   2    6.29    2.67
   5  13   3   18.34    4.32
   5  13   4    6.02    2.81
   5  13   5    0.29    1.11
   5  13   6    4.67    2.27
   5  13   7   -2.57    1.97
   5  14  -2   23.39    4.66
   5  14  -1   36.99    5.63
   5  14   0   30.35    5.22
   5  14   1   52.26    7.14
   5  14   2   73.71    8.48
   5  14   3   87.25    9.42
   6 -13  -6   18.76    4.80
   6 -12  -7   35.65    5.76
   6 -12  -6   27.24    5.04
   6 -12  -5   17.72    4.13
   6 -12  -4   18.27    4.08
   6 -12  -3   21.15    4.58
   6 -12  -2   32.29    5.59
   6 -12  -1    2.12    1.94
   6 -11  -8    5.19    2.50
   6 -11  -8    8.71    3.30
   6 -11  -7    8.52    3.15
   6 -11  -6   16.19    3.91
   6 -11  -5   35.36    5.60
   6 -11  -4   28.18    4.93
   6 -11  -3   32.36    5.54
   6 -11  -2   32.43    5.28
   6 -11  -1   15.46    3.81
   6 -10  -9   42.79    5.73
   6 -10  -9   38.12    5.90
   6 -10  -8   66.50    7.04
   6 -10  -8   69.20    7.64
   6 -10  -7   61.46    6.86
   6 -10  -6    5.03    2.52
   6 -10  -5   78.67    7.82
   6 -10  -4   36.46    5.34
   6 -10  -3   25.45    4.74
   6 -10  -2   53.75    6.60
   6 -10  -1   80.79    8.22
   6  -9 -10    2.40    1.78
   6  -9 -10   -0.45    1.32
   6  -9  -9    0.91    1.29
   6  -9  -9    1.96    1.43
   6  -9  -8    3.06    2.65
   6  -9  -8    3.69    1.81
   6  -9  -7    1.44    1.85
   6  -9  -7    8.49    2.58
   6  -9  -6    7.62    2.64
   6  -9  -5   16.40    3.52
   6  -9  -4   35.48    5.04
   6  -9  -3   25.41    4.46
   6  -9  -2   15.89    3.60
   6  -9  -1   72.66    7.39
   6  -9   0    7.84    2.64
   6  -8 -11   25.44    4.98
   6  -8 -10   35.56    5.83
   6  -8 -10   42.47    5.14
   6  -8  -9   75.53    6.99
   6  -8  -9   79.31    8.21
   6  -8  -8  100.11    7.95
   6  -8  -8   92.86    8.56
   6  -8  -7   92.53    7.69
   6  -8  -7   98.62    8.56
   6  -8  -6   60.22    6.25
   6  -8  -5  117.34    8.68
   6  -8  -4   17.03    3.36
   6  -8  -3   80.47    7.24
   6  -8  -2  117.31    8.83
   6  -8  -1  101.83    8.32
   6  -8   0  109.04    8.69
   6  -7 -11    6.70    2.11
   6  -7 -11    2.76    2.17
   6  -7 -10    5.27    1.99
   6  -7 -10    6.44    2.85
   6  -7  -9    2.05    1.77
   6  -7  -9    0.08    1.65
   6  -7  -8    1.26    1.84
   6  -7  -8    0.56    1.18
   6  -7  -7    8.97    2.68
   6  -7  -7    7.76    2.44
   6  -7  -6    4.11    1.78
   6  -7  -5    1.81    1.66
   6  -7  -4   25.62    4.03
   6  -7  -3    0.32    1.02
   6  -7  -2    2.35    1.52
   6  -7  -1   28.24    4.20
   6  -7   0  130.95    9.09
   6  -7   1  122.33    8.87
   6  -6 -12   30.78    5.42
   6  -6 -11   20.23    3.56
   6  -6 -11   21.07    4.33
   6  -6 -10   55.45    5.62
   6  -6 -10   54.23    6.88
   6  -6  -9   73.77    6.53
   6  -6  -9   69.42    7.37
   6  -6  -8   70.16    6.36
   6  -6  -8   79.84    7.67
   6  -6  -7  191.57   10.35
   6  -6  -6  244.93   11.68
   6  -6  -5   40.52    4.83
   6  -6  -4  197.03   10.40
   6  -6  -3  126.15    8.30
   6  -6  -2  358.49   13.96
   6  -6  -1  200.39   10.62
   6  -6   0  206.12   10.85
   6  -6   1  272.91   12.61
   6  -6   2  133.98    8.93
   6  -5 -12    9.42    2.51
   6  -5 -12   14.54    3.72
   6  -5 -11   35.60    4.57
   6  -5 -11   33.69    5.62
   6  -5 -10   52.48    6.54
   6  -5 -10   47.65    5.15
   6  -5  -9   33.37    4.31
   6  -5  -9   32.86    4.11
   6  -5  -9   35.61    5.25
   6  -5  -8  100.73    7.42
   6  -5  -8   96.55    6.95
   6  -5  -7    8.62    2.37
   6  -5  -7    8.89    2.26
   6  -5  -6    1.19    0.98
   6  -5  -6    0.12    1.06
   6  -5  -5    5.45    1.88
   6  -5  -5    3.12    1.49
   6  -5  -5    2.23    1.41
   6  -5  -4   -1.81    1.07
   6  -5  -4    1.72    1.13
   6  -5  -3    5.39    1.68
   6  -5  -3    3.55    1.58
   6  -5  -2    0.56    0.89
   6  -5  -1    0.22    0.86
   6  -5   0    0.11    0.85
   6  -5   1   10.55    2.48
   6  -5   2    3.22    1.32
   6  -5   3   26.79    3.92
   6  -4 -12   37.09    4.72
   6  -4 -11   36.22    4.52
   6  -4 -10   10.86    2.63
   6  -4  -9   28.51    3.97
   6  -4  -9   31.48    3.77
   6  -4  -8   29.88    4.12
   6  -4  -8   26.11    3.73
   6  -4  -8   27.75    3.67
   6  -4  -7   16.46    2.99
   6  -4  -7   14.61    2.74
   6  -4  -7   13.48    2.72
   6  -4  -6   94.07    6.93
   6  -4  -6   87.11    6.15
   6  -4  -6   88.70    6.55
   6  -4  -5  314.78   12.55
   6  -4  -5  321.14   11.80
   6  -4  -5  344.57   12.60
   6  -4  -4  254.89   11.22
   6  -4  -4  264.39   10.87
   6  -4  -3  196.73    9.84
   6  -4  -3  215.93    9.93
   6  -4  -2  335.53   12.77
   6  -4  -1  311.54   12.25
   6  -4   0  188.44    9.42
   6  -4   1  110.33    7.35
   6  -4   2  285.38   11.96
   6  -4   3  245.47   11.20
   6  -4   4  174.84    9.58
   6  -4   5  184.76   10.02
   6  -3 -13   53.39    5.99
   6  -3 -12   41.76    5.09
   6  -3 -11   38.90    4.85
   6  -3 -10    4.33    1.72
   6  -3  -9  118.76    6.32
   6  -3  -9  109.41    7.60
   6  -3  -9  112.60    7.80
   6  -3  -8    5.05    1.72
   6  -3  -8    6.65    2.02
   6  -3  -8    4.79    1.54
   6  -3  -7   72.17    6.03
   6  -3  -7   75.39    5.29
   6  -3  -7   77.96    5.93
   6  -3  -6  115.74    7.56
   6  -3  -6  110.96    6.38
   6  -3  -6  102.99    6.59
   6  -3  -5    6.02    1.73
   6  -3  -5    5.74    1.73
   6  -3  -5    7.68    2.02
   6  -3  -4   76.34    6.06
   6  -3  -4   71.36    5.33
   6  -3  -3   29.98    3.79
   6  -3  -2    0.46    0.87
   6  -3  -1   -0.34    0.69
   6  -3   0   10.13    2.16
   6  -3   1   51.60    4.80
   6  -3   2  233.12   10.33
   6  -3   3   57.39    5.23
   6  -3   4   27.29    3.72
   6  -3   5   33.74    4.13
   6  -3   6   38.16    4.42
   6  -3   7    3.84    1.70
   6  -3   8   54.82    5.54
   6  -3  14   70.13    7.26
   6  -2 -13    1.38    1.62
   6  -2 -12    6.03    2.22
   6  -2 -11    6.92    2.09
   6  -2 -10   14.50    2.98
   6  -2  -9   59.07    3.90
   6  -2  -9   57.37    5.64
   6  -2  -9   63.54    5.63
   6  -2  -8   81.58    4.81
   6  -2  -8   83.62    6.10
   6  -2  -8   88.37    6.80
   6  -2  -7  174.82    7.27
   6  -2  -7  165.11    8.06
   6  -2  -7  178.65    9.47
   6  -2  -6  102.14    7.04
   6  -2  -6   97.41    5.53
   6  -2  -6  113.74    6.42
   6  -2  -5   31.73    3.88
   6  -2  -5   32.52    3.34
   6  -2  -5   34.95    3.46
   6  -2  -4  124.68    7.63
   6  -2  -4  123.75    6.30
   6  -2  -3  141.45    8.05
   6  -2  -2  179.79    8.98
   6  -2  -1  298.58   11.41
   6  -2   0  210.92    9.58
   6  -2   1   80.60    5.90
   6  -2   2   89.94    6.23
   6  -2   3  135.63    7.59
   6  -2   4  354.93   12.46
   6  -2   5  275.37   11.16
   6  -2   6  349.60   12.71
   6  -2   7  391.28   13.67
   6  -2   8  262.14   11.39
   6  -2   9  176.78    9.53
   6  -2  10  360.08   13.86
   6  -2  11   88.65    7.09
   6  -2  12   97.83    7.59
   6  -2  13   79.18    7.04
   6  -2  14   72.24    6.82
   6  -1 -12   20.18    3.74
   6  -1 -11   32.36    4.54
   6  -1 -10   87.27    7.27
   6  -1  -9   57.52    3.01
   6  -1  -9   53.77    5.55
   6  -1  -8  138.27    7.39
   6  -1  -8  122.52    5.11
   6  -1  -8  127.99    8.29
   6  -1  -7  114.67    5.24
   6  -1  -7  108.31    6.14
   6  -1  -7  110.69    7.61
   6  -1  -6  187.73    7.06
   6  -1  -6  191.97    7.65
   6  -1  -6  189.00    9.66
   6  -1  -5   86.78    6.47
   6  -1  -5   83.76    4.83
   6  -1  -4   17.35    2.11
   6  -1  -4   14.30    2.63
   6  -1  -3   33.79    3.93
   6  -1  -2   89.11    6.24
   6  -1  -1   58.60    5.03
   6  -1   0  127.70    7.30
   6  -1   1  165.09    8.29
   6  -1   2   28.86    3.49
   6  -1   3  264.62   10.42
   6  -1   4   18.79    2.83
   6  -1   5    0.49    0.64
   6  -1   6    3.66    1.58
   6  -1   7   58.69    5.04
   6  -1   8  160.41    8.47
   6  -1   9   13.29    2.54
   6  -1  10   54.17    5.16
   6  -1  11   82.35    6.46
   6  -1  12   58.67    5.55
   6  -1  13   18.25    3.17
   6  -1  14   -0.93    1.23
   6   0 -11    3.21    1.82
   6   0 -10    1.20    1.16
   6   0  -9    4.28    1.82
   6   0  -8   18.78    3.23
   6   0  -8   19.76    1.57
   6   0  -7  100.99    4.22
   6   0  -7  106.94    7.57
   6   0  -6   97.56    4.62
   6   0  -6  111.77    7.55
   6   0  -6  107.06    5.27
   6   0  -5   43.16    3.11
   6   0  -5   44.49    4.70
   6   0  -4   75.87    5.97
   6   0  -4   80.18    3.94
   6   0  -3   51.07    4.79
   6   0  -3   53.01    3.11
   6   0  -2   86.96    6.17
   6   0  -1  391.91   12.90
   6   0   0   56.04    4.84
   6   0   1   57.97    4.90
   6   0   2  426.71   13.06
   6   0   3  588.33   15.18
   6   0   4  293.14   10.76
   6   0   5  195.04    8.74
   6   0   6  180.35    8.45
   6   0   7  165.07    8.13
   6   0   8  220.25    9.47
   6   0   9  410.11   13.10
   6   0  10  520.30   14.81
   6   0  11   83.23    6.05
   6   0  12  136.27    7.86
   6   0  13  157.29    8.49
   6   1 -10  104.11    8.36
   6   1  -9  175.34   10.42
   6   1  -8  233.01   11.70
   6   1  -7  100.30    3.35
   6   1  -7  120.45    8.21
   6   1  -6   79.00    6.49
   6   1  -5   95.07    6.91
   6   1  -4  266.60   11.41
   6   1  -3  287.67    5.44
   6   1  -3  294.81   11.67
   6   1  -2  330.84   12.09
   6   1  -2  323.02    5.84
   6   1  -1  198.17    9.16
   6   1   0  226.04    9.72
   6   1   1  364.52   12.13
   6   1   2  338.72   11.54
   6   1   3   39.47    3.96
   6   1   4   -0.57    0.70
   6   1   5   21.04    2.86
   6   1   6    7.24    1.73
   6   1   7    2.10    1.09
   6   1   8   48.46    4.31
   6   1   9  104.95    6.41
   6   1  10   52.55    4.51
   6   1  11   27.65    3.40
   6   1  12    5.59    1.60
   6   1  13    0.79    1.37
   6   1  13    0.35    0.58
   6   1  14   13.52    3.73
   6   1  15   10.29    3.44
   6   2  -9    6.52    2.45
   6   2  -8    5.45    1.98
   6   2  -7    2.59    1.66
   6   2  -6   19.82    3.36
   6   2  -5   10.56    2.49
   6   2  -4    9.85    2.30
   6   2  -3   -1.28    1.04
   6   2  -2  165.85    8.78
   6   2  -1   10.36    2.15
   6   2   0  565.89   15.46
   6   2   1  300.58   11.03
   6   2   2  154.15    7.81
   6   2   3   66.21    5.06
   6   2   4  227.81    9.26
   6   2   5  648.43   15.54
   6   2   6  140.93    7.15
   6   2   7  440.95   12.64
   6   2   8  664.81   15.43
   6   2   9   99.20    6.02
   6   2  10    7.21    2.60
   6   2  10   11.23    2.02
   6   2  11   63.71    4.82
   6   2  11   73.20    7.61
   6   2  12  130.90   10.60
   6   2  12  133.36    6.91
   6   2  13   52.40    4.29
   6   2  13   61.84    7.67
   6   2  14  162.60   12.65
   6   2  15  213.71   14.90
   6   3  -8  126.57    9.23
   6   3  -7  191.40   11.03
   6   3  -6  356.24   14.60
   6   3  -6  367.03    7.37
   6   3  -5  108.56    7.85
   6   3  -4  497.06   16.41
   6   3  -3  128.74    8.12
   6   3  -2   28.77    3.77
   6   3  -1  396.88   13.58
   6   3   0  217.61    9.82
   6   3   1  210.62    5.15
   6   3   1  211.95    9.50
   6   3   2  310.68    7.81
   6   3   2  292.13   10.89
   6   3   3  320.43   11.22
   6   3   3  319.33    9.15
   6   3   4   70.41    5.15
   6   3   4   70.53    4.73
   6   3   5  122.36    6.72
   6   3   5  118.46    6.76
   6   3   6    3.96    1.43
   6   3   6    2.33    1.12
   6   3   7  355.46   11.14
   6   3   7  359.45   13.36
   6   3   8   76.58    5.15
   6   3   8   72.85    6.38
   6   3   9   43.20    3.80
   6   3   9   42.57    5.13
   6   3  10  131.43    6.55
   6   3  10  123.44    9.15
   6   3  11    2.96    1.61
   6   3  11    0.82    0.68
   6   3  12   16.94    3.95
   6   3  12   21.16    2.58
   6   3  13    5.84    2.76
   6   3  14    5.37    2.55
   6   3  15   -2.35    1.77
   6   4  -7   12.08    2.92
   6   4  -6   -1.28    1.26
   6   4  -6    0.79    0.46
   6   4  -5   51.65    5.68
   6   4  -5   60.63    3.68
   6   4  -4    4.38    1.85
   6   4  -4    5.76    1.21
   6   4  -3   12.84    2.73
   6   4  -2   18.57    3.13
   6   4  -1   30.38    3.90
   6   4   0   86.92    6.40
   6   4   1   87.06    6.28
   6   4   2   71.69    3.50
   6   4   2   71.57    5.58
   6   4   3  161.87    6.17
   6   4   3  161.70    8.14
   6   4   4   27.87    2.89
   6   4   4   26.29    3.26
   6   4   5   64.45    4.79
   6   4   5   60.76    4.78
   6   4   6   76.08    5.62
   6   4   6   82.90    5.44
   6   4   7   27.08    3.65
   6   4   7   23.46    2.92
   6   4   8  250.37   11.60
   6   4   8  237.10    8.84
   6   4   9  116.91    6.05
   6   4   9  105.04    7.91
   6   4  10  370.88   10.51
   6   4  10  351.63   15.28
   6   4  11  124.96    9.58
   6   4  11  139.92    6.25
   6   4  12  108.02    9.29
   6   4  12  112.80    5.32
   6   4  13  136.20   10.84
   6   4  14  118.36   10.60
   6   4  15  120.22   10.97
   6   5  -6   62.44    3.28
   6   5  -5  324.12    8.87
   6   5  -5  307.05   14.20
   6   5  -4  135.32    9.23
   6   5  -4  137.17    6.38
   6   5  -3  126.99    6.64
   6   5  -3  127.08    8.71
   6   5  -2  328.87   13.57
   6   5  -1  129.83    8.31
   6   5   0   69.11    5.93
   6   5   1  487.00   15.30
   6   5   2  110.60    7.13
   6   5   3  876.67   14.28
   6   5   3  825.79   18.96
   6   5   4  415.45   11.01
   6   5   4  399.78   12.87
   6   5   5  254.86    9.44
   6   5   5  234.39    9.53
   6   5   6  769.12   17.71
   6   5   6  735.62   16.46
   6   5   7    3.30    1.45
   6   5   7    2.60    1.07
   6   5   8  416.60   14.86
   6   5   8  416.71   11.70
   6   5   9  129.85    8.82
   6   5   9  118.86    6.03
   6   5  10   17.91    3.47
   6   5  10   18.37    2.27
   6   5  11  128.79    9.63
   6   5  11  144.75    6.03
   6   5  12   44.36    6.07
   6   5  13   31.81    5.48
   6   5  14   11.62    3.58
   6   5  15    7.99    3.21
   6   6  -6  304.13    7.98
   6   6  -5   55.01    4.00
   6   6  -4  119.57    6.27
   6   6  -3    1.45    1.29
   6   6  -3    3.44    1.17
   6   6  -2   58.73    5.94
   6   6  -2   61.94    5.02
   6   6  -1    0.50    0.88
   6   6  -1    0.71    1.00
   6   6   0   24.07    3.68
   6   6   0   16.81    2.85
   6   6   1  145.59    8.69
   6   6   2   15.88    2.82
   6   6   3    4.14    1.38
   6   6   4    3.17    1.14
   6   6   4    4.27    1.45
   6   6   5    1.33    0.96
   6   6   5    1.03    0.77
   6   6   6  351.81   12.13
   6   6   6  346.95   11.74
   6   6   7    2.62    1.34
   6   6   7    2.43    1.02
   6   6   8  129.58    8.33
   6   6   8  120.07    6.43
   6   6   9  145.30    9.34
   6   6   9  151.37    6.85
   6   6  10  194.38   11.34
   6   6  10  185.89    7.19
   6   6  11  135.54    9.95
   6   6  11  150.39    5.86
   6   6  12   64.58    7.13
   6   6  13  119.73   10.33
   6   6  14  181.20   13.04
   6   6  15   98.82   10.09
   6   6  16   50.98    7.39
   6   7  -6  128.12    5.79
   6   7  -5  212.27    8.24
   6   7  -4   60.79    4.89
   6   7  -3  329.72   11.64
   6   7  -2  250.25   10.56
   6   7  -1  125.29    7.78
   6   7   0  203.85   10.14
   6   7   1  469.31   15.90
   6   7   1  467.59   16.15
   6   7   2  483.46   16.59
   6   7   2  472.91   15.85
   6   7   3  258.52   12.40
   6   7   3  252.08   11.27
   6   7   4  117.07    7.45
   6   7   5  132.91    7.80
   6   7   6   60.00    5.15
   6   7   6   54.67    4.85
   6   7   7  145.77    8.49
   6   7   7  138.33    7.38
   6   7   8  380.01   14.47
   6   7   8  404.22   12.02
   6   7   9  328.38   14.23
   6   7  10  131.02    9.45
   6   7  11  160.46   11.03
   6   7  12   32.65    5.23
   6   7  13   68.74    8.18
   6   7  13   73.37    8.21
   6   7  14   55.95    7.40
   6   7  14   46.59    7.26
   6   7  15   37.21    6.33
   6   7  15   39.87    6.36
   6   8  -5   77.36    5.34
   6   8  -4   57.48    4.90
   6   8  -3   22.62    3.36
   6   8  -2   52.18    5.06
   6   8  -1   74.90    6.19
   6   8   0   14.26    2.94
   6   8   1   21.63    3.56
   6   8   2   10.69    2.73
   6   8   3    5.44    1.94
   6   8   4    2.37    1.10
   6   8   5   40.63    5.45
   6   8   6   27.97    4.65
   6   8   7  249.50   13.84
   6   8   8   42.93    5.00
   6   8   8   42.02    6.33
   6   8   9    1.08    0.93
   6   8   9    4.53    2.53
   6   8  10   17.97    3.72
   6   8  10   20.23    4.38
   6   8  11    1.28    1.47
   6   8  11    0.41    1.68
   6   8  12   25.35    4.87
   6   8  12   15.53    4.11
   6   8  13   57.24    7.34
   6   8  13   61.19    7.75
   6   8  14   22.63    4.81
   6   8  14   14.10    4.02
   6   9  -5  260.62   10.55
   6   9  -4  121.75    7.54
   6   9  -3   20.52    3.33
   6   9  -2   38.33    4.60
   6   9  -1   47.29    5.22
   6   9   0  202.31   11.03
   6   9   1  395.25   15.80
   6   9   2   85.04    7.57
   6   9   3  516.54   18.92
   6   9   4  110.58    8.92
   6   9   5  145.75   10.50
   6   9   6  114.09    9.55
   6   9   7   73.91    7.92
   6   9   8   65.66    7.47
   6   9   9   94.84    9.22
   6   9  10  127.76    9.67
   6   9  10  123.24   10.72
   6   9  11  172.23   11.75
   6   9  11  198.09   13.81
   6   9  12  142.23   11.14
   6   9  12  162.33   12.73
   6   9  13   68.07    8.08
   6   9  13   79.03    9.01
   6   9  14  124.86   11.31
   6  10  -4   65.18    5.79
   6  10  -3   89.30    7.09
   6  10  -2   60.12    6.01
   6  10  -1   45.85    5.38
   6  10   0   57.28    6.17
   6  10   1    9.46    2.85
   6  10   2    5.09    2.11
   6  10   3   29.55    4.79
   6  10   4   51.32    6.49
   6  10   5   11.74    3.34
   6  10   6   -0.59    2.12
   6  10   7    1.74    1.35
   6  10   8    3.75    2.04
   6  10   9   10.68    3.79
   6  10  10    0.60    1.44
   6  10  11   -0.30    1.01
   6  10  12    4.27    2.25
   6  11  -3   15.95    3.36
   6  11  -2   42.39    5.35
   6  11  -1   47.05    5.72
   6  11   0   50.13    6.09
   6  11   1   74.20    7.55
   6  11   2   90.60    8.50
   6  11   3  155.34   11.29
   6  11   4  120.03   10.13
   6  11   5   75.40    8.22
   6  11   6  126.93   10.85
   6  11   7  190.05   13.44
   6  11   8  118.19   10.84
   6  11   9  145.87   12.24
   6  11  10  108.37   10.71
   6  12  -3   96.33    8.23
   6  12  -2   57.90    6.63
   6  12  -1  144.11   10.45
   6  12   0   37.59    5.54
   6  12   1   71.63    7.86
   6  12   2   23.46    4.80
   6  12   3   52.97    6.96
   6  12   4   62.17    7.58
   6  12   5   42.32    6.45
   6  12   6   67.52    8.25
   6  12   7    9.81    3.14
   6  12   8    3.23    2.03
   6  13  -2   -0.30    2.42
   6  13  -1   11.74    3.75
   6  13   0   42.86    6.26
   6  13   1   13.95    3.64
   6  13   2   19.93    4.36
   6  13   3   33.45    5.68
   6  13   4   57.84    7.58
   6  13   5   69.08    8.46
   6  14  -1   10.34    3.19
   6  14   0   39.81    6.10
   6  14   1   41.65    6.38
   7 -11  -8   28.24    5.19
   7 -11  -7   50.90    6.81
   7 -11  -6   17.43    4.21
   7 -11  -5   55.61    7.17
   7 -11  -4   40.93    6.04
   7 -11  -3   43.28    6.48
   7 -11  -2   40.56    6.02
   7 -11  -1   48.07    6.93
   7 -10  -9    2.82    2.63
   7 -10  -8   15.48    3.85
   7 -10  -7    5.26    1.92
   7 -10  -6   -1.98    2.16
   7 -10  -5   -0.43    1.78
   7 -10  -4    1.72    2.17
   7 -10  -3    3.24    2.09
   7 -10  -2    1.97    1.57
   7 -10  -1   -3.12    1.95
   7 -10   0   -0.22    1.23
   7 -10   1   18.46    4.47
   7 -10   2    7.34    2.86
   7  -9  -9   20.04    4.22
   7  -9  -8   17.56    3.81
   7  -9  -7    1.67    2.08
   7  -9  -6  224.22   13.29
   7  -9  -5   32.12    5.20
   7  -9  -4   74.01    7.67
   7  -9  -3   42.51    5.91
   7  -9  -2   76.58    7.96
   7  -9  -1   61.19    7.16
   7  -9   0   40.33    5.89
   7  -9   1   75.63    8.12
   7  -9   2  132.10   10.76
   7  -9   3   55.83    7.14
   7  -8 -10   11.72    3.17
   7  -8  -9    5.48    2.08
   7  -8  -8    7.10    2.47
   7  -8  -7    8.59    2.94
   7  -8  -6   11.68    3.15
   7  -8  -5    3.30    1.89
   7  -8  -4   13.04    3.29
   7  -8  -3   17.87    3.89
   7  -8  -2    3.21    1.75
   7  -8  -1    2.10    1.55
   7  -8   0    1.53    1.40
   7  -8   1   -1.59    1.58
   7  -8   2    1.27    1.48
   7  -8   3    0.50    1.84
   7  -8   4    0.67    1.30
   7  -7 -11   10.90    3.09
   7  -7 -10   14.36    3.37
   7  -7  -9   48.93    5.98
   7  -7  -8   77.52    7.38
   7  -7  -7   80.58    7.56
   7  -7  -6   39.95    5.32
   7  -7  -5   30.17    4.63
   7  -7  -4   38.77    5.17
   7  -7  -3   80.93    7.44
   7  -7  -2   45.33    5.59
   7  -7  -1  117.64    8.99
   7  -7   0  166.05   10.82
   7  -7   1  100.31    8.52
   7  -7   2  170.23   11.21
   7  -7   3  112.64    9.19
   7  -7   4  184.57   11.90
   7  -7   5   52.73    6.65
   7  -6 -11   90.71    7.88
   7  -6 -10   41.42    5.42
   7  -6  -9   55.57    6.17
   7  -6  -8   11.98    3.08
   7  -6  -7   16.58    3.47
   7  -6  -6   65.33    6.60
   7  -6  -5   98.14    7.96
   7  -6  -4   34.07    4.76
   7  -6  -3   37.83    4.93
   7  -6  -2    7.38    2.45
   7  -6  -1    5.14    1.79
   7  -6   0   10.77    2.59
   7  -6   1    6.69    2.38
   7  -6   2   84.41    7.52
   7  -6   3    1.89    1.41
   7  -6   4    0.07    1.20
   7  -6   5    0.05    1.44
   7  -6   6    2.69    2.28
   7  -5 -12   -0.32    1.35
   7  -5 -11    1.73    1.83
   7  -5 -10    3.93    2.13
   7  -5  -9    6.91    2.01
   7  -5  -8   24.11    3.95
   7  -5  -7   49.39    5.60
   7  -5  -6   18.99    3.48
   7  -5  -5   67.76    6.48
   7  -5  -4  160.04    9.81
   7  -5  -3   74.05    6.72
   7  -5  -2   87.88    7.28
   7  -5  -1   97.16    7.62
   7  -5   0  137.16    9.00
   7  -5   1  117.66    8.42
   7  -5   2   81.92    7.17
   7  -5   3  190.15   10.97
   7  -5   4  211.52   11.66
   7  -5   5   99.14    8.12
   7  -5   6  158.76   10.47
   7  -5   7   70.84    7.18
   7  -5   8   61.75    6.76
   7  -5   9  102.97    8.97
   7  -5  10  101.41    9.05
   7  -5  11  101.99    9.19
   7  -5  12  102.15    9.47
   7  -5  13   66.05    7.80
   7  -4 -12   58.19    6.42
   7  -4 -11   37.55    5.17
   7  -4 -10   40.56    5.22
   7  -4  -9   68.89    6.64
   7  -4  -8   60.81    6.10
   7  -4  -8   54.52    5.14
   7  -4  -7   12.92    2.89
   7  -4  -7   16.66    2.91
   7  -4  -7   11.02    2.62
   7  -4  -6   82.42    7.00
   7  -4  -6   77.62    6.12
   7  -4  -6   88.03    6.71
   7  -4  -5  194.01   10.71
   7  -4  -5  200.63    9.91
   7  -4  -5  220.32   10.44
   7  -4  -4  140.93    9.07
   7  -4  -4  161.11    9.07
   7  -4  -3  191.40   10.45
   7  -4  -2  153.10    9.32
   7  -4  -1   71.77    6.37
   7  -4   0   27.20    3.97
   7  -4   1   40.81    4.83
   7  -4   2    2.28    1.34
   7  -4   3   27.30    4.10
   7  -4   4   11.60    2.71
   7  -4   5   43.41    5.18
   7  -4   6    6.54    1.97
   7  -4   7    2.22    1.46
   7  -4   8   -0.65    1.30
   7  -4   9   25.90    4.33
   7  -4  10    2.05    1.72
   7  -4  11   13.71    3.32
   7  -4  12   -0.40    1.38
   7  -4  13   37.23    5.75
   7  -4  14   -4.71    2.49
   7  -3 -13    1.71    2.01
   7  -3 -12   -1.11    2.02
   7  -3 -11    1.92    1.11
   7  -3 -10   11.22    2.80
   7  -3  -9    0.28    1.11
   7  -3  -8    0.36    1.11
   7  -3  -8   -0.30    0.83
   7  -3  -8   -0.25    1.09
   7  -3  -7    1.33    1.45
   7  -3  -7   -0.77    1.17
   7  -3  -7    1.55    1.46
   7  -3  -6   18.57    2.89
   7  -3  -6   18.09    2.91
   7  -3  -6   21.14    3.57
   7  -3  -5   23.84    3.27
   7  -3  -5   27.25    3.58
   7  -3  -5   20.95    3.57
   7  -3  -4    3.31    1.48
   7  -3  -3   86.52    6.94
   7  -3  -2   35.84    4.45
   7  -3  -1   82.20    6.68
   7  -3   0   75.41    6.38
   7  -3   1   97.70    7.24
   7  -3   2   91.16    6.99
   7  -3   3  133.01    8.44
   7  -3   4  111.49    7.77
   7  -3   5  186.57   10.22
   7  -3   6  296.24   13.09
   7  -3   7  196.00   10.76
   7  -3   8  334.35   14.33
   7  -3   9   29.07    4.30
   7  -3  10  166.34   10.48
   7  -3  11   92.20    8.04
   7  -3  12   76.81    7.46
   7  -3  13   47.40    6.03
   7  -3  14   63.40    7.02
   7  -2 -13   54.73    6.61
   7  -2 -12   17.86    3.72
   7  -2 -11   49.19    5.94
   7  -2 -10   89.82    7.87
   7  -2  -9   26.66    3.73
   7  -2  -9   27.14    4.20
   7  -2  -8   58.71    4.44
   7  -2  -8   60.16    5.25
   7  -2  -8   64.82    6.41
   7  -2  -7  104.43    6.10
   7  -2  -7  107.05    6.65
   7  -2  -7  104.02    7.86
   7  -2  -6  156.05    9.44
   7  -2  -6  141.42    7.48
   7  -2  -6  139.51    7.29
   7  -2  -5  121.48    8.30
   7  -2  -5  121.60    6.98
   7  -2  -5  110.61    6.36
   7  -2  -4  276.84   12.31
   7  -2  -4  303.21   10.27
   7  -2  -3  185.72   10.07
   7  -2  -2  122.16    8.05
   7  -2  -1  126.15    8.12
   7  -2   0   76.61    6.30
   7  -2   1  103.87    7.34
   7  -2   2   65.74    5.80
   7  -2   3  221.14   10.62
   7  -2   4  193.47    9.97
   7  -2   5   89.69    6.79
   7  -2   6   83.00    6.60
   7  -2   7  137.75    8.62
   7  -2   8   47.61    5.19
   7  -2   9   47.23    5.22
   7  -2  10   12.98    2.88
   7  -2  11    0.93    1.16
   7  -2  12    1.10    1.48
   7  -2  13    5.22    1.89
   7  -1 -13    9.16    3.06
   7  -1 -12   -0.06    1.68
   7  -1 -11    5.90    2.27
   7  -1 -10   12.15    2.93
   7  -1  -9   -3.33    1.72
   7  -1  -8    1.53    1.22
   7  -1  -8    1.74    1.38
   7  -1  -8    0.72    0.82
   7  -1  -7    1.13    1.06
   7  -1  -7    2.22    0.95
   7  -1  -7   -0.02    1.33
   7  -1  -6    4.63    1.28
   7  -1  -6    3.41    1.23
   7  -1  -6    6.49    2.04
   7  -1  -5    5.84    1.36
   7  -1  -5    6.84    2.16
   7  -1  -4    4.36    1.11
   7  -1  -4    2.25    1.08
   7  -1  -3    2.42    1.27
   7  -1  -2    9.35    2.23
   7  -1  -1   17.93    3.16
   7  -1   0   12.72    2.63
   7  -1   1  182.17    9.53
   7  -1   2  156.39    8.77
   7  -1   3  135.98    8.16
   7  -1   4   89.05    6.63
   7  -1   5   83.57    6.43
   7  -1   6  120.91    7.77
   7  -1   7   69.46    5.92
   7  -1   8  205.09   10.21
   7  -1   9  379.53   14.09
   7  -1  10   59.45    5.69
   7  -1  11  142.37    8.85
   7  -1  12  143.10    9.00
   7  -1  13  178.93   10.35
   7   0 -12   39.12    5.68
   7   0 -11   75.09    7.58
   7   0 -10  102.40    8.59
   7   0  -9   99.71    8.26
   7   0  -8  103.45    4.36
   7   0  -8  125.31    9.08
   7   0  -7   63.82    3.89
   7   0  -7   76.83    6.88
   7   0  -6   58.42    5.93
   7   0  -6   67.06    4.17
   7   0  -5  108.96    4.97
   7   0  -5  121.07    8.28
   7   0  -4  155.48    9.22
   7   0  -4  147.19    5.48
   7   0  -3  352.10   13.61
   7   0  -3  366.68    8.60
   7   0  -2   17.51    3.07
   7   0  -1  307.18   12.44
   7   0   0  154.87    8.77
   7   0   1  496.19   15.58
   7   0   2  243.83   10.81
   7   0   3  245.59   10.81
   7   0   4   84.44    6.30
   7   0   5  222.18   10.23
   7   0   6  481.39   15.10
   7   0   7  220.07   10.23
   7   0   8   74.56    6.05
   7   0   9    3.36    1.33
   7   0  10    7.93    1.99
   7   0  11   34.61    4.24
   7   0  12   21.36    3.39
   7   0  13   38.19    4.52
   7   1 -11  108.36    9.34
   7   1 -10   87.69    8.13
   7   1  -9   48.28    5.95
   7   1  -8    0.17    1.25
   7   1  -7    6.39    1.12
   7   1  -7    9.53    2.60
   7   1  -6   -0.26    0.93
   7   1  -5    0.38    0.86
   7   1  -4   -1.29    1.16
   7   1  -3    1.04    0.43
   7   1  -3    2.10    1.38
   7   1  -2  107.71    7.53
   7   1  -2  101.58    3.58
   7   1  -1   28.16    3.81
   7   1   0    1.40    0.99
   7   1   1   -2.32    1.25
   7   1   2    6.45    1.79
   7   1   3   34.99    4.09
   7   1   4   39.54    4.27
   7   1   5   96.53    6.68
   7   1   6  173.70    8.91
   7   1   7   27.13    3.56
   7   1   8   68.85    5.61
   7   1   9  120.30    7.47
   7   1  10    9.81    2.25
   7   1  11   87.85    6.47
   7   1  12   68.61    5.76
   7   1  13  135.53    8.13
   7   1  13  131.93   11.41
   7   1  14  146.50   12.39
   7   2 -10   38.76    5.51
   7   2  -9  130.66    9.94
   7   2  -8   48.25    5.95
   7   2  -7   88.89    3.42
   7   2  -7   99.79    8.26
   7   2  -6  117.51    8.72
   7   2  -5  200.96   11.09
   7   2  -4  254.90   12.15
   7   2  -3  202.15   10.66
   7   2  -2  252.68   11.67
   7   2  -1  210.96    3.63
   7   2  -1  222.30   10.75
   7   2   0  228.75   10.72
   7   2   1  327.89   12.61
   7   2   2  233.97   10.53
   7   2   3   86.11    6.31
   7   2   4  387.17   13.27
   7   2   5   29.80    3.67
   7   2   6  196.38    9.37
   7   2   7  184.43    9.13
   7   2   8  142.13    7.92
   7   2   9  409.85   13.47
   7   2  10   16.09    2.67
   7   2  11  136.06    7.79
   7   2  11  129.13   10.30
   7   2  12   64.02    5.34
   7   2  12   51.94    6.96
   7   2  13   70.09    8.34
   7   2  14   70.18    8.51
   7   3  -9   45.88    6.11
   7   3  -8  115.50    9.46
   7   3  -7    2.68    0.49
   7   3  -7    3.86    2.01
   7   3  -7    1.86    0.48
   7   3  -6  155.33   10.22
   7   3  -5   -1.64    1.30
   7   3  -4   75.63    6.85
   7   3  -3   21.08    3.55
   7   3  -2    3.18    1.58
   7   3  -1    9.90    2.41
   7   3   0    1.18    0.96
   7   3   1    0.15    0.29
   7   3   1    0.00    0.74
   7   3   2   33.01    2.69
   7   3   2   35.02    4.11
   7   3   3   42.53    4.50
   7   3   3   41.88    3.47
   7   3   4    2.99    1.28
   7   3   4    5.12    1.61
   7   3   5  110.20    7.02
   7   3   5  116.10    6.90
   7   3   6  107.42    6.87
   7   3   6   96.13    6.79
   7   3   7   49.30    4.69
   7   3   7   49.51    5.16
   7   3   8  172.46    8.55
   7   3   8  166.76    9.91
   7   3   9   11.05    2.68
   7   3   9   14.36    2.54
   7   3  10   28.56    3.45
   7   3  10   29.67    4.68
   7   3  11   15.74    3.61
   7   3  11   13.33    2.43
   7   3  12    6.90    2.64
   7   3  12    8.40    1.92
   7   3  13   64.75    7.88
   7   3  14  126.32   11.14
   7   4  -8   37.18    5.58
   7   4  -7   25.91    4.56
   7   4  -6    1.29    1.20
   7   4  -6    0.67    0.51
   7   4  -5  230.61    8.15
   7   4  -5  218.41   12.26
   7   4  -4  136.99    9.45
   7   4  -3  142.52    9.44
   7   4  -2  284.60   12.99
   7   4  -1  250.19   11.92
   7   4   0   68.94    6.14
   7   4   1  292.64   12.33
   7   4   2  313.37    7.38
   7   4   2  311.61   12.52
   7   4   3  376.20    9.66
   7   4   3  366.11   13.34
   7   4   4  135.09    6.51
   7   4   4  129.14    7.76
   7   4   5  140.24    7.27
   7   4   5  133.51    7.75
   7   4   6  466.89   14.32
   7   4   6  451.15   14.02
   7   4   7   99.98    6.52
   7   4   7   98.88    7.13
   7   4   8  139.37    7.63
   7   4   8  140.68    8.97
   7   4   9  319.65   11.30
   7   4   9  293.75   13.59
   7   4  10  163.59    7.94
   7   4  10  156.71   10.49
   7   4  11  129.73    6.92
   7   4  11  120.61    9.60
   7   4  12  157.85   11.59
   7   4  13   84.65    8.83
   7   4  14  108.87   10.26
   7   5  -6   18.33    3.83
   7   5  -6   22.73    2.20
   7   5  -5  178.42    7.25
   7   5  -5  185.44   11.71
   7   5  -4   83.34    7.68
   7   5  -4   71.70    4.99
   7   5  -3  158.10   10.24
   7   5  -2  194.79   11.12
   7   5  -1   77.85    6.89
   7   5   0   81.06    6.86
   7   5   1    0.68    0.78
   7   5   2   36.46    4.43
   7   5   3   21.01    3.31
   7   5   3   24.33    2.42
   7   5   4   27.69    3.72
   7   5   4   32.62    3.16
   7   5   5   11.29    2.14
   7   5   5    9.52    2.26
   7   5   6   83.46    6.02
   7   5   6   77.55    5.99
   7   5   7    1.60    1.15
   7   5   7    3.37    1.33
   7   5   8    3.27    1.52
   7   5   8    5.81    1.73
   7   5   9   70.00    6.63
   7   5   9   82.39    5.69
   7   5  10   30.20    4.52
   7   5  10   34.19    3.61
   7   5  11   23.37    4.27
   7   5  11   28.04    3.14
   7   5  12    8.14    2.60
   7   5  13   62.23    7.63
   7   5  14   23.09    4.80
   7   6  -5    7.65    1.57
   7   6  -4   86.15    5.73
   7   6  -4   73.96    7.45
   7   6  -3   88.35    7.95
   7   6  -3   92.57    6.28
   7   6  -2   94.02    6.60
   7   6  -2  101.51    8.36
   7   6  -1   77.95    7.13
   7   6   0   52.35    5.67
   7   6   1  604.36   18.86
   7   6   2  144.46    9.02
   7   6   3  198.01   10.31
   7   6   4   87.51    5.13
   7   6   4   82.05    6.48
   7   6   5  128.59    6.84
   7   6   5  116.22    7.58
   7   6   6  139.27    7.70
   7   6   6  136.59    8.01
   7   6   7  531.06   16.11
   7   6   7  523.20   15.34
   7   6   8  417.22   15.19
   7   6   8  448.03   13.75
   7   6   9  295.73   13.51
   7   6   9  306.47   11.02
   7   6  10   79.67    7.37
   7   6  10   81.46    5.55
   7   6  11  277.38   14.46
   7   6  12  161.26   11.49
   7   6  13   52.09    6.93
   7   6  14   41.65    6.32
   7   7  -5  113.32    6.26
   7   7  -4  131.14    7.30
   7   7  -3   45.31    4.55
   7   7  -2   39.65    4.46
   7   7  -1  204.59   11.97
   7   7  -1  199.44   10.30
   7   7   0  366.70   14.34
   7   7   0  364.39   15.60
   7   7   1  268.86   12.74
   7   7   1  262.08   12.91
   7   7   2   16.22    3.18
   7   7   3    0.58    0.93
   7   7   4    2.33    1.46
   7   7   5    6.40    1.94
   7   7   6   58.44    5.05
   7   7   6   57.64    5.40
   7   7   7    9.79    2.24
   7   7   7   19.82    3.14
   7   7   8    9.99    2.59
   7   7   8    8.11    1.97
   7   7   9    3.01    1.70
   7   7   9    3.72    1.28
   7   7  10   11.64    2.97
   7   7  10   12.45    2.21
   7   7  11    5.81    2.52
   7   7  12   -1.36    2.21
   7   7  13   14.98    3.97
   7   7  14   -4.17    2.17
   7   8  -4   56.17    5.02
   7   8  -3  104.28    7.22
   7   8  -2    0.15    0.78
   7   8  -1   24.36    3.78
   7   8   0  113.95    8.28
   7   8   1    9.42    2.50
   7   8   2  120.74    8.96
   7   8   3   37.95    5.26
   7   8   4  323.86   15.44
   7   8   5   91.20    8.47
   7   8   5   79.32    6.70
   7   8   6  117.65    9.83
   7   8   8  170.06    9.93
   7   8   9  122.51    8.89
   7   8  10  157.12   10.64
   7   8  11  115.73   10.87
   7   8  11  103.58    9.09
   7   8  12   26.18    4.84
   7   8  12   24.10    5.10
   7   8  13  227.52   15.70
   7   8  13  200.59   13.82
   7   8  14   44.86    6.78
   7   9  -4   46.79    4.79
   7   9  -3  178.17    9.80
   7   9  -2   54.19    5.62
   7   9  -1   18.60    3.34
   7   9   0   38.35    5.00
   7   9   1   41.24    5.40
   7   9   2  204.11   12.13
   7   9   3   37.91    5.47
   7   9   4  237.76   13.61
   7   9   5   89.18    8.57
   7   9   6  108.98    9.66
   7   9   7   15.62    3.81
   7   9   8   74.03    8.25
   7   9   9   14.78    4.11
   7   9  10   37.96    5.40
   7   9  10   28.43    5.30
   7   9  11   38.17    5.88
   7   9  11   32.02    5.66
   7   9  12   19.99    4.32
   7   9  12   29.16    5.79
   7   9  13    8.71    2.98
   7  10  -3   -3.34    1.59
   7  10  -2   10.94    2.86
   7  10  -1    9.89    2.74
   7  10   0   10.94    3.03
   7  10   1   52.00    6.26
   7  10   2  147.63   10.70
   7  10   3   31.51    5.04
   7  10   4    4.38    2.00
   7  10   5    2.34    1.88
   7  10   6   29.27    5.35
   7  10   7   80.09    8.82
   7  10   8  110.09   10.43
   7  10   9  129.59   11.50
   7  10  10   65.66    8.25
   7  11  -2  144.62    9.96
   7  11  -1   78.29    7.56
   7  11   0  172.01   11.51
   7  11   1   69.65    7.63
   7  11   2  130.88   10.56
   7  11   3  159.83   12.00
   7  11   4  106.85    9.92
   7  11   5   98.64    9.74
   7  11   6   93.05    9.59
   7  11   7  102.86   10.27
   7  11   8   41.81    6.64
   7  11   9   61.25    8.33
   7  12  -2    1.70    2.09
   7  12  -1    3.32    2.69
   7  12   0    3.13    2.27
   7  12   1    0.54    1.70
   7  12   2    7.35    2.83
   7  12   3   16.38    3.98
   7  12   4   18.52    4.23
   7  12   5   19.06    4.48
   7  12   6   19.20    4.32
   7  13  -1   54.23    6.86
   7  13   0  168.75   12.19
   7  13   1  152.30   11.97
   7  13   2  113.70   10.42
   7  13   3   63.68    8.07
   7  13   4   60.52    7.96
   8 -10  -8    4.19    2.45
   8 -10  -7   10.16    3.20
   8 -10  -6   32.41    5.55
   8 -10  -5   13.83    3.73
   8 -10  -4   14.98    3.87
   8 -10  -3   24.48    4.75
   8 -10  -2   31.27    5.51
   8  -9  -9   24.00    4.80
   8  -9  -8   22.45    4.66
   8  -9  -7    7.39    3.25
   8  -9  -6    4.19    1.99
   8  -9  -5   35.34    5.78
   8  -9  -4   31.11    5.41
   8  -9  -3   66.48    7.68
   8  -9  -2   79.26    8.41
   8  -9  -1   28.37    5.03
   8  -9   0    7.75    2.75
   8  -9   1    4.99    2.26
   8  -9   2   10.67    3.37
   8  -8 -10    0.31    1.89
   8  -8  -9   -2.58    2.16
   8  -8  -8    7.04    2.94
   8  -8  -7   97.62    9.10
   8  -8  -6   -1.70    1.83
   8  -8  -5   11.57    3.26
   8  -8  -4    1.63    1.94
   8  -8  -3   17.40    3.98
   8  -8  -2   20.25    4.21
   8  -8  -1   17.35    4.03
   8  -8   0   45.70    6.33
   8  -8   1   55.68    7.00
   8  -8   2   48.04    6.61
   8  -8   3   76.90    8.34
   8  -8   4  155.37   11.98
   8  -8   5   13.31    3.66
   8  -7 -10   15.56    4.05
   8  -7  -9   54.44    6.94
   8  -7  -8   83.07    8.16
   8  -7  -7   72.37    7.74
   8  -7  -6   78.69    7.95
   8  -7  -5   54.83    6.76
   8  -7  -4   50.88    6.46
   8  -7  -3   31.10    5.07
   8  -7  -2   20.84    4.08
   8  -7  -1   34.40    5.38
   8  -7   0   33.30    5.30
   8  -7   1   67.70    7.37
   8  -7   2   98.25    9.03
   8  -7   3   67.18    7.54
   8  -7   4   49.29    6.62
   8  -7   5   36.74    5.61
   8  -7   6   -0.32    1.18
   8  -7   7   29.29    5.37
   8  -6 -11    2.61    1.97
   8  -6 -10    0.94    1.97
   8  -6  -9   -1.49    1.66
   8  -6  -8    2.33    2.13
   8  -6  -7    3.70    2.08
   8  -6  -6    5.42    2.55
   8  -6  -5    9.07    3.00
   8  -6  -4    8.55    2.69
   8  -6  -3    5.51    2.13
   8  -6  -2   13.23    3.38
   8  -6  -1   35.29    5.18
   8  -6   0   13.04    3.35
   8  -6   1   41.77    5.64
   8  -6   2   62.56    6.89
   8  -6   3   46.90    6.01
   8  -6   4   50.05    6.34
   8  -6   5  102.19    9.16
   8  -6   6   16.35    3.83
   8  -6   7   74.55    8.04
   8  -6   8  114.53   10.12
   8  -6   9  106.69    9.83
   8  -6  10   46.90    6.79
   8  -5 -11   17.76    4.26
   8  -5 -10   82.63    7.97
   8  -5  -9   18.23    3.96
   8  -5  -8   40.19    5.52
   8  -5  -7   85.00    7.98
   8  -5  -6   65.29    7.05
   8  -5  -5   87.75    8.01
   8  -5  -4  108.82    8.81
   8  -5  -3   94.89    8.13
   8  -5  -2   45.75    5.77
   8  -5  -1   23.64    4.05
   8  -5   0   23.85    4.21
   8  -5   1  235.38   12.83
   8  -5   2   42.52    5.50
   8  -5   3  149.33   10.28
   8  -5   4   76.47    7.42
   8  -5   5   51.98    6.31
   8  -5   6   83.04    8.07
   8  -5   7   41.60    5.90
   8  -5   8   33.44    5.31
   8  -5   9   32.09    5.38
   8  -5  10   13.96    3.41
   8  -5  11    4.70    2.13
   8  -5  12   24.67    4.89
   8  -4 -12    9.34    3.17
   8  -4 -11   16.15    3.90
   8  -4 -10   18.14    3.79
   8  -4  -9   20.45    3.96
   8  -4  -8    2.70    1.76
   8  -4  -7    1.70    1.71
   8  -4  -6    1.80    1.23
   8  -4  -5    2.46    1.55
   8  -4  -4   -0.60    1.34
   8  -4  -3    1.60    1.45
   8  -4  -2    0.20    1.15
   8  -4  -1   17.22    3.48
   8  -4   0   22.60    3.94
   8  -4   1   15.21    3.25
   8  -4   2   11.84    2.95
   8  -4   3   58.79    6.27
   8  -4   4   24.77    4.04
   8  -4   5   13.51    3.43
   8  -4   6   42.55    5.52
   8  -4   7   27.08    4.50
   8  -4   8    5.80    2.53
   8  -4   9  111.84    9.31
   8  -4  10   73.17    7.76
   8  -4  11   80.20    8.18
   8  -4  12   48.98    6.60
   8  -4  13   47.29    6.56
   8  -3 -12   17.71    4.17
   8  -3 -11   17.78    4.12
   8  -3 -10   17.26    3.80
   8  -3  -9   50.12    6.11
   8  -3  -8   25.97    4.47
   8  -3  -7   64.09    6.70
   8  -3  -7   68.64    5.83
   8  -3  -7   67.71    5.85
   8  -3  -6  121.02    9.12
   8  -3  -6  102.04    7.00
   8  -3  -6  120.28    7.55
   8  -3  -5   91.02    7.88
   8  -3  -5   77.12    6.31
   8  -3  -5   93.68    6.62
   8  -3  -4   65.81    6.62
   8  -3  -4   58.24    5.18
   8  -3  -3  185.72   10.93
   8  -3  -2  108.21    8.32
   8  -3  -1  146.60    9.64
   8  -3   0  173.56   10.39
   8  -3   1  109.60    8.30
   8  -3   2  353.40   14.87
   8  -3   3  163.99   10.15
   8  -3   4  113.03    8.47
   8  -3   5   12.32    3.05
   8  -3   6    6.58    2.28
   8  -3   7  215.81   11.86
   8  -3   8  214.70   12.06
   8  -3   9  151.84   10.33
   8  -3  10   63.12    6.80
   8  -3  11   25.67    4.58
   8  -3  12    4.62    2.58
   8  -3  13   19.19    4.30
   8  -2 -13    5.95    2.92
   8  -2 -12    1.65    1.85
   8  -2 -11    5.71    2.49
   8  -2 -10   24.52    4.58
   8  -2  -9   46.84    6.08
   8  -2  -8   24.16    4.41
   8  -2  -7    8.94    2.80
   8  -2  -6   12.24    2.40
   8  -2  -6   13.22    2.58
   8  -2  -6   13.79    3.18
   8  -2  -5   19.37    2.91
   8  -2  -5   16.85    3.45
   8  -2  -4   22.84    3.06
   8  -2  -4   22.35    3.78
   8  -2  -3   65.17    6.36
   8  -2  -2    1.09    0.77
   8  -2  -1    2.35    1.23
   8  -2   0    6.92    2.15
   8  -2   1   -0.38    0.94
   8  -2   2   38.03    4.81
   8  -2   3   41.47    5.02
   8  -2   4   30.69    4.26
   8  -2   5   10.87    2.55
   8  -2   6    2.30    1.47
   8  -2   7    2.20    1.54
   8  -2   8    4.79    1.78
   8  -2   9  164.11   10.32
   8  -2  10   63.29    6.53
   8  -2  11   50.37    5.95
   8  -2  12   33.98    5.04
   8  -2  13   73.03    7.39
   8  -1 -13   -0.41    1.90
   8  -1 -12   16.50    4.18
   8  -1 -11   14.44    3.75
   8  -1 -10   14.72    3.74
   8  -1  -9   36.73    5.37
   8  -1  -8   36.16    5.16
   8  -1  -7   33.84    4.88
   8  -1  -6   21.04    3.00
   8  -1  -6   19.47    2.57
   8  -1  -6   17.14    3.42
   8  -1  -5   51.50    5.83
   8  -1  -5   61.39    4.37
   8  -1  -4  132.71    9.13
   8  -1  -4  135.78    6.40
   8  -1  -3  190.23   10.85
   8  -1  -3  180.04    7.41
   8  -1  -2  165.91   10.06
   8  -1  -1  120.12    8.49
   8  -1   0  112.99    8.19
   8  -1   1  243.08   11.89
   8  -1   2  368.38   14.59
   8  -1   3  387.71   14.92
   8  -1   4  356.87   14.30
   8  -1   5  222.40   11.32
   8  -1   6   90.25    7.29
   8  -1   7   57.27    5.85
   8  -1   8   36.59    4.77
   8  -1   9   98.69    7.80
   8  -1  10  146.69    9.59
   8  -1  11   76.52    7.02
   8  -1  12  133.25    9.33
   8  -1  13   74.13    7.09
   8   0 -12   31.78    5.63
   8   0 -11   68.63    7.71
   8   0 -10   37.38    5.63
   8   0  -9   19.56    4.27
   8   0  -8   73.66    7.46
   8   0  -7   20.35    4.00
   8   0  -6   56.45    6.30
   8   0  -5   13.91    3.13
   8   0  -5   18.65    2.06
   8   0  -4   79.13    4.16
   8   0  -4   81.11    7.25
   8   0  -3   31.01    4.42
   8   0  -3   30.52    2.63
   8   0  -2  169.08   10.07
   8   0  -1   24.50    3.85
   8   0   0    9.52    2.37
   8   0   1    2.06    1.28
   8   0   2   38.87    4.70
   8   0   3   52.32    5.48
   8   0   4   13.52    2.81
   8   0   5   42.03    4.85
   8   0   6    7.58    2.07
   8   0   7   35.79    4.42
   8   0   8  143.63    9.04
   8   0   9   22.22    3.58
   8   0  10   25.97    4.06
   8   0  11   72.90    6.66
   8   0  12    7.04    2.22
   8   0  13    6.05    2.30
   8   1 -12   12.11    3.58
   8   1 -11    2.28    2.37
   8   1 -10    1.47    1.73
   8   1  -9   -1.44    2.31
   8   1  -8    3.37    2.30
   8   1  -7   76.60    7.50
   8   1  -6   10.91    3.00
   8   1  -5  200.60   11.62
   8   1  -4  216.70   11.85
   8   1  -3   46.56    2.26
   8   1  -3   49.37    5.56
   8   1  -2  122.81    8.70
   8   1  -2  118.94    4.07
   8   1  -1  129.25    8.74
   8   1   0   40.51    4.87
   8   1   1   52.77    5.46
   8   1   2  131.34    8.57
   8   1   3  132.20    8.52
   8   1   4  295.96   12.72
   8   1   5   45.39    4.97
   8   1   6  498.92   16.48
   8   1   7  290.02   12.54
   8   1   8  131.59    8.52
   8   1   9  316.94   13.21
   8   1  10   89.21    7.09
   8   1  11   95.54    7.35
   8   1  12  125.30    8.40
   8   1  13  168.93   13.13
   8   2 -11   11.49    3.49
   8   2 -10   63.09    7.64
   8   2  -9   75.13    7.95
   8   2  -8   96.43    8.88
   8   2  -7   36.02    5.39
   8   2  -6  104.34    8.82
   8   2  -5  103.28    8.54
   8   2  -4   58.15    6.26
   8   2  -3   54.40    5.93
   8   2  -2   40.42    5.07
   8   2  -1   65.05    1.89
   8   2  -1   69.19    2.14
   8   2  -1   60.19    6.02
   8   2   0   86.95    7.17
   8   2   1  123.09    8.39
   8   2   2   18.98    3.30
   8   2   3   33.15    4.30
   8   2   4   19.60    3.32
   8   2   5    0.63    1.04
   8   2   6   33.35    4.25
   8   2   7   12.39    2.64
   8   2   8   76.83    6.38
   8   2   9    0.02    1.05
   8   2  10    1.66    1.02
   8   2  11   -1.13    2.16
   8   2  11    1.50    1.05
   8   2  12    1.97    2.24
   8   2  12    3.59    1.31
   8   2  13    8.89    3.16
   8   2  14    4.66    2.19
   8   3  -9    2.41    2.08
   8   3  -8   13.91    3.69
   8   3  -7    0.58    1.92
   8   3  -6   57.56    6.71
   8   3  -5   31.55    4.90
   8   3  -4   30.92    4.78
   8   3  -3   97.51    8.15
   8   3  -2   69.88    6.72
   8   3  -1   12.01    2.79
   8   3   0   51.87    5.66
   8   3   1    0.03    0.36
   8   3   1   -2.17    1.38
   8   3   2  117.88    5.24
   8   3   2  133.67    8.70
   8   3   3  159.98    9.42
   8   3   3  161.76    7.03
   8   3   4  102.79    7.45
   8   3   4  109.66    6.42
   8   3   5  733.62   19.65
   8   3   5  697.01   17.47
   8   3   6   16.33    3.09
   8   3   6   24.13    3.65
   8   3   7  284.44   12.10
   8   3   7  282.78   12.61
   8   3   8  235.99   10.97
   8   3   8  221.57   11.76
   8   3   9  117.95    7.71
   8   3   9  102.89    8.50
   8   3  10  150.22    8.67
   8   3  10  147.52   10.65
   8   3  11  170.30    9.16
   8   3  11  160.16   11.60
   8   3  12  175.98   13.11
   8   3  13  189.02   13.43
   8   3  14  113.33   10.83
   8   4  -8   16.81    3.99
   8   4  -7  291.56   15.85
   8   4  -6   12.30    3.48
   8   4  -6   12.60    2.01
   8   4  -5  198.46   12.35
   8   4  -4  210.30   12.43
   8   4  -3   97.27    8.32
   8   4  -2  146.65   10.03
   8   4  -1   10.08    2.82
   8   4   0   92.25    7.73
   8   4   1   98.56    7.72
   8   4   2  139.34    4.92
   8   4   2  133.98    8.89
   8   4   3   61.85    4.02
   8   4   3   63.62    6.04
   8   4   4  334.98   10.46
   8   4   4  302.79   12.91
   8   4   5    1.86    0.89
   8   4   5    1.53    1.07
   8   4   6  151.08    8.39
   8   4   6  149.48    8.81
   8   4   7   62.22    5.78
   8   4   7   53.33    5.21
   8   4   8   42.55    4.61
   8   4   8   34.48    4.59
   8   4   9   40.29    4.42
   8   4   9   28.67    4.40
   8   4  10    0.63    1.13
   8   4  10   -0.65    0.82
   8   4  11   17.40    3.78
   8   4  11   17.80    3.04
   8   4  12   26.17    4.99
   8   4  13    1.79    1.81
   8   4  14    4.55    2.22
   8   5  -7   -1.53    1.91
   8   5  -6    6.99    2.93
   8   5  -5    5.66    2.58
   8   5  -5    5.23    1.58
   8   5  -4    1.93    1.55
   8   5  -4    0.06    0.71
   8   5  -3   23.75    4.19
   8   5  -2   16.62    3.68
   8   5  -1    1.68    1.11
   8   5   0   15.12    3.27
   8   5   1  147.66    9.73
   8   5   2  252.13   12.42
   8   5   3  183.87    6.45
   8   5   3  179.39   10.30
   8   5   4  264.03    8.94
   8   5   4  251.07   11.96
   8   5   5   95.85    5.98
   8   5   5   97.90    7.33
   8   5   6   24.69    3.34
   8   5   6   20.34    3.41
   8   5   7   48.67    5.06
   8   5   7   41.18    4.67
   8   5   8  151.28    9.36
   8   5   8  142.77    8.46
   8   5   9   97.24    7.89
   8   5   9  109.20    7.31
   8   5  10  186.27   11.54
   8   5  10  179.35    9.13
   8   5  11   94.48    8.66
   8   5  11  114.73    7.12
   8   5  12   94.90    9.14
   8   5  13  113.50   10.43
   8   5  14  137.21   11.86
   8   6  -5   88.99    5.69
   8   6  -5   87.23    8.78
   8   6  -4   51.78    6.65
   8   6  -4   47.58    4.57
   8   6  -3  136.60    8.03
   8   6  -3  118.18    9.77
   8   6  -2  464.52   15.73
   8   6  -2  469.37   18.92
   8   6  -1  161.12   10.85
   8   6   0  282.08   14.00
   8   6   1  111.01    8.65
   8   6   2  163.52   10.28
   8   6   3  123.39    8.76
   8   6   4   16.34    2.33
   8   6   4   14.44    2.93
   8   6   5  403.51   12.08
   8   6   5  391.30   15.09
   8   6   6   65.34    5.33
   8   6   6   70.69    6.28
   8   6   7    6.99    2.01
   8   6   7   10.99    2.56
   8   6   8   89.26    7.18
   8   6   8   97.35    7.10
   8   6   9   20.95    3.79
   8   6   9   25.62    3.65
   8   6  10   49.53    5.98
   8   6  10   62.91    5.41
   8   6  11   34.16    5.36
   8   6  12    1.31    1.60
   8   6  13    4.63    2.61
   8   6  14   11.92    3.41
   8   7  -4    1.90    0.97
   8   7  -3    1.77    1.58
   8   7  -3    0.32    1.05
   8   7  -2    1.88    1.39
   8   7  -2    5.24    1.97
   8   7  -1   -0.99    1.90
   8   7  -1    0.51    1.36
   8   7   0   43.45    5.34
   8   7   0   42.46    5.67
   8   7   1   18.30    3.71
   8   7   2   37.39    5.06
   8   7   3   26.85    4.24
   8   7   4   55.67    5.89
   8   7   5  114.14    8.29
   8   7   6   87.26    6.14
   8   7   6   85.37    7.13
   8   7   7   83.46    6.42
   8   7   7   81.29    6.76
   8   7   8   45.63    5.10
   8   7   8   39.20    4.60
   8   7   9   26.36    4.15
   8   7   9   20.68    3.32
   8   7  10   39.72    5.44
   8   7  10   49.74    4.79
   8   7  11  108.11    9.25
   8   7  12   34.28    5.73
   8   7  13  107.74   10.11
   8   7  14   89.43    9.62
   8   8  -3   85.88    6.79
   8   8  -2  106.14    7.85
   8   8  -1  220.22   11.74
   8   8   0  168.07   10.60
   8   8   1  121.28    9.17
   8   8   1  119.66    9.65
   8   8   2   51.85    6.16
   8   8   2   54.16    6.45
   8   8   3  128.91   10.04
   8   8   3  142.47   10.05
   8   8   4  184.99   11.16
   8   8   5  114.96    8.69
   8   8   6  145.51    9.56
   8   8   7  281.61   12.80
   8   8   8  103.85    7.80
   8   8   8   97.77    7.41
   8   8   9   76.53    7.11
   8   8   9   77.51    6.35
   8   8  10   62.76    6.76
   8   8  11   28.06    4.93
   8   8  12   89.83    8.97
   8   8  13   28.16    5.58
   8   9  -3   -0.94    1.13
   8   9  -2    3.05    1.75
   8   9  -1   -0.29    1.07
   8   9   0   -0.77    1.23
   8   9   1    8.70    2.59
   8   9   2    4.57    2.24
   8   9   3    4.32    2.42
   8   9   4    7.19    2.72
   8   9   5    5.38    2.50
   8   9   6   18.82    4.34
   8   9   7   17.66    4.27
   8   9   8   43.18    6.80
   8   9   9   11.46    3.39
   8   9  10   71.21    8.73
   8   9  10   76.98    7.61
   8   9  11    9.85    3.33
   8   9  12   60.45    7.45
   8   9  13   20.36    4.71
   8  10  -2  169.13   10.54
   8  10  -1   54.11    6.33
   8  10   0  114.19    9.31
   8  10   1   61.62    7.03
   8  10   2   83.48    8.40
   8  10   3   77.09    8.28
   8  10   4  107.73    9.82
   8  10   5  205.48   13.87
   8  10   6  185.74   13.46
   8  10   7  171.61   13.18
   8  10   8   63.41    8.13
   8  10   9  120.16   11.45
   8  11  -1    9.35    2.89
   8  11   0   19.91    4.21
   8  11   1   21.30    4.53
   8  11   2   21.79    4.84
   8  11   3   15.18    4.19
   8  11   4    8.29    2.87
   8  11   5    6.83    3.03
   8  11   6    0.45    1.27
   8  11   7    8.30    3.58
   8  12  -1   47.95    6.38
   8  12   0   73.75    8.05
   8  12   1   60.57    7.47
   8  12   2   41.50    6.31
   8  12   3   70.10    8.29
   8  12   4   66.64    8.22
   8  12   5  115.81   11.08
   8  13   0   64.97    8.08
   8  13   1   11.66    3.76
   9  -8  -9   19.51    4.83
   9  -8  -8    5.34    2.34
   9  -8  -7   12.61    3.72
   9  -8  -6   35.73    6.01
   9  -8  -5   47.44    6.71
   9  -8  -4   59.23    7.46
   9  -8  -3   66.10    7.97
   9  -8  -2   58.92    7.48
   9  -8  -1   63.23    7.87
   9  -8   0   17.51    3.88
   9  -8   1  108.85   10.17
   9  -7 -10    6.50    3.73
   9  -7  -9    5.70    2.23
   9  -7  -8    0.98    1.41
   9  -7  -7   18.01    4.26
   9  -7  -6   22.98    4.81
   9  -7  -5    5.13    2.51
   9  -7  -4    3.19    2.17
   9  -7  -3    2.41    1.95
   9  -7  -2    2.06    2.10
   9  -7  -1   -0.17    1.15
   9  -7   0    3.75    1.91
   9  -7   1   -0.02    1.09
   9  -7   2   -0.38    1.00
   9  -7   3    6.13    2.46
   9  -7   4    2.61    1.67
   9  -6 -10   11.23    3.42
   9  -6  -9   34.77    5.70
   9  -6  -8   12.48    3.36
   9  -6  -7   11.19    3.39
   9  -6  -6   29.96    5.25
   9  -6  -5   40.42    5.93
   9  -6  -4   51.68    6.76
   9  -6  -3   65.13    7.41
   9  -6  -2   87.56    8.62
   9  -6  -1   51.08    6.74
   9  -6   0   91.70    8.84
   9  -6   1   52.22    6.72
   9  -6   2   78.03    8.16
   9  -6   3   73.57    7.90
   9  -6   4  207.51   13.33
   9  -6   5  108.09    9.67
   9  -6   6   49.89    6.71
   9  -6   7   21.56    4.56
   9  -5 -11    7.29    2.74
   9  -5 -10    8.71    2.92
   9  -5  -9    7.74    2.92
   9  -5  -8   38.69    5.92
   9  -5  -7   12.58    3.54
   9  -5  -6    5.62    2.70
   9  -5  -5   22.26    4.50
   9  -5  -4    2.17    1.86
   9  -5  -3   12.22    3.34
   9  -5  -2    2.66    2.03
   9  -5  -1    2.84    2.09
   9  -5   0    3.91    2.14
   9  -5   1    2.44    1.51
   9  -5   2    6.62    2.29
   9  -5   3    9.61    2.87
   9  -5   4    5.92    2.19
   9  -5   5   -0.02    1.46
   9  -5   6    3.63    2.15
   9  -5   7   67.26    7.55
   9  -5   8    0.13    0.90
   9  -5   9   33.05    5.71
   9  -4 -11   17.05    4.13
   9  -4 -10   10.68    3.21
   9  -4  -9    3.78    2.51
   9  -4  -8   16.32    3.98
   9  -4  -7   35.67    5.52
   9  -4  -6   18.57    4.21
   9  -4  -5   62.78    7.11
   9  -4  -4   57.43    6.77
   9  -4  -3   55.37    6.61
   9  -4  -2   52.15    6.38
   9  -4  -1   68.26    7.27
   9  -4   0  101.43    8.77
   9  -4   1   45.87    5.98
   9  -4   2   77.30    7.67
   9  -4   3  112.25    9.23
   9  -4   4   75.67    7.67
   9  -4   5   61.16    7.01
   9  -4   6  138.37   10.49
   9  -4   7  107.60    9.26
   9  -4   8  143.68   10.87
   9  -4   9  124.86   10.30
   9  -4  10   85.86    8.55
   9  -4  11   64.79    7.60
   9  -3 -12   12.11    3.79
   9  -3 -11   40.82    6.18
   9  -3 -10   51.68    6.71
   9  -3  -9   43.10    6.14
   9  -3  -8   18.36    4.30
   9  -3  -7   17.55    3.90
   9  -3  -6   36.03    5.54
   9  -3  -5   10.70    3.16
   9  -3  -4   59.28    6.83
   9  -3  -4   58.96    5.43
   9  -3  -3   34.11    5.13
   9  -3  -2   39.49    5.51
   9  -3  -1   77.66    7.66
   9  -3   0   50.06    6.11
   9  -3   1   19.43    3.92
   9  -3   2    0.79    1.17
   9  -3   3    4.60    2.37
   9  -3   4    2.19    1.65
   9  -3   5   -0.26    1.64
   9  -3   6    7.23    2.51
   9  -3   7   15.52    3.51
   9  -3   8   15.12    3.61
   9  -3   9    1.38    1.97
   9  -3  10    1.15    1.31
   9  -3  11   -0.55    1.28
   9  -3  12    8.86    3.13
   9  -2 -12   -2.82    2.27
   9  -2 -11    2.46    2.37
   9  -2 -10    1.24    1.51
   9  -2  -9   22.44    4.50
   9  -2  -8   13.40    3.62
   9  -2  -7   24.72    4.53
   9  -2  -6    6.99    2.47
   9  -2  -5    4.81    2.50
   9  -2  -4   85.54    8.06
   9  -2  -3    5.83    2.33
   9  -2  -2   33.13    5.02
   9  -2  -1   27.88    4.71
   9  -2   0  116.73    9.09
   9  -2   1  149.68   10.22
   9  -2   2  249.05   13.17
   9  -2   3   63.22    6.58
   9  -2   4   63.59    6.76
   9  -2   5   66.95    6.95
   9  -2   6  106.78    8.77
   9  -2   7  258.51   13.65
   9  -2   8   86.58    8.01
   9  -2   9  100.70    8.68
   9  -2  10  109.37    9.21
   9  -2  11   70.80    7.41
   9  -2  12   64.83    7.35
   9  -2  13   70.15    7.69
   9  -1 -12   31.57    5.77
   9  -1 -11   37.77    5.99
   9  -1 -10   95.09    9.32
   9  -1  -9   38.46    5.85
   9  -1  -8   75.89    8.08
   9  -1  -7   39.03    5.63
   9  -1  -6   73.09    7.63
   9  -1  -5   95.46    8.57
   9  -1  -4  149.40   10.49
   9  -1  -3   35.92    5.11
   9  -1  -3   34.85    3.41
   9  -1  -2   90.14    7.98
   9  -1  -1   71.35    7.15
   9  -1   0   52.29    6.05
   9  -1   1   42.58    5.52
   9  -1   2   26.69    4.35
   9  -1   3   54.56    6.03
   9  -1   4   65.74    6.63
   9  -1   5   13.75    3.14
   9  -1   6   36.46    4.96
   9  -1   7    9.05    2.71
   9  -1   8    3.30    1.76
   9  -1   9    3.37    1.98
   9  -1  10    2.16    1.77
   9  -1  11    7.19    2.44
   9  -1  12   10.57    3.04
   9   0 -11   10.81    3.40
   9   0 -10   -4.20    2.27
   9   0  -9    0.27    1.47
   9   0  -8   -1.35    1.47
   9   0  -7    0.09    1.54
   9   0  -6    1.06    1.45
   9   0  -5    6.02    2.39
   9   0  -4   11.07    3.11
   9   0  -3   20.50    3.86
   9   0  -3   22.54    2.31
   9   0  -2   32.48    4.87
   9   0  -1   15.18    3.27
   9   0   0   86.52    7.66
   9   0   1  117.75    8.83
   9   0   2   42.78    5.40
   9   0   3  272.79   13.40
   9   0   4   56.50    6.06
   9   0   5  118.54    8.80
   9   0   6   66.89    6.70
   9   0   7   23.47    4.11
   9   0   8  210.03   11.82
   9   0   9   64.58    6.62
   9   0  10  146.11    9.96
   9   0  11   99.86    8.35
   9   0  12  109.52    8.77
   9   1 -11   28.13    5.50
   9   1 -10   20.93    4.75
   9   1  -9  116.82   10.32
   9   1  -8    1.43    1.61
   9   1  -7  143.15   11.00
   9   1  -6   25.18    4.68
   9   1  -5  109.12    9.22
   9   1  -4  137.25   10.23
   9   1  -3  121.12    9.39
   9   1  -2  198.93    5.31
   9   1  -2  194.79   11.75
   9   1  -1   84.53    7.65
   9   1   0   71.03    6.90
   9   1   1   99.33    8.17
   9   1   2   63.77    6.47
   9   1   3    3.27    1.54
   9   1   4  367.20   15.25
   9   1   5  177.78   10.66
   9   1   6  206.08   11.42
   9   1   7    1.17    1.18
   9   1   8   60.96    6.27
   9   1   9    9.27    2.58
   9   1  10    4.82    2.04
   9   1  11   16.11    3.37
   9   1  12   42.03    5.31
   9   1  13   24.59    5.12
   9   2 -10    7.05    2.98
   9   2  -9    1.33    1.48
   9   2  -8   -3.00    1.97
   9   2  -7   54.04    6.99
   9   2  -6    1.42    1.72
   9   2  -5    0.05    1.75
   9   2  -4    1.34    1.32
   9   2  -3    5.28    2.29
   9   2  -2   49.33    6.00
   9   2  -1    4.96    2.03
   9   2   0    1.78    1.68
   9   2   1    1.75    1.57
   9   2   2   53.30    5.93
   9   2   3   21.93    3.80
   9   2   4    0.87    1.07
   9   2   5  153.84    9.78
   9   2   6   94.88    7.76
   9   2   7   27.33    4.23
   9   2   8  125.86    8.79
   9   2   9  104.84    8.05
   9   2  10   83.31    7.15
   9   2  10   72.45    7.87
   9   2  11  116.24    8.44
   9   2  11   99.38    9.48
   9   2  12   84.79    9.15
   9   2  13  110.62   10.77
   9   3  -9   32.36    5.69
   9   3  -8   57.04    7.41
   9   3  -7   23.48    4.91
   9   3  -6   87.80    8.85
   9   3  -5   59.84    7.15
   9   3  -4  101.86    9.08
   9   3  -3   79.55    7.90
   9   3  -2  104.66    8.86
   9   3  -1  189.89   11.72
   9   3   0   97.02    8.26
   9   3   1  166.31    4.83
   9   3   1  172.64   10.75
   9   3   2  114.91    5.26
   9   3   2  120.82    8.85
   9   3   3  281.13   13.43
   9   3   3  305.10    9.93
   9   3   4   35.26    4.76
   9   3   4   32.88    3.59
   9   3   5  217.30   11.57
   9   3   5  218.27   10.07
   9   3   6  229.82   11.83
   9   3   6  237.60   11.23
   9   3   7  250.17   12.31
   9   3   7  255.62   12.39
   9   3   8  109.42    8.10
   9   3   8  108.95    8.53
   9   3   9   57.15    5.86
   9   3   9   68.28    7.18
   9   3  10   43.42    5.16
   9   3  10   41.59    6.03
   9   3  11   52.55    5.57
   9   3  11   57.45    7.18
   9   3  12   10.09    3.45
   9   3  13   15.00    4.17
   9   4  -8   12.92    3.78
   9   4  -7    4.59    2.53
   9   4  -6   15.87    4.10
   9   4  -5    5.89    2.54
   9   4  -4    2.49    1.64
   9   4  -3    1.23    1.37
   9   4  -2    2.70    1.88
   9   4  -1  110.12    9.13
   9   4   0   20.39    3.87
   9   4   1    0.35    1.34
   9   4   2   51.32    2.86
   9   4   2   46.87    5.70
   9   4   3   14.38    1.99
   9   4   3   11.29    2.76
   9   4   4    5.50    1.49
   9   4   4    5.16    2.15
   9   4   5   10.53    2.21
   9   4   5    6.21    2.19
   9   4   6    1.65    1.32
   9   4   6   -2.54    1.48
   9   4   7   40.42    4.79
   9   4   7   39.43    5.04
   9   4   8   92.94    7.73
   9   4   8  100.19    7.81
   9   4   9    9.06    2.52
   9   4   9    5.69    1.85
   9   4  10   55.38    5.66
   9   4  10   69.85    7.37
   9   4  11  160.27   11.68
   9   4  11  175.69    9.89
   9   4  12  101.51    9.72
   9   4  13   92.40    9.54
   9   5  -7   49.66    7.13
   9   5  -6   55.54    7.36
   9   5  -5  140.44   11.36
   9   5  -4  101.09    9.51
   9   5  -3   30.60    5.12
   9   5  -2   32.56    5.37
   9   5  -1   77.24    7.88
   9   5   0  310.56   15.35
   9   5   1  263.07   13.85
   9   5   2  245.14   13.09
   9   5   3  152.95    5.65
   9   5   3  144.96    9.91
   9   5   4  112.03    5.84
   9   5   4  101.81    8.28
   9   5   5  179.09    8.23
   9   5   5  152.95    9.99
   9   5   6  134.25    7.84
   9   5   6  143.96    9.56
   9   5   7   82.43    6.58
   9   5   7   80.39    7.04
   9   5   8   43.78    5.19
   9   5   8   44.60    5.21
   9   5   9   59.59    6.39
   9   5   9   60.78    5.97
   9   5  10   64.12    7.03
   9   5  10   71.03    6.37
   9   5  11  124.77   10.17
   9   5  12   77.81    8.40
   9   5  13  144.82   11.86
   9   6  -6   64.34    7.98
   9   6  -5   18.03    4.26
   9   6  -4    0.01    1.37
   9   6  -4    2.04    1.45
   9   6  -3   18.43    4.21
   9   6  -3   15.70    2.87
   9   6  -2   49.10    6.50
   9   6  -1    9.74    2.97
   9   6   0   49.91    6.39
   9   6   1    2.82    1.73
   9   6   2   40.77    5.64
   9   6   3   26.35    4.42
   9   6   4   11.16    2.94
   9   6   5    1.39    0.93
   9   6   5    4.06    2.10
   9   6   6    6.24    1.74
   9   6   6    6.94    1.99
   9   6   7    3.11    1.35
   9   6   7    1.79    1.32
   9   6   8    0.57    1.25
   9   6   8    2.43    1.29
   9   6   9    9.69    2.36
   9   6   9   13.84    3.08
   9   6  10   44.75    5.81
   9   6  10   57.51    5.66
   9   6  11   -0.77    1.76
   9   6  12   78.14    8.50
   9   6  13    4.28    2.29
   9   7  -3  112.77   10.51
   9   7  -3  121.60    8.25
   9   7  -2  158.94   12.09
   9   7  -2  156.00    9.73
   9   7  -1   86.36    7.62
   9   7  -1   84.72    8.69
   9   7   0   37.16    5.73
   9   7   1  130.61   10.33
   9   7   2   19.12    4.01
   9   7   3  106.72    8.96
   9   7   4   67.26    7.04
   9   7   5  251.27   13.24
   9   7   6   76.62    5.69
   9   7   6   86.77    7.72
   9   7   7  230.89   10.69
   9   7   7  214.53   11.84
   9   7   8  110.58    7.96
   9   7   8  106.87    8.14
   9   7   9   75.46    7.00
   9   7   9   80.24    6.93
   9   7  10  104.64    8.81
   9   7  11   97.59    9.02
   9   7  12  110.53    9.97
   9   7  13   57.39    7.47
   9   8  -2   58.77    6.13
   9   8  -1  121.49   10.63
   9   8  -1  113.61    8.80
   9   8   0  105.15    8.74
   9   8   0  128.26   10.69
   9   8   1   15.72    4.07
   9   8   1   14.79    3.55
   9   8   2   -0.83    2.11
   9   8   2    2.77    1.65
   9   8   3    0.41    1.43
   9   8   4   10.90    2.91
   9   8   5    8.97    2.82
   9   8   6   26.97    4.44
   9   8   7    5.72    1.88
   9   8   8    1.55    1.40
   9   8   8   -0.30    0.93
   9   8   9    1.00    1.25
   9   8  10    7.85    2.83
   9   8  11    2.49    2.24
   9   8  12    5.77    2.56
   9   8  13    0.11    2.12
   9   9  -2   11.00    2.88
   9   9  -1   78.28    7.49
   9   9   0   40.78    5.66
   9   9   1   61.60    7.15
   9   9   2   54.97    6.99
   9   9   3   65.57    7.89
   9   9   4   71.72    8.38
   9   9   5   78.82    8.81
   9   9   6  189.26   13.81
   9   9   7  148.68   12.43
   9   9   8  218.86   15.41
   9   9  10  144.10   10.29
   9   9  11  102.58    9.24
   9   9  12  103.99    9.65
   9  10  -1   38.66    5.70
   9  10   0   56.49    6.81
   9  10   1   73.52    8.02
   9  10   2   60.07    7.59
   9  10   3   28.11    5.36
   9  10   4   36.13    6.09
   9  10   5   41.27    6.43
   9  10   6   26.73    5.44
   9  11   0   41.73    6.11
   9  11   1   32.30    5.62
   9  11   2   42.22    6.53
   9  11   3   23.45    4.79
   9  11   4   22.55    4.76
   9  11   5  128.02   11.83
   9  12   1   85.15    9.17
   9  12   2   15.52    4.03
  10  -6  -6   27.47    5.36
  10  -6  -5   24.51    4.96
  10  -6  -4   32.02    5.65
  10  -6  -3   47.22    6.74
  10  -6  -2   27.60    5.11
  10  -6  -1   16.37    3.80
  10  -6   0   15.52    3.87
  10  -6   1   37.99    6.12
  10  -6   2   12.69    3.93
  10  -5  -8    4.22    3.22
  10  -5  -7   -2.59    1.87
  10  -5  -6    9.83    2.82
  10  -5  -5   -0.36    1.77
  10  -5  -4   10.59    3.15
  10  -5  -3    5.06    2.24
  10  -5  -2   21.36    4.42
  10  -5  -1   21.86    4.55
  10  -5   0    4.51    2.18
  10  -5   1   34.56    5.60
  10  -5   2   59.48    7.37
  10  -5   3  119.00   10.39
  10  -5   4   87.64    8.96
  10  -5   5   11.49    3.34
  10  -4  -8   39.05    6.12
  10  -4  -7   31.14    5.46
  10  -4  -6   26.76    5.04
  10  -4  -5   21.92    4.49
  10  -4  -4   78.25    8.43
  10  -4  -3   27.07    5.04
  10  -4  -2   22.31    4.53
  10  -4  -1   57.43    7.18
  10  -4   0   97.88    9.30
  10  -4   1   88.27    8.75
  10  -4   2   53.21    6.77
  10  -4   3   33.96    5.52
  10  -4   4   20.44    4.23
  10  -4   5   18.35    4.14
  10  -4   6   36.95    5.75
  10  -4   7   83.18    8.78
  10  -4   8   10.45    3.07
  10  -3  -9   -1.53    2.37
  10  -3  -8   -1.15    1.46
  10  -3  -7    5.07    2.51
  10  -3  -6    2.09    1.83
  10  -3  -5    1.56    1.46
  10  -3  -4    1.88    1.92
  10  -3  -3   13.84    3.81
  10  -3  -2   13.12    3.46
  10  -3  -1    5.02    2.22
  10  -3   0   -2.08    1.74
  10  -3   1    1.50    1.70
  10  -3   2   11.35    3.47
  10  -3   3   28.84    4.97
  10  -3   4   66.90    7.53
  10  -3   5  109.27    9.71
  10  -3   6  133.32   10.70
  10  -3   7   44.28    6.27
  10  -3   8   47.02    6.48
  10  -3   9   47.82    6.49
  10  -3  10   22.07    4.51
  10  -2  -9   53.26    7.33
  10  -2  -8   38.73    6.05
  10  -2  -7   81.51    8.67
  10  -2  -6   47.19    6.55
  10  -2  -5   38.56    5.95
  10  -2  -4   17.93    4.10
  10  -2  -3   76.89    8.13
  10  -2  -2   61.53    7.36
  10  -2  -1   99.89    9.11
  10  -2   0   30.58    5.06
  10  -2   1   77.97    8.03
  10  -2   2  199.76   12.67
  10  -2   3   27.96    4.84
  10  -2   4   88.30    8.49
  10  -2   5   94.42    8.78
  10  -2   6  142.73   10.79
  10  -2   7   14.86    3.75
  10  -2   8   38.96    5.74
  10  -2   9   51.91    6.67
  10  -2  10   16.97    3.83
  10  -2  11   13.03    3.49
  10  -2  12   16.96    4.09
  10  -1  -9   32.81    6.00
  10  -1  -8    3.75    2.04
  10  -1  -7   32.69    5.66
  10  -1  -6    8.37    2.88
  10  -1  -5    2.40    1.88
  10  -1  -4   -0.15    1.78
  10  -1  -3    3.37    2.19
  10  -1  -2    8.87    3.06
  10  -1  -1    6.77    2.62
  10  -1   0    5.04    2.24
  10  -1   1    4.68    2.09
  10  -1   2    7.62    2.67
  10  -1   3   50.22    6.38
  10  -1   4   22.75    4.39
  10  -1   5   11.66    3.31
  10  -1   6   40.00    5.67
  10  -1   7   10.83    3.18
  10  -1   8   78.14    7.94
  10  -1   9   52.80    6.56
  10  -1  10   39.93    5.72
  10  -1  11   19.87    4.05
  10  -1  12   33.13    5.39
  10   0  -8   18.43    4.20
  10   0  -7   29.28    5.27
  10   0  -6   56.76    7.25
  10   0  -5   46.65    6.48
  10   0  -4   77.87    8.15
  10   0  -3   64.11    7.43
  10   0  -2   57.50    7.01
  10   0  -1   77.70    7.89
  10   0   0  164.19   11.31
  10   0   1  133.02   10.16
  10   0   2  143.11   10.55
  10   0   3  199.94   12.32
  10   0   4   80.77    7.86
  10   0   5   50.49    6.26
  10   0   6   15.24    3.49
  10   0   7   92.96    8.60
  10   0   8   43.16    5.83
  10   0   9   95.34    8.73
  10   0  10   72.35    7.62
  10   0  11   95.14    8.75
  10   0  12   64.32    7.13
  10   1  -8   33.58    5.92
  10   1  -7    6.11    2.54
  10   1  -6   13.40    3.66
  10   1  -5   37.69    5.90
  10   1  -4    7.85    2.98
  10   1  -3    7.73    2.77
  10   1  -2    0.05    1.22
  10   1  -1   -1.41    1.92
  10   1   0   14.15    3.41
  10   1   1    8.55    2.88
  10   1   2    1.56    1.32
  10   1   3   22.90    4.29
  10   1   4   98.61    8.60
  10   1   5    2.21    1.72
  10   1   6    1.27    1.28
  10   1   7    5.48    2.41
  10   1   8   13.86    3.33
  10   1   9   12.27    3.36
  10   1  10   16.11    3.52
  10   1  11   32.19    5.01
  10   2  -7    1.78    1.50
  10   2  -6   11.30    3.58
  10   2  -5   43.05    6.42
  10   2  -4   50.08    6.78
  10   2  -3  142.09   11.08
  10   2  -2  114.26    9.80
  10   2  -1   84.61    8.28
  10   2   0  105.21    9.10
  10   2   1  110.32    9.27
  10   2   2   38.60    5.43
  10   2   3  278.19   14.37
  10   2   4   33.44    5.13
  10   2   5  161.95   10.88
  10   2   6  142.41   10.19
  10   2   7  131.82    9.75
  10   2   8  186.85   11.60
  10   2   9   77.50    7.57
  10   2   9   69.65    7.51
  10   2  10   55.84    6.46
  10   2  10   54.23    7.09
  10   2  11  160.55   10.79
  10   2  11  139.95   11.57
  10   2  12  125.24   11.43
  10   3  -7   26.00    5.38
  10   3  -6   50.34    7.00
  10   3  -5   89.89    9.20
  10   3  -4   53.80    7.15
  10   3  -3    3.57    1.90
  10   3  -2   54.20    6.81
  10   3  -1   91.62    8.75
  10   3   0   62.04    7.13
  10   3   1   10.24    3.03
  10   3   2   24.62    4.39
  10   3   3    1.15    0.89
  10   3   3    0.41    1.13
  10   3   4    0.00    0.95
  10   3   4    0.28    1.41
  10   3   5    2.04    1.21
  10   3   5   -3.20    1.85
  10   3   6    8.25    2.32
  10   3   6   13.96    3.33
  10   3   7   -1.87    1.34
  10   3   7    1.15    1.57
  10   3   8    0.40    1.09
  10   3   8   -1.65    1.77
  10   3   9    8.74    2.62
  10   3   9    7.65    2.30
  10   3  10   22.22    4.44
  10   3  10   19.56    3.85
  10   3  11   14.95    4.37
  10   3  11    4.38    2.33
  10   3  12    8.17    2.92
  10   4  -6   57.38    7.70
  10   4  -5    8.34    2.86
  10   4  -4   -0.47    1.20
  10   4  -3   31.50    5.28
  10   4  -2   21.64    4.51
  10   4  -1  102.97    9.48
  10   4   0   41.35    6.08
  10   4   1  144.40   10.75
  10   4   2  132.52   10.24
  10   4   3   13.82    3.52
  10   4   4  193.64    8.16
  10   4   4  182.40   11.74
  10   4   5  205.24    9.31
  10   4   5  194.17   12.01
  10   4   6   79.93    6.40
  10   4   6   75.63    7.48
  10   4   7  156.50    9.50
  10   4   7  170.12   10.96
  10   4   8   91.37    7.73
  10   4   8  101.27    8.50
  10   4   9  135.44    9.96
  10   4   9  134.90    9.58
  10   4  10  163.37   11.55
  10   4  10  163.85   10.43
  10   4  11   77.21    8.43
  10   4  12   99.28    9.80
  10   4  13   52.34    7.68
  10   5  -5   46.31    6.95
  10   5  -4   42.09    6.41
  10   5  -3   55.23    7.19
  10   5  -2   60.43    7.51
  10   5  -1   -1.30    1.64
  10   5   0   58.90    7.16
  10   5   1   35.23    5.47
  10   5   2   67.16    7.43
  10   5   3  106.85    9.25
  10   5   4   48.24    6.11
  10   5   5   34.49    5.15
  10   5   6    2.02    1.18
  10   5   6    5.03    2.03
  10   5   7   -0.22    0.82
  10   5   7    0.70    1.19
  10   5   8    5.83    2.02
  10   5   8    4.60    2.29
  10   5   9    9.63    2.79
  10   5   9   12.32    3.03
  10   5  10   -0.55    1.46
  10   5  10    0.16    1.24
  10   5  11    6.48    2.92
  10   5  12   -1.86    1.98
  10   5  13    0.62    2.06
  10   6  -4   11.69    3.45
  10   6  -3   11.07    3.28
  10   6  -3    3.77    1.97
  10   6  -2    8.14    2.69
  10   6  -1   24.27    4.83
  10   6   0   56.39    7.23
  10   6   1   23.51    4.72
  10   6   2   29.31    5.07
  10   6   3   92.29    8.76
  10   6   4   63.11    7.17
  10   6   5   44.02    6.07
  10   6   6  150.10   10.63
  10   6   7   91.24    8.24
  10   6   8  103.05    7.83
  10   6   8   98.12    8.35
  10   6   9  101.90    8.26
  10   6   9   85.60    7.71
  10   6  10   38.88    5.50
  10   6  11  117.10    9.83
  10   6  12   85.04    8.78
  10   6  13  194.14   14.07
  10   7  -2   75.75    7.17
  10   7  -2   84.59    9.28
  10   7  -1   38.09    6.04
  10   7  -1   42.55    5.77
  10   7   0   56.53    7.28
  10   7   1   43.90    6.38
  10   7   2   38.40    5.94
  10   7   3   32.75    5.44
  10   7   4  101.71    9.22
  10   7   5   83.89    8.27
  10   7   6   68.39    7.30
  10   7   7   31.38    5.06
  10   7   8   60.98    6.85
  10   7   9    6.38    2.41
  10   7  12   43.18    6.36
  10   8  -1    5.82    3.12
  10   8  -1   13.80    3.35
  10   8   0    5.06    2.27
  10   8   0    5.97    2.64
  10   8   1   10.28    3.34
  10   8   1   12.51    3.63
  10   8   2    9.25    3.11
  10   8   2    8.69    3.13
  10   8   3   20.11    4.49
  10   8   4   26.92    5.00
  10   8   5   53.21    6.75
  10   8   6   83.08    8.34
  10   8   7   39.19    5.78
  10   8   8   66.36    7.17
  10   9  -1   70.52    7.59
  10   9   0   88.94    8.77
  10   9   1   99.80    9.47
  10   9   2   73.82    8.27
  10   9   3   80.58    8.79
  10   9   3   92.74    9.32
  10   9   4   89.78    9.57
  10   9   4   91.85    9.14
  10   9   5   97.92   10.12
  10   9   5   80.70    8.56
  10   9   6   64.92    7.62
  10   9   6   68.86    8.64
  10   9   7   87.04    8.50
  10  10   0    1.33    2.01
  10  10   1    3.13    2.41
  10  10   2    2.26    1.82
  10  10   3   11.69    4.23
  10  10   4   23.05    4.85
  10  11   1   46.99    7.06
  10  11   2   31.60    5.91
  11  -3  -3   43.12    6.77
  11  -3  -2   58.95    7.59
  11  -3  -1   55.02    7.28
  11  -3   0   76.41    8.50
  11  -3   1   44.92    6.64
  11  -3   2   35.68    5.97
  11  -3   3   58.58    7.44
  11  -3   4   55.35    7.42
  11  -3   5  112.15   10.38
  11  -2  -4   10.69    3.59
  11  -2  -3   -0.69    1.14
  11  -2  -2   14.81    4.04
  11  -2  -1    5.73    2.40
  11  -2   0    5.83    2.31
  11  -2   1   52.80    7.02
  11  -2   2   -0.43    1.99
  11  -2   3   15.49    3.88
  11  -2   4    4.01    2.29
  11  -2   5    7.03    2.69
  11  -2   6    0.12    0.97
  11  -2   7   10.56    3.28
  11  -2   8    2.37    1.98
  11  -1  -4   10.72    3.30
  11  -1  -3   39.04    6.21
  11  -1  -2   35.45    5.69
  11  -1  -1   38.62    5.94
  11  -1   0   60.64    7.42
  11  -1   1  132.25   10.91
  11  -1   2   -1.34    1.91
  11  -1   3   65.12    7.73
  11  -1   4   53.25    6.94
  11  -1   5  155.07   11.84
  11  -1   6   63.84    7.58
  11  -1   7  139.46   11.28
  11  -1   8  121.53   10.46
  11  -1   9   88.64    8.99
  11  -1  10   54.51    7.14
  11   0  -4   56.97    7.45
  11   0  -3   17.80    4.07
  11   0  -2    5.87    2.81
  11   0  -1   18.91    4.39
  11   0   0   53.13    7.01
  11   0   1   10.55    3.32
  11   0   2   10.62    3.34
  11   0   3   79.89    8.49
  11   0   4   23.47    4.67
  11   0   5   -3.75    2.12
  11   0   6   14.51    3.84
  11   0   7    0.92    1.23
  11   0   8    1.72    1.72
  11   0   9    4.86    2.38
  11   0  10   -4.05    2.18
  11   0  11    1.55    2.37
  11   1  -4    3.82    2.18
  11   1  -3    2.04    1.57
  11   1  -2   12.67    3.42
  11   1  -1   12.35    3.38
  11   1   0   49.55    6.67
  11   1   1   26.57    5.04
  11   1   2  181.26   12.47
  11   1   3   31.24    5.34
  11   1   4   28.78    5.11
  11   1   5   39.79    5.91
  11   1   6   91.11    8.83
  11   1   7  107.77    9.55
  11   1   8   86.08    8.59
  11   1   9   93.05    8.93
  11   1  10  120.35   10.06
  11   1  11   94.09    8.97
  11   2  -4   17.90    4.46
  11   2  -3    5.98    2.67
  11   2  -2  175.83   12.91
  11   2  -1   63.40    7.73
  11   2   0  150.34   11.68
  11   2   1   46.57    6.51
  11   2   2   21.27    4.53
  11   2   3   -0.01    1.76
  11   2   4   12.99    3.67
  11   2   5   56.05    6.80
  11   2   6   34.29    5.45
  11   2   7    3.43    2.05
  11   2   7    4.10    2.54
  11   2   8   34.61    5.47
  11   2   8   36.80    5.72
  11   2   9   65.05    7.30
  11   2   9   69.90    7.96
  11   2  10    8.43    3.32
  11   2  10   15.13    3.62
  11   2  11    3.68    2.21
  11   3  -3   -0.37    1.10
  11   3  -2    1.20    1.35
  11   3  -1    6.42    2.81
  11   3   0   25.86    4.79
  11   3   1   63.87    7.73
  11   3   2   44.89    6.33
  11   3   3   32.47    5.37
  11   3   4   44.52    6.08
  11   3   5   96.28    9.03
  11   3   6   91.44    8.76
  11   3   7   64.19    7.44
  11   3   8   57.97    7.02
  11   3   8   57.16    6.55
  11   3   9   39.78    5.98
  11   3   9   31.19    5.18
  11   3  10   52.42    7.23
  11   3  10   58.37    7.00
  11   3  11   20.86    4.63
  11   3  12   48.86    7.69
  11   4  -2   45.70    6.86
  11   4  -1   82.31    8.97
  11   4   0   47.10    6.69
  11   4   1  187.02   12.99
  11   4   2  104.76    9.70
  11   4   3   52.29    6.91
  11   4   4   73.20    7.95
  11   4   5   40.73    5.94
  11   4   6   60.82    7.21
  11   4   7   45.30    6.22
  11   4   8   47.11    6.24
  11   4   9    1.54    2.03
  11   4  11   -0.91    2.11
  11   5  -1    2.15    1.82
  11   5   0   34.97    5.88
  11   5   1    3.85    2.38
  11   5   2    9.04    3.11
  11   5   3   -0.94    1.54
  11   5   4   16.83    4.02
  11   5   5   -1.24    2.07
  11   5   6   36.29    5.90
  11   5   7   47.81    6.30
  11   5   8   41.98    5.93
  11   5   9   58.65    6.95
  11   6   0  141.19   11.98
  11   6   1   69.38    8.29
  11   6   2   65.96    8.03
  11   6   3   99.37    9.63
  11   6   4   71.71    8.23
  11   6   5  103.00    9.61
  11   6   6   99.01    9.35
  11   6   7   51.26    6.75
  11   6   8   85.51    8.42
  11   7  -1    2.34    2.56
  11   7   1    2.12    1.42
  11   7   2   -0.37    1.39
  11   7   3    1.86    1.14
  11   7   4    8.70    3.20
  11   7   5    2.32    2.13
  11   7   6    1.25    1.53
  11   7   7   43.19    6.09
  11   7   8   14.72    4.00
  11   8   0   43.10    6.41
  11   8   1   89.33    9.05
  11   8   3   77.57    8.86
  11   8   4  132.35   11.35
  11   8   5   46.29    6.48
  11   8   6   57.24    7.39
  11   8   7   81.91    8.58
  11   9   1    0.04    2.23
  11   9   2   -0.93    1.57
  11   9   3   39.12    6.47
  11   9   4    2.43    2.25
  11   9   5    3.93    2.65
  11   9   6    4.48    2.77
  12   1   4   33.25    5.77
  12   1   5   58.89    7.61
  12   1   6   66.66    8.08
  12   2   3    0.77    1.43
  12   2   4   15.85    3.90
  12   2   5    7.68    2.93
  12   2   6   22.69    4.87
  12   2   7    9.29    2.82
  12   2   8    2.33    1.81
  12   2   9   23.83    5.09
  12   3   3   73.76    8.57
  12   3   4  111.92   10.41
  12   3   5   70.94    8.18
  12   3   6   32.25    5.46
  12   3   7   28.94    5.20
  12   3   8   79.93    8.56
  12   3   9   37.69    6.08
  12   4   4    8.11    3.12
  12   4   5    1.51    1.70
  12   4   6   -4.10    2.12
  12   4   7    4.96    1.99
  12   4   8   17.16    4.15
  12   4   9   -0.33    2.27
  12   5   4   49.26    7.08
  12   5   5   81.58    9.04
  12   5   6   41.36    6.29
  12   5   7  126.69   10.83
  12   5   8   73.71    8.32
  12   6   6    9.85    3.17
  12   6   7    2.01    1.89
   0   0   0    0.00    0.00


TITL Er-1029b_auto in P1
REM P1 (#1 in standard setting)
CELL 0.71073   9.616633  11.589393  13.732239  78.9781  84.2434  84.5159
ZERR   21.00   0.000352   0.000455   0.000454   0.0030   0.0029   0.0031
LATT -1
SFAC C H N O La
UNIT 21.00 21.00 21.00 21.00 21.00
REM  CrysAlisPro recorded range (K): Min=289.5; max=290.2; aver:289.9
TEMP 17
TREF
HKLF 4
END
_computing_structure_solution     'SHELXT 2014/5 (Sheldrick, 2014)'
;
_shelx_hkl_checksum    6429

