 
data_Er-1589_a
 
_audit_creation_method            'SHELXL-2018/3'
_shelx_SHELXL_version_number      '2018/3'
_chemical_name_systematic         ?
_chemical_name_common             ?
_chemical_melting_point           ?
_chemical_formula_moiety          ?
_chemical_formula_sum
 'C1.95 Cd0.05 N1.19 O0.32 S0.16' 
_chemical_formula_weight          56.50

loop_
 _atom_type_symbol
 _atom_type_description
 _atom_type_scat_dispersion_real
 _atom_type_scat_dispersion_imag
 _atom_type_scat_source
 'C'  'C'   0.0033   0.0016
 'International Tables Vol C Tables 4.2.6.8 and 6.1.1.4'
 'N'  'N'   0.0061   0.0033
 'International Tables Vol C Tables 4.2.6.8 and 6.1.1.4'
 'O'  'O'   0.0106   0.0060
 'International Tables Vol C Tables 4.2.6.8 and 6.1.1.4'
 'Cd'  'Cd'  -0.8075   1.2024
 'International Tables Vol C Tables 4.2.6.8 and 6.1.1.4'
 'S'  'S'   0.1246   0.1234
 'International Tables Vol C Tables 4.2.6.8 and 6.1.1.4'
 
_space_group_crystal_system       trigonal
_space_group_IT_number            167
_space_group_name_H-M_alt         'R -3 c :H'
_space_group_name_Hall            '-R 3 2"c'
 
_shelx_space_group_comment
;
The symmetry employed for this shelxl refinement is uniquely defined
by the following loop, which should always be used as a source of
symmetry information in preference to the above space-group names.
They are only intended as comments.
;
 
loop_
 _space_group_symop_operation_xyz
 'x, y, z'
 '-y, x-y, z'
 '-x+y, -x, z'
 'y, x, -z+1/2'
 'x-y, -y, -z+1/2'
 '-x, -x+y, -z+1/2'
 'x+2/3, y+1/3, z+1/3'
 '-y+2/3, x-y+1/3, z+1/3'
 '-x+y+2/3, -x+1/3, z+1/3'
 'y+2/3, x+1/3, -z+5/6'
 'x-y+2/3, -y+1/3, -z+5/6'
 '-x+2/3, -x+y+1/3, -z+5/6'
 'x+1/3, y+2/3, z+2/3'
 '-y+1/3, x-y+2/3, z+2/3'
 '-x+y+1/3, -x+2/3, z+2/3'
 'y+1/3, x+2/3, -z+7/6'
 'x-y+1/3, -y+2/3, -z+7/6'
 '-x+1/3, -x+y+2/3, -z+7/6'
 '-x, -y, -z'
 'y, -x+y, -z'
 'x-y, x, -z'
 '-y, -x, z-1/2'
 '-x+y, y, z-1/2'
 'x, x-y, z-1/2'
 '-x+2/3, -y+1/3, -z+1/3'
 'y+2/3, -x+y+1/3, -z+1/3'
 'x-y+2/3, x+1/3, -z+1/3'
 '-y+2/3, -x+1/3, z-1/6'
 '-x+y+2/3, y+1/3, z-1/6'
 'x+2/3, x-y+1/3, z-1/6'
 '-x+1/3, -y+2/3, -z+2/3'
 'y+1/3, -x+y+2/3, -z+2/3'
 'x-y+1/3, x+2/3, -z+2/3'
 '-y+1/3, -x+2/3, z+1/6'
 '-x+y+1/3, y+2/3, z+1/6'
 'x+1/3, x-y+2/3, z+1/6'
 
_cell_length_a                    12.1199(3)
_cell_length_b                    12.1199(3)
_cell_length_c                    69.819(4)
_cell_angle_alpha                 90
_cell_angle_beta                  90
_cell_angle_gamma                 120
_cell_volume                      8881.9(6)
_cell_formula_units_Z             111
_cell_measurement_temperature     150(2)
_cell_measurement_reflns_used     ?
_cell_measurement_theta_min       ?
_cell_measurement_theta_max       ?
 
_exptl_crystal_description        ?
_exptl_crystal_colour             ?
_exptl_crystal_density_meas       ?
_exptl_crystal_density_method     ?
_exptl_crystal_density_diffrn     1.172          
_exptl_crystal_F_000              3084
_exptl_transmission_factor_min    ?
_exptl_transmission_factor_max    ?
_exptl_crystal_size_max           ?
_exptl_crystal_size_mid           ?
_exptl_crystal_size_min           ?
_exptl_absorpt_coefficient_mu     0.528
_shelx_estimated_absorpt_T_min    ?
_shelx_estimated_absorpt_T_max    ?
_exptl_absorpt_correction_type    ?
_exptl_absorpt_correction_T_min   ?
_exptl_absorpt_correction_T_max   ?
_exptl_absorpt_process_details    ?
_exptl_absorpt_special_details    ?
_diffrn_ambient_temperature       150(2)
_diffrn_radiation_wavelength      0.71073
_diffrn_radiation_type            MoK\a
_diffrn_source                    ?
_diffrn_measurement_device_type   ?
_diffrn_measurement_method        ?
_diffrn_detector_area_resol_mean  ?
_diffrn_reflns_number             15878
_diffrn_reflns_av_unetI/netI      0.0459
_diffrn_reflns_av_R_equivalents   0.0677
_diffrn_reflns_limit_h_min        -14
_diffrn_reflns_limit_h_max        15
_diffrn_reflns_limit_k_min        -16
_diffrn_reflns_limit_k_max        11
_diffrn_reflns_limit_l_min        -93
_diffrn_reflns_limit_l_max        73
_diffrn_reflns_theta_min          1.750
_diffrn_reflns_theta_max          28.328
_diffrn_reflns_theta_full         25.242
_diffrn_measured_fraction_theta_max   0.998
_diffrn_measured_fraction_theta_full  1.000
_diffrn_reflns_Laue_measured_fraction_max    0.998
_diffrn_reflns_Laue_measured_fraction_full   1.000
_diffrn_reflns_point_group_measured_fraction_max   0.998
_diffrn_reflns_point_group_measured_fraction_full  1.000
_reflns_number_total              2475
_reflns_number_gt                 1748
_reflns_threshold_expression      'I > 2\s(I)'
_reflns_Friedel_coverage          0.000
_reflns_Friedel_fraction_max      .
_reflns_Friedel_fraction_full     .
 
_reflns_special_details
;
 Reflections were merged by SHELXL according to the crystal
 class for the calculation of statistics and refinement.
 
 _reflns_Friedel_fraction is defined as the number of unique
 Friedel pairs measured divided by the number that would be
 possible theoretically, ignoring centric projections and
 systematic absences.
;
 
_computing_data_collection        ?
_computing_cell_refinement        ?
_computing_data_reduction         ?
_computing_structure_solution     'SHELXT 2018/2 (Sheldrick, 2018)'
_computing_structure_refinement 'SHELXL-2018/3 (Sheldrick, 2018)'
_computing_molecular_graphics     ?
_computing_publication_material   ?
_refine_special_details           ?
_refine_ls_structure_factor_coef  Fsqd
_refine_ls_matrix_type            full
_refine_ls_weighting_scheme       calc
_refine_ls_weighting_details
'w=1/[\s^2^(Fo^2^)+(0.1000P)^2^] where P=(Fo^2^+2Fc^2^)/3'
_atom_sites_solution_primary      ?
_atom_sites_solution_secondary    ?
_atom_sites_solution_hydrogens    .
_refine_ls_hydrogen_treatment     undef
_refine_ls_extinction_method      none
_refine_ls_extinction_coef        .
_refine_ls_number_reflns          2475
_refine_ls_number_parameters      104
_refine_ls_number_restraints      0
_refine_ls_R_factor_all           0.2034
_refine_ls_R_factor_gt            0.1673
_refine_ls_wR_factor_ref          0.4769
_refine_ls_wR_factor_gt           0.4561
_refine_ls_goodness_of_fit_ref    3.322
_refine_ls_restrained_S_all       3.322
_refine_ls_shift/su_max           0.001
_refine_ls_shift/su_mean          0.000
 
loop_
 _atom_site_label
 _atom_site_type_symbol
 _atom_site_fract_x
 _atom_site_fract_y
 _atom_site_fract_z
 _atom_site_U_iso_or_equiv
 _atom_site_adp_type
 _atom_site_occupancy
 _atom_site_site_symmetry_order  
 _atom_site_calc_flag
 _atom_site_refinement_flags_posn
 _atom_site_refinement_flags_adp
 _atom_site_refinement_flags_occupancy
 _atom_site_disorder_assembly
 _atom_site_disorder_group
ZN01 Cd 0.666667 0.333333 0.333333 0.0315(7) Uani 1 6 d S T P . .
S1 S 0.6726(5) 0.6726(5) 0.250000 0.139(5) Uani 1 2 d S T P . .
N004 N 0.4232(7) 0.3317(7) 0.28838(10) 0.0175(16) Uani 1 1 d . . . . .
O005 O 0.0195(8) 0.1106(7) 0.28114(15) 0.046(2) Uani 1 1 d . . . . .
N1 N 0.5210(6) 0.3284(6) 0.31479(9) 0.0099(14) Uani 1 1 d . . . . .
N006 N 0.000000 0.000000 0.2808(2) 0.025(3) Uani 1 3 d S T P . .
C007 C 0.2979(8) 0.2747(9) 0.25936(12) 0.0206(19) Uani 1 1 d . . . . .
C008 C 0.4059(8) 0.3594(8) 0.26909(13) 0.0186(18) Uani 1 1 d . . . . .
C009 C 0.5358(8) 0.3828(8) 0.29813(11) 0.0145(17) Uani 1 1 d . . . . .
C00A C 0.3309(10) 0.2378(13) 0.29998(16) 0.044(3) Uani 1 1 d . . . . .
C00B C 0.3934(9) 0.2422(11) 0.31647(14) 0.033(3) Uani 1 1 d . . . . .
C00C C 0.4943(12) 0.4728(12) 0.26000(18) 0.053(4) Uani 1 1 d . . . . .
N00E N 0.666667 0.333333 0.2605(4) 0.095(10) Uani 1 3 d S T P . .
N2 N 0.6055(16) 0.5683(13) 0.2666(2) 0.115(8) Uani 1 1 d . . . . .
 
loop_
 _atom_site_aniso_label
 _atom_site_aniso_U_11
 _atom_site_aniso_U_22
 _atom_site_aniso_U_33
 _atom_site_aniso_U_23
 _atom_site_aniso_U_13
 _atom_site_aniso_U_12
ZN01 0.0373(9) 0.0373(9) 0.0200(11) 0.000 0.000 0.0187(4)
S1 0.096(3) 0.096(3) 0.094(5) 0.071(4) -0.071(4) -0.051(4)
N004 0.013(3) 0.029(4) 0.007(3) 0.005(3) -0.006(3) 0.008(3)
O005 0.034(4) 0.026(4) 0.078(7) 0.001(4) 0.014(4) 0.014(3)
N1 0.015(3) 0.016(3) 0.001(3) -0.001(2) -0.003(2) 0.010(3)
N006 0.028(5) 0.028(5) 0.020(7) 0.000 0.000 0.014(2)
C007 0.020(4) 0.030(5) 0.009(4) 0.004(3) -0.003(3) 0.010(4)
C008 0.020(4) 0.024(4) 0.013(4) 0.007(3) -0.008(3) 0.012(4)
C009 0.023(4) 0.018(4) 0.005(4) -0.003(3) -0.009(3) 0.012(3)
C00A 0.016(5) 0.070(8) 0.023(6) 0.028(6) -0.008(4) 0.004(5)
C00B 0.013(4) 0.057(7) 0.012(5) 0.015(5) -0.001(3) 0.005(4)
C00C 0.045(7) 0.045(7) 0.036(7) 0.021(6) -0.034(6) -0.003(6)
N00E 0.125(16) 0.125(16) 0.034(13) 0.000 0.000 0.063(8)
N2 0.100(11) 0.059(8) 0.077(10) 0.057(8) -0.068(9) -0.043(8)
 
_geom_special_details
;
 All esds (except the esd in the dihedral angle between two l.s. planes)
 are estimated using the full covariance matrix.  The cell esds are taken
 into account individually in the estimation of esds in distances, angles
 and torsion angles; correlations between esds in cell parameters are only
 used when they are defined by crystal symmetry.  An approximate (isotropic)
 treatment of cell esds is used for estimating esds involving l.s. planes.
;
 
loop_
 _geom_bond_atom_site_label_1
 _geom_bond_atom_site_label_2
 _geom_bond_distance
 _geom_bond_site_symmetry_2
 _geom_bond_publ_flag
ZN01 N1 2.165(6) 32 ?
ZN01 N1 2.165(6) 33_545 ?
ZN01 N1 2.165(6) 31_655 ?
ZN01 N1 2.166(6) 2_655 ?
ZN01 N1 2.166(6) 3_665 ?
ZN01 N1 2.166(6) . ?
S1 N2 1.606(12) . ?
S1 N2 1.606(12) 4 ?
N004 C009 1.366(11) . ?
N004 C00A 1.389(13) . ?
N004 C008 1.429(11) . ?
O005 N006 1.240(8) . ?
N1 C009 1.304(10) . ?
N1 C00B 1.372(12) . ?
C007 C008 1.373(12) . ?
C007 C007 1.394(17) 4 ?
C008 C00C 1.403(14) . ?
C00A C00B 1.364(13) . ?
C00C N2 1.345(16) . ?
C00C C00C 1.47(2) 4 ?
 
loop_
 _geom_angle_atom_site_label_1
 _geom_angle_atom_site_label_2
 _geom_angle_atom_site_label_3
 _geom_angle
 _geom_angle_site_symmetry_1
 _geom_angle_site_symmetry_3
 _geom_angle_publ_flag
N1 ZN01 N1 88.0(3) 32 33_545 ?
N1 ZN01 N1 88.0(3) 32 31_655 ?
N1 ZN01 N1 88.0(3) 33_545 31_655 ?
N1 ZN01 N1 180.0 32 2_655 ?
N1 ZN01 N1 92.0(3) 33_545 2_655 ?
N1 ZN01 N1 92.0(3) 31_655 2_655 ?
N1 ZN01 N1 92.0(3) 32 3_665 ?
N1 ZN01 N1 180.0 33_545 3_665 ?
N1 ZN01 N1 92.0(3) 31_655 3_665 ?
N1 ZN01 N1 88.0(3) 2_655 3_665 ?
N1 ZN01 N1 92.0(3) 32 . ?
N1 ZN01 N1 92.0(3) 33_545 . ?
N1 ZN01 N1 180.0 31_655 . ?
N1 ZN01 N1 87.9(3) 2_655 . ?
N1 ZN01 N1 87.9(3) 3_665 . ?
N2 S1 N2 99.4(9) . 4 ?
C009 N004 C00A 107.1(7) . . ?
C009 N004 C008 126.5(7) . . ?
C00A N004 C008 126.1(7) . . ?
C009 N1 C00B 106.2(7) . . ?
C009 N1 ZN01 127.9(6) . . ?
C00B N1 ZN01 124.3(6) . . ?
O005 N006 O005 119.96(8) . 2 ?
O005 N006 O005 119.96(8) . 3 ?
O005 N006 O005 119.96(8) 2 3 ?
C008 C007 C007 121.7(5) . 4 ?
C007 C008 C00C 119.0(8) . . ?
C007 C008 N004 119.2(8) . . ?
C00C C008 N004 121.8(8) . . ?
N1 C009 N004 111.2(8) . . ?
C00B C00A N004 104.9(8) . . ?
C00A C00B N1 110.5(9) . . ?
N2 C00C C008 129.3(10) . . ?
N2 C00C C00C 111.4(7) . 4 ?
C008 C00C C00C 119.2(6) . 4 ?
C00C N2 S1 108.9(9) . . ?
 
_refine_diff_density_max    4.174
_refine_diff_density_min   -1.525
_refine_diff_density_rms    0.462

_shelx_res_file
;
TITL Er-1589_a.res in R-3c
    Er-1589_a.res
    created by SHELXL-2018/3 at 14:12:04 on 20-Jun-2023
REM Old TITL Er-1589 in R-3c
REM SHELXT solution in R-3c: R1 0.276, Rweak 0.015, Alpha 0.033
REM <I/s>   0.285 for  302 systematic absences,  Orientation as input
REM Formula found by SHELXT:  C42 N10 O15 Zn
CELL  0.71073  12.1199  12.1199  69.8194   90.000   90.000  120.000
ZERR  111.000   0.0003   0.0003   0.0035    0.000    0.000    0.000
LATT  3
SYMM -Y, X-Y, Z
SYMM -X+Y, -X, Z
SYMM Y, X, 1/2-Z
SYMM X-Y, -Y, 1/2-Z
SYMM -X, -X+Y, 1/2-Z
SFAC C N O Cd S

UNIT 216 132 36 6.00012 18
ACTA
TEMP -123.150
L.S. 10
BOND
LIST 6
FMAP 2
PLAN 20
WGHT    0.100000
FVAR       0.09770
ZN01  4    0.666667    0.333333    0.333333    10.16667    0.03733    0.03733 =
         0.01997    0.00000    0.00000    0.01867
S1    5    0.672579    0.672579    0.250000    10.50000    0.09575    0.09575 =
         0.09425    0.07116   -0.07116   -0.05059
N004  2    0.423204    0.331693    0.288383    11.00000    0.01316    0.02876 =
         0.00670    0.00456   -0.00628    0.00766
O005  3    0.019516    0.110627    0.281142    11.00000    0.03387    0.02566 =
         0.07816    0.00143    0.01405    0.01413
N1    2    0.521005    0.328400    0.314795    11.00000    0.01536    0.01626 =
         0.00094   -0.00127   -0.00330    0.01007
N006  2    0.000000    0.000000    0.280787    10.33333    0.02831    0.02831 =
         0.01966    0.00000    0.00000    0.01415
C007  1    0.297862    0.274712    0.259360    11.00000    0.01976    0.02997 =
         0.00856    0.00389   -0.00296    0.00990
C008  1    0.405871    0.359371    0.269089    11.00000    0.02034    0.02409 =
         0.01287    0.00667   -0.00765    0.01218
C009  1    0.535836    0.382787    0.298133    11.00000    0.02282    0.01829 =
         0.00455   -0.00298   -0.00888    0.01180
C00A  1    0.330931    0.237829    0.299985    11.00000    0.01623    0.06962 =
         0.02304    0.02773   -0.00794    0.00425
C00B  1    0.393354    0.242230    0.316471    11.00000    0.01349    0.05658 =
         0.01209    0.01521   -0.00123    0.00501
C00C  1    0.494332    0.472806    0.259997    11.00000    0.04534    0.04516 =
         0.03577    0.02134   -0.03370   -0.00302
N00E  2    0.666667    0.333333    0.260505    10.33333    0.12534    0.12534 =
         0.03443    0.00000    0.00000    0.06267
N2    2    0.605544    0.568264    0.266626    11.00000    0.09958    0.05941 =
         0.07674    0.05658   -0.06821   -0.04289
HKLF 4




REM  Er-1589_a.res in R-3c
REM wR2 = 0.4769, GooF = S = 3.322, Restrained GooF = 3.322 for all data
REM R1 = 0.1673 for 1748 Fo > 4sig(Fo) and 0.2034 for all 2475 data
REM 104 parameters refined using 0 restraints

END

WGHT      0.2000      0.0000

REM Highest difference peak  4.174,  deepest hole -1.525,  1-sigma level  0.462
Q1    1   0.5863  0.6951  0.2585  11.00000  0.05    4.17
Q2    1   0.0717  0.2011  0.3310  11.00000  0.05    2.36
Q3    1   0.1606  0.3089  0.3362  11.00000  0.05    2.35
Q4    1   0.6336  0.3125  0.2256  11.00000  0.05    2.30
Q5    1   0.1601 -0.0234  0.3414  11.00000  0.05    1.79
Q6    1   0.1130  0.3666  0.3135  11.00000  0.05    1.63
Q7    1   0.6667  0.3333  0.2524  10.33333  0.05    1.38
Q8    1   0.6257  0.4934  0.2600  11.00000  0.05    1.11
Q9    1   0.2987  0.2987  0.2500  10.50000  0.05    1.08
Q10   1   0.7304  0.3098  0.2456  11.00000  0.05    1.04
Q11   1   0.5281  0.5729  0.2741  11.00000  0.05    1.00
Q12   1   0.2327  0.1936  0.2646  11.00000  0.05    1.00
Q13   1   0.2608  0.2002  0.2955  11.00000  0.05    1.00
Q14   1   0.0152  0.0620  0.2798  11.00000  0.05    0.98
Q15   1   0.3495  0.2368  0.3070  11.00000  0.05    0.95
Q16   1   0.5148  0.7107  0.2870  11.00000  0.05    0.92
Q17   1   0.6667  0.3333  0.2428  10.33333  0.05    0.82
Q18   1   0.6165  0.6050  0.2609  11.00000  0.05    0.76
Q19   1   0.4910  0.4142  0.2545  11.00000  0.05    0.76
Q20   1   0.4850  0.4850  0.2500  10.50000  0.05    0.73
;
_shelx_res_checksum   94740

_shelx_hkl_file
;
   1   1   0  444.06   11.40
   1  -2   0  407.36   12.20
   2  -1   0  422.26    8.50
  -1   2   0  430.86   12.30
  -3   3   0 4165.68   76.59
   0  -3   0 4079.39   79.69
   3  -3   0 4204.48   76.59
   0   3   0 4225.08   80.09
   2   2   0  414.76   14.10
   2  -4   0  369.46   15.20
   4  -2   0  401.96    9.00
  -2   4   0  405.76   16.10
  -2  -2   0  375.76   13.60
   4  -5   0  143.49    9.90
   1   4   0  154.18   10.80
  -1  -4   0  138.19   10.50
  -4   5   0  153.28   10.00
   1  -5   0  138.89   11.00
  -5   4   0  150.28    8.10
  -4  -1   0  157.48    7.60
   5  -4   0  140.89    7.80
  -1   5   0  143.39   11.00
   3   3   0   37.00    6.10
   3  -6   0   47.00    9.00
  -3  -3   0   44.50    7.30
  -3   6   0   36.60    7.30
   6  -3   0   42.40    2.90
   0  -6   0 1086.89   35.70
  -6   6   0 1130.29   31.40
  -6   0   0 1137.19   23.20
   0   6   0 1082.19   35.50
   6  -6   0 1132.79   31.30
   5  -7   0  196.18   13.50
   2   5   0  181.38   13.50
  -2  -5   0  201.78   13.70
  -5   7   0  191.68   13.40
   2  -7   0  200.88   15.10
  -5  -2   0  189.38   10.50
   7  -5   0  220.58    9.90
  -2   7   0  214.08   15.50
   1   7   0  598.74   27.50
   7  -8   0  616.64   24.80
  -7   8   0  574.84   24.20
  -1  -7   0  630.94   28.10
   4  -8   0  423.46   22.30
   4   4   0  462.75   20.00
  -4  -4   0  447.56   19.50
  -4   8   0  435.46   22.40
   1  -8   0  599.04   28.30
  -8   7   0  620.24   22.30
  -7  -1   0  624.64   18.20
  -7  -1   0  613.24   17.50
   8  -7   0  629.24   22.10
  -1   8   0  636.34   29.10
   6  -9   0   91.79   12.00
   3   6   0  109.99   12.60
  -3  -6   0  141.79   13.40
  -6   9   0  106.29   12.50
   3  -9   0  105.39   13.30
  -3   9   0  105.59   13.30
  -6  -3   0  115.29    9.90
   9  -6   0  107.79    7.20
   0  -9   0  223.98   19.50
   8 -10   0  123.69   13.80
  -8  10   0  114.19   12.80
  -2  -8   0  163.18   16.50
   5 -10   0   13.60    7.70
   2 -10   0  127.49   16.00
  10  -8   0  141.09   10.70
  -8  -2   0  130.39    9.30
  -8  -2   0  150.08   10.40
  10 -11   0   51.89   11.20
  -1 -10   0   33.30   12.10
   7 -11   0   93.49   13.60
  -4  -7   0  103.99   13.40
   4 -11   0  114.09   16.00
  -7  -4   0   76.79   10.90
  11  -7   0   83.39    6.60
  11  -7   0   84.29    6.30
  -7  -4   0   90.39   10.50
   1 -11   0   65.19   15.40
  11 -10   0   50.59    9.70
   9 -12   0  145.19   16.80
  -3  -9   0  185.58   18.90
   6 -12   0   68.69   14.90
  -6  -6   0   72.09   12.70
   3 -12   0  137.79   29.70
  -9  -3   0  121.49   11.10
  -9  -3   0  173.48   11.80
  12  -9   0  138.59   11.30
  12  -9   0  140.19   10.40
   0 -12   0  100.79   19.30
  12 -12   0   87.29   12.70
  11 -13   0   44.20   12.00
  -2 -11   0   29.50   14.00
   8 -13   0   91.69   17.30
  -5  -8   0   91.19   14.70
   5 -13   0   71.79   16.60
  -8  -5   0   69.69   11.40
  -8  -5   0   75.29   12.50
   2 -13   0   35.00   14.50
  13 -11   0   40.90    8.70
  13 -14   0   25.90   12.30
  -1 -13   0   23.30   12.10
  10 -14   0   30.60   11.10
  -4 -10   0   39.90   12.80
   7 -14   0   48.00   13.80
  -7  -7   0   52.49   12.20
   4 -14   0   40.30   14.30
 -10  -4   0   34.90    8.30
  14 -10   0   26.10    5.10
 -10  -4   0   21.80    6.90
   1 -14   0   -2.10    8.10
  14 -13   0    9.30    6.40
  12 -15   0   12.30    9.60
  -3 -12   0   21.70   11.50
   9 -15   0   36.00   13.00
  -6  -9   0   20.00   10.60
   6 -15   0   34.10   13.70
  -9  -6   0   16.40    8.10
   3 -15   0   29.60   15.50
   8 -16   0    8.50    9.10
  -8  -8   0    3.30   12.90
   0  -1   1   -1.40    0.90
   3  -2  -1   68.99    4.10
  -1   3  -1   65.69    6.40
  -2  -1  -1   72.09    5.00
   1  -3   1   56.29    6.30
  -3   2   1   72.49    4.30
   2   1   1   70.19    5.00
   0  -2  -1   -1.00    2.00
  -2   0   1   -0.40    1.20
   0   2   1   -0.80    2.00
  -3  -2  -1  336.07   13.10
   5  -3  -1  365.06   10.10
  -2   5  -1  336.17   15.80
   2  -5   1  333.57   16.10
  -5   3   1  341.97   10.20
   3   2   1  346.57   13.30
   2  -3  -1   75.49    6.50
   1   2  -1   73.39    6.10
  -2   3   1   78.59    6.40
  -1  -2   1   70.39    6.10
  -1  -3  -1  774.22   23.00
  -3   4  -1  827.22   23.00
   1   3   1  783.42   23.10
   3  -4   1  820.42   23.20
  -3   7  -1   84.59   10.00
   7  -4  -1   78.29    4.70
  -4  -3  -1   71.49    7.60
   4   3   1   77.79    8.00
   3  -7   1   86.59   10.50
   4  -4  -1    0.00    2.40
   0   4  -1   -1.10    2.70
  -4   0  -1   -4.20    1.40
  -4   4   1    1.70    2.80
   0  -4   1   -3.70    3.00
   3   1  -1  807.22   19.50
  -4   3  -1  784.12   19.10
   1  -4  -1  783.52   24.20
  -3  -1   1  789.92   19.30
  -1   4   1  818.52   24.40
   4  -3   1  809.22   19.20
  -4   6  -1   15.90    5.40
  -2  -4  -1   17.00    5.50
   2   4   1   12.40    4.40
   4  -6   1   19.60    5.80
   9  -5  -1   15.40    2.90
  -5  -4  -1   13.90    5.80
   9  -5  -1   13.00    3.40
  -4   9  -1   13.20    7.20
   4  -9   1   15.20    7.30
   6  -5  -1   64.59    6.40
  -5  -1  -1   49.00    5.10
  -1   6  -1   49.90    8.10
   1  -6   1   55.09    9.00
  -6   5   1   45.80    6.00
   3  -5  -1  370.46   16.00
   2   3  -1  342.57   14.80
  -3   5   1  357.36   15.80
  -2  -3   1  340.77   14.70
   0  -5  -1   -3.20    3.40
  -5   5  -1    1.10    3.30
   0   5   1   -1.80    3.80
  -5   0   1   -2.00    1.80
   5  -5   1    0.40    2.80
  -5   8  -1   53.39    8.80
  -3  -5  -1   45.20    8.60
   5  -8   1   41.80   11.40
   3   5   1   47.40    9.10
  -6  -5  -1   40.70    9.20
   5 -11   1   37.60   11.80
  -6  -2  -1   43.80    6.70
   8  -6  -1   37.90    5.70
  -2   8  -1   49.30   10.90
   2  -8   1   45.30   10.20
   5  -6  -1   58.89    7.90
   1   5  -1   50.19    7.80
  -1  -5   1   53.99    8.50
  -5   6   1   55.69    7.30
   2  -6  -1   15.10    5.70
  -2   6   1   11.20    5.50
   6  -4   1   23.60    4.20
  -4  -2   1   22.20    4.70
  -6   7  -1    4.90    4.20
  -1  -6  -1    3.40    4.80
   1   6   1    6.90    5.50
   6  -7   1   10.50    5.00
  -4  -6  -1   63.59   11.70
   4   6   1   45.40    9.90
   6 -10   1   27.60    9.30
  -7  -6  -1   22.50    8.60
   6 -13   1   13.40    9.90
  10  -7  -1  112.69    8.10
  -7  -3  -1  113.49   10.00
   3 -10   1  113.49   14.90
  -7   0  -1   -1.50    1.70
  -7   0  -1    3.10    2.60
   7  -7  -1    7.10    4.10
   0   7  -1   -0.20    6.10
  -7   7   1   -6.70    3.50
   0  -7   1   -3.00    4.70
   4  -7  -1   75.09    9.50
   3   4  -1   70.19    8.40
  -3  -4   1   75.49    8.60
  -4   7   1   82.09    9.80
   1  -7  -1    8.70    5.60
  -7   6  -1   12.70    5.10
   7  -6   1   14.90    4.60
  -6  -1   1   13.80    3.60
  -6  -1   1    8.40    3.90
  -1   7   1    2.70    4.90
  -2  -7  -1   -1.80    4.80
   7  -9   1    1.70    4.20
   2   7   1   -4.50    4.50
  -5  -7  -1   19.40    8.40
   7 -12   1    0.10    6.70
  -8  -7  -1    3.90    7.50
   7 -15   1   -3.00    7.20
  -8  -4  -1    7.50    5.20
  12  -8  -1    0.60    3.10
  -8  -4  -1    9.20    6.60
  12  -8  -1    7.20    3.50
   4 -12   1   -5.70    5.60
   9  -8  -1   19.10    5.80
  -8  -1  -1   23.20    4.60
  -8  -1  -1   23.30    4.40
   1  -9   1   24.50    9.40
   6  -8  -1   45.10    9.10
   2   6  -1   34.60    8.80
  -2  -6   1   51.89   11.30
  -6   8   1   30.00    7.50
   3  -8  -1   35.90    8.40
   8  -5   1   36.60    4.30
  -5  -3   1   43.80    7.30
  -3   8   1   68.49   16.00
   0  -8  -1    2.70    6.20
  -8   8  -1    0.10    4.50
   0   8   1   -8.40    4.10
   8  -8   1   -3.10    3.60
  -3  -8  -1   59.79   13.20
   8 -11   1   56.69   12.50
  -6  -8  -1    0.30    6.90
   8 -14   1    5.30    8.50
  -9  -5  -1   -1.30    6.20
  -9  -5  -1   -3.30    5.10
   5 -14   1   -0.20    9.20
  -9  -2  -1   -1.20    3.90
  11  -9  -1    3.30    4.00
  -9  -2  -1   -1.70    3.40
   2 -11   1    1.90    7.80
   8  -9  -1   27.00    7.80
  -1  -8   1   16.70    7.80
  -8   9   1   18.50    7.00
   5  -9  -1   10.30    7.10
   4   5  -1    8.20    5.40
  -5   9   1   15.50    6.70
  -4  -5   1    8.70    5.70
   2  -9  -1    1.90    6.00
  -7  -2   1    1.20    3.30
   9  -7   1   -1.90    2.70
  -7  -2   1   -0.60    3.40
  -1  -9  -1    6.10    7.60
   9 -10   1   15.20    6.90
  -4  -9  -1   19.70    9.80
   9 -13   1   12.10    9.00
  -7  -9  -1   -0.30    7.90
   9 -16   1   -1.80    7.90
 -10  -6  -1   -3.60    5.10
   6 -16   1   -6.10   14.20
  13 -10  -1    6.00    4.60
 -10  -3  -1    3.00    5.10
 -10  -3  -1    7.20    4.70
  13 -10  -1    7.80    5.20
   3 -13   1    2.30    8.10
  10 -10  -1    3.40    5.00
   0 -10   1   -0.90    6.30
   3   7  -1  142.79   14.90
   7 -10  -1  108.09   13.50
  -3  -7   1  125.09   13.90
  -7  10   1  117.19   13.50
   4 -10  -1   39.20   10.60
  -6  -4   1   46.60    8.70
  10  -6   1   37.20    4.50
  10  -6   1   45.10    4.50
   1 -10  -1   -5.00    5.50
  -9  -1   1   19.30    4.00
  10  -9   1    7.50    4.80
  -9  -1   1   10.50    3.20
  -2 -10  -1    9.80    8.80
  10 -12   1    4.10    6.60
  -5 -10  -1    4.50    8.90
  10 -15   1    6.20    9.30
 -11  -4  -1   19.80    6.20
  15 -11  -1   11.30    4.20
   4 -15   1    1.20    9.80
  12 -11  -1    0.50    4.90
   1 -12   1    9.80    8.50
   9 -11  -1    3.80    5.60
  -2  -9   1    5.00    7.70
   6 -11  -1   50.49   12.10
  -5  -6   1   49.99   10.60
   3 -11  -1   32.30   11.00
  -8  -3   1   55.99    9.40
  11  -8   1   47.80    6.70
  11  -8   1   56.99    8.90
  -8  -3   1   52.89    8.10
  11 -11   1    2.60    5.30
  -3 -11  -1    3.40    9.60
  11 -14   1   -7.00    5.30
  14 -12  -1    4.20    5.70
   2 -14   1   -4.30    8.00
  11 -12  -1    5.70    7.10
  -1 -11   1    8.00    9.10
   8 -12  -1    7.50    7.30
  -4  -8   1    8.80    7.50
   5 -12  -1   18.50    9.60
  -7  -5   1   16.60    8.20
  -7  -5   1   25.90    8.30
   2 -12  -1   -5.90    6.50
  12 -10   1    5.70    5.60
  12 -10   1   -0.90    4.00
 -10  -2   1   -1.40    2.90
 -10  -2   1    3.50    3.70
  -1 -12  -1   -5.10    6.30
  12 -13   1   -1.00    6.70
  13 -13  -1   -5.50    4.70
   0 -13   1   15.80   11.70
  10 -13  -1   -0.90    5.90
  -3 -10   1    1.20    8.30
   7 -13  -1   41.90   17.00
  -6  -7   1   16.20    8.10
   4 -13  -1   38.00   12.50
  -9  -4   1   22.00    7.90
  -9  -4   1   13.80    6.30
  13  -9   1   23.20    5.00
   1 -13  -1    3.50    8.70
  13 -12   1    3.30    5.60
  12 -14  -1   -0.90    6.70
  -2 -12   1    3.10    8.90
   9 -14  -1   -3.70    5.80
  -5  -9   1    3.70    8.20
   6 -14  -1   -4.70    7.90
  -8  -6   1    0.90    5.70
   3 -14  -1  -10.00    7.40
  14 -11   1    1.20    4.20
  14 -11   1    3.00    5.80
 -11  -3   1    4.10    4.50
 -11  -3   1    1.70    3.60
   0 -14  -1    2.50   10.90
  14 -14   1    1.60    6.50
  11 -15  -1   14.60    9.60
  -4 -11   1    9.10    9.30
   8 -15  -1   -0.50    7.80
  -7  -8   1   -3.90    6.60
   5 -15  -1    4.70    9.60
 -10  -5   1   -4.20    5.30
  10 -16  -1   -3.00    7.50
  -6 -10   1    4.30    8.40
   7 -16  -1  -11.00    7.20
  -9  -7   1    9.40    8.10
   0   1   2   -0.70    0.80
   0   2  -2  122.59    6.90
   2  -2  -2  124.39    5.90
  -2   0  -2  125.29    4.00
  -2   2   2  117.99    5.80
   2   0   2  120.69    4.10
   0  -2   2  114.09    6.70
  -2   3  -2  279.57   11.20
  -1  -2  -2  268.47   10.80
   3  -1  -2  283.87    6.00
   2  -3   2  277.27   11.30
   1   2   2  288.47   11.10
  -3  -1  -2  958.10   22.10
  -1   4  -2  926.41   27.10
   4  -3  -2  972.40   22.10
  -4   3   2  984.50   22.30
   3   1   2  958.00   22.30
   1  -4   2  957.50   27.50
   2   1  -2  284.57    9.60
   1  -3  -2  283.37   11.90
  -1   3   2  293.07   12.00
   3  -2   2  292.07    8.50
  -2  -1   2  277.07    9.50
  -3   5  -2  130.99    9.70
  -2  -3  -2  107.39    8.60
   2   3   2  100.79    8.50
   3  -5   2  119.99    9.60
   6  -4  -2  218.18    9.00
  -2   6  -2  241.38   14.90
  -4  -2  -2  220.98   10.80
   2  -6   2  255.17   15.40
   4   2   2  217.18   10.90
  -6   4   2  232.18    9.40
   3  -4  -2  955.00   25.60
   1   3  -2  959.40   26.20
  -3   4   2  942.21   25.60
  -1  -3   2  942.11   26.20
   0  -4  -2  384.26   16.50
  -4   4  -2  422.66   14.60
   4  -4   2  394.66   14.30
   0   4   2  383.36   16.30
  -4   0   2  400.76   10.50
  -4   0   2  435.56   10.70
  -4   7  -2  124.49   11.30
  -3  -4  -2   93.89    9.30
   3   4   2  120.39   10.30
   4  -7   2   96.69   10.60
  -3   8  -2  383.66   31.50
   8  -5  -2  415.86   12.90
  -5  -3  -2  412.36   17.10
   5   3   2  396.16   17.30
   3  -8   2  413.36   22.30
  -5   0  -2  904.71   20.70
   0   5  -2  822.22   28.10
   5  -5  -2  899.01   25.10
  -5   5   2  879.31   25.70
   0  -5   2  797.82   27.90
   2  -5  -2  125.69   10.10
   3   2  -2  113.89    7.80
  -3  -2   2   98.59    7.50
   5  -3   2  112.09    5.50
  -2   5   2  116.49    9.40
  -5   6  -2  396.76   17.20
  -1  -5  -2  398.26   19.00
   1   5   2  409.26   19.00
   5  -6   2  372.76   17.20
  -4  -5  -2   91.19   10.70
  -5   9  -2  116.09   12.60
   4   5   2   98.39   11.00
   5  -9   2  114.09   13.40
  10  -6  -2    3.70    2.50
  10  -6  -2    3.30    2.60
  -6  -4  -2    4.10    4.60
   4 -10   2    8.40    6.70
  -1   7  -2  664.13   27.80
   7  -6  -2  680.63   21.60
  -6  -1  -2  648.34   18.00
  -7   6   2  678.73   22.00
   1  -7   2  638.04   27.60
   4  -6  -2  248.18   14.10
   2   4  -2  238.68   13.40
  -4   6   2  213.48   13.40
  -2  -4   2  235.08   13.70
  -6   5  -2  368.66   14.50
   1  -6  -2  391.96   19.60
  -5  -1   2  394.16   13.20
   6  -5   2  398.96   14.80
  -1   6   2  424.06   20.10
  -5  -1   2  422.96   13.90
  -6   8  -2  189.38   14.20
  -2  -6  -2  199.88   17.20
   2   6   2  194.48   15.30
   6  -8   2  202.08   14.60
  -5  -6  -2   13.30    7.40
   6 -11   2   28.30   10.00
  -7  -5  -2   73.49   11.80
   5 -12   2   93.39   17.00
   9  -7  -2   42.00    6.50
  -7  -2  -2   29.00    5.60
   2  -9   2   46.30   11.00
   6  -7  -2  671.63   24.70
   1   6  -2  633.34   26.40
  -6   7   2  696.73   25.30
  -1  -6   2  669.93   27.30
   3  -7  -2  109.49   11.30
  -3   7   2   92.29   10.50
   7  -4   2  101.19    5.70
  -4  -3   2  101.49    8.80
   7  -4   2  105.69    5.30
  -7   7  -2  190.88   12.80
   0  -7  -2  221.08   16.40
  -7   0   2  188.38   10.10
   7  -7   2  213.48   13.10
  -7   0   2  203.08    7.20
   0   7   2  251.57   19.60
  -3  -7  -2   11.90    7.00
  -7  10  -2    2.50    6.20
   3   7   2    3.30    6.60
   7 -10   2    0.00    6.60
  -6  -7  -2   40.90   10.50
   7 -13   2   30.40   13.70
  -8  -6  -2   59.19   11.40
   6 -14   2   64.59   16.20
  -8  -3  -2   56.29    9.00
  -8  -3  -2   48.30    8.20
  11  -8  -2   53.49    6.80
   3 -11   2   55.29   13.20
   8  -8  -2  360.76   17.90
   0   8  -2  330.57   21.50
   0  -8   2  346.87   22.10
  -8   8   2  325.77   17.40
   3   5  -2  441.66   21.00
   5  -8  -2  406.46   25.30
  -3  -5   2  460.65   21.20
  -5   8   2  444.56   22.00
   2  -8  -2  202.28   16.30
  -2   8   2  202.38   16.40
  -6  -2   2  190.08   11.20
   8  -6   2  191.08   10.40
  -6  -2   2  194.38   10.90
  -1  -8  -2   78.19   12.60
  -8   9  -2  117.59   11.90
   8  -9   2  111.59   12.10
  -4  -8  -2   88.39   14.10
   8 -12   2   94.69   14.30
  -7  -8  -2   27.60   11.30
   8 -15   2   18.70   10.90
  -9  -7  -2    8.50    7.40
   7 -16   2   13.60   12.70
  -9  -4  -2   48.80   10.00
  -9  -4  -2   46.80    9.20
  13  -9  -2   40.70    5.80
   4 -13   2   54.39   14.70
  -9  -1  -2   22.90    4.30
  10  -9  -2   24.30    6.70
  -9  -1  -2   15.70    3.50
   1 -10   2    8.70    7.60
   2   7  -2   55.99   11.80
   7  -9  -2   33.90    8.50
  -2  -7   2   59.19   11.30
   4  -9  -2  127.59   14.10
  -5  -4   2  114.39   10.70
   9  -5   2  111.79    5.10
  -4   9   2  103.79   12.80
   1  -9  -2  103.89   14.40
   9  -8   2   93.29    9.50
  -8  -1   2   83.09    6.60
  -8  -1   2   84.29    6.30
  -2  -9  -2   33.00   11.20
   9 -11   2   28.30    8.30
  -5  -9  -2   90.49   16.60
   9 -14   2   36.70   12.00
 -10  -5  -2    4.60    6.70
   5 -15   2    9.90   12.00
  12 -10  -2    1.20    5.90
 -10  -2  -2    3.70    3.70
 -10  -2  -2    7.90    3.60
   2 -12   2    2.60    7.70
   9 -10  -2   12.30    5.70
  -9  10   2    8.80    6.20
  -1  -9   2   25.70    9.40
   6 -10  -2    9.30    7.20
  -4  -6   2   -0.70    5.00
   3 -10  -2   -0.90    6.70
  10  -7   2    4.60    3.50
  -7  -3   2    5.60    4.90
  -7  -3   2   11.70    5.10
   0 -10  -2   28.70   10.40
  10 -10   2   41.10    9.20
  -3 -10  -2    2.70    9.00
  10 -13   2   40.70   11.70
  -6 -10  -2    0.90    9.00
  10 -16   2   12.00   10.20
 -11  -3  -2   26.50    6.50
  14 -11  -2   15.30    7.90
  14 -11  -2   27.40    7.30
 -11  -3  -2   18.90    4.90
   3 -14   2   38.00   14.90
  11 -11  -2   52.39   11.10
   8 -11  -2   58.19   12.60
  -3  -8   2   56.99   12.30
   5 -11  -2    7.80    9.10
  -6  -5   2   19.70    7.00
   2 -11  -2   55.19   14.40
  -9  -2   2   32.00    6.50
  11  -9   2   38.40    7.80
  11  -9   2   43.50    9.20
  -9  -2   2   23.90    5.70
  -1 -11  -2   16.00    9.70
  11 -12   2   22.90    9.50
  -4 -11  -2   13.20   10.70
  11 -15   2    2.80    9.00
  13 -12  -2   28.40    8.50
   1 -13   2   31.50   12.10
  10 -12  -2   -3.90    5.90
  -2 -10   2   -6.20    5.40
   7 -12  -2   62.39   13.90
  -5  -7   2   56.89   12.20
   4 -12  -2  103.49   16.30
  -8  -4   2   99.09   10.90
  -8  -4   2   69.39   10.70
  12  -8   2   93.89    6.80
  12  -8   2   80.89    7.00
   1 -12  -2   11.70    9.80
  12 -11   2   18.20    7.60
  12 -11   2   10.00    6.10
  -2 -12  -2   -1.40    8.30
  12 -14   2   12.50    9.10
  12 -13  -2   15.90    8.50
  -1 -12   2   24.90   11.50
   9 -13  -2   25.90   10.30
  -4  -9   2   33.30   11.90
   6 -13  -2   29.50   11.80
  -7  -6   2   38.00   10.60
   3 -13  -2   42.60   13.80
  13 -10   2   35.40    8.40
  13 -10   2   32.80    7.10
 -10  -3   2   37.30    8.00
 -10  -3   2   30.60    6.50
   0 -13  -2   -2.00    9.10
  13 -13   2   19.50    7.90
  14 -14  -2   29.40   10.10
   0 -14   2   44.10   16.90
  11 -14  -2   -2.70    6.30
  -3 -11   2   13.70   11.50
   8 -14  -2   66.79   15.30
  -6  -8   2   48.70   13.10
   5 -14  -2   77.09   17.90
  -9  -5   2   49.99   10.40
  -9  -5   2   53.79   11.70
   2 -14  -2   24.60   13.00
  14 -12   2   13.60    7.20
  10 -15  -2   -6.90    6.00
  -5 -10   2    9.20    9.70
   7 -15  -2   55.59   15.90
  -8  -7   2   19.00    8.90
   4 -15  -2   -5.30    7.20
 -11  -4   2    5.60    5.00
  15 -11   2    3.50    3.50
   9 -16  -2   10.40   10.50
  -7  -9   2    0.00    7.50
   6 -16  -2  -13.60   16.00
 -10  -6   2    5.50    6.30
  -1   2  -3  610.44   15.60
  -1  -1  -3  620.34   14.70
   2  -1  -3  598.54   12.00
   1   1   3  595.44   14.40
  -2   1   3  582.54   12.10
   1  -2   3  594.04   15.70
   1  -2  -3  609.34   15.70
  -1   2   3  588.44   15.50
   2  -1   3  611.34   12.10
  -1  -1   3  621.84   15.00
  -2   4  -3   19.50    5.90
  -2  -2  -3   15.50    4.00
   4  -2  -3   17.20    2.50
   2   2   3   20.10    4.20
   2  -4   3   18.30    4.60
  -4   2   3   17.70    2.60
   3  -3  -3    2.10    2.70
   0   3  -3    3.20    3.10
  -3   0  -3    1.80    1.70
   3   0   3    4.30    1.90
  -3   3   3    0.80    2.60
   0  -3   3    2.40    3.40
   0  -3  -3    1.60    2.90
  -3   3  -3    0.30    2.60
  -3   0   3    1.10    1.70
  -3   0   3    3.10    1.90
   0   3   3    1.50    3.30
   3  -3   3   -0.10    2.50
   6  -3  -3  238.38    7.30
  -3   6  -3  223.68   13.80
  -3  -3  -3  220.58   12.10
  -6   3   3  223.08    7.10
   3   3   3  226.48   12.20
   3  -6   3  218.28   14.10
  -1   5  -3  157.58   11.50
  -4  -1  -3  168.68    7.80
   5  -4  -3  166.38    8.40
  -5   4   3  170.78    8.60
   4   1   3  177.68    8.20
   1  -5   3  159.08   11.60
   2   2  -3   20.60    4.30
   2  -4  -3   20.70    4.80
   4  -2   3   15.50    2.40
   4  -2   3   18.00    2.50
  -2  -2   3   12.90    3.80
  -2   4   3   13.90    5.20
  -4   5  -3   99.69    8.20
  -1  -4  -3   93.69    8.80
   4  -5   3   98.29    8.50
   1   4   3   83.19    8.30
  -4   8  -3  236.88   16.30
  -4  -4  -3  238.88   14.00
   4   4   3  211.18   13.80
   4  -8   3  227.18   16.50
   7  -5  -3   87.69    6.60
  -5  -2  -3   78.49    7.20
  -2   7  -3   68.79   10.00
   2  -7   3   68.89   10.20
  -7   5   3   76.69    6.50
   5   2   3   75.49    7.60
   1   4  -3  162.48   11.00
   4  -5  -3  155.38   10.20
  -4   5   3  164.48   10.40
  -1  -4   3  155.28   11.10
   1  -5  -3   93.09    9.40
  -1   5   3   87.09    8.90
  -4  -1   3  100.09    6.40
   5  -4   3   80.09    6.30
  -4  -1   3   94.89    6.70
  -5   7  -3   99.59   10.00
  -2  -5  -3   88.39    9.70
   5  -7   3  101.09   10.40
   2   5   3   89.79   10.20
   5 -10   3  156.98   16.20
   5   5   3  163.18   13.70
  -3   9  -3  208.38   17.40
  -6  -3  -3  182.38   11.80
   9  -6  -3  197.38    9.50
   3  -9   3  177.38   16.50
   0   6  -3   -5.10    3.20
   6  -6  -3   -1.80    2.80
   0  -6   3   -0.50    4.60
  -6   6   3    4.10    3.80
   3   3  -3  241.08   12.40
   3  -6  -3  237.78   14.30
  -3   6   3  205.18   13.50
   6  -3   3  206.98    6.40
   6  -3   3  217.28    6.30
  -3  -3   3  216.58   12.10
   0  -6  -3   -0.60    4.10
  -6   6  -3    2.80    3.70
   0   6   3   -5.30    3.90
  -6   0   3    2.00    1.90
   6  -6   3    0.20    3.20
  -6   0   3    0.70    1.70
  -3  -6  -3  184.18   15.00
  -6   9  -3  201.68   16.00
   6  -9   3  162.78   14.80
   3   6   3  208.48   16.30
  -6  -6  -3    7.20    6.40
   6 -12   3    8.90    8.70
  11  -7  -3    7.60    3.60
  11  -7  -3   13.80    3.80
  -7  -4  -3   10.10    5.40
   4 -11   3    9.70    8.00
  -7  -1  -3    0.10    2.40
   8  -7  -3    1.80    3.00
  -7  -1  -3   -1.20    2.90
  -1   8  -3   -3.00    5.60
   1  -8   3    9.10    6.10
  -8   7   3   -7.20    2.80
   5  -7  -3   60.19    8.90
   2   5  -3   92.89   10.50
  -2  -5   3   71.89    9.20
  -5   7   3   70.99    9.20
   2  -7  -3   88.89   10.60
   7  -5   3   93.69    6.80
  -5  -2   3   89.89    7.70
  -2   7   3   94.69   11.30
  -7   8  -3   92.69   10.70
  -1  -7  -3   85.59   11.90
   7  -8   3   66.79    9.20
   1   7   3   67.19   11.10
  -4  -7  -3   29.90    9.40
   7 -11   3   34.30    9.70
  -7  -7  -3    9.50    7.40
   7 -14   3    7.80    9.40
  -8  -5  -3   32.70    9.50
  -8  -5  -3   45.60    9.90
   5 -13   3   26.40   11.20
  -8  -2  -3   34.10    7.10
  -8  -2  -3   31.00    6.00
  10  -8  -3   26.30    6.30
   2 -10   3   20.00    9.50
   7  -8  -3   -0.60    3.90
   1   7  -3    3.20    6.50
  -7   8   3  -13.60    3.80
  -1  -7   3    0.10    5.20
   4  -8  -3  188.48   15.20
  -4   8   3  196.18   15.20
  -4  -4   3  229.58   14.10
   1  -8  -3   74.59   11.40
   8  -7   3   85.89    8.50
  -1   8   3   85.49   12.40
  -7  -1   3   75.59    6.60
  -7  -1   3   99.09    6.80
  -2  -8  -3  114.19   14.40
   8 -10   3   73.29   11.80
  -5  -8  -3    1.50    7.00
   8 -13   3   23.30   11.00
  -8  -8  -3   -0.80    9.10
   8 -16   3   -1.10    8.40
  -9  -6  -3   -0.60    6.30
   6 -15   3    9.70   10.80
  -9  -3  -3   16.80    6.20
  -9  -3  -3   12.80    5.60
  12  -9  -3    5.40    4.60
  12  -9  -3   10.50    4.80
   3 -12   3    0.20    8.80
   9  -9  -3    3.30    6.10
   0  -9   3  -16.50    4.00
  -9   9   3    3.10    4.50
   3   6  -3  185.88   17.50
   6  -9  -3  180.58   15.30
  -3  -6   3  184.08   15.10
  -6   9   3  172.48   15.30
   3  -9  -3  187.48   16.60
  -6  -3   3  181.78   12.00
   9  -6   3  180.58    9.20
   9  -6   3  178.18    9.70
  -3   9   3  177.18   16.30
  -6  -3   3  175.58   12.30
   0  -9  -3   -8.80    5.10
  -3  -9  -3   10.50    8.10
   9 -12   3    0.90    6.40
  -6  -9  -3    3.70    8.40
   9 -15   3    0.80    8.90
  14 -10  -3    1.50    3.00
 -10  -4  -3    0.60    4.40
 -10  -4  -3    2.80    6.50
  14 -10  -3    0.30    4.20
   4 -14   3    7.80   10.80
  11 -10  -3   -2.00    4.60
   1 -11   3    2.10    7.70
   8 -10  -3   29.80    8.80
  -2  -8   3   52.09   12.20
  -8  10   3   21.70    7.20
   5 -10  -3  150.48   15.80
  -5  -5   3  150.08   15.80
   2 -10  -3   74.19   14.50
  10  -8   3   92.79   10.00
  -8  -2   3   85.29    8.10
  -8  -2   3   92.59    8.80
  10  -8   3   93.69    9.20
  -1 -10  -3   -7.30    5.50
  10 -11   3    4.50    5.90
  -4 -10  -3    2.70    7.90
  10 -14   3    7.00    8.30
  13 -11  -3   -1.30    3.80
   2 -13   3   -4.00    7.10
  10 -11  -3    0.20    6.10
  -1 -10   3    5.70    8.50
   7 -11  -3    7.00    6.80
  -4  -7   3   13.10    7.40
   4 -11  -3   35.50   11.80
  11  -7   3   38.30    4.80
  -7  -4   3   35.20    8.10
  11  -7   3   32.70    5.10
  -7  -4   3   37.10    9.50
   1 -11  -3    1.00    6.90
  11 -10   3   -7.30    3.80
  11 -10   3    2.80    6.00
  -2 -11  -3    2.80   10.60
  11 -13   3   -4.60    5.70
   3 -15   3    0.30   10.30
  12 -12  -3    2.40    6.00
   0 -12   3    3.10    8.10
   9 -12  -3    9.70    7.90
  -3  -9   3   16.50    9.00
   6 -12  -3    0.10    7.30
  -6  -6   3    1.50    5.70
  -6  -6   3   10.80    7.60
   3 -12  -3   10.70   10.50
  12  -9   3    0.00    3.50
  -9  -3   3   -0.80    4.30
  -9  -3   3   -2.40    3.80
  12  -9   3    3.70    4.10
   0 -12  -3   11.10    9.10
  12 -12   3   -1.20    5.30
  -3 -12  -3   -0.30    8.30
  12 -15   3   -1.70    7.20
  14 -13  -3   -2.10    5.50
   1 -14   3    2.00    8.90
  11 -13  -3   -9.20    5.30
  -2 -11   3   -0.90    7.80
   8 -13  -3   45.60   13.40
  -5  -8   3   62.69   13.40
   5 -13  -3    2.40    7.90
  -8  -5   3   13.30    7.70
  -8  -5   3   17.20    7.00
   2 -13  -3    3.20    9.30
  13 -11   3    4.70    7.70
  13 -11   3    7.60    4.90
  -1 -13  -3   -3.30    7.80
  13 -14   3   -7.00    6.20
  13 -14  -3   -6.40    5.50
  -1 -13   3   -1.90    8.30
  10 -14  -3   -5.30    6.00
  -4 -10   3    3.20    8.20
   7 -14  -3    0.30    7.80
  -7  -7   3   12.20    7.60
   4 -14  -3   -3.60    9.20
 -10  -4   3   -4.40    5.60
  14 -10   3    9.50    3.90
 -10  -4   3   10.90    5.80
   1 -14  -3    2.90    9.40
  14 -13   3    2.10    6.20
  12 -15  -3   -2.70    7.40
  -3 -12   3   -2.40    7.70
   9 -15  -3    6.60    8.50
  -6  -9   3   -4.50    6.60
   6 -15  -3   -2.10    8.30
  -9  -6   3    2.50    6.60
   3 -15  -3   -9.30    7.60
   8 -16  -3    3.40    8.50
  -8  -8   3   -6.50   13.40
  -1   0  -4 1429.16   25.70
  -1   3  -4  114.49    7.60
   3  -2  -4   99.69    6.00
  -2  -1  -4   93.29    5.70
   2   1   4  101.79    5.80
  -3   2   4   96.59    5.10
   1  -3   4   89.49    7.60
   0  -2  -4 2929.81   56.29
   2   0  -4 2934.31   52.29
   0   2   4 2939.11   56.39
  -2   0   4 2924.41   51.99
   2  -2   4 3095.09   54.79
  -2   5  -4   40.50    6.40
   5  -3  -4   36.40    3.70
  -3  -2  -4   35.60    5.10
  -5   3   4   37.30    3.90
   3   2   4   40.30    5.30
   2  -5   4   31.90    6.60
   2  -3  -4   89.49    6.80
  -3   1  -4   88.99    3.30
   1   2  -4   96.19    6.80
  -2   3   4  100.09    7.00
  -1  -2   4   95.89    7.00
   3  -1   4   94.09    3.10
   4  -1  -4  855.01   16.70
  -3   4  -4  869.61   24.00
  -1  -3  -4  844.12   24.20
   3  -4   4  898.11   24.50
   1   3   4  834.72   24.30
  -4   1   4  854.81   16.30
  -4  -3  -4  231.78   12.50
   7  -4  -4  232.98    8.30
  -3   7  -4  246.28   15.60
   3  -7   4  239.48   16.00
   4   3   4  206.08   12.20
  -7   4   4  241.28    8.80
   4  -4  -4  325.67   12.70
  -4   0  -4  329.37    8.80
   0   4  -4  324.97   14.80
   0  -4   4  320.47   15.10
   4   0   4  319.67    9.00
  -4   4   4  328.27   13.00
  -3  -1   4  900.71   21.60
  -1   4   4  821.62   25.30
   4  -3   4  871.21   20.80
  -3  -1   4  893.11   21.40
  -2  -4  -4  341.27   16.20
  -4   6  -4  347.17   16.60
   4  -6   4  334.67   16.70
   2   4   4  346.47   16.40
   9  -5  -4   52.09    4.20
  -4   9  -4   46.80   10.40
  -5  -4  -4   55.89    8.50
   4  -9   4   60.29   12.50
   5   4   4   60.49    8.60
   6  -5  -4   77.89    6.80
  -5  -1  -4   61.79    5.50
  -1   6  -4   69.79    8.90
  -6   5   4   68.99    6.70
   5   1   4   57.99    5.40
   1  -6   4   45.20    8.70
   2   3  -4   39.00    5.80
   3  -5  -4   37.30    6.70
  -2  -3   4   35.20    6.40
  -3   5   4   31.20    6.20
  -5   5  -4  210.28   11.40
   0  -5  -4  213.58   13.50
  -5   0   4  205.28    7.40
   0   5   4  204.98   13.20
   5  -5   4  192.98   11.00
  -5   0   4  221.08    7.70
  -3  -5  -4   68.79    9.40
  -5   8  -4   93.79   10.70
   5  -8   4   85.69   12.40
   3   5   4   88.69   10.40
  -6  -5  -4   34.50    8.80
   5 -11   4   34.00   11.40
  -2   8  -4  475.95   24.50
  -6  -2  -4  482.05   17.00
   8  -6  -4  473.75   16.70
  -8   6   4  463.45   16.90
   2  -8   4  440.36   23.90
   5  -6  -4   49.40    8.10
   1   5  -4   54.69    8.20
  -1  -5   4   57.49    8.80
  -5   6   4   67.99    7.90
   2  -6  -4  350.66   17.80
   6  -4   4  351.76   11.70
  -2   6   4  307.07   17.00
  -4  -2   4  330.97   13.60
  -6   7  -4  627.94   23.90
  -1  -6  -4  625.44   26.20
   1   6   4  639.34   26.50
   6  -7   4  652.03   24.40
  -4  -6  -4  195.48   15.70
   6 -10   4  155.98   15.90
   4   6   4  167.68   15.00
  -7  -6  -4   92.29   13.50
   6 -13   4   92.49   18.10
  10  -7  -4  177.08    9.90
  -7  -3  -4  162.08   11.50
   3 -10   4  175.78   17.90
   7  -7  -4  853.01   27.30
  -7   0  -4  804.82   18.00
   0   7  -4  834.92   40.80
  -7   7   4  819.92   27.50
   0  -7   4  849.32   32.80
   4  -7  -4  235.18   15.20
  -4   7   4  234.88   15.10
  -3  -4   4  225.98   13.80
   1  -7  -4  614.24   26.70
  -6  -1   4  629.24   18.30
  -6  -1   4  607.04   17.90
   7  -6   4  623.94   20.80
  -1   7   4  624.84   27.10
  -2  -7  -4  108.49   12.90
   2   7   4   85.99   12.20
   7  -9   4  101.89   11.80
  -5  -7  -4   31.90   10.00
   7 -12   4   47.30   12.90
  -8  -7  -4   21.80    9.80
   7 -15   4   19.50   11.80
  -8  -4  -4  174.68   13.40
  -8  -4  -4  166.98   14.50
  12  -8  -4  166.98   10.30
  12  -8  -4  180.58    9.40
   4 -12   4  192.18   20.40
  -8  -1  -4  134.59    7.80
  -8  -1  -4  115.19    7.00
   9  -8  -4  108.09   10.10
   1  -9   4  105.49   14.50
  -9   8   4  108.09   10.30
   2   6  -4  481.95   23.10
   6  -8  -4  442.86   21.50
  -6   8   4  448.86   21.90
  -2  -6   4  506.35   24.40
   3  -8  -4   79.69   10.80
   8  -5   4   88.69    5.90
   8  -5   4   79.99    6.10
  -3   8   4  100.99   13.70
  -5  -3   4   86.79    8.60
   0  -8  -4  597.84   28.70
   0   8   4  558.34   28.00
   8  -8   4  573.94   23.30
  -8   0   4  566.14   13.30
  -3  -8  -4   20.90    9.40
   8 -11   4   11.60    7.80
  -6  -8  -4   45.40   11.40
   8 -14   4   65.29   15.00
  -9  -5  -4   51.59   11.50
  -9  -5  -4   45.50    9.90
   5 -14   4   32.80   13.10
  -9  -2  -4   16.60    4.90
  11  -9  -4   12.30    5.50
  -9  -2  -4   18.40    6.00
   2 -11   4   29.10   10.90
   8  -9  -4  132.19   12.60
  -8   9   4  120.49   12.40
  -1  -8   4  104.09   14.00
   5  -9  -4   44.80   10.20
  -5   9   4   47.80    9.80
  -4  -5   4   59.29   10.60
   2  -9  -4   83.49   12.90
   9  -7   4   80.09    8.50
  -7  -2   4   94.59    8.30
   9  -7   4   92.89    8.50
  -7  -2   4   97.39    8.80
  -1  -9  -4  206.48   19.20
   9 -10   4  164.78   14.80
  -4  -9  -4  108.79   16.10
   9 -13   4   94.59   15.40
  -7  -9  -4    1.80    7.90
   9 -16   4    7.90   10.00
 -10  -3  -4   39.20    8.20
  13 -10  -4   28.40    7.70
 -10  -3  -4   44.10    7.20
  13 -10  -4   34.20    7.30
   3 -13   4   41.70   13.40
  10 -10  -4  111.59   12.10
 -10  10   4   62.69   10.20
   0 -10   4   92.09   16.40
   7 -10  -4  158.58   15.60
  -3  -7   4  171.28   15.80
  -7  10   4  133.89   14.20
   4 -10  -4  184.78   17.60
  -6  -4   4  197.18   13.90
  -6  -4   4  200.88   14.80
  10  -6   4  198.88    8.10
  10  -6   4  178.08    7.50
   1 -10  -4  204.68   19.60
  10  -9   4  204.68   14.20
  -9  -1   4  188.98    8.90
  -9  -1   4  201.18    8.90
  -2 -10  -4   51.39   13.70
  10 -12   4   69.79   13.60
  -5 -10  -4    1.40    7.70
  10 -15   4    7.60    8.80
  15 -11  -4   25.60    5.50
 -11  -4  -4   16.20    5.80
   4 -15   4   18.50   11.80
  12 -11  -4   97.19   11.70
   1 -12   4  105.09   17.40
   9 -11  -4   20.20    7.90
  -2  -9   4   19.00   10.30
   6 -11  -4   30.60   10.30
  -5  -6   4   23.50    8.50
   3 -11  -4   15.40    8.60
  -8  -3   4   34.50    7.60
  11  -8   4   35.20    6.30
  11  -8   4   27.50    6.40
  -8  -3   4   44.80    9.00
  11 -11   4    0.20    5.50
  11 -11   4   -0.50    5.20
  -3 -11  -4   15.90   11.30
  11 -14   4   10.20    8.40
  14 -12  -4   15.40    7.20
   2 -14   4    9.70   10.50
  11 -12  -4  115.39   14.70
  -1 -11   4   92.59   17.40
   8 -12  -4  198.18   18.90
  -4  -8   4  185.28   18.30
   5 -12  -4   22.30    9.70
  -7  -5   4   38.60    9.90
  -7  -5   4   26.40    8.30
   2 -12  -4   60.89   15.30
  12 -10   4   45.10    9.90
 -10  -2   4   52.39    6.40
  12 -10   4   45.40    8.80
  -1 -12  -4   23.40   10.70
  12 -13   4   55.39   12.60
  13 -13  -4   10.80    7.00
   0 -13   4    7.90   10.10
  10 -13  -4   37.30   11.60
  -3 -10   4   21.20   10.90
   7 -13  -4   85.49   18.90
  -6  -7   4   91.99   14.10
   4 -13  -4   88.99   18.20
  -9  -4   4   87.89   11.60
  13  -9   4  106.99    7.70
  13  -9   4   88.69   12.20
  -9  -4   4   92.59   11.30
   1 -13  -4   54.29   15.10
  13 -12   4   20.40    7.90
  12 -14  -4   22.90   10.00
  -2 -12   4   15.50   13.00
   9 -14  -4   29.20   12.10
  -5  -9   4   47.10   14.30
   6 -14  -4   86.89   19.00
  -8  -6   4   56.89   12.10
   3 -14  -4   -5.80    7.80
  14 -11   4    4.10    4.40
 -11  -3   4   12.00    4.80
  14 -11   4    1.20    5.80
 -11  -3   4    5.10    4.30
  11 -15  -4   32.60   12.00
  -4 -11   4   29.00   12.20
   8 -15  -4   14.70    9.60
  -7  -8   4   18.00   10.40
   5 -15  -4   13.00   10.10
 -10  -5   4    9.10    6.60
   7 -16  -4   -3.30    9.30
  -9  -7   4   14.20    8.80
  -1   1  -5    0.70    1.20
  -1   0   5    0.70    1.00
   0   1   5    0.50    1.10
   1  -1   5    0.60    1.30
   2  -2  -5    2.40    2.10
  -2   0  -5    1.90    1.50
  -2   2   5    0.60    2.10
   2   0   5    0.20    1.40
   0  -2   5   -0.40    2.40
  -1  -2  -5 1782.72   37.20
   3  -1  -5 1734.63   31.90
  -2   3  -5 1725.93   37.60
  -3   1   5 1748.82   31.70
   1   2   5 1779.22   37.40
   2  -3   5 1723.53   37.80
  -3  -1  -5  200.98    8.30
   4  -3  -5  193.18    8.20
  -1   4  -5  195.98   11.30
  -4   3   5  203.48    8.60
   1  -4   5  209.38   11.80
   3   1   5  201.98    8.50
   1  -3  -5 1756.02   38.80
  -2  -1   5 1813.52   36.30
  -2  -1   5 1735.53   35.70
   3  -2   5 1748.82   34.20
   3  -2   5 1841.22   38.10
  -1   3   5 1763.92   39.00
  -3   5  -5  353.66   15.70
  -2  -3  -5  330.57   14.40
   5  -2  -5  346.57    8.50
   3  -5   5  325.77   15.40
   2   3   5  320.77   14.30
  -5   2   5  348.97    8.50
   6  -4  -5   67.59    5.40
  -2   6  -5   57.09    9.30
  -4  -2  -5   62.79    6.40
   2  -6   5   51.19    8.40
  -6   4   5   58.99    5.40
   4   2   5   58.39    6.50
   3  -4  -5  199.08   10.50
   1   3  -5  201.88   10.90
   4  -1   5  187.98    4.90
  -3   4   5  202.98   10.80
  -1  -3   5  221.68   11.50
   0  -4  -5    2.10    3.30
   4  -4   5    3.00    3.00
  -4   0   5   -1.30    1.70
  -4   0   5   -1.90    1.70
   0   4   5   -3.10    2.60
  -4   7  -5   25.90    6.90
  -3  -4  -5   40.00    7.40
   3   4   5   35.10    7.80
   4  -7   5   30.40    7.50
  -5  -3  -5    2.90    3.70
  -3   8  -5   -1.90    3.80
   8  -5  -5    4.70    2.70
   3  -8   5    7.10    5.10
  -8   5   5    3.90    2.60
   5   3   5   -3.70    3.40
  -5   0  -5    5.60    3.30
   0   5  -5   -4.30    3.20
   5  -5  -5    0.00    3.00
   5   0   5    0.40    1.80
  -5   5   5   -1.50    2.60
   0  -5   5   -4.90    3.10
   2  -5  -5  340.97   16.20
  -3  -2   5  359.76   13.90
  -2   5   5  375.36   16.70
   5  -3   5  348.17   10.60
   5  -3   5  348.87   10.60
  -1  -5  -5   21.30    7.10
  -5   6  -5   23.50    5.80
   1   5   5    9.60    4.90
   5  -6   5   18.80    6.10
  -5   9  -5    3.10    4.50
  -4  -5  -5    3.40    5.10
   5  -9   5    0.80    5.80
   4   5   5   -3.50    3.70
  10  -6  -5  127.19    6.90
  -6  -4  -5  126.29   11.40
   4 -10   5  124.29   15.30
   6   4   5  134.19   11.90
  -1   7  -5   34.90    8.50
   7  -6  -5   49.50    6.60
  -6  -1  -5   35.60    4.80
  -7   6   5   40.20    7.00
   1  -7   5   35.00    8.50
   2   4  -5   60.99    7.70
   4  -6  -5   61.49    8.20
  -4   6   5   51.59    7.70
  -2  -4   5   56.99    8.10
   1  -6  -5   12.60    6.10
   6  -5   5   31.20    5.50
  -1   6   5   30.50    6.90
  -5  -1   5   32.80    5.10
  -5  -1   5   30.70    5.10
  -6   8  -5    1.60    4.50
  -2  -6  -5   -1.20    4.90
   6  -8   5   10.90    5.50
   2   6   5   -7.00    4.10
  -5  -6  -5  122.99   13.40
   6 -11   5  120.69   15.20
   5   6   5   91.89   12.60
  -7  -5  -5   -4.20    4.50
   5 -12   5    7.20    6.90
  -7  -2  -5   51.89    6.50
   9  -7  -5   52.09    6.90
  -9   7   5   40.20    6.50
   2  -9   5   55.99   11.80
   1   6  -5   24.70    7.60
   6  -7  -5   55.49    8.30
  -6   7   5   42.00    8.10
  -1  -6   5   26.60    7.30
   3  -7  -5   34.20    8.10
   7  -4   5   36.60    3.80
  -4  -3   5   44.50    6.80
   7  -4   5   23.30    3.60
  -3   7   5   31.80    7.60
   0  -7  -5   -2.50    4.60
  -7   0   5   -1.80    1.90
  -7   0   5    1.00    2.10
   7  -7   5   -2.60    2.70
   0   7   5  -13.20    5.00
  -3  -7  -5   47.00   10.60
   3   7   5   68.79   13.80
   7 -10   5   39.40    9.70
  -6  -7  -5   26.00    9.40
   7 -13   5   28.10   13.10
  -8  -6  -5   -3.70    5.30
   6 -14   5   -6.00    6.00
  -8  -3  -5    3.60    4.40
  11  -8  -5   -0.20    3.40
   3 -11   5    1.90    6.90
   8  -8  -5    2.10    4.10
   0   8  -5   -5.10    5.60
  -8   8   5   -4.00    3.90
   0  -8   5   -2.90    5.80
   5  -8  -5   14.20    5.20
  -5   8   5    5.60    4.00
  -3  -5   5    3.50    4.30
   2  -8  -5   31.30    9.50
  -6  -2   5    5.00    3.50
  -6  -2   5    9.60    4.60
   8  -6   5    2.50    3.30
  -2   8   5   -1.90    5.30
   8  -6   5   -4.00    5.00
  -1  -8  -5   29.80    9.00
   8  -9   5   23.60    7.80
  -4  -8  -5    5.50    7.00
   8 -12   5   14.00    7.10
  -7  -8  -5    7.30    8.60
   8 -15   5   11.60   10.20
  -9  -7  -5    6.40    7.60
   7 -16   5   15.30   11.80
  -9  -4  -5    3.10    6.20
  -9  -4  -5   -1.00    4.90
  13  -9  -5    6.10    5.30
  13  -9  -5    0.90    3.30
   4 -13   5    4.90    7.90
  10  -9  -5    6.90    4.90
  -9  -1  -5   14.00    3.30
  -9  -1  -5    7.80    3.10
 -10   9   5    2.00    4.30
   1 -10   5    3.20    7.20
   7  -9  -5   32.10    8.40
  -7   9   5   27.40    9.40
  -2  -7   5   42.30   10.00
   4  -9  -5   -8.70    4.20
   9  -5   5    2.60    1.80
  -5  -4   5   -1.10    3.60
   9  -5   5    0.40    2.70
  -4   9   5   -7.70    3.60
   1  -9  -5   36.00   10.80
   9  -8   5   36.30    7.40
  -8  -1   5   52.49    5.90
  -2  -9  -5   92.89   15.00
   9 -11   5   87.39   12.70
  -5  -9  -5    1.00    7.70
   9 -14   5   -0.10    7.20
 -10  -5  -5    0.10    5.60
   5 -15   5   -7.70    8.40
 -10  -2  -5    2.80    3.80
 -10  -2  -5   -0.50    2.70
   2 -12   5    2.20    8.00
   9 -10  -5   15.70    7.30
  -1  -9   5   12.00    8.20
  -9  10   5   13.40    7.50
   6 -10  -5  119.49   14.40
  -4  -6   5  115.19   13.20
   3 -10  -5   32.90   10.20
  10  -7   5   55.09    9.40
  10  -7   5   48.10    6.20
  -7  -3   5   48.80    8.70
  -7  -3   5   59.19    9.10
   0 -10  -5   -2.60    7.00
  10 -10   5    5.50    5.20
  -3 -10  -5    3.10    8.80
  10 -13   5    8.40    7.30
  14 -11  -5    5.50    7.10
  14 -11  -5    0.70    4.20
 -11  -3  -5    4.10    3.60
 -11  -3  -5    2.30    5.00
   3 -14   5   14.90   11.90
  11 -11  -5    6.70    6.40
   0 -11   5    2.70   15.10
   8 -11  -5    6.40    6.70
  -3  -8   5    2.90    6.90
   5 -11  -5   95.79   16.60
  -6  -5   5  145.89   13.50
  -6  -5   5  138.59   16.40
   2 -11  -5   85.99   16.50
  11  -9   5   84.09    9.70
  -9  -2   5   89.09    8.40
  11  -9   5   79.19   10.10
  -9  -2   5   87.69    8.20
  -1 -11  -5   12.30    9.20
  11 -12   5    5.60    6.80
  -4 -11  -5   27.00   12.10
  11 -15   5   10.60    9.10
  13 -12  -5   -1.80    5.10
   1 -13   5    5.70    8.90
  10 -12  -5    0.90    6.60
  -2 -10   5   -4.10    6.30
   7 -12  -5   -4.10    6.00
  -5  -7   5   -4.30    5.80
   4 -12  -5    5.40    7.40
  -8  -4   5    0.80    4.80
  12  -8   5    4.40    3.00
  12  -8   5    3.50    3.30
  -8  -4   5    1.30    5.30
   1 -12  -5   12.50    9.80
  12 -11   5    5.90    6.10
  12 -11   5   -1.70    5.70
  -2 -12  -5   -0.10    8.70
  12 -14   5    5.30    7.70
  12 -13  -5   11.60    7.60
  -1 -12   5   11.20   10.40
   9 -13  -5   -2.80    5.90
  -4  -9   5    9.10    8.60
   6 -13  -5   24.30   10.50
  -7  -6   5   17.00    9.40
   3 -13  -5   -5.00    6.80
  13 -10   5    6.80    4.30
 -10  -3   5   13.20    5.10
 -10  -3   5    7.80    5.30
  13 -10   5   11.20    5.70
   0 -13  -5    0.80    9.60
  13 -13   5    4.10    6.50
  11 -14  -5    8.50    7.70
  -3 -11   5    9.80   10.80
   8 -14  -5   15.90    9.50
  -6  -8   5    7.60    8.00
   5 -14  -5   -3.20    8.60
  -9  -5   5    4.60    7.00
  -9  -5   5    3.10    5.40
   2 -14  -5   -6.30    7.50
  14 -12   5   -8.20    4.00
  10 -15  -5    0.90    7.80
  -5 -10   5   -1.70    7.60
   7 -15  -5    1.90    8.20
  -8  -7   5    0.50    6.60
   4 -15  -5   -0.30    8.60
  15 -11   5    6.20    3.90
 -11  -4   5   10.60    5.40
   9 -16  -5    5.80    8.60
  -7  -9   5   -6.90    6.60
   0   0  -6  967.90   19.90
   2  -1  -6 1419.16   26.90
  -1  -1  -6 1432.46   28.70
   1   1   6 1415.66   28.70
  -2   1   6 1429.36   26.90
   1  -2   6 1409.96   30.20
   1  -2  -6 1402.26   30.00
  -2   1  -6 1417.16   27.00
   2  -1   6 1419.76   26.90
  -1   2   6 1442.26   30.30
  -1  -1   6 1474.35   29.80
  -2  -2  -6  525.65   16.50
   4  -2  -6  583.34   14.80
   2   2   6  532.65   16.80
  -4   2   6  523.65   12.90
   2  -4   6  523.15   18.90
   0   3  -6 4691.33   87.99
   3  -3  -6 4639.54   84.59
  -3   3   6 4598.64   84.79
   0  -3   6 4586.54   88.09
   0  -3  -6 1565.24   36.80
   3   0  -6 1695.13   32.50
   0   3   6 1597.34   37.20
   3  -3   6 1637.44   34.90
  -3   0   6 1590.04   31.30
  -3  -3  -6   25.80    5.90
   6  -3  -6   24.90    3.20
  -3   6  -6   29.00    7.00
  -6   3   6   25.30    3.50
   3  -6   6   32.30    7.60
   3   3   6   21.90    5.20
  -4  -1  -6  219.18    9.10
  -1   5  -6  227.48   13.50
   5  -4  -6  224.78   10.00
   1  -5   6  244.38   14.10
  -5   4   6  225.78   10.30
   4   1   6  226.08    9.60
   2  -4  -6  535.25   18.40
  -2  -2   6  512.95   16.80
   4  -2   6  526.55   12.30
  -2   4   6  512.25   21.00
  -1  -4  -6  225.18   12.90
  -4   5  -6  263.57   12.90
  -5   1   6  242.58    6.90
   1   4   6  253.57   13.70
   4  -5   6  265.77   13.40
  -4   8  -6    2.30    4.40
   8  -4  -6    0.60    3.90
  -4  -4  -6    7.90    4.80
   4   4   6   -2.10    4.20
   4  -8   6    5.30    5.50
   7  -5  -6 1117.39   27.10
  -5  -2  -6 1145.79   28.80
  -2   7  -6 1084.19   36.40
   5   2   6  960.20   38.60
   2  -7   6 1095.79   39.20
  -7   5   6 1124.09   27.80
   4  -5  -6  227.68   12.30
   1   4  -6  222.88   12.90
  -4   5   6  230.28   12.40
  -1  -4   6  229.88   13.30
   1  -5  -6  263.27   14.60
  -4  -1   6  245.78   10.40
  -4  -1   6  255.07   10.40
  -1   5   6  240.28   13.90
   5  -4   6  245.28   10.70
  -2  -5  -6  154.38   12.00
  -5   7  -6  142.49   11.60
   2   5   6  124.59   11.40
   5  -7   6  136.99   11.90
  -5  -5  -6   85.19   12.80
   5 -10   6  118.59   14.90
   5   5   6   97.49   11.20
   9  -6  -6   80.09    6.70
  -6  -3  -6   85.59    8.80
  -3   9  -6   83.69   12.30
   3  -9   6   70.09   13.00
  -9   6   6   56.89    6.00
   6   3   6   69.69    8.70
   6  -6  -6  191.58   11.70
  -6   0  -6  213.18    7.40
   0   6  -6  210.48   14.90
  -6   6   6  231.68   12.80
   0  -6   6  180.08   14.20
   3  -6  -6   29.00    6.60
   6  -3   6   23.60    3.00
  -3  -3   6   27.40    6.00
  -3   6   6   31.10    7.60
   6  -3   6   25.90    3.00
   0  -6  -6  170.58   13.80
  -6   0   6  192.18    7.90
   0   6   6  217.98   15.00
   6  -6   6  216.38   12.40
  -6   0   6  201.68    7.70
  -3  -6  -6   75.19   10.90
   3   6   6   79.59   13.00
   6  -9   6   90.09   12.10
  -6  -6  -6   22.10    8.20
   6 -12   6   21.20   10.00
  -7  -4  -6   29.80    7.60
  11  -7  -6   34.50    5.40
   4 -11   6   55.99   13.80
   8  -7  -6  340.87   16.00
  -7  -1  -6  365.86   12.50
  -1   8  -6  391.76   22.80
   1  -8   6  361.16   22.00
  -8   7   6  368.06   17.00
   5  -7  -6 1089.39   34.00
  -5   7   6 1052.79   33.80
  -2  -5   6 1105.09   34.70
   2  -7  -6  154.18   15.00
   7  -5   6  153.78    8.90
   7  -5   6  135.69    8.20
  -2   7   6  134.99   12.90
  -5  -2   6  141.69    9.70
  -5  -2   6  155.98    9.80
  -1  -7  -6   87.09   12.00
   1   7   6   83.89   11.80
   7  -8   6  108.79   11.10
  -4  -7  -6   59.29   12.00
   7 -11   6   56.39   12.30
  -7  -7  -6   47.10   10.90
   7 -14   6   23.10   10.70
  -8  -5  -6   77.89   11.50
   5 -13   6   90.29   19.00
  -8  -2  -6   36.30    6.20
  10  -8  -6   45.20    7.60
   2 -10   6   17.20    9.20
 -10   8   6   40.50    7.70
   1   7  -6  347.27   21.10
   7  -8  -6  384.06   19.20
  -1  -7   6  370.36   21.80
  -7   8   6  382.46   19.70
   4  -8  -6    8.80    6.40
  -4  -4   6    1.30    4.10
  -4   8   6    3.30    4.40
   1  -8  -6   75.49   11.50
  -7  -1   6   82.19    6.50
   8  -7   6   84.69    8.50
  -1   8   6   81.99   12.40
  -7  -1   6  106.09    7.40
  -2  -8  -6   15.70    8.40
   8 -10   6   15.50    8.00
  -5  -8  -6  104.09   14.90
   8 -13   6   98.89   18.60
  -8  -8  -6   30.60   20.50
   8 -16   6   11.40   10.90
  -9  -6  -6    2.30    6.60
   6 -15   6   -6.30    7.60
  12  -9  -6   -0.60    3.80
  -9  -3  -6   -0.80    3.90
  -9  -3  -6    6.20    5.20
   3 -12   6    6.50    9.50
   9  -9  -6   17.50    6.80
  -9   9   6    5.20    5.20
   0  -9   6   12.60    7.80
   6  -9  -6   61.79   11.50
  -6   9   6   48.80   10.20
  -3  -6   6   73.49   11.00
   3  -9  -6   80.79   12.10
  -3   9   6   86.89   12.30
   9  -6   6   85.49    6.60
  -6  -3   6   84.29    8.90
   9  -6   6   70.89    6.80
  -6  -3   6   74.89    9.00
   0  -9  -6  292.27   21.90
   9  -9   6  296.07   28.10
  -3  -9  -6   60.69   13.90
   9 -12   6   44.90   12.10
  -6  -9  -6   16.30   10.70
   9 -15   6   37.20   13.40
 -10  -4  -6   10.20    6.90
  14 -10  -6   18.30    5.10
 -10  -4  -6   17.10    6.40
  14 -10  -6    7.80    4.40
   4 -14   6   25.90   12.40
  11 -10  -6   24.10    7.20
   1 -11   6    7.40    8.70
   8 -10  -6   36.50    9.50
  -2  -8   6   41.20   11.10
  -8  10   6   21.40    7.80
   5 -10  -6   77.49   12.80
  -5  -5   6   93.09   11.50
   2 -10  -6    4.10    6.80
  10  -8   6    5.10    4.60
  -8  -2   6   11.50    4.80
  -8  -2   6    7.20    4.50
  10  -8   6    1.90    4.30
  -1 -10  -6   12.50    9.10
  10 -11   6   13.80    6.60
  -4 -10  -6   21.60   10.50
  10 -14   6   17.80    8.70
  13 -11  -6   18.50    6.80
   2 -13   6   24.80   12.80
  10 -11  -6   17.20    7.80
  -1 -10   6   21.30   10.80
   7 -11  -6   42.10   11.20
  -4  -7   6   35.30    9.70
   4 -11  -6   36.20   11.70
  -7  -4   6   47.70    9.40
  11  -7   6   41.70    4.90
  -7  -4   6   44.90    9.00
  11  -7   6   39.30    5.30
   1 -11  -6    0.70    6.50
  11 -10   6   18.60    7.20
  11 -10   6   10.30    6.40
 -10  -1   6   14.70    3.50
 -10  -1   6   24.30    4.50
  -2 -11  -6    9.00   10.30
  11 -13   6   15.90    8.70
  15 -12  -6    7.30    6.50
   3 -15   6   -9.30    7.40
  12 -12  -6   40.80   10.30
   0 -12   6   57.39   15.10
   9 -12  -6   -9.80    4.90
  -3  -9   6   -2.60    5.70
   6 -12  -6   41.50   12.30
  -6  -6   6   37.50    9.80
  -6  -6   6   28.30    9.60
   3 -12  -6   17.70   12.60
  -9  -3   6   57.39    8.50
  12  -9   6   52.89    7.60
  -9  -3   6   63.59    9.20
  12  -9   6   47.70    8.70
   0 -12  -6   22.60   11.60
  12 -12   6   10.40    7.20
  -3 -12  -6    3.10    8.80
  12 -15   6   17.10   10.10
  14 -13  -6   52.29   10.70
   1 -14   6   27.80   12.50
  11 -13  -6   -1.00    6.20
  -2 -11   6   21.00   11.70
   8 -13  -6   94.29   19.30
  -5  -8   6   83.19   15.00
   5 -13  -6   78.59   16.20
  -8  -5   6   83.49   11.90
  -8  -5   6   89.89   13.20
   2 -13  -6    6.00    9.90
 -11  -2   6   19.30    3.70
  13 -11   6   23.90    7.40
 -11  -2   6   16.60    3.80
  -1 -13  -6    7.30   10.10
  13 -14   6   21.10   12.00
  -1 -13   6   31.20   13.20
  10 -14  -6   17.30   10.10
  -4 -10   6   12.20   10.20
   7 -14  -6   66.79   15.30
  -7  -7   6   58.49   12.60
   4 -14  -6   32.10   13.50
 -10  -4   6   31.50    8.70
 -10  -4   6   34.60    8.30
  14 -10   6   42.10    6.20
   1 -14  -6   19.80   12.70
  14 -13   6    7.00    6.60
  12 -15  -6   -6.40    6.40
  -3 -12   6   13.80   11.80
   9 -15  -6    2.50    7.70
  -6  -9   6   14.60   10.10
   6 -15  -6   37.70   13.70
  -9  -6   6   -0.80    6.70
   3 -15  -6   15.10   11.10
   8 -16  -6   65.19   16.60
  -8  -8   6   33.60   23.50
   1  -1  -7   -0.40    1.50
   0   1  -7   -0.90    1.60
  -1   0  -7   -1.10    1.10
   1   0   7    0.50    1.20
   0  -1   7    2.00    1.60
  -1   1   7   -2.40    1.10
   2   1   7 4760.72   84.59
   1  -3   7 4654.33   88.59
  -3   2   7 4752.62   83.49
   0  -2  -7   -0.40    2.10
   2  -2   7   -1.20    2.00
   0   2   7    3.30    2.60
  -2   0   7    1.40    1.90
  -3  -2  -7   30.30    5.00
   5  -3  -7   29.50    3.80
  -2   5  -7   23.10    5.50
  -5   3   7   23.70    3.60
   2  -5   7   28.50    6.10
   3   2   7   30.60    5.10
   2  -3  -7 4582.94   86.49
  -2   3   7 4831.82   87.29
  -1  -2   7 4657.23   86.79
   4  -1  -7  260.07    8.30
  -1  -3  -7  260.97   12.30
   1   3   7  279.37   15.10
   3  -4   7  249.78   12.10
  -4   1   7  255.07    7.50
  -3   7  -7    7.10    4.70
  -4  -3  -7    4.00    3.60
   7  -4  -7   -1.80    2.20
   3  -7   7    1.80    4.40
   4   3   7    1.20    3.40
  -7   4   7   -2.20    1.90
  -4   0  -7    2.00    1.70
   0   4  -7    2.50    3.30
   4  -4  -7    0.00    2.40
   4   0   7   -2.90    1.60
   0  -4   7   -1.10    3.50
  -4   4   7    0.50    2.70
   1  -4  -7  270.67   13.10
  -3  -1   7  256.27   10.10
   4  -3   7  269.47   10.20
   4  -3   7  260.07   10.00
  -1   4   7  243.68   12.70
  -3  -1   7  254.37   10.20
   6  -2  -7  116.49    4.60
  -2  -4  -7  104.29    9.50
  -4   6  -7  116.09   10.00
   2   4   7  114.49    9.90
   4  -6   7  105.69   10.10
  -6   2   7  102.49    4.20
  -5  -4  -7   30.10    6.90
   9  -5  -7   49.90    4.50
  -4   9  -7   15.30    7.90
   5   4   7   36.50    8.00
   4  -9   7   20.40    8.50
  -5  -1  -7  167.88    8.20
  -1   6  -7  180.18   13.40
   6  -5  -7  184.48   10.00
   5   1   7  175.18    8.70
   1  -6   7  151.98   13.20
   3  -5  -7   35.00    6.50
  -3   5   7   40.30    6.60
  -2  -3   7   33.80    6.40
   5  -2   7   29.50    2.50
   0  -5  -7    0.20    3.20
  -5   0   7   -0.90    1.80
   0   5   7   -3.60    2.50
   5  -5   7    0.80    2.90
  -5   0   7    0.40    1.90
  -5   8  -7   73.69   10.00
  -3  -5  -7   85.49   10.10
   3   5   7   80.19   10.10
   5  -8   7   83.59   11.00
  -6  -5  -7   -4.40    4.10
   5 -11   7   12.70    7.60
   6   5   7    3.30    5.60
   8  -6  -7   17.00    4.80
  -6  -2  -7   26.10    5.40
  -2   8  -7   -4.80    4.80
   2  -8   7   11.30    6.10
  -8   6   7   15.10    4.70
   6   2   7   11.60    4.80
   5  -6  -7  201.58   12.50
  -5   6   7  202.98   12.70
  -1  -5   7  188.08   13.60
   2  -6  -7  116.89   10.80
   6  -4   7   98.59    6.60
  -2   6   7  120.19   11.20
  -4  -2   7  120.19    8.70
   6  -4   7  115.69    7.10
  -4  -2   7  127.49   10.40
  -1  -6  -7   21.90    7.40
   1   6   7   34.10    8.00
   6  -7   7    3.60    4.50
  -4  -6  -7   35.70    9.20
   6 -10   7   20.20    8.50
   4   6   7   10.70    6.70
  -7  -6  -7   -8.80    5.20
   6 -13   7    3.40    8.80
  10  -7  -7   -3.00    2.80
  -7  -3  -7    0.60    3.90
   3 -10   7   -6.90    4.90
 -10   7   7    7.20    3.70
  -7   0  -7    3.20    2.20
   7  -7  -7    1.90    3.70
   0  -7   7   12.90    6.20
  -7   7   7    4.80    3.80
   4  -7  -7    4.10    4.50
  -3  -4   7    2.30    4.40
  -4   7   7   -1.40    3.20
   1  -7  -7   -2.10    3.90
   7  -6   7   -2.70    2.80
  -6  -1   7    3.30    3.10
  -1   7   7    3.60    4.80
  -6  -1   7    4.30    2.80
  -2  -7  -7  103.79   12.90
   2   7   7  100.59   12.90
   7  -9   7  120.49   12.90
  -5  -7  -7    8.50    6.90
   7 -12   7   -9.00    5.50
  -8  -7  -7    9.10    7.60
   7 -15   7   -2.20    7.70
  12  -8  -7   54.99    6.30
  -8  -4  -7   60.69    9.40
   4 -12   7   44.80   12.70
   9  -8  -7   -4.40    3.20
  -8  -1  -7   -0.90    2.50
   1  -9   7   -5.00    5.00
  -9   8   7   -1.50    3.40
   6  -8  -7   21.90    8.30
  -6   8   7   14.10    7.10
  -2  -6   7   18.80    7.10
   3  -8  -7   65.59   11.10
  -5  -3   7   70.59    8.50
  -3   8   7   70.99   10.40
   8  -5   7   79.49    6.00
   8  -5   7   73.29    5.90
  -5  -3   7   85.89    8.80
   0  -8  -7   -4.00    4.90
  -8   0   7   -0.10    2.00
   8  -8   7   -1.50    3.70
  -8   0   7   -0.90    1.90
   0   8   7    2.00    6.70
  -3  -8  -7   56.99   12.50
   8 -11   7   46.90   10.90
  -6  -8  -7   38.40   11.80
   8 -14   7   20.10   10.60
  -9  -5  -7    6.50    7.20
  -9  -5  -7    0.10    5.50
   5 -14   7    8.80   10.80
  -9  -2  -7   42.70    7.10
  11  -9  -7   38.60    7.90
  -9  -2  -7   39.00    6.20
   2 -11   7   38.10   12.00
   8  -9  -7    1.30    4.60
  -1  -8   7  -10.60    5.40
  -8   9   7   -4.20    4.80
   5  -9  -7   42.50   10.10
  -5   9   7   23.60    8.40
  -4  -5   7   24.20    7.50
   2  -9  -7   89.89   13.50
   9  -7   7  117.49    9.80
   9  -7   7  106.99    9.10
  -7  -2   7  118.99    9.20
  -7  -2   7  119.89    9.50
  -1  -9  -7   93.19   14.80
   9 -10   7   55.69   11.10
  -4  -9  -7    7.20    7.60
   9 -13   7    1.50    6.60
  -7  -9  -7   -3.60    6.90
   9 -16   7   -1.40    7.30
 -10  -3  -7    5.40    4.10
 -10  -3  -7    4.10    4.90
  13 -10  -7   -0.40    4.20
   3 -13   7   15.30    9.70
  10 -10  -7    1.20    4.40
   0 -10   7   -1.40    8.20
 -10  10   7    3.80    5.20
   7 -10  -7    1.50    6.80
  -3  -7   7    4.80    6.10
  -7  10   7   12.70    7.50
   4 -10  -7   31.50    9.80
  10  -6   7   27.20    4.00
  -6  -4   7   40.80    8.90
  -6  -4   7   36.80    8.70
  10  -6   7   36.90    4.90
   1 -10  -7   53.99   13.70
  -9  -1   7   55.29    6.00
  -9  -1   7   59.99    6.00
  10  -9   7   59.19    9.60
  10  -9   7   61.99    9.20
  -2 -10  -7    6.00    8.00
  10 -12   7    2.60    6.70
  -5 -10  -7   -4.10    7.60
  10 -15   7   -7.10    6.30
 -11  -4  -7    5.50    4.20
  15 -11  -7   13.80    4.60
   4 -15   7    3.30   10.30
  12 -11  -7   -1.30    4.70
   1 -12   7    9.20    8.30
   9 -11  -7   45.70   10.90
  -2  -9   7   50.89   13.60
   6 -11  -7    3.00    6.40
  -5  -6   7    6.10    6.80
  -5  -6   7   -1.00    5.90
   3 -11  -7   33.20   11.50
  11  -8   7   51.39    7.10
  11  -8   7   39.30    7.40
  -8  -3   7   26.20    6.90
  -8  -3   7   18.20    6.20
   0 -11  -7    6.20   13.40
  11 -11   7   -0.70    5.80
  11 -11   7   14.80    7.70
  -3 -11  -7   -0.10    8.60
  11 -14   7   13.00    8.90
  14 -12  -7   -4.40    4.70
   2 -14   7   -2.80    8.10
  11 -12  -7   -7.20    4.80
  -1 -11   7    2.80    7.40
   8 -12  -7   58.99   13.50
  -4  -8   7   68.59   13.60
   5 -12  -7    8.30    8.20
  -7  -5   7    4.40    6.10
  -7  -5   7   -1.80    4.70
   2 -12  -7   -8.40    6.70
  12 -10   7    6.90    6.60
 -10  -2   7    6.60    4.40
 -10  -2   7    0.90    3.40
  12 -10   7    0.40    4.60
  -1 -12  -7   -0.50    8.30
  12 -13   7   -2.70    5.80
  13 -13  -7   -5.60    4.40
   0 -13   7   -3.50    7.80
  10 -13  -7    7.00    7.90
  -3 -10   7    4.60    9.00
   7 -13  -7   -0.20    7.40
  -6  -7   7   -3.30    5.50
   4 -13  -7    4.40    8.00
  13  -9   7    4.80    3.30
  -9  -4   7    4.50    6.10
   1 -13  -7    6.00    8.60
  13 -12   7   -3.00    5.10
  12 -14  -7    0.50    6.70
  -2 -12   7   -6.10    8.00
   9 -14  -7   -2.80    6.30
  -5  -9   7   13.40    9.60
   6 -14  -7   16.90   10.30
  -8  -6   7   28.70    9.40
   3 -14  -7   -2.20    9.30
  14 -11   7    0.60    4.30
  14 -11   7    7.10    9.60
 -11  -3   7    5.70    4.60
 -11  -3   7   -0.40    3.80
  11 -15  -7   11.60    9.90
  -4 -11   7    4.30    8.60
   8 -15  -7   23.80   11.10
  -7  -8   7   13.90    8.90
   5 -15  -7    7.20   10.00
 -10  -5   7   -5.00    4.70
   7 -16  -7   -1.20   10.40
  -9  -7   7    1.20    6.30
  -1   1  -8   44.50    3.60
   0  -1  -8   42.20    3.60
   1  -1   8   46.20    3.60
   0   1   8   47.10    3.70
  -1   0   8   37.70    3.30
   2  -2  -8 9999.00  191.58
   2   0   8 9879.11  181.88
  -2   2   8 9952.10  191.48
   0  -2   8 9938.81  202.58
   3  -1  -8   76.29    5.10
  -1  -2  -8   72.59    6.30
   2  -3   8   78.59    6.80
   1   2   8   86.39    6.60
  -3   1   8   69.69    4.30
   4  -3  -8  124.19    6.80
  -3  -1  -8  100.19    6.30
   3   1   8  121.19    6.90
  -4   3   8  113.79    6.90
   1  -4   8  134.59    9.90
   1  -3  -8   67.69    6.60
  -1   3   8   72.99    6.80
   3  -2   8   72.69    5.00
  -2  -1   8   75.79    5.90
   5  -2  -8  811.62   17.70
  -2  -3  -8  758.32   23.50
   2   3   8  809.22   24.30
   3  -5   8  789.02   25.60
  -5   2   8  782.82   17.50
   6  -4  -8  322.67   11.50
  -4  -2  -8  311.77   13.00
  -2   6  -8  302.77   16.70
   4   2   8  317.87   13.50
   2  -6   8  307.77   17.20
  -6   4   8  310.37   11.90
   3  -4  -8  126.59    8.60
  -4   1  -8  110.49    4.70
  -3   4   8   94.29    8.10
   4  -1   8  112.39    4.50
  -1  -3   8   95.39    8.30
   0  -4  -8 1000.80   29.00
   0   4   8 1015.70   29.40
   4  -4   8 1043.80   26.80
  -4   0   8  994.10   22.30
  -3  -4  -8   20.30    5.70
  -7   3   8   16.60    2.70
   3   4   8   18.30    5.70
   4  -7   8   16.10    6.30
  -5  -3  -8   28.70    6.10
  -3   8  -8   25.40    7.60
   8  -5  -8   31.30    4.70
   5   3   8   33.50    7.20
   3  -8   8   38.00    9.30
  -8   5   8   36.10    5.60
  -5   0  -8   34.40    3.70
   5  -5  -8   47.30    7.10
  -5   5   8   36.90    6.40
   0  -5   8   39.10    7.70
   5   0   8   37.10    3.90
   2  -5  -8  792.32   25.70
   5  -3   8  786.82   18.90
  -3  -2   8  791.02   22.70
  -3  -2   8  773.82   22.80
   5  -3   8  775.52   18.60
  -2   5   8  730.03   25.20
  -1  -5  -8  391.86   18.90
  -6   1   8  423.46   10.50
   5  -6   8  368.56   17.50
   1   5   8  438.66   19.90
  -4  -5  -8   58.89   10.20
   5  -9   8   48.20   10.90
   4   5   8   30.30    8.30
  10  -6  -8  131.49    7.60
  -6  -4  -8  110.19   10.90
   6   4   8  127.89   11.70
   4 -10   8  116.99   15.10
  -1   7  -8  365.76   20.30
   7  -6  -8  350.46   15.30
  -6  -1  -8  365.36   12.60
  -7   6   8  337.37   15.50
   6   1   8  363.66   13.30
   1  -7   8  391.76   21.40
   4  -6  -8  332.37   16.60
  -4   6   8  323.77   16.40
  -2  -4   8  314.77   16.20
   1  -6  -8  397.26   19.80
  -5  -1   8  401.46   14.40
  -1   6   8  401.56   20.00
  -5  -1   8  429.56   14.60
   6  -5   8  431.26   16.70
   6  -5   8  427.66   15.90
  -2  -6  -8  226.68   16.10
   2   6   8  208.38   15.70
   6  -8   8  245.28   16.80
  -5  -6  -8   39.60    9.80
   6 -11   8   25.50    9.80
   5   6   8   22.30    8.70
  -7  -5  -8   79.39   11.20
   5 -12   8   95.19   15.70
  -7  -2  -8  274.47   12.60
   9  -7  -8  260.17   13.40
  -9   7   8  245.28   13.50
   7   2   8  246.78   12.70
   2  -9   8  278.57   20.80
   6  -7  -8  342.87   17.20
  -1  -6   8  354.26   20.40
  -6   7   8  364.76   18.20
   3  -7  -8   20.80    6.90
  -4  -3   8   25.40    6.20
   7  -4   8   24.20    3.80
  -3   7   8   16.50    5.80
  -4  -3   8   14.70    5.20
   7  -4   8   22.00    3.70
   0  -7  -8  618.74   27.50
  -7   0   8  636.54   16.80
   7  -7   8  691.73   24.60
  -7   0   8  656.83   17.10
  -3  -7  -8  162.38   15.40
   7 -10   8  185.78   16.80
   3   7   8  163.18   15.90
  -6  -7  -8   89.89   14.70
   7 -13   8   52.29   13.50
  -8  -6  -8   52.89   10.90
   6 -14   8   56.19   15.50
  -8  -3  -8   11.80    4.90
  11  -8  -8    6.60    4.60
   3 -11   8    1.00    7.10
   8  -8  -8    1.40    4.30
  -8   0  -8   -1.10    2.80
  -8   0  -8    1.10    1.90
  -8   8   8   -1.50    3.80
   0  -8   8   -0.70    5.80
   5  -8  -8   24.20    7.50
  -3  -5   8   23.50    7.30
  -5   8   8   31.40    8.00
   2  -8  -8  248.18   17.90
   8  -6   8  225.58   12.00
  -6  -2   8  245.48   12.60
  -6  -2   8  223.98   12.40
   8  -6   8  247.98   12.20
  -2   8   8  228.08   17.30
  -1  -8  -8   78.39   12.80
   8  -9   8   64.29   11.50
  -4  -8  -8   28.30   10.20
   8 -12   8   16.20    8.20
  -7  -8  -8    4.40    8.50
   8 -15   8   33.90   13.20
  -9  -7  -8   10.90    7.70
   7 -16   8    4.10    9.50
  -9  -4  -8   57.69    9.40
  13  -9  -8   44.50    7.60
  -9  -4  -8   42.50   10.10
  13  -9  -8   43.50    6.40
   4 -13   8   39.30   13.50
  -9  -1  -8   41.70    5.30
  10  -9  -8   45.70    8.80
  -9  -1  -8   37.40    4.70
   1 -10   8   43.50   11.80
 -10   9   8   51.59    9.50
   7  -9  -8  283.37   18.00
  -2  -7   8  300.97   20.00
  -7   9   8  255.77   17.90
   4  -9  -8   39.40   10.30
  -5  -4   8   72.69    9.60
   9  -5   8   34.50    3.70
  -5  -4   8   53.29    8.50
   9  -5   8   50.89    4.10
  -4   9   8   23.10    8.20
   1  -9  -8   70.59   12.90
   9  -8   8   78.39    9.60
  -8  -1   8   70.59    6.50
  -8  -1   8   54.69    6.20
   9  -8   8   67.69    8.70
  -2  -9  -8    6.80    7.80
   9 -11   8    5.80    6.30
  -5  -9  -8    0.80    8.10
   9 -14   8   11.40    8.90
 -10  -5  -8   32.20    8.90
   5 -15   8    3.60   10.00
 -10  -2  -8   55.49    6.10
 -10  -2  -8   74.69   12.60
  12 -10  -8   63.79   10.50
   2 -12   8   82.09   16.50
   9 -10  -8   42.60    9.80
  -9  10   8   28.40    8.80
  -1  -9   8   40.30   12.40
   6 -10  -8  135.29   14.90
  -4  -6   8   98.29   12.70
   3 -10  -8  172.08   17.60
  10  -7   8  160.88   10.50
  10  -7   8  161.48    9.80
  -7  -3   8  158.58   11.90
  -7  -3   8  164.78   12.50
   0 -10  -8  313.77   24.10
  10 -10   8  339.17   19.60
  10 -10   8  301.67   19.70
  -3 -10  -8   45.00   13.10
  10 -13   8   52.69   12.50
  14 -11  -8    1.70    7.60
  14 -11  -8    8.10    8.70
 -11  -3  -8    2.30    3.10
 -11  -3  -8    8.10    5.60
   3 -14   8    7.40    9.60
  11 -11  -8   26.40    8.30
   0 -11   8   47.30   16.50
 -11  11   8   37.90   11.10
   8 -11  -8    7.90    6.80
  -3  -8   8    7.30    7.30
   5 -11  -8   38.30   11.30
  -6  -5   8   36.20   12.20
  -6  -5   8   30.30    8.40
   2 -11  -8   -1.10    6.60
  -9  -2   8    3.70    3.80
  -9  -2   8    2.00    3.80
  11  -9   8    0.90    4.20
  11  -9   8    2.70    3.90
  -1 -11  -8   -4.20    5.80
  11 -12   8   11.70    7.90
  -4 -11  -8    7.70    9.90
  11 -15   8   14.70   10.00
  13 -12  -8   28.20    9.00
   1 -13   8   29.30   12.70
  10 -12  -8   56.29   12.80
  -2 -10   8   71.09   15.50
   7 -12  -8   56.39   12.70
  -5  -7   8  116.49   14.50
   4 -12  -8   15.50    9.30
  -8  -4   8   11.90    6.60
  -8  -4   8   11.00    6.10
  12  -8   8    5.70    3.60
  12  -8   8   14.10    3.90
   1 -12  -8   11.50    9.50
  12 -11   8   20.80    7.50
  12 -11   8    9.70    7.30
  -2 -12  -8    6.00   10.20
  12 -14   8   16.90    9.50
  12 -13  -8   30.10    9.70
  -1 -12   8   35.60   13.20
   9 -13  -8   25.80   10.30
  -4  -9   8   53.49   13.50
   6 -13  -8   75.59   15.10
  -7  -6   8   78.59   14.10
   3 -13  -8   26.50   11.40
 -10  -3   8   31.50    7.90
  13 -10   8   37.00    7.30
  13 -10   8   47.60    8.80
 -10  -3   8   48.60    8.40
   0 -13  -8    8.90   10.40
  13 -13   8   10.00    7.40
  11 -14  -8    5.60    7.40
  -3 -11   8  -11.50    6.40
   8 -14  -8   45.70   13.70
  -6  -8   8   46.50   12.20
   5 -14  -8   -0.80    9.20
  -9  -5   8   18.00    7.60
  -9  -5   8   26.10    9.30
   2 -14  -8   24.70   13.00
  14 -12   8    7.40    5.90
  10 -15  -8   16.30    9.80
  -5 -10   8    8.50    9.80
   7 -15  -8    6.50    9.00
  -8  -7   8   19.20    9.40
   4 -15  -8    3.20    9.80
  15 -11   8    8.70    4.20
 -11  -4   8    8.40    5.50
   9 -16  -8   19.20   11.70
  -7  -9   8   26.00   12.00
   0   0  -9   -1.30    1.20
   0   0   9   -2.20    1.00
  -1   2  -9 1431.26   31.70
  -1  -1  -9 1420.76   29.40
   2  -1  -9 1441.86   28.50
   1   1   9 1418.06   29.60
   1  -2   9 1429.06   31.50
  -2   1   9 1404.96   28.30
  -2   1  -9 1439.96   28.80
   1  -2  -9 1415.56   30.70
   1   1  -9 1422.76   30.60
  -1  -1   9 1445.96   30.40
   2  -1   9 1420.66   28.20
  -1   2   9 1420.56   30.80
   4  -2  -9  551.74   14.20
  -2  -2  -9  556.44   17.30
   2   2   9  545.55   17.40
  -4   2   9  595.24   14.60
   2  -4   9  570.94   19.70
   3  -3  -9    1.80    2.70
   0  -3   9    2.50    3.50
  -3   3   9    0.70    2.90
   3   0   9    0.90    2.00
   0  -3  -9   -1.40    2.60
   3   0  -9   -1.60    2.20
   3  -3   9   -1.30    2.50
   3  -3   9   -3.10    2.30
  -3   0   9    3.50    2.20
   0   3   9   -1.30    2.60
   6  -3  -9   50.39    4.50
  -3  -3  -9   42.30    6.60
   3   3   9   39.80    6.90
  -6   3   9   42.00    4.40
   3  -6   9   50.59    8.30
  -4  -1  -9   32.90    4.50
   5  -4  -9   29.70    4.80
   1  -5   9   17.80    6.40
  -5   4   9   34.00    5.60
   4   1   9   31.90    4.40
   2  -4  -9  561.14   19.10
  -4   2  -9  558.34   14.30
  -2  -2   9  542.25   17.70
  -2  -2   9  572.94   18.30
   4  -2   9  547.95   13.70
  -2   4   9  586.34   19.60
   5  -1  -9  124.69    6.00
  -1  -4  -9  103.99    9.30
   4  -5   9  110.89    9.40
  -5   1   9  114.69    5.40
   1   4   9  104.69    9.40
   8  -4  -9   40.70    4.00
  -4  -4  -9   33.40    7.10
   4   4   9   50.99    7.90
  -8   4   9   29.10    3.70
   4  -8   9   34.20    8.40
   7  -5  -9   10.70    3.90
  -5  -2  -9    1.80    3.30
   5   2   9   -1.70    3.20
  -7   5   9    5.80    3.60
   4  -5  -9   37.60    6.60
  -5   1  -9   36.20    3.10
  -1  -4   9   25.00    6.40
  -4   5   9   37.10    6.60
   5  -1   9   34.20    3.00
   1  -5  -9   98.69    9.70
   5  -4   9  109.89    7.50
  -1   5   9  103.99    9.70
   5  -4   9  107.99    7.60
  -4  -1   9  109.89    7.20
  -4  -1   9  128.29    7.70
  -2  -5  -9   28.70    7.00
  -7   2   9   23.10    2.40
   2   5   9    8.30    5.00
   5  -7   9   18.30    6.20
  -5  -5  -9  107.89   12.10
   5   5   9   70.09   11.80
   5 -10   9   70.09   13.70
  -6  -3  -9   48.40    7.40
   9  -6  -9   47.30    6.10
   6   3   9   57.59    9.30
   3  -9   9   43.50   10.20
  -6   0  -9    2.60    2.00
   6  -6  -9    1.20    3.30
   6   0   9   -0.70    2.10
  -6   6   9    7.60    4.30
   0  -6   9    0.90    4.80
   3  -6  -9   55.99    8.20
  -3   6   9   45.80    8.10
  -3  -3   9   53.29    7.40
   6  -3   9   47.00    4.00
  -3  -3   9   38.00    7.10
   6  -3   9   47.80    4.20
   0  -6  -9    1.60    4.30
   0   6   9    3.40    4.50
  -6   0   9    3.30    2.40
   6  -6   9   -0.40    3.20
  -6   0   9   -1.90    1.90
  -3  -6  -9   57.99   10.90
   6  -9   9   52.09   11.10
  -6  -6  -9   10.20    7.00
   6 -12   9   13.60    9.40
   6   6   9   17.10    7.60
  11  -7  -9    5.60    3.80
  -7  -4  -9    2.80    5.00
   4 -11   9    7.10    8.50
   7   4   9   11.20    5.60
   8  -7  -9    0.00    3.70
  -7  -1  -9    2.30    2.70
   1  -8   9    4.90    6.10
   7   1   9   -1.60    2.20
  -8   7   9   -4.40    2.80
   5  -7  -9    7.50    4.70
  -5   7   9   18.10    6.20
  -2  -5   9    4.80    4.70
  -2   7   9   17.30    6.70
   7  -5   9   35.90    5.90
  -5  -2   9   22.30    5.40
   7  -5   9   37.30    5.90
  -5  -2   9   14.40    5.00
  -1  -7  -9   -0.60    5.80
   7  -8   9   22.90    6.80
   1   7   9    1.40    5.20
  -4  -7  -9   94.29   12.90
   7 -11   9   81.99   13.50
  -7  -7  -9   12.90    7.90
   7 -14   9   14.90    9.80
  -8  -5  -9   -5.50    4.50
   5 -13   9   -9.30    6.20
  -8  -2  -9   20.90    5.40
  10  -8  -9   29.40    7.00
 -10   8   9   30.70    7.00
   2 -10   9   29.80   11.20
   7  -8  -9    8.00    5.60
  -1  -7   9    2.00    5.20
  -7   8   9   -5.40    3.20
   4  -8  -9   45.50    9.60
   8  -4   9   32.30    5.50
  -4   8   9   35.70   10.20
  -4  -4   9   30.60    7.60
   8  -4   9   37.00    3.10
  -4  -4   9   36.90    8.00
   1  -8  -9   11.20    7.40
  -7  -1   9    7.40    3.60
   8  -7   9   11.60    5.30
  -7  -1   9   16.30    4.30
  -1   8   9   11.40    7.40
   8  -7   9   19.80    5.60
  -2  -8  -9   47.00   11.40
   8 -10   9   26.10    9.10
  -5  -8  -9   -4.70    5.90
   8 -13   9    4.30    9.40
   8 -16   9    8.20   10.50
  -9  -6  -9   -5.70    5.70
   6 -15   9   -5.70    8.10
  12  -9  -9   16.70    5.80
  -9  -3  -9   14.20    5.20
  -9  -3  -9   15.50    6.10
   3 -12   9   31.40   12.00
   9  -9  -9   -2.90    4.30
   0  -9   9    5.40    6.60
  -9   9   9   -2.90    3.70
   6  -9  -9   48.80   10.20
  -6   9   9   36.70    9.90
  -3  -6   9   58.09   11.10
   3  -9  -9   41.40   10.30
  -6  -3   9   49.00    8.00
   9  -6   9   35.10    5.40
  -6  -3   9   25.80    6.70
   9  -6   9   39.90    5.80
  -3   9   9   40.00   10.40
   0  -9  -9   -7.00    5.80
  -9   0   9    0.40    2.40
   9  -9   9    3.00    4.50
  -9   0   9   -1.50    1.90
   9  -9   9   10.60    6.50
  -3  -9  -9    9.60    7.70
   9 -12   9   29.10   10.40
  -6  -9  -9    4.30    7.70
   9 -15   9   12.00   10.00
 -10  -4  -9    7.50    5.20
  14 -10  -9   12.20    4.70
  14 -10  -9    2.90    4.40
 -10  -4  -9    7.80    6.60
   4 -14   9    1.30   10.10
  11 -10  -9   14.00    6.90
   1 -11   9   23.90   11.30
 -11  10   9   11.00    7.40
   8 -10  -9   21.60    7.80
  -2  -8   9   15.90    8.40
  -8  10   9   11.50    6.90
   5 -10  -9   65.49   12.70
  -5  -5   9   62.69   10.30
  -5  -5   9   84.89   11.80
   2 -10  -9   40.10   10.00
  -8  -2   9   33.00    6.60
  -8  -2   9   26.30    6.70
  10  -8   9   41.50    8.20
  10  -8   9   26.40    6.70
  -1 -10  -9  148.39   18.30
  10 -11   9  128.29   14.50
  -4 -10  -9   16.40   10.80
  10 -14   9   14.20    8.90
  13 -11  -9    7.70    5.20
   2 -13   9   14.70    9.80
  10 -11  -9    8.10    6.80
  -1 -10   9    8.60    9.60
   7 -11  -9   11.90    8.10
  -4  -7   9   20.50    8.80
   4 -11  -9   66.09   14.70
  11  -7   9   80.79    6.60
  11  -7   9   80.49    6.30
  -7  -4   9   74.19   10.80
  -7  -4   9   56.99    9.50
   1 -11  -9  113.49   17.00
  11 -10   9  131.29   13.80
  11 -10   9  146.29   13.40
 -10  -1   9  140.89    7.40
 -10  -1   9  138.69    7.30
  -2 -11  -9    5.20    8.60
  11 -13   9   12.90    9.40
  15 -12  -9    4.30    5.20
   3 -15   9   -9.40    8.70
  12 -12  -9    0.50    6.10
   0 -12   9  -11.50    6.20
   9 -12  -9    9.70    8.50
  -3  -9   9   -1.60    6.80
   6 -12  -9   24.70    9.70
  -6  -6   9   21.60   10.40
  -6  -6   9   24.60    8.30
   3 -12  -9   15.70    9.90
  -9  -3   9   24.80    7.00
  12  -9   9   42.90    8.40
  -9  -3   9   31.70    7.20
  12  -9   9   37.60    7.30
   0 -12  -9   -0.60    7.70
  12 -12   9   -5.90    4.70
  -3 -12  -9   -2.30    9.20
  12 -15   9    6.30    8.10
  14 -13  -9    0.60    5.70
   1 -14   9    1.70    8.40
  11 -13  -9   23.20    9.30
  -2 -11   9    0.10    8.80
   8 -13  -9   -7.60    9.90
  -5  -8   9    1.90    6.90
   5 -13  -9    6.20    8.90
  -8  -5   9    9.60    6.60
  -8  -5   9    9.50    7.30
   2 -13  -9   15.70   10.70
  13 -11   9   10.50    5.90
 -11  -2   9    8.50    3.70
 -11  -2   9    9.60    3.60
  -1 -13  -9   -9.40    7.20
  13 -14   9    0.00   12.40
  13 -14  -9    2.80    7.30
  -1 -13   9   10.10   11.60
  10 -14  -9   -4.60    6.20
  -4 -10   9    0.60    8.30
   7 -14  -9   24.90   11.20
  -7  -7   9   19.80    9.40
   4 -14  -9    7.20    8.70
  14 -10   9   10.70    4.30
 -10  -4   9   13.90    7.30
   1 -14  -9   -5.70    8.00
  14 -13   9    1.70    6.10
  12 -15  -9   -0.80    6.60
  -3 -12   9    4.30   10.10
   9 -15  -9   -6.80    7.90
  -6  -9   9   14.90    9.10
   6 -15  -9   -0.30    9.10
  -9  -6   9   -9.00    5.00
   3 -15  -9    2.40    9.00
   8 -16  -9   -3.80    7.40
  -8  -8   9   -2.30    9.10
  -1   0 -10 1156.08   23.90
   1  -1 -10 1130.99   24.20
   0   1 -10 1152.58   25.40
  -1   1  10 1184.98   24.40
   0  -1  10 1142.49   25.00
   1   0  10 1129.99   23.60
  -2  -1 -10 3473.05   64.79
   3  -2 -10 3474.05   64.19
   1  -3  10 3475.55   68.89
  -3   2  10 3585.54   64.59
   1  -3  10 3467.85   69.69
   2   1  10 3542.55   65.29
   2   0 -10  837.12   19.80
  -2   2 -10  822.32   21.00
   0  -2 -10  857.21   21.80
   2  -2  10  879.31   21.20
  -2   0  10  885.91   19.80
   0   2  10  881.11   22.00
  -3  -2 -10  663.43   19.90
   5  -3 -10  694.93   17.60
   2  -5  10  663.73   23.90
   3   2  10  647.54   20.10
  -5   3  10  661.83   17.70
   2  -3 -10 3527.55   68.09
  -3   1 -10 3494.95   63.09
   3  -1  10 3526.35   62.99
  -1  -2  10 3537.25   68.79
  -2   3  10 3542.25   68.29
  -1  -3 -10  642.04   20.30
   4  -1 -10  630.14   15.70
   1   3  10  578.84   20.20
   3  -4  10  599.94   20.00
  -4   1  10  655.93   15.40
   7  -4 -10    4.20    2.40
  -4  -3 -10    1.50    3.20
   3  -7  10   -1.90    4.50
  -7   4  10    4.20    2.40
   4   3  10    2.70    3.40
   4  -4 -10  515.25   16.90
  -4   0 -10  498.35   13.10
  -4   4  10  478.55   16.80
   4   0  10  491.65   13.30
   0  -4  10  472.05   19.10
   1  -4 -10  626.34   21.10
   4  -3  10  625.74   17.40
  -3  -1  10  624.14   17.90
  -1   4  10  607.34   21.10
   6  -2 -10  225.18    7.90
  -2  -4 -10  190.18   12.40
  -6   2  10  222.88    7.70
   4  -6  10  224.28   14.00
   2   4  10  223.78   13.40
  -5  -4 -10   86.29    9.80
   9  -5 -10   93.09    6.20
  -9   5  10  101.89    6.40
   5   4  10   84.79    9.90
   4  -9  10  108.39   13.50
   6  -5 -10 1103.89   28.70
  -5  -1 -10 1109.79   26.10
  -6   5  10 1091.49   29.30
   5   1  10 1119.49   27.00
   1  -6  10 1028.50   34.70
   3  -5 -10  703.43   23.10
  -2  -3  10  639.14   21.80
  -3   5  10  619.64   22.30
  -2  -3  10  631.54   22.00
   5  -2  10  663.23   15.00
   0  -5 -10  102.19   10.00
   5  -5  10   96.89    8.60
   5  -5  10  104.89    8.80
  -5   0  10  101.19    6.20
   0   5  10   99.29    9.90
  -3  -5 -10   52.29    9.40
   3   5  10   54.99    8.90
   5  -8  10   68.09   10.20
  -6  -5 -10  145.29   13.20
   5 -11  10  154.58   17.50
   6   5  10  115.69   14.90
   8  -6 -10  616.94   20.00
  -6  -2 -10  594.14   19.50
   2  -8  10  623.44   28.60
  -8   6  10  606.64   20.70
   6   2  10  614.64   20.60
  -6   1 -10 1131.69   22.20
   5  -6 -10 1091.49   32.30
  -1  -5  10 1120.19   35.00
   6  -1  10 1133.19   22.40
  -5   6  10 1150.58   33.30
   2  -6 -10  237.58   14.70
   6  -4  10  214.48   10.00
   6  -4  10  221.38    9.90
  -4  -2  10  235.48   12.10
  -4  -2  10  231.68   12.00
  -2   6  10  259.77   15.40
  -1  -6 -10   64.09   12.20
   1   6  10   57.79    9.40
  -7   1  10   58.09    4.00
  -7   1  10   57.09    4.30
   6  -7  10   50.69    8.10
  -4  -6 -10  100.19   12.20
   4   6  10   74.09   12.70
   6 -10  10   89.29   13.40
  -7  -6 -10   82.19   13.80
   6 -13  10   86.29   16.90
  -7  -3 -10   72.99    8.90
  10  -7 -10   80.19    8.00
   7   3  10   82.89    9.50
 -10   7  10   73.09    7.60
   3 -10  10   93.09   14.70
  -7   0 -10  123.09    6.20
   7  -7 -10  139.99   11.20
   0  -7  10  141.99   14.00
   7   0  10  126.09    6.40
  -7   7  10  108.69   10.40
   4  -7 -10    0.50    3.60
   7  -3  10    3.00    1.50
   7  -3  10    2.40    1.50
  -4   7  10    2.90    3.70
  -3  -4  10    3.50    4.10
  -3  -4  10    3.30    4.50
   1  -7 -10   56.19   10.40
  -6  -1  10   67.39    6.60
   7  -6  10   50.99    7.90
   7  -6  10   44.80    6.50
  -6  -1  10   50.79    5.90
  -1   7  10   48.40    9.70
  -2  -7 -10  295.67   19.60
   2   7  10  285.17   19.60
   7  -9  10  290.47   18.80
  -5  -7 -10   56.39   11.70
   7 -12  10   22.20    9.40
  -8  -7 -10   44.90   11.40
   7 -15  10   34.50   12.40
  12  -8 -10   11.20    4.40
  -8  -4 -10   -0.70    4.70
   4 -12  10    1.40    7.60
   9  -8 -10  130.49   11.30
  -8  -1 -10  137.29    7.90
  -9   8  10  153.78   11.90
   1  -9  10  138.89   16.00
  -2  -6  10  598.64   26.70
  -6   8  10  615.84   26.10
   3  -8 -10   48.20   10.50
   8  -5  10   66.99    5.80
  -5  -3  10   56.79    7.90
  -3   8  10   68.99   10.30
  -5  -3  10   57.29    8.00
   8  -5  10   59.59    5.60
   0  -8 -10  140.29   15.00
   8  -8  10  161.48   12.70
  -8   0  10  147.79    7.30
  -8   0  10  169.08    7.80
   0   8  10  159.38   15.70
   8  -8  10  138.79   12.40
  -3  -8 -10   69.09   12.90
   8 -11  10   45.80   11.80
  -6  -8 -10   39.50   11.20
   8 -14  10   47.10   14.70
  -9  -5 -10   24.50    9.00
  -9  -5 -10    9.70    6.90
   5 -14  10   36.30   15.30
  11  -9 -10   57.89    8.50
  -9  -2 -10   64.39    7.20
   2 -11  10   61.69   15.20
 -11   9  10   54.49    8.70
   8  -9 -10  132.49   12.70
  -1  -8  10  133.39   15.60
   5  -9 -10   91.59   12.40
  -5   9  10   73.39   11.30
  -4  -5  10  127.59   14.90
  -4  -5  10   75.79   11.00
   2  -9 -10  306.17   21.30
   9  -7  10  251.07   13.40
   9  -7  10  255.87   13.80
  -7  -2  10  250.17   13.20
  -7  -2  10  280.07   13.90
  -1  -9 -10  114.09   15.70
   9 -10  10   91.59   12.50
   9 -10  10   90.39   12.10
  -4  -9 -10   20.70    9.50
   9 -13  10   32.30   11.30
  -7  -9 -10   10.90    9.70
   9 -16  10   -2.20    9.00
 -10  -3 -10   21.20    6.80
 -10  -3 -10   14.20    5.20
  13 -10 -10   21.90    6.20
   3 -13  10   29.50   11.60
  10 -10 -10   50.79   10.20
 -10  10  10   63.89   11.40
   0 -10  10   54.39   14.20
   7 -10 -10   74.69   11.80
  -3  -7  10   78.49   12.70
   4 -10 -10  120.39   15.10
  10  -6  10   94.79    6.30
  -6  -4  10  112.09   11.50
  10  -6  10   93.99    6.20
  -6  -4  10   94.59   11.30
   1 -10 -10  115.19   16.10
  -9  -1  10   96.79    7.50
  10  -9  10  111.69   11.80
  -9  -1  10  118.19    8.00
  10  -9  10  109.19   11.20
  -2 -10 -10   17.20   10.00
  10 -12  10   18.40    9.40
  -5 -10 -10   13.70   10.20
  10 -15  10   13.80    9.90
 -11  -4 -10    0.40    4.10
  15 -11 -10    6.00    4.00
   4 -15  10  -10.10    6.90
  12 -11 -10   39.00    8.90
   1 -12  10   39.60   13.30
   9 -11 -10   68.29   13.00
  -2  -9  10   36.50   11.40
   6 -11 -10  104.99   14.80
  -5  -6  10  120.29   14.20
  -5  -6  10  128.99   14.50
   3 -11 -10   74.29   14.50
  11  -8  10   70.59    8.20
  11  -8  10   65.99    7.70
  -8  -3  10   68.59    9.40
  -8  -3  10   87.19   10.00
   0 -11 -10  144.89   20.30
  11 -11  10  152.18   15.00
  11 -11  10  123.79   14.50
  -3 -11 -10   64.29   17.00
  11 -14  10   53.49   13.60
  14 -12 -10   32.10    9.20
   2 -14  10   27.40   14.30
  11 -12 -10   36.50    9.60
  -1 -11  10   36.40   12.50
   8 -12 -10   -3.00    6.00
  -4  -8  10    8.20    7.60
   5 -12 -10   44.20   12.20
  -7  -5  10   52.89   12.00
  -7  -5  10   44.80   10.00
   2 -12 -10   28.00   11.70
 -10  -2  10   26.20    5.90
  12 -10  10   37.10    9.00
 -10  -2  10   23.10    5.40
  -1 -12 -10    9.30    9.70
  12 -13  10   12.70    8.30
  13 -13 -10   14.90    6.80
   0 -13  10   55.29   16.80
  10 -13 -10    3.00    7.00
  -3 -10  10   16.10    9.90
   7 -13 -10  111.89   16.60
  -6  -7  10   70.79   13.60
   4 -13 -10   29.70   11.80
  -9  -4  10   37.30    8.70
  13  -9  10   42.20    5.90
  -9  -4  10   29.80    9.80
   1 -13 -10    7.80    9.60
  13 -12  10    6.00    6.10
  12 -14 -10   13.90    8.20
  -2 -12  10    6.80   10.20
   9 -14 -10   -0.20    7.50
   6 -14 -10   77.29   18.50
  -8  -6  10   81.99   13.20
   3 -14 -10   57.79   16.30
  14 -11  10   46.50    8.70
 -11  -3  10   56.79    8.40
 -11  -3  10   37.70    6.90
  11 -15 -10    0.50    7.20
  -4 -11  10   -1.50    7.20
   8 -15 -10   14.90   10.70
  -7  -8  10   23.80   10.90
   5 -15 -10    7.90   10.70
 -10  -5  10   -1.40    6.30
   7 -16 -10   21.60   14.70
  -9  -7  10   10.50    8.50
   0  -1 -11   -0.50    2.00
   1   0 -11   -3.10    1.80
  -1   1 -11   -2.20    1.90
   1  -1  11   -1.40    1.70
   0   1  11    1.80    2.00
  -1   0  11    1.30    2.10
  -2   0 -11    1.40    2.20
   0   2 -11   -2.90    3.00
   2  -2 -11    1.90    2.50
  -2   2  11    2.70    2.70
   2   0  11   -1.00    2.00
   0  -2  11   -0.80    2.90
   3  -1 -11  319.57   10.60
  -1  -2 -11  339.27   12.80
  -3   1  11  326.27   10.30
   1   2  11  345.27   12.90
   2  -3  11  329.57   13.40
  -3  -1 -11  230.98    9.50
   4  -3 -11  219.68    9.60
   3   1  11  220.48    9.70
   1  -4  11  226.88   12.70
  -4   3  11  243.98   10.10
  -3   2 -11  319.67   11.10
   1  -3 -11  333.37   13.30
   2   1 -11  328.37   12.20
  -2  -1  11  345.57   12.10
   3  -2  11  322.77   10.90
  -1   3  11  308.47   13.10
   5  -2 -11  352.46   11.20
  -2  -3 -11  349.57   15.10
   2   3  11  354.66   15.30
  -5   2  11  373.56   11.10
   3  -5  11  381.26   17.00
   6  -4 -11   17.30    4.10
  -4  -2 -11   12.40    3.80
  -6   4  11    7.90    3.40
   2  -6  11   14.10    6.50
   3  -4 -11  232.58   11.60
  -4   1 -11  228.88    8.00
  -3   4  11  254.57   12.40
  -1  -3  11  239.68   12.70
   4  -1  11  232.18    7.80
  -1  -3  11  214.58   11.90
   4   0 -11   -0.90    2.10
   0  -4 -11    0.60    3.20
   4  -4  11   -0.20    2.70
   0   4  11   -3.30    3.00
  -4   0  11   -1.40    2.10
   4  -4  11   -2.20    2.30
  -3  -4 -11  148.09   11.10
   7  -3 -11  147.19    6.90
   3   4  11  143.89   11.30
  -7   3  11  159.28    6.90
   4  -7  11  137.49   12.40
   8  -5 -11   36.50    5.60
  -5  -3 -11   38.30    6.90
   5   3  11   44.00    6.80
  -8   5  11   47.20    5.50
   3  -8  11   33.20    8.50
  -5   0 -11   -0.20    2.10
   5  -5 -11    3.50    3.50
   5   0  11    2.30    2.30
   0  -5  11   -5.80    2.90
  -5   5  11   -1.00    2.90
   2  -5 -11  324.27   15.90
   5  -3  11  356.26   11.70
  -3  -2  11  348.37   14.40
  -2   5  11  357.46   16.70
  -3  -2  11  354.06   17.00
  -1  -5 -11   31.10    7.10
  -6   1  11   24.80    3.50
   1   5  11   15.10    6.00
   5  -6  11   15.90    5.50
  -4  -5 -11   65.19   10.00
   4   5  11   59.99    9.40
  -9   4  11   60.49    3.70
   5  -9  11   70.99   11.60
  -6  -4 -11    8.60    5.10
  10  -6 -11   -0.20    3.10
   4 -10  11   -0.10    6.40
 -10   6  11    2.40    2.70
   6   4  11   -2.60    3.80
   7  -6 -11   -2.60    3.10
  -6  -1 -11    2.90    2.60
   1  -7  11    1.40    5.10
  -7   6  11   -5.70    2.60
   6   1  11   -2.00    2.30
   4  -6 -11   15.40    5.10
  -2  -4  11   11.20    5.20
   6  -2  11   15.30    2.50
  -4   6  11   11.90    5.40
  -2  -4  11   18.50    6.10
   1  -6 -11   18.70    6.80
  -5  -1  11   26.40    5.50
   6  -5  11   21.10    6.10
   6  -5  11   27.90    5.50
  -5  -1  11   27.20    4.90
  -1   6  11   22.90    6.70
  -2  -6 -11    0.90    4.40
   2   6  11    1.80    4.50
  -5  -6 -11   35.60    9.20
   6 -11  11   43.80   11.70
   5   6  11   19.90    9.50
  -7  -5 -11   35.00    9.00
  12  -7 -11   29.20    4.30
   5 -12  11   32.70   12.20
   7   5  11   29.50    9.10
   9  -7 -11   -1.00    3.10
  -7  -2 -11    0.10    3.00
  -9   7  11    2.40    3.90
   2  -9  11    6.80    7.10
   7   2  11   -3.30    3.20
   6  -7 -11   -2.00    4.10
   7  -1  11   -1.00    1.30
  -6   7  11   -2.60    4.10
   3  -7 -11  160.68   13.30
   7  -4  11  148.99    7.30
  -4  -3  11  140.09   10.80
  -4  -3  11  145.79   11.00
   7  -4  11  154.48    7.60
  -3   7  11  139.69   12.50
   0  -7 -11   -7.50    3.50
   7  -7  11   -1.40    3.30
   7  -7  11   -4.70    2.90
   0   7  11   -1.80    3.40
  -7   0  11   -0.20    2.30
  -7   0  11   -0.60    2.40
  -3  -7 -11    1.50    5.70
   3   7  11    9.60    7.50
   7 -10  11   17.00    7.50
  -6  -7 -11   -1.20    5.90
   7 -13  11    1.20    6.70
  -8  -6 -11   -2.60    5.70
   6 -14  11   10.40   10.40
  -8  -3 -11   33.40    7.20
  11  -8 -11   21.70    6.00
 -11   8  11   20.30    6.00
   3 -11  11   29.50   11.60
  -8   0 -11   -3.20    1.70
   8  -8 -11   -6.60    3.40
   0  -8  11    0.00    5.00
  -8   8  11    1.30    3.90
   5  -8 -11   51.59    9.70
  -5   8  11   45.70    9.40
  -3  -5  11   23.00    7.50
  -3  -5  11   24.60    7.90
   2  -8 -11    2.10    5.40
  -6  -2  11    3.60    3.90
   8  -6  11   -1.80    3.00
  -2   8  11   -0.40    4.50
   8  -6  11    8.00    4.10
  -6  -2  11    1.10    4.30
  -1  -8 -11   23.10    9.00
   8  -9  11   26.90    8.70
   8  -9  11   39.90    9.70
  -4  -8 -11    2.90    6.60
   8 -12  11   12.70    9.00
  -7  -8 -11   -1.00    7.60
   8 -15  11   13.90   10.30
  -9  -7 -11   -1.60    6.10
   7 -16  11   -7.10    9.30
  -9  -4 -11    8.40    6.30
  13  -9 -11    7.50    4.10
   4 -13  11    7.20    9.50
  -9  -1 -11   85.59    6.30
 -10   9  11   71.89    9.80
   1 -10  11   90.19   16.50
   7  -9 -11   11.40    6.30
  -2  -7  11    7.60    5.50
  -7   9  11   -5.00    3.80
   4  -9 -11   73.39   11.60
  -5  -4  11   58.29    8.90
   9  -5  11   65.69    5.00
   9  -5  11   64.09    4.90
  -4   9  11   72.89   11.40
  -5  -4  11   59.19   10.30
   1  -9 -11   26.40   10.20
   9  -8  11   36.90    8.10
   9  -8  11   16.30    6.60
  -8  -1  11   28.40    5.70
  -8  -1  11   23.40    7.60
  -2  -9 -11   12.10    7.60
   9 -11  11    6.10    6.50
  -5  -9 -11   -2.20   10.60
   9 -14  11    3.20    7.90
 -10  -5 -11    0.00    5.10
   5 -15  11   -1.70   10.00
 -10  -2 -11   14.90    4.20
  12 -10 -11   -1.90    4.30
   2 -12  11   -0.40    7.90
   9 -10 -11   73.59   11.50
  -9  10  11   85.09   11.90
  -1  -9  11   91.09   14.90
   6 -10 -11    7.70    6.50
  -4  -6  11   -1.80    4.70
  -4  -6  11    0.80    5.70
   3 -10 -11    2.60    6.40
  10  -7  11    8.90    4.20
  10  -7  11    6.30    4.00
  -7  -3  11    4.30    5.20
  -7  -3  11    3.70    4.90
   0 -10 -11   -4.90    6.10
  10 -10  11    4.80    4.80
  10 -10  11   -1.90    4.80
  -3 -10 -11    8.10    8.30
  10 -13  11   12.10    8.50
  14 -11 -11   -5.30    7.30
 -11  -3 -11   -1.10    3.00
 -11  -3 -11   -2.60    4.20
   3 -14  11    4.80    9.70
  11 -11 -11   -7.20    3.70
   0 -11  11   -1.40    6.60
   8 -11 -11   13.90    8.30
  -3  -8  11   16.50    8.40
   5 -11 -11   45.50   11.70
  -6  -5  11   29.60    9.50
  -6  -5  11   33.70    9.10
   2 -11 -11   29.10   10.60
  11  -9  11    7.40    5.70
  -9  -2  11    0.70    4.30
  -9  -2  11    7.30    4.80
  11  -9  11    9.50    5.20
  -1 -11 -11   10.00    9.30
  11 -12  11    9.30    7.30
  -4 -11 -11    7.30   10.10
  11 -15  11   -4.90    7.40
  13 -12 -11    8.20    6.90
   1 -13  11    3.60    9.10
  10 -12 -11    7.60    7.70
  -2 -10  11    6.50    8.90
   7 -12 -11   46.40   12.80
  -5  -7  11   25.80    9.30
   4 -12 -11   13.90    9.80
  12  -8  11   17.00    4.70
  -8  -4  11    1.00    5.50
  -8  -4  11    7.90   10.80
  12  -8  11    5.20    3.40
   1 -12 -11    6.10    7.00
  12 -11  11   -1.80    5.20
  12 -11  11    1.70    5.60
  -2 -12 -11   -3.20    8.20
  12 -14  11   -2.70    6.50
  12 -13 -11   -0.20    5.90
  -1 -12  11    7.00    8.60
   9 -13 -11   -7.80    5.90
  -4  -9  11   10.00    8.10
   6 -13 -11    7.70    8.00
  -7  -6  11   -7.40    4.80
   3 -13 -11    9.50    9.80
  13 -10  11   12.70    5.80
  13 -10  11   11.70    5.50
 -10  -3  11    1.90    5.10
 -10  -3  11    8.50    5.00
   0 -13 -11   -6.20    6.90
  13 -13  11   -1.90    5.60
  11 -14 -11    1.30    7.40
  -3 -11  11   -7.60    7.20
   8 -14 -11   14.30    9.40
  -6  -8  11    8.40    9.10
   5 -14 -11   18.60   12.20
  -9  -5  11   -3.60    6.50
  -9  -5  11    2.40    5.90
   2 -14 -11   -0.10   10.50
  14 -12  11    4.10    5.30
  10 -15 -11    6.30    8.50
  -5 -10  11    1.00    6.80
   7 -15 -11    4.20    9.80
  -8  -7  11    0.20    7.00
   4 -15 -11   -2.40    8.60
  15 -11  11    2.00    4.10
 -11  -4  11    0.90    5.20
   9 -16 -11   -4.40    8.20
  -7  -9  11    3.60    8.80
   0   0 -12 1876.71   37.30
   0   0  12 1922.21   37.50
  -1   2 -12  155.18    8.70
   2  -1 -12  154.28    7.20
  -1  -1 -12  150.78    7.50
   1   1  12  147.49    7.40
  -2   1  12  164.68    7.20
   1  -2  12  149.39    8.40
   1   1 -12  156.68    8.20
  -2   1 -12  155.78    7.20
   1  -2 -12  162.48    8.20
  -1  -1  12  164.68    8.10
  -1   2  12  154.98    8.10
   2  -1  12  145.89    6.90
   4  -2 -12  732.13   18.20
  -2  -2 -12  743.53   20.90
  -4   2  12  699.23   17.90
   2  -4  12  722.43   23.00
   2  -4  12  706.73   23.40
   2   2  12  708.63   20.80
  -3   0 -12 1542.85   31.60
   3  -3 -12 1528.05   34.40
   3   0  12 1546.85   31.70
  -3   3  12 1607.44   35.20
   0  -3 -12  389.66   15.30
   3   0 -12  412.36   13.20
  -3   0  12  409.26   12.80
   3  -3  12  420.96   14.60
   6  -3 -12 1161.58   26.60
  -3  -3 -12 1186.28   32.00
  -6   3  12 1196.28   26.80
   3   3  12 1210.98   32.80
   3  -6  12 1189.78   36.30
  -4  -1 -12   48.60    5.30
   5  -4 -12   43.60    5.50
   1  -5  12   37.30    7.20
   4   1  12   37.50    4.90
  -5   4  12   35.40    5.20
   2  -4 -12  708.03   22.40
  -4   2 -12  693.23   17.90
  -2   4  12  724.13   22.80
   4  -2  12  706.93   17.50
  -2  -2  12  736.83   21.80
   5  -1 -12  420.06   13.00
  -1  -4 -12  454.15   18.40
  -5   1  12  432.26   12.50
   4  -5  12  415.36   17.80
   1   4  12  424.66   18.10
   4  -5  12  439.86   17.90
  -4  -4 -12   35.00    7.30
   8  -4 -12   34.00    4.90
  -8   4  12   33.20    4.30
   4  -8  12   30.90    8.60
   4   4  12   43.30    8.10
  -5  -2 -12    5.00    3.60
   2  -7  12    7.00    6.30
   5   2  12    2.10    3.60
  -7   5  12    9.00    3.80
   4  -5 -12   40.50    7.00
  -5   1 -12   35.30    3.80
  -1  -4  12   38.20    7.30
  -4   5  12   23.20    5.90
   5  -1  12   41.40    3.80
  -1  -4  12   35.10    7.40
   1  -5 -12  422.16   18.70
  -1   5  12  427.66   19.00
   5  -4  12  449.06   15.40
   5  -4  12  394.56   15.00
  -4  -1  12  428.16   14.90
   7  -2 -12   52.29    4.40
  -2  -5 -12   49.80    8.90
   2   5  12   62.49    8.80
   5  -7  12   64.59    9.20
  -7   2  12   57.09    4.30
  10  -5 -12   45.90    4.40
  -5  -5 -12   56.09   10.50
   5 -10  12   48.40   11.80
   5   5  12   41.30    9.40
   9  -6 -12  332.47   13.90
  -6  -3 -12  314.27   15.60
  -9   6  12  347.77   14.40
   3  -9  12  380.96   23.20
   6   3  12  323.77   16.50
   6  -6 -12 1816.52   44.70
  -6   0 -12 1852.21   37.20
  -6   6  12 1820.92   45.70
   0  -6  12 1883.01   51.09
   6   0  12 1892.41   38.10
   3  -6 -12 1178.68   35.10
  -3  -3  12 1187.78   33.30
  -3   6  12 1218.98   36.10
  -3  -3  12 1150.28   32.80
   6  -3  12 1160.78   25.50
   0  -6 -12  376.66   19.60
   0   6  12  385.16   20.00
  -6   0  12  390.16   13.40
   6  -6  12  370.46   17.30
   6  -6  12  420.36   17.70
  -6   0  12  373.76   12.90
  -3  -6 -12  115.99   12.50
   6  -9  12  122.19   13.60
   3   6  12  120.89   13.00
  -6  -6 -12  186.98   16.10
   6   6  12  158.78   15.60
   6 -12  12  190.58   20.10
  11  -7 -12   41.40    6.20
  -7  -4 -12   44.20    8.70
   4 -11  12   22.40   10.30
   7   4  12   51.09    9.70
   8  -7 -12   34.90    7.40
  -7  -1 -12   27.70    5.10
   7   1  12   35.80    5.90
   1  -8  12   35.90   10.00
  -8   7  12   25.60    6.40
   5  -7 -12   11.10    5.60
  -5   7  12    8.70    5.20
  -2  -5  12    4.40    4.90
   2  -7 -12   48.70    9.50
  -5  -2  12   68.59    7.40
  -5  -2  12   51.59    7.00
  -2   7  12   62.79    9.30
   7  -5  12   49.70    7.20
   7  -5  12   54.99    6.20
  -1  -7 -12  234.88   17.30
   1   7  12  192.48   16.10
  -8   1  12  217.78    8.00
   7  -8  12  204.08   14.60
  -8   1  12  206.38    7.50
   7  -8  12  195.18   14.70
  -4  -7 -12   14.30    7.20
   7 -11  12    8.20    8.20
  -7  -7 -12   44.70   11.60
   7 -14  12   69.69   16.40
  -8  -5 -12    9.40    6.10
  13  -8 -12    2.00    2.60
  13  -8 -12   -1.10    2.20
   5 -13  12    8.70    9.70
  -8  -2 -12   17.00    5.10
  10  -8 -12   25.20    6.50
   2 -10  12   32.40   11.80
   8   2  12   21.90    6.00
 -10   8  12   17.30    5.40
   7  -8 -12   21.70    7.00
  -7   8  12   30.30    7.80
  -1  -7  12   21.50    8.30
   4  -8 -12   20.70    7.00
  -4   8  12   35.10   14.10
   8  -4  12   26.30    3.50
  -4  -4  12   21.40    6.90
  -4  -4  12   31.30    7.50
   8  -4  12   38.80    4.00
   1  -8 -12  221.58   17.60
   8  -7  12  219.48   13.60
  -1   8  12  217.68   17.30
   8  -7  12  225.18   13.40
  -7  -1  12  219.58   11.20
  -2  -8 -12  178.28   17.00
   8 -10  12  190.58   16.70
   8 -10  12  198.48   17.10
  -5  -8 -12    3.50    7.50
  -8  -8 -12    0.50    8.80
   8 -16  12    6.90    9.60
  -9  -6 -12   83.39   13.20
   6 -15  12   97.09   19.50
  -9  -3 -12   51.59    7.90
  12  -9 -12   48.80    7.90
   3 -12  12   41.90   13.60
   9  -9 -12   90.09   11.10
  -9   9  12  118.09   12.40
   0  -9  12  107.59   15.30
   6  -9 -12  328.07   19.80
  -3  -6  12  317.97   20.00
  -3  -6  12  313.47   19.80
  -6   9  12  299.97   19.60
   3  -9 -12  114.49   13.80
   9  -6  12  127.79    8.70
   9  -6  12  131.79    8.80
  -6  -3  12  114.89   10.80
  -6  -3  12  133.39   11.30
   0  -9 -12   51.59   12.40
   9  -9  12   38.40    9.30
  -9   0  12   29.40    4.50
  -9   0  12   30.20    4.40
   9  -9  12   42.50    9.20
  -3  -9 -12    2.00    6.70
   9 -12  12    2.30    6.90
  -6  -9 -12   31.20   11.70
   9 -15  12    6.00    9.30
  14 -10 -12    5.70    4.70
 -10  -4 -12   11.50    6.10
  14 -10 -12   20.80    6.10
 -10  -4 -12    9.90    7.40
   4 -14  12   16.10   10.70
  11 -10 -12   60.79    9.90
 -11  10  12   39.90    9.00
   1 -11  12   43.70   13.40
   8 -10 -12   23.70    8.20
  -8  10  12   24.00    8.00
  -2  -8  12   34.60   10.90
   5 -10 -12   32.50    9.80
  -5  -5  12   36.90    9.40
  -5  -5  12   58.79   11.50
   2 -10 -12  180.88   17.80
  10  -8  12  171.38   12.50
  -8  -2  12  201.88   12.30
  -8  -2  12  184.48   11.90
  10  -8  12  182.08   12.50
  -1 -10 -12   67.79   14.00
  10 -11  12   91.29   12.70
  -4 -10 -12    5.60    7.70
  10 -14  12   13.00    9.90
  13 -11 -12    1.10    5.30
   2 -13  12   -8.30    6.60
  10 -11 -12   74.29   11.80
  -1 -10  12   49.30   12.70
   7 -11 -12   26.40    9.70
  -4  -7  12   48.30   11.90
   4 -11 -12   20.10    9.60
  11  -7  12   27.20    5.10
  11  -7  12   21.70    4.80
  -7  -4  12    8.00    6.50
  -7  -4  12   16.50    7.30
   1 -11 -12   97.89   16.10
 -10  -1  12   78.19    6.50
  11 -10  12   60.09   10.80
 -10  -1  12   79.49    6.60
  -2 -11 -12   20.10   11.60
  11 -13  12   38.30   11.30
  15 -12 -12   17.10    6.30
   3 -15  12   21.40   20.10
  12 -12 -12   37.10   10.30
   0 -12  12   28.30   12.30
   9 -12 -12   67.79   13.90
  -3  -9  12   61.89   13.70
   6 -12 -12  145.49   17.60
  -6  -6  12  174.58   16.20
   3 -12 -12    4.70    8.20
  12  -9  12    0.20    4.00
  12  -9  12   10.50    5.30
  -9  -3  12   10.60    5.60
  -9  -3  12    1.80    4.50
   0 -12 -12    6.90    9.40
  12 -12  12    1.20    6.20
  -3 -12 -12   18.10   11.60
  12 -15  12   36.50   13.20
  14 -13 -12   27.90    8.80
   1 -14  12   17.80   12.00
  11 -13 -12    9.60    7.30
  -2 -11  12    1.20    8.00
   8 -13 -12    3.00   12.20
  -5  -8  12   -1.10    6.90
   5 -13 -12   30.70   12.00
  -8  -5  12    3.90    6.80
  -8  -5  12   13.40    7.40
   2 -13 -12   19.90   11.30
  13 -11  12   16.30    8.90
  13 -11  12   33.70    8.50
 -11  -2  12   28.20    5.40
  -1 -13 -12   32.70   15.40
  13 -14  12   20.10   16.90
  13 -14 -12   37.50   10.90
  -1 -13  12   -0.20   10.20
  10 -14 -12   -1.50    6.50
  -4 -10  12   16.30   10.70
   7 -14 -12   18.00   10.10
  -7  -7  12   51.09   12.40
   4 -14 -12   23.80   12.00
  14 -10  12   28.90    5.70
  14 -10  12   11.70    5.20
 -10  -4  12   15.00    7.30
 -10  -4  12   12.40    6.70
   1 -14 -12   21.60   13.60
  14 -13  12   24.20    9.40
  12 -15 -12   30.10   11.60
  -3 -12  12   27.00   12.40
   9 -15 -12   87.89   18.10
  -6  -9  12   70.49   15.00
   6 -15 -12    4.20   10.00
  -9  -6  12   16.40    8.20
   3 -15 -12   29.30   20.60
   8 -16 -12   -3.40    7.90
  -8  -8  12    3.00    9.50
   0   1 -13   -2.60    2.20
   1  -1 -13   -1.70    2.30
  -1   0 -13   -0.20    2.20
   0  -1  13   -1.90    2.20
   1   0  13    2.10    2.40
  -1   1  13    0.30    2.30
  -2  -1 -13   52.19    5.30
   3  -2 -13   56.79    5.30
   2   1  13   58.89    5.50
  -3   2  13   49.30    5.20
   1  -3  13   55.19    6.80
  -2   2 -13    2.10    2.90
   2   0 -13   -1.00    2.30
   0  -2 -13   -1.50    2.50
   2  -2  13   -1.30    2.60
   0   2  13   -0.10    2.70
  -2   0  13    2.00    2.60
   5  -3 -13  542.95   15.90
  -3  -2 -13  534.85   17.70
   3   2  13  526.65   20.80
   2  -5  13  505.75   20.90
  -5   3  13  548.05   16.20
   2  -3 -13   57.59    6.40
   1   2 -13   49.30    6.50
  -3   1 -13   37.70    4.50
  -1  -2  13   68.49    6.90
   3  -1  13   58.99    4.80
  -2   3  13   52.49    6.10
  -1  -3 -13   -0.10    3.00
   4  -1 -13    9.30    2.90
   1   3  13    7.10    3.80
   3  -4  13    3.90    3.70
   3  -4  13    5.90    3.80
  -4   1  13    9.50    2.70
  -4  -3 -13   55.69    8.20
   7  -4 -13   48.00    5.30
  -7   4  13   42.10    5.30
   4   3  13   62.69    7.60
   3  -7  13   56.49    9.90
  -4   0 -13   -2.80    1.90
   4  -4 -13   -2.00    2.60
   4   0  13    0.60    1.90
  -4   4  13   -0.60    3.00
   0  -4  13    4.10    3.70
   0  -4  13    2.40    4.10
   3   1 -13    6.60    3.40
   1  -4 -13    6.90    3.70
  -3  -1  13    6.10    3.20
   4  -3  13    3.20    2.70
  -1   4  13    4.10    3.30
   6  -2 -13    9.60    3.10
  -2  -4 -13   10.00    4.80
   2   4  13   15.90    5.20
   4  -6  13    5.50    5.10
  -6   2  13    8.10    2.70
   9  -5 -13  156.18    8.40
  -5  -4 -13  147.79   12.20
  -9   5  13  151.78    8.50
   4  -9  13  153.48   15.60
   5   4  13  188.78   13.40
   6  -5 -13 1443.66   35.40
  -5  -1 -13 1457.15   33.00
  -6   5  13 1456.35   36.40
   5   1  13 1510.55   34.20
   1  -6  13 1456.75   43.10
   3  -5 -13  535.05   20.20
  -5   2 -13  545.55   14.60
  -3   5  13  536.75   20.40
  -2  -3  13  497.25   19.60
  -2  -3  13  525.25   19.70
   5  -2  13  527.55   14.10
   0  -5 -13   -1.70    3.50
  -5   0  13    0.30    2.50
   0   5  13   -0.90    3.70
   5  -5  13    3.50    3.20
   5  -5  13   -2.00    2.90
   8  -3 -13   39.60    4.30
  -3  -5 -13   59.19    9.80
   5  -8  13   52.89   10.00
  -8   3  13   38.00    4.00
   3   5  13   59.69    9.20
  11  -6 -13    4.00    2.80
  -6  -5 -13    0.40    5.90
   6   5  13   -6.20    4.50
   5 -11  13   -1.90    6.20
   8  -6 -13   45.10    6.70
  -6  -2 -13   49.30    7.30
  -8   6  13   43.00    6.50
   2  -8  13   35.50    8.60
   6   2  13   46.40    7.40
  -6   1 -13 1469.75   29.30
   5  -6 -13 1436.96   38.60
  -5   6  13 1421.06   39.20
  -1  -5  13 1385.86   41.50
  -1  -5  13 1503.15   42.10
   6  -1  13 1428.16   29.20
   2  -6 -13   -0.80    3.00
  -2   6  13    6.00    4.30
  -4  -2  13    6.60    4.00
   6  -4  13    8.80    3.40
   6  -4  13   11.20    3.60
  -4  -2  13    7.20    3.70
  -1  -6 -13   37.00   13.40
   6  -7  13   30.30    7.20
   6  -7  13   31.20    7.20
  -7   1  13   29.10    4.00
   1   6  13   45.50    9.30
  -4  -6 -13   32.70    9.10
   4   6  13   26.00    8.80
   6 -10  13   33.30   10.90
  -7  -6 -13   -8.50    5.20
   6 -13  13    7.70    8.00
  -7  -3 -13    1.40    4.30
  10  -7 -13    1.00    3.30
   3 -10  13   -8.10    6.10
 -10   7  13    5.20    3.50
   7   3  13    2.20    3.70
   7  -7 -13   -6.40    2.70
  -7   0 -13   -0.40    2.30
   7   0  13    1.20    2.30
  -7   7  13   -0.60    3.70
   0  -7  13   -5.60    3.40
   4  -7 -13   38.50    7.80
  -4   7  13   29.20    6.90
   7  -3  13   50.29    3.80
   7  -3  13   40.70    3.90
  -3  -4  13   33.50    7.50
  -3  -4  13   49.20    9.10
   1  -7 -13   16.10    6.60
   7  -6  13   31.80    6.50
  -1   7  13   23.70    7.40
  -6  -1  13   35.90    5.80
   7  -6  13   22.70    5.70
  -2  -7 -13   45.20   10.70
   7  -9  13   28.90    8.60
   2   7  13   30.90    9.20
   7  -9  13   35.40    8.70
  -5  -7 -13    7.50    6.50
   7 -12  13    1.60    6.10
  -8  -7 -13   -0.10    6.00
   7 -15  13    0.00    7.80
  12  -8 -13   30.10    5.70
  -8  -4 -13   28.20    8.30
   4 -12  13    2.10    9.30
   9  -8 -13    8.80    5.50
  -8  -1 -13   19.80    4.40
  -9   8  13   15.90    5.90
   1  -9  13   26.20    9.10
   8   1  13    9.90    3.90
   6  -8 -13   46.50    9.30
  -2  -6  13   46.00   11.00
  -6   8  13   49.10    9.70
  -2  -6  13   50.29   10.20
   3  -8 -13   51.69   10.50
  -5  -3  13   52.39    8.70
  -5  -3  13   52.29    7.90
  -3   8  13   62.39   10.30
   8  -5  13   38.40    5.50
   8  -5  13   40.30    5.20
   0  -8 -13   -2.80    5.60
  -8   0  13    1.70    2.60
   0   8  13    3.70    5.80
  -8   0  13   -0.60    2.30
   8  -8  13    2.70    4.40
   8  -8  13   -4.30    3.10
  -3  -8 -13    8.10    7.50
   8 -11  13   16.00    8.40
  -6  -8 -13  -10.80    5.10
   8 -14  13    6.20    7.90
  -9  -5 -13   -2.40    5.00
   5 -14  13    2.60    8.20
  -9  -2 -13   26.20    5.80
  11  -9 -13   36.90    8.20
   2 -11  13   16.50    9.30
 -11   9  13   41.00    8.50
   8  -9 -13   15.10    6.50
  -1  -8  13   27.00    9.30
  -8   9  13    8.50    6.10
   5  -9 -13  149.09   14.60
  -5   9  13  158.28   14.90
  -4  -5  13  148.19   13.40
  -4  -5  13  140.39   13.80
   2  -9 -13   29.60    8.70
   9  -7  13   44.40    7.70
  -7  -2  13   40.30    7.30
  -7  -2  13   32.90    6.50
   9  -7  13   53.49    7.50
  -1  -9 -13    5.80    8.00
   9 -10  13   18.10    7.80
   9 -10  13    4.70    6.40
  -4  -9 -13    8.90    7.50
   9 -13  13   -1.40    6.80
 -10  -3 -13    7.90    5.30
  13 -10 -13    7.40    5.10
 -10  -3 -13   10.10    4.80
   3 -13  13    4.00    8.20
  10 -10 -13    1.40    5.00
   0 -10  13   -1.50    6.80
 -10  10  13   -3.50    4.90
   7 -10 -13    0.70    5.90
  -3  -7  13   -6.40    5.70
   4 -10 -13   20.60    8.80
  10  -6  13   32.70    5.20
  -6  -4  13   22.40    7.10
  10  -6  13   21.90    4.60
  -6  -4  13   37.30    8.50
   1 -10 -13    8.60    8.90
  10  -9  13    1.90    4.40
  10  -9  13    9.50    5.80
  -9  -1  13    8.00    4.20
  -2 -10 -13   32.70   12.20
  10 -12  13   35.50   10.80
  -5 -10 -13   10.10    9.30
  10 -15  13    3.50    7.50
 -11  -4 -13   -3.70    3.60
  15 -11 -13    8.10    4.20
   4 -15  13   -8.20    8.20
  12 -11 -13    1.60    4.90
   1 -12  13   -4.00    6.00
 -12  11  13   13.80    7.50
   9 -11 -13   35.30    9.70
  -2  -9  13   41.70   12.20
   6 -11 -13    5.90    7.20
  -5  -6  13   -2.00    5.20
  -5  -6  13   -4.30    5.20
   3 -11 -13   25.20   10.90
  -8  -3  13   20.70    7.00
  -8  -3  13   18.10    6.30
  11  -8  13   10.70    4.90
  11  -8  13   24.30    6.00
   0 -11 -13    0.80    8.10
  11 -11  13   -4.30    5.30
  11 -11  13   -0.10    6.80
  -3 -11 -13    6.40    9.10
  11 -14  13   -2.40    6.60
  14 -12 -13   -1.10    5.10
   2 -14  13    0.20    9.10
  11 -12 -13    0.00    5.20
  -1 -11  13    2.10    8.90
   8 -12 -13   55.29   13.10
  -4  -8  13   16.60    8.80
   5 -12 -13    8.50    8.80
  -7  -5  13    2.40    6.10
  -7  -5  13    6.30    6.40
   2 -12 -13   33.10   11.80
 -10  -2  13   42.30    7.40
  12 -10  13   55.19   10.20
 -10  -2  13   41.60    7.10
  12 -10  13   51.09   12.70
  -1 -12 -13   -9.60    7.10
  12 -13  13   -5.80    5.30
  13 -13 -13    2.20    5.70
   0 -13  13    3.50   10.40
  10 -13 -13   -0.80    6.40
  -3 -10  13    7.60    8.90
   7 -13 -13   -7.20    6.00
  -6  -7  13   -3.30    5.60
   4 -13 -13   -2.80    6.10
  13  -9  13   12.80    5.70
  -9  -4  13    9.70    8.20
  13  -9  13    3.40    3.40
  -9  -4  13    4.10    6.30
   1 -13 -13    7.50    9.50
  13 -12  13   -0.30    4.80
  12 -14 -13   -5.50    5.60
  -2 -12  13   11.00   10.70
   9 -14 -13   -4.50    6.40
  -5  -9  13    5.10   10.20
   6 -14 -13   -7.00    7.20
  -8  -6  13   -6.00    6.60
   3 -14 -13    4.30   10.00
  14 -11  13   -3.90    3.80
 -11  -3  13    0.40    3.90
 -11  -3  13    2.30    4.70
  11 -15 -13   -1.70    6.60
  -4 -11  13   16.70   10.50
   8 -15 -13    0.30    9.00
  -7  -8  13   -2.20    6.80
   5 -15 -13   13.00   11.10
 -10  -5  13    5.00    6.50
   1   0 -14  549.54   15.60
  -1   1 -14  545.15   15.70
   0  -1 -14  528.95   15.30
   0   1  14  547.55   15.40
   1  -1  14  535.65   15.40
  -1   0  14  547.75   15.20
  -2   0 -14 4582.14   82.89
   2  -2 -14 4626.34   84.29
   2   0  14 4546.45   82.69
   0  -2  14 4648.63   86.69
  -2   2  14 4552.84   84.19
   3  -1 -14  482.05   14.40
  -1  -2 -14  487.95   16.00
  -2   3 -14  486.65   17.40
   2  -3  14  459.15   16.70
   1   2  14  462.95   16.00
  -3   1  14  471.75   14.00
  -3  -1 -14  931.41   23.50
   4  -3 -14  949.11   24.00
   1  -4  14  974.90   28.70
  -4   3  14  973.80   24.60
   1  -4  14  944.01   29.00
   3   1  14  949.60   24.00
  -3   2 -14  478.25   14.90
   1  -3 -14  475.15   16.60
   2   1 -14  453.15   15.60
   3  -2  14  473.75   14.30
  -2  -1  14  495.15   15.70
  -1   3  14  462.55   19.70
   5  -2 -14 1200.68   27.70
  -2  -3 -14 1254.07   32.70
   3  -5  14 1248.78   35.40
   2   3  14 1239.18   33.10
  -5   2  14 1237.58   27.40
   3  -5  14 1206.58   34.30
   6  -4 -14   37.30    5.50
  -4  -2 -14   40.80    6.00
   2  -6  14   23.00    6.60
  -6   4  14   32.20    5.60
   4   2  14   33.40    6.00
   3  -4 -14  953.90   26.70
  -4   1 -14  960.90   22.30
  -3   4  14  952.30   27.10
   4  -1  14  980.90   22.00
  -1  -3  14  972.80   28.40
   4   0 -14  284.97   11.60
   0  -4 -14  291.47   14.50
  -4   0  14  295.47   11.20
   0   4  14  301.77   14.90
   7  -3 -14   69.69    5.60
  -3  -4 -14   72.29    8.50
   4  -7  14   62.89   10.00
  -7   3  14   55.49    5.20
   3   4  14   62.29    8.40
  -5  -3 -14  272.17   14.30
   8  -5 -14  277.57   12.00
   5   3  14  274.97   14.90
  -8   5  14  285.77   18.70
   3  -8  14  243.08   18.10
   5  -5 -14  474.65   18.10
  -5   0 -14  493.35   14.40
   0  -5  14  508.05   21.80
  -5   5  14  485.85   18.70
   0  -5  14  475.75   21.60
   5   0  14  475.95   14.50
   2  -5 -14 1228.28   34.40
   5  -3  14 1238.08   27.70
  -2   5  14 1141.89   33.80
  -3  -2  14 1160.08   31.10
   6  -1 -14   44.20    5.10
  -1  -5 -14   36.20    7.50
   1   5  14   38.70    8.00
   5  -6  14   41.40    7.70
   5  -6  14   48.20    7.60
  -6   1  14   39.80    4.50
   9  -4 -14  121.79    6.70
   4   5  14  129.79   12.30
  -9   4  14  127.09    6.60
   5  -9  14  139.59   14.70
  10  -6 -14  134.79    8.80
  -6  -4 -14  151.68   12.40
 -10   6  14  154.88   11.10
   4 -10  14  121.69   15.60
   6   4  14  133.39   12.30
  -6  -1 -14  401.56   14.40
   7  -6 -14  428.66   17.20
  -7   6  14  414.26   17.80
   6   1  14  397.26   15.00
   1  -7  14  397.96   21.90
   4  -6 -14   32.20    7.20
  -6   2 -14   35.80    4.40
  -2  -4  14   16.10    6.10
   6  -2  14   27.10    3.70
  -4   6  14   23.80    6.40
  -2  -4  14   18.90    5.90
   1  -6 -14   50.29    9.00
   6  -5  14   47.70    6.40
  -1   6  14   35.90    7.90
  -5  -1  14   39.90    6.10
  -5  -1  14   43.80    5.90
   6  -5  14   51.19    6.60
  -2  -6 -14  290.67   18.00
   6  -8  14  262.67   17.60
  -8   2  14  282.77    9.10
   2   6  14  266.47   17.90
   6  -8  14  314.67   19.10
  -5  -6 -14  258.07   18.20
   5   6  14  261.57   19.30
   6 -11  14  275.47   21.80
  -7  -5 -14   66.09   11.60
  12  -7 -14   63.19    5.90
   7   5  14   79.29   11.60
   5 -12  14   86.59   17.10
  -7  -2 -14  201.18   11.30
   9  -7 -14  175.18   11.70
   7   2  14  190.48   11.70
   2  -9  14  208.98   18.50
  -9   7  14  183.78   12.30
  -7   1 -14  400.06   11.40
   6  -7 -14  389.36   18.90
   7  -1  14  401.56   11.40
  -1  -6  14  396.36   21.70
  -1  -6  14  393.56   21.30
  -6   7  14  416.56   19.90
   3  -7 -14   61.89   14.70
   7  -4  14   71.69    5.80
  -4  -3  14   69.69    8.50
   7  -4  14   60.99    5.80
  -3   7  14   59.29   10.40
  -4  -3  14   79.79    8.80
   0  -7 -14  242.28   17.20
  -7   0  14  237.78   10.80
   7  -7  14  241.08   14.90
  -7   0  14  233.58   10.30
   0   7  14  225.48   16.80
   7  -7  14  239.68   14.60
  -3  -7 -14  225.98   17.90
   3   7  14  226.88   23.60
   7 -10  14  187.88   17.30
  -6  -7 -14   47.90   11.40
   7 -13  14   64.19   15.00
  -8  -6 -14   43.10   10.50
   6 -14  14   45.90   14.30
  -8  -3 -14  120.09   10.50
  11  -8 -14  118.49   10.10
 -11   8  14  117.29   10.40
   8   3  14  118.49   10.90
   3 -11  14  111.19   16.30
   8  -8 -14  194.48   13.90
  -8   0 -14  202.68    8.40
   0  -8  14  197.18   17.70
   8   0  14  214.38    8.90
  -8   8  14  217.58   15.10
   5  -8 -14  305.27   18.40
  -3  -5  14  277.27   17.30
  -3  -5  14  287.17   17.90
  -5   8  14  296.17   18.90
   2  -8 -14  315.47   19.90
  -6  -2  14  284.87   14.30
  -2   8  14  255.17   18.50
  -6  -2  14  283.27   14.40
   8  -6  14  282.87   13.90
   8  -6  14  298.67   14.00
  -1  -8 -14  205.18   17.50
  -9   1  14  187.08    9.30
   8  -9  14  203.88   15.80
  -9   1  14  214.28    7.40
  -4  -8 -14   14.00    7.70
   8 -12  14   10.40    8.00
  -7  -8 -14   29.70   10.60
   8 -15  14   34.20   13.60
  13  -9 -14    0.30    3.70
   4 -13  14   -6.40    7.00
  10  -9 -14  201.88   14.40
  -9  -1 -14  210.68    9.80
 -10   9  14  214.08   15.20
   1 -10  14  231.18   21.10
   7  -9 -14  193.08   15.40
  -2  -7  14  174.78   16.60
  -2  -7  14  171.88   16.20
  -7   9  14  193.48   16.10
   4  -9 -14  113.79   13.40
  -5  -4  14  137.69   12.80
   9  -5  14  127.29    6.90
  -4   9  14  138.69   14.70
   9  -5  14  122.79    7.10
  -5  -4  14  122.59   12.10
   1  -9 -14  173.18   17.40
   9  -8  14  224.38   14.60
   9  -8  14  195.78   14.20
  -8  -1  14  202.88   11.20
  -8  -1  14  198.48   10.90
  -2  -9 -14  203.98   19.70
   9 -11  14  221.08   18.70
   9 -14  14   29.90   11.30
 -10  -5 -14   15.20    6.90
   5 -15  14   28.70   13.50
 -10  -2 -14   61.49    9.00
 -10  -2 -14   70.69    7.10
  12 -10 -14   57.89   10.20
   2 -12  14   65.39   16.70
 -12  10  14   68.59   12.40
   9 -10 -14  214.48   16.60
  -9  10  14  248.98   18.40
  -1  -9  14  257.47   21.80
   6 -10 -14  138.09   15.10
  -4  -6  14  149.69   14.80
  -4  -6  14  142.09   14.90
   3 -10 -14  213.28   19.30
  -7  -3  14  202.98   14.00
  -7  -3  14  209.98   13.80
  10  -7  14  226.18   12.00
  10  -7  14  199.78   11.70
   0 -10 -14   85.89   15.50
  10 -10  14   62.69   11.80
  10 -10  14   75.59   10.90
 -10   0  14   74.09    4.80
 -10   0  14   71.79    6.00
  -3 -10 -14    6.50    8.00
  10 -13  14   17.20    9.30
 -11  -3 -14    4.80    5.10
  14 -11 -14   21.80    6.80
 -11  -3 -14   16.00    4.90
   3 -14  14   13.00   11.20
  11 -11 -14  155.08   14.60
   0 -11  14  168.48   19.90
   8 -11 -14  131.39   15.00
  -3  -8  14  118.79   15.80
   5 -11 -14  313.87   22.80
  -6  -5  14  230.38   17.70
  -6  -5  14  274.27   18.70
   2 -11 -14  194.18   20.20
  11  -9  14  230.38   15.30
  -9  -2  14  207.48   12.60
  11  -9  14  243.98   15.20
  -9  -2  14  239.48   13.40
  -1 -11 -14   64.29   15.80
  11 -12  14   62.49   12.30
  -4 -11 -14   25.60   12.40
  11 -15  14   28.40   11.40
  13 -12 -14   30.90    9.10
   1 -13  14   16.80   10.80
  10 -12 -14   72.19   13.50
  -2 -10  14   47.50   18.30
   7 -12 -14   50.79   13.30
  -5  -7  14   56.69   12.10
  -8  -4  14    1.30    6.50
  -8  -4  14   30.00    8.50
  12  -8  14   21.10    5.10
   1 -12 -14   63.69   16.00
  12 -11  14   77.49   14.00
  12 -11  14   52.49   10.70
  -2 -12 -14   25.00   13.40
  12 -14  14   41.40   12.10
  12 -13 -14   25.10    9.10
  -1 -12  14   14.10    9.90
   9 -13 -14   -4.60    6.20
  -4  -9  14   -1.20    7.30
   6 -13 -14   36.00   12.90
  -7  -6  14   51.19   11.30
   3 -13 -14   10.60   10.00
  13 -10  14    3.70    5.00
  13 -10  14   10.40    5.50
 -10  -3  14    7.30    5.50
 -10  -3  14   18.10    6.40
   0 -13 -14   12.10   11.20
  13 -13  14   11.30    7.10
  11 -14 -14   23.70    9.90
  -3 -11  14   12.00   10.40
   8 -14 -14   58.89   15.60
  -6  -8  14   32.80   11.30
   5 -14 -14   45.90   15.40
  -9  -5  14   46.00   13.50
  -9  -5  14   54.49   11.60
   2 -14 -14   10.90   11.70
  14 -12  14   39.60    9.50
  10 -15 -14   24.20   10.90
  -5 -10  14   41.80   13.10
   7 -15 -14   27.80   12.70
  -8  -7  14   24.20   10.00
   4 -15 -14   28.20   14.30
  15 -11  14   11.20    6.20
   0   0 -15   -0.90    2.30
   0   0  15    3.10    2.60
  -1  -1 -15  216.58    9.60
   2  -1 -15  231.68    9.60
  -1   2 -15  214.18   10.60
   1   1  15  205.28    9.40
  -2   1  15  229.58    9.40
   1  -2  15  207.88   10.20
   1   1 -15  214.68   10.20
   1  -2 -15  209.48    9.80
  -2   1 -15  199.28    9.10
  -1  -1  15  207.98    9.80
   2  -1  15  229.08    9.30
  -1   2  15  213.28    9.90
  -2  -2 -15 1069.39   27.60
   4  -2 -15 1072.69   25.50
   2   2  15 1099.49   28.70
   2  -4  15 1072.29   30.90
  -4   2  15 1065.99   25.30
  -3   0 -15    4.60    2.70
   3  -3 -15   -1.60    2.60
   0  -3  15    1.60    3.50
  -3   3  15   -0.60    2.50
   3   0  15    3.90    2.70
   3   0 -15    2.10    2.80
   0  -3 -15   -0.10    2.90
  -3   3 -15   -0.90    3.10
   0   3  15   -3.30    2.30
  -3   0  15    2.10    2.90
   3  -3  15   -4.10    2.00
   6  -3 -15 1207.98   28.30
  -3  -3 -15 1217.38   32.90
  -6   3  15 1245.58   28.60
   3  -6  15 1187.58   37.20
   3  -6  15 1175.98   36.50
   3   3  15 1213.48   33.50
   5  -4 -15   -1.40    2.70
  -4  -1 -15    0.60    2.80
  -5   4  15    5.40    3.90
   4   1  15    1.90    3.00
   1  -5  15    1.10    4.30
   1  -5  15   -4.70    3.20
   2  -4 -15 1100.79   30.00
  -4   2 -15 1076.29   25.60
  -2   4  15 1042.60   29.80
   4  -2  15 1074.19   25.00
  -2  -2  15 1106.09   33.00
  -1  -4 -15   44.20    7.10
   5  -1 -15   32.80    4.90
   1   4  15   36.30    7.20
   4  -5  15   57.79    9.10
  -5   1  15   31.10    4.50
   4  -5  15   29.90    6.40
  -4  -4 -15   -4.00    3.50
   8  -4 -15   -2.30    2.60
   4  -8  15   -0.40    4.70
   4   4  15    1.60    3.70
  -8   4  15   -5.00    1.90
  -5  -2 -15    9.40    4.30
   7  -5 -15    9.00    4.00
  -7   5  15   10.80    4.30
   5   2  15   10.40    4.40
   2  -7  15    9.10    6.30
  -5   1 -15   -0.10    2.10
   4  -5 -15    3.10    3.60
  -4   5  15    1.90    3.80
   5  -1  15   -1.80    1.70
  -1  -4  15   -4.70    2.70
  -1  -4  15   -3.10    3.10
   1  -5 -15   25.20    6.40
   5  -4  15   43.70    6.50
  -4  -1  15   38.50    6.00
  -1   5  15   25.00    6.30
  -2  -5 -15   71.69    9.30
   7  -2 -15   53.29    5.30
   5  -7  15   57.69    9.00
  -7   2  15   56.49    5.00
   5  -7  15   63.29    9.60
   2   5  15   55.69    8.60
  10  -5 -15   36.40    5.00
  -5  -5 -15   49.60    9.80
 -10   5  15   34.50    4.60
   5   5  15   55.99   10.60
   5 -10  15   52.49   11.90
  -6  -3 -15    9.00    4.60
   9  -6 -15   -1.70    3.00
   3  -9  15   -0.60    5.00
  -9   6  15    3.40    3.70
   6   3  15    2.50    4.10
  -6   0 -15    1.60    2.50
   6  -6 -15    1.40    4.00
  -6   6  15   -1.10    3.60
   0  -6  15   -1.80    3.80
   0  -6  15    4.30    5.60
   6   0  15   -2.80    2.00
   3  -6 -15 1227.38   36.20
   6  -3  15 1190.48   27.00
  -3  -3  15 1219.58   34.30
  -3   6  15 1221.28   36.70
  -3  -3  15 1177.28   33.70
   0  -6 -15   -5.30    2.90
   6  -6  15   -6.30    2.00
   6  -6  15    2.20    3.60
   0   6  15    5.30    4.90
  -6   0  15    1.80    2.70
  -3  -6 -15   -3.70    4.40
   6  -9  15    1.20    5.00
  -9   3  15    4.80    2.10
   3   6  15    3.70    5.50
   6  -9  15    3.00    5.50
  -6  -6 -15   -3.10    5.30
   6 -12  15   -6.80    6.70
  -7  -4 -15    3.50    5.30
  11  -7 -15    4.80    4.00
 -11   7  15    4.40    3.20
   7   4  15    2.90    4.80
   4 -11  15    8.10    8.10
  -7  -1 -15   33.90    5.30
   8  -7 -15   32.00    6.80
   7   1  15   32.80    5.80
   1  -8  15   35.60    9.60
  -8   7  15   43.80    8.30
   5  -7 -15   22.60    6.90
  -7   2 -15   12.00    3.20
  -5   7  15    4.50    5.00
  -2  -5  15    7.00    5.60
  -2  -5  15    2.40    4.50
   7  -2  15   20.10    3.20
   2  -7 -15   60.19    9.40
  -5  -2  15   69.49    7.70
  -2   7  15   66.39   10.00
  -5  -2  15   61.39    7.50
   7  -5  15   67.39   12.10
   7  -5  15   59.99    6.80
  -1  -7 -15    3.90    5.00
   7  -8  15    7.50    6.30
   7  -8  15    7.80    5.40
  -8   1  15    8.00    3.00
   1   7  15   13.00    7.50
  -8   1  15    8.70    2.90
  -4  -7 -15   95.89   13.40
   7 -11  15   93.19   14.60
  -7  -7 -15   14.00    8.20
   7 -14  15   -2.40    6.30
  13  -8 -15    1.40    2.70
  -8  -5 -15   -1.50    4.80
   8   5  15   -2.40    4.80
   5 -13  15   -8.30    5.90
  -8  -2 -15   61.59    7.60
  10  -8 -15   59.69    8.50
   8   2  15   65.19    8.20
 -10   8  15   60.79    8.60
   2 -10  15   52.19   12.90
   7  -8 -15   23.30    8.50
  -8   1 -15   34.90    5.60
  -1  -7  15   16.90    7.60
  -1  -7  15   32.80    9.20
  -7   8  15   33.50    8.30
   8  -1  15   39.30    3.50
   4  -8 -15    6.30    5.90
  -4  -4  15   -4.00    3.90
  -4  -4  15   -1.50    4.10
   8  -4  15    1.60    2.70
   8  -4  15    2.60    2.20
  -4   8  15   -3.80    3.90
   1  -8 -15    5.10    6.00
  -1   8  15    7.40    6.20
  -7  -1  15    0.60    3.20
   8  -7  15    3.80    3.90
   8  -7  15    4.90    4.40
  -7  -1  15    9.60    4.10
  -2  -8 -15  138.19   15.70
   8 -10  15  136.59   14.90
   8 -10  15  146.69   15.20
  -5  -8 -15   -1.40    6.70
   8 -13  15    3.60    9.40
  -9  -6 -15   19.20    8.10
   6 -15  15   14.30   12.70
  -9  -3 -15    0.90    4.40
  12  -9 -15    9.60    5.20
   3 -12  15    7.40    8.50
 -12   9  15   -1.70    3.90
  -9   0 -15    1.10    2.60
   9  -9 -15   -1.80    4.00
   0  -9  15   -3.80    6.30
   6  -9 -15    3.70    5.80
  -6   9  15    5.50    5.80
  -3  -6  15    8.90    5.90
  -3  -6  15    2.80    6.00
   3  -9 -15   -5.00    4.80
  -6  -3  15   11.50    5.60
   9  -6  15   -2.20    2.80
   9  -6  15    8.80    4.10
  -6  -3  15   -0.20    4.50
   0  -9 -15   -8.90    5.60
   9  -9  15    0.30    4.50
   9  -9  15   -5.40    4.00
  -9   0  15    3.80    3.00
  -9   0  15   -0.60    2.70
  -3  -9 -15   -3.30    5.90
   9 -12  15   -1.70    7.40
  -6  -9 -15    5.90    8.50
   9 -15  15    8.20    9.80
  14 -10 -15    3.80    4.20
 -10  -4 -15    1.00    6.10
 -10  -4 -15   -2.70    6.50
   4 -14  15  -10.40    6.40
  11 -10 -15   -2.10    3.90
 -10  -1 -15    1.30    3.00
 -10  -1 -15   -0.80    2.40
   1 -11  15   10.00    9.10
 -11  10  15    2.40    4.90
   8 -10 -15   44.40   10.40
  -2  -8  15   69.19   14.10
   5 -10 -15   51.49   11.60
  -5  -5  15   33.60    9.30
  -5  -5  15   42.20   12.00
   2 -10 -15  137.39   16.20
  -8  -2  15  119.69   10.30
  10  -8  15  124.39   11.20
  10  -8  15  110.39   10.50
  -8  -2  15  155.98   11.40
  -1 -10 -15   49.00   13.70
  10 -11  15   81.39   14.40
  -4 -10 -15   -0.80    7.90
  10 -14  15   10.70    8.60
  13 -11 -15   10.40    6.60
 -11  -2 -15    4.80    2.80
 -11  -2 -15    6.70    3.20
   2 -13  15   -0.10    8.50
  10 -11 -15    2.80    6.00
  -1 -10  15   -1.80    7.00
   7 -11 -15   -0.80    5.70
  -4  -7  15   -8.70    4.70
   4 -11 -15  110.89   15.50
  -7  -4  15  104.89   12.30
  11  -7  15   87.69    7.60
  -7  -4  15   84.79   11.40
  11  -7  15   95.59    7.70
   1 -11 -15   46.90   13.80
 -10  -1  15   68.89   11.30
  11 -10  15   49.90   10.60
 -10  -1  15   51.39    6.40
  11 -10  15   53.69   10.60
  -2 -11 -15   22.40   11.80
  11 -13  15   31.30   10.50
  15 -12 -15    1.60    5.00
   3 -15  15   24.40   21.10
  12 -12 -15   -7.80    4.20
   0 -12  15   -3.80    7.00
   9 -12 -15    1.70    6.00
  -3  -9  15   -0.10    5.90
   6 -12 -15    4.60    7.60
  -6  -6  15    7.10    5.80
   3 -12 -15    3.80    8.50
  -9  -3  15   -0.40    4.20
  12  -9  15    2.90    4.60
  -9  -3  15    8.60    5.70
  12  -9  15   -0.40    4.00
   0 -12 -15    0.30    7.40
  12 -12  15   -1.10    4.80
  -3 -12 -15    2.70    8.80
  12 -15  15   -4.90    6.60
  14 -13 -15    0.20    5.70
   1 -14  15   -0.60    8.10
  11 -13 -15    7.30    7.20
  -2 -11  15   -7.60    7.40
   8 -13 -15   -1.70    6.50
  -5  -8  15   -1.60    6.50
   5 -13 -15   29.10   12.50
  -8  -5  15    2.50    5.70
  -8  -5  15   12.00    7.80
   2 -13 -15   41.40   14.10
  13 -11  15   46.70    9.90
  13 -11  15   37.60   10.00
 -11  -2  15   36.50    7.20
 -11  -2  15   37.10    6.40
  -1 -13 -15    6.20    9.20
  13 -14  15    4.40    8.20
  13 -14 -15    6.90    7.30
  -1 -13  15    0.00    8.50
  10 -14 -15   -5.90    6.00
  -4 -10  15    0.60    8.00
   7 -14 -15   -4.40    6.80
  -7  -7  15   -0.20    6.10
   4 -14 -15    2.40    9.70
  14 -10  15    5.30    3.90
 -10  -4  15    5.30    6.00
  14 -10  15    6.60    4.10
   1 -14 -15    1.30    9.30
  14 -13  15    1.90    7.10
  12 -15 -15   11.40    9.40
  -3 -12  15   28.60   13.50
   9 -15 -15    9.20    8.90
  -6  -9  15   24.60   11.40
   6 -15 -15   -8.40    7.70
  -9  -6  15    4.40    7.40
  15 -12  15   -3.00    5.60
   1  -1 -16 1576.84   34.20
  -1   0 -16 1601.74   34.10
   0   1 -16 1560.94   35.10
   1   0  16 1606.94   33.90
  -1   1  16 1624.74   34.40
   0  -1  16 1557.94   34.70
  -1   3 -16  192.78   11.50
  -2  -1 -16  200.18    9.50
   3  -2 -16  181.68    8.90
  -3   2  16  196.78    9.30
   2   1  16  175.18    9.00
   1  -3  16  172.98   10.70
  -2   2 -16   25.40    5.00
   2   0 -16   24.50    4.70
   0  -2 -16   18.10    4.10
   2  -2  16   21.20    4.40
  -2   0  16   19.60    4.20
   0   2  16   21.70    4.60
   5  -3 -16  123.49    7.80
  -3  -2 -16  130.09    8.80
  -5   3  16  115.29    7.80
   2  -5  16  133.99   11.40
   2  -5  16  115.69   10.80
   3   2  16  125.39    9.00
  -3   1 -16  183.98    8.70
   1   2 -16  186.88   10.80
   2  -3 -16  189.68   10.20
  -1  -2  16  185.38   10.80
   3  -1  16  184.78    8.50
   4  -1 -16  926.31   23.30
  -1  -3 -16  869.31   26.00
   3  -4  16  916.11   27.10
  -4   1  16  928.41   22.80
   1   3  16  950.40   27.10
  -4  -3 -16  440.76   18.10
   7  -4 -16  439.56   15.40
   3  -7  16  436.26   22.50
  -7   4  16  445.76   15.70
   4   3  16  489.75   19.50
   3  -7  16  436.86   32.30
   4  -4 -16 1951.40   43.40
  -4   0 -16 1913.31   39.60
   4   0  16 1893.71   39.60
   0  -4  16 1883.41   47.50
   0  -4  16 1893.01   46.90
  -4   4  16 1912.91   43.70
   3   1 -16  878.61   25.10
   1  -4 -16  900.21   27.20
  -4   3 -16  937.21   24.90
   4  -3  16  924.01   24.00
  -3  -1  16  891.81   24.40
  -1   4  16  922.31   27.70
   6  -2 -16  542.55   16.30
  -2  -4 -16  537.35   21.30
   4  -6  16  550.44   22.60
   2   4  16  524.55   21.50
   4  -6  16  508.25   22.20
  -6   2  16  504.45   15.40
  -5  -4 -16   70.59    9.10
   9  -5 -16   74.49    6.70
   4  -9  16   81.29   12.70
  -9   5  16   70.19    6.80
   5   4  16   63.49    9.30
  -5  -1 -16   65.99    6.70
   6  -5 -16   69.79    7.70
   5   1  16   59.19    6.40
   1  -6  16   88.79   10.70
   1  -6  16   59.59   10.60
  -6   5  16   60.69    7.60
   3  -5 -16  126.89   10.40
  -5   2 -16  118.49    7.20
   5  -2  16  124.39    7.00
  -2  -3  16  125.39   10.20
  -3   5  16  152.18   11.10
   0  -5 -16   27.20    7.00
   5   0 -16   29.10    5.10
  -5   0  16   32.80    5.20
   5  -5  16   20.00    5.60
   5  -5  16   38.50    7.00
   0   5  16   24.30    6.80
   8  -3 -16   55.69    5.30
  -3  -5 -16   57.59   10.00
   5  -8  16   46.20   11.60
   3   5  16   67.49   11.00
  -8   3  16   51.49    5.00
   5  -8  16   70.49   10.50
  11  -6 -16   42.20    5.50
  -6  -5 -16   44.20   10.10
   6   5  16   56.09   11.60
   5 -11  16   38.80   11.00
 -11   6  16   41.60    5.20
  -6  -2 -16   64.09    7.30
   8  -6 -16   62.39    7.40
  -8   6  16   49.60    7.20
   6   2  16   64.29    7.60
   2  -8  16   72.29   11.70
   5  -6 -16   61.89    8.40
  -6   1 -16   63.19    5.40
  -1  -5  16   73.79    9.80
   6  -1  16   59.19    5.10
  -1  -5  16   80.29   10.20
  -5   6  16   65.49    8.50
   2  -6 -16  493.15   21.90
   6  -4  16  520.25   16.90
  -2   6  16  510.55   22.40
  -4  -2  16  529.65   19.30
  -4  -2  16  482.75   18.60
  -1  -6 -16  118.69   12.00
   6  -7  16   85.19   10.00
  -7   1  16   88.89    6.20
   6  -7  16   76.19    9.80
   1   6  16  110.89   11.80
  -4  -6 -16  208.28   16.10
   6 -10  16  164.38   16.90
   4   6  16  182.08   15.80
  -7  -6 -16   12.80    7.20
   6 -13  16   18.90   10.20
  10  -7 -16   60.49    7.60
  -7  -3 -16   60.59    8.60
 -10   7  16   67.39    7.90
   7   3  16   53.09    8.50
   3 -10  16   63.59   14.60
   7  -7 -16  166.48   12.10
  -7   0 -16  159.28    8.10
   0  -7  16  165.58   15.10
   7   0  16  154.68    8.40
   0  -7  16  173.28   15.40
  -7   7  16  169.08   12.80
   4  -7 -16  473.75   21.90
   7  -3  16  451.45   13.20
  -3  -4  16  443.36   20.60
  -3  -4  16  454.95   20.70
  -4   7  16  490.75   22.70
   1  -7 -16  114.99   12.30
  -1   7  16  119.69   16.50
  -6  -1  16   88.29    7.70
  -6  -1  16   88.29    7.90
   7  -6  16  109.99    9.50
   7  -6  16   99.49    9.20
  -2  -7 -16   86.59   12.50
   2   7  16   73.69   11.70
   7  -9  16   72.79   12.30
  -9   2  16  111.69    6.40
   7  -9  16   77.69   11.70
  -9   2  16   81.69    4.90
  -5  -7 -16  101.39   13.70
   7 -12  16  128.49   16.50
  -8  -7 -16   41.40   10.60
   7 -15  16   40.30   15.90
  12  -8 -16   15.10    5.00
  -8  -4 -16   37.70   13.20
 -12   8  16   -1.00    3.80
   4 -12  16   17.20   16.50
   8   4  16   10.90    5.80
  -8  -1 -16   -4.40    2.50
   9  -8 -16    3.60    4.50
  -9   8  16   -1.60    3.40
   1  -9  16  -11.00    4.30
   8   1  16    1.90    3.60
   6  -8 -16   65.59    9.80
  -6   8  16   68.99   10.10
  -2  -6  16   61.69   11.00
  -2  -6  16   79.09   12.40
   8  -2  16   61.19    3.60
   3  -8 -16   70.09   10.80
  -5  -3  16   45.90    7.70
   8  -5  16   47.90    6.30
  -5  -3  16   63.29    8.60
   8  -5  16   50.39    6.00
  -3   8  16   56.89   11.10
   0  -8 -16   34.10   10.10
  -8   0  16   47.70    6.10
  -8   0  16   46.80    5.80
   8  -8  16   51.39    9.70
   8  -8  16   57.49    8.90
  -3  -8 -16    9.60    7.40
   8 -11  16    0.00    5.50
  -6  -8 -16   11.60    8.20
   8 -14  16    6.20    9.10
  -9  -5 -16   26.50    7.70
  14  -9 -16   19.00    4.40
   5 -14  16   50.69   14.40
  11  -9 -16   89.59   17.60
  -9  -2 -16   87.09    8.30
 -11   9  16   77.19   10.10
   2 -11  16   62.79   14.50
   8  -9 -16    4.00    5.20
  -8   9  16    9.00    6.00
  -1  -8  16    0.50    6.00
   5  -9 -16   85.69   12.10
  -4  -5  16   62.19   10.30
   9  -4  16   77.79    4.20
  -4  -5  16   70.39   10.80
  -5   9  16   75.89   11.50
   2  -9 -16   86.49   12.90
  -7  -2  16   88.09    9.20
   9  -7  16   89.09    9.20
  -7  -2  16  101.79    9.60
   9  -7  16   82.29    8.90
  -1  -9 -16    4.20    7.60
   9 -10  16    6.30    5.90
   9 -10  16   -1.00    4.60
  -4  -9 -16   10.70    8.20
   9 -13  16    6.60    9.80
 -10  -3 -16    3.00    4.00
   3 -13  16   -0.30    6.90
  10 -10 -16   88.89   11.50
 -10  10  16   74.59   11.50
   0 -10  16   82.89   15.00
   7 -10 -16   46.60   10.50
  -3  -7  16   48.40   11.20
   4 -10 -16  175.18   17.80
  10  -6  16  187.88    9.70
  10  -6  16  205.78   10.00
  -6  -4  16  179.58   14.70
  -6  -4  16  184.18   17.10
   1 -10 -16    7.40    7.50
  -9  -1  16   13.70    4.60
  10  -9  16    9.40    7.20
  -9  -1  16    9.70    4.60
  10  -9  16    6.60    5.60
  -2 -10 -16   71.89   22.00
  10 -12  16   35.60   11.10
  -5 -10 -16   30.90   12.40
  10 -15  16    4.50    8.10
 -11  -4 -16   23.20    6.40
  15 -11 -16   22.30    5.90
   4 -15  16   13.90   13.00
  12 -11 -16   13.10    6.90
   1 -12  16    2.30    8.00
   9 -11 -16   88.49   12.80
  -2  -9  16   95.79   15.70
   6 -11 -16   23.50   10.20
  -5  -6  16   36.20    9.80
  -5  -6  16   38.30    9.70
   3 -11 -16   -6.40    6.10
  11  -8  16    5.50    4.70
  11  -8  16    6.50    4.40
  -8  -3  16    4.60    4.90
  -8  -3  16    6.10    5.60
   0 -11 -16   25.30   11.60
  11 -11  16   -0.90    4.80
  -3 -11 -16   -0.90    8.90
  11 -14  16   20.40   10.60
  14 -12 -16   14.40    7.20
   2 -14  16    1.50   10.10
  11 -12 -16   13.60    7.60
  -1 -11  16   14.20   10.10
   8 -12 -16    9.90    8.10
  -4  -8  16    6.60    7.70
   5 -12 -16   99.19   16.20
  -7  -5  16  100.69   13.00
  -7  -5  16   74.19   12.20
   2 -12 -16   37.00   13.40
  12 -10  16   27.70    8.60
 -10  -2  16   36.70    7.60
  12 -10  16   33.30    8.00
 -10  -2  16   52.29    7.80
  -1 -12 -16   23.00   12.50
  12 -13  16   14.00    8.00
  13 -13 -16   33.70   10.30
   0 -13  16   41.20   13.70
  10 -13 -16   -3.60    5.00
  -3 -10  16    4.40    7.80
   7 -13 -16   12.60   10.10
  -6  -7  16   17.10    9.50
   4 -13 -16  -10.80    6.30
  13  -9  16    4.40    3.90
  -9  -4  16   10.50    8.00
  13  -9  16   -0.70    3.20
  -9  -4  16   -6.00    5.00
   1 -13 -16    4.10    9.70
  13 -12  16   11.40    7.20
  12 -14 -16   -3.10    6.50
  -2 -12  16   12.50   10.50
   9 -14 -16    8.00    7.90
  -5  -9  16   19.10    9.70
   6 -14 -16   36.80   13.90
  -8  -6  16   10.00    8.10
   3 -14 -16   25.80   12.80
 -11  -3  16    6.80    4.70
 -11  -3  16   10.60    6.90
  11 -15 -16   29.00   11.50
  -4 -11  16   31.00   13.50
   8 -15 -16   27.90   12.30
  -7  -8  16   50.19   23.90
   5 -15 -16   34.50   14.10
 -10  -5  16   20.40    8.00
  -1   1 -17   -1.70    2.50
   1   0 -17   -3.00    2.60
   0  -1 -17   -0.20    2.40
   0   1  17    1.10    2.70
   1  -1  17   -1.00    2.80
  -1   0  17    0.80    2.70
  -2   0 -17    3.20    2.90
   2  -2 -17   -2.30    2.60
   0   2 -17   -6.40    3.20
   0  -2  17   -0.60    3.20
   2   0  17    1.00    2.60
  -2   2  17    1.40    2.70
   3  -1 -17  197.68    9.40
  -2   3 -17  173.48   10.80
  -1  -2 -17  186.98   10.10
  -3   1  17  191.78    9.00
   1   2  17  180.58   11.70
   4  -3 -17   73.09    6.60
  -3  -1 -17   63.59    6.20
   1  -4  17   81.79    8.80
  -4   3  17   79.09    6.80
   3   1  17   84.39    6.80
   2   1 -17  165.58    9.80
   1  -3 -17  182.48   10.20
  -3   2 -17  174.88    9.30
  -1   3  17  179.18   10.30
  -2  -1  17  184.98    9.70
   3  -2  17  185.38    9.10
   5  -2 -17  105.79    7.30
  -2  -3 -17  131.99    9.70
   3  -5  17  100.69    9.90
  -5   2  17  110.59    7.20
   2   3  17  103.49    9.00
   3  -5  17  117.99   10.40
   6  -4 -17   88.49    7.50
  -4  -2 -17   91.79    8.10
   4   2  17   99.99    8.30
   2  -6  17   99.49   11.00
   2  -6  17   83.99   10.50
  -6   4  17   90.09    7.80
  -4   1 -17   71.29    6.00
   3  -4 -17   78.49    7.70
  -3   4  17   90.19    8.20
   4  -1  17   71.09    5.60
  -1  -3  17   73.59    8.10
   0  -4 -17    0.40    3.40
   4   0 -17    0.90    2.90
   0   4  17   -1.00    3.50
  -4   0  17    1.30    2.50
   4  -4  17    3.40    3.10
   7  -3 -17   13.90    3.90
  -3  -4 -17   10.30    5.00
   3   4  17    7.00    4.70
  -7   3  17    8.20    3.20
   4  -7  17   -3.00    3.50
   4  -7  17    8.00    5.80
   8  -5 -17   28.70    5.70
  -5  -3 -17    8.00    4.40
   3  -8  17   13.80    7.50
  -8   5  17   17.60    4.90
   5   3  17    6.90    4.80
   3  -8  17   16.80    8.00
  -5   0 -17   -1.30    2.70
   5  -5 -17   -0.10    3.40
   0  -5  17    4.90    4.70
   0  -5  17   -4.20    3.60
   5   0  17    0.90    2.50
  -5   5  17    0.90    3.50
  -5   3 -17  118.29    8.20
   2  -5 -17  100.49    9.70
  -2   5  17  107.49   10.10
   5  -3  17  112.39    7.40
  -3  -2  17  130.39    9.50
   6  -1 -17   36.40    5.40
  -1  -5 -17   19.00    6.50
   1   5  17   25.20    6.60
   5  -6  17   26.80    6.70
  -6   1  17   35.60    5.40
   5  -6  17   22.60    6.70
   9  -4 -17   59.99    5.90
  -4  -5 -17   60.69    9.70
  -9   4  17   62.69    5.80
   4   5  17   64.99   10.40
   5  -9  17   65.09   12.90
   5  -9  17   36.70   11.10
  -6  -4 -17   88.49   10.30
  10  -6 -17   90.69    8.00
   4 -10  17   96.89   14.80
 -10   6  17   79.89    7.70
   6   4  17   97.09   11.00
  -6  -1 -17  336.07   13.40
   7  -6 -17  304.87   15.00
   1  -7  17  303.77   19.80
  -7   6  17  309.07   15.70
   1  -7  17  318.97   20.20
  -6   2 -17   97.59    6.80
   4  -6 -17   94.59    9.90
  -4   6  17  109.89   10.30
  -2  -4  17   89.99    9.90
  -2  -4  17   97.89   10.10
   6  -2  17   92.39    6.10
   1  -6 -17   32.80    7.80
   6  -5  17   23.60    5.80
   6  -5  17   43.30    7.10
  -5  -1  17   28.90    5.80
  -1   6  17   25.70    6.70
  -2  -6 -17   33.40    8.60
   8  -2 -17   31.20    5.00
   6  -8  17   34.70    9.30
  -8   2  17   37.50    4.50
   6  -8  17   44.30    9.10
  -5  -6 -17    7.90    7.10
   5   6  17    5.10    6.10
   6 -11  17   14.60    8.20
  12  -7 -17   22.40    5.40
  -7  -5 -17   10.10    6.70
   5 -12  17   21.90   11.60
   7   5  17   16.60    7.60
  -7  -2 -17   28.10    6.30
   9  -7 -17   15.10    5.80
   7   2  17   13.40    5.20
  -9   7  17   32.70    7.10
   2  -9  17   29.40    9.50
   6  -7 -17  320.07   17.10
  -7   1 -17  315.47   10.90
  -1  -6  17  277.67   18.50
  -1  -6  17  308.77   19.20
  -6   7  17  312.37   17.50
   7  -1  17  325.67   11.00
   3  -7 -17    2.10    5.00
   7  -4  17    9.00    3.60
   7  -4  17    5.60    3.10
  -4  -3  17    6.50    4.30
  -4  -3  17   16.20    5.60
  -3   7  17    1.80    3.80
   0  -7 -17    0.70    4.30
  -7   0  17    1.00    2.80
   7  -7  17   -1.10    4.00
   0   7  17   -0.80    3.70
  -7   0  17    0.10    2.90
   7  -7  17   -3.30    3.00
  -3  -7 -17    1.50    5.60
   7 -10  17   -2.80    5.70
  -6  -7 -17    3.10    6.60
   7 -13  17   -4.90    6.70
  -8  -6 -17   -0.10    5.90
   6 -14  17   -7.80    6.90
  11  -8 -17   90.69    9.40
  -8  -3 -17   86.79    9.70
   3 -11  17  115.99   16.60
   8   3  17   85.79   10.00
 -11   8  17   80.49    9.10
  -8   0 -17   -1.90    2.50
   8  -8 -17   -8.00    6.20
   8   0  17   -0.10    2.50
  -8   8  17    3.40    4.80
   0  -8  17    1.10    6.50
   5  -8 -17   11.60    6.20
  -5   8  17   15.50    7.80
   8  -3  17   11.70    2.70
  -3  -5  17    9.00    6.40
   2  -8 -17   32.70    9.00
   8  -6  17   48.10    8.10
   8  -6  17   47.70    7.80
  -2   8  17   38.10    9.30
  -6  -2  17   43.40    7.10
  -6  -2  17   35.00    7.10
  -1  -8 -17  134.49   15.10
   8  -9  17  100.29   12.30
  -9   1  17  108.59    6.50
   8  -9  17  101.49   12.10
  -9   1  17  114.69    7.00
  -4  -8 -17   11.20    7.90
   8 -12  17   15.50    8.10
  -7  -8 -17   20.90    8.60
   8 -15  17    0.60    9.30
  13  -9 -17    3.90    4.10
  -9  -4 -17    3.50    5.80
   4 -13  17   -0.70    7.40
  -9  -1 -17    4.80    3.40
  10  -9 -17    3.90    4.70
 -10   9  17    0.40    4.80
   1 -10  17    2.40    7.30
   9   1  17    7.60    4.00
   7  -9 -17   26.50    7.90
  -7   9  17   31.20    9.20
  -2  -7  17   28.40    8.70
  -2  -7  17   11.30    7.00
   4  -9 -17   74.09   11.90
   9  -5  17   65.29    5.90
  -5  -4  17   69.99   11.50
  -5  -4  17   72.89   10.40
   9  -5  17   69.19    6.30
   1  -9 -17  100.29   14.50
  -8  -1  17   98.99    9.00
   9  -8  17  121.59   11.50
   9  -8  17  103.69   11.10
  -8  -1  17  102.79    8.90
  -2  -9 -17    3.80    7.20
   9 -11  17    2.50    6.70
  -5  -9 -17   -1.40    7.30
   9 -14  17    1.90    7.10
 -10  -5 -17    4.00    6.00
   5 -15  17   13.80   11.60
  12 -10 -17    6.40    5.80
 -10  -2 -17    2.60    3.50
   2 -12  17   22.80   11.80
 -12  10  17    0.10    4.80
   9 -10 -17    8.40    6.60
  -9  10  17    4.40    6.80
  -1  -9  17   -4.60    5.80
   6 -10 -17   85.49   13.00
  -4  -6  17  101.59   13.50
  -4  -6  17   89.69   13.00
   3 -10 -17   -7.30    4.50
  10  -7  17    2.70    3.70
  -7  -3  17   -3.00    4.10
  -7  -3  17    8.60    5.50
  10  -7  17   -2.80    3.00
   0 -10 -17    4.00    8.00
  10 -10  17   -1.90    4.90
  10 -10  17    2.70    4.80
 -10   0  17   -0.60    2.40
 -10   0  17    1.60    2.70
  -3 -10 -17   11.10    8.80
  10 -13  17    5.10    7.30
  14 -11 -17    5.30    4.80
 -11  -3 -17    4.50    6.60
 -11  -3 -17    9.10    4.50
   3 -14  17   10.20   10.30
  11 -11 -17   -0.20    5.20
   0 -11  17   -1.50    7.30
   8 -11 -17   84.39   13.00
  -3  -8  17  107.39   17.80
   5 -11 -17   12.00    8.20
  -6  -5  17   14.10    7.30
  11  -6  17   12.40    2.60
  11  -6  17   12.10    3.20
  -6  -5  17    6.00    6.10
   2 -11 -17    0.90    7.70
  -9  -2  17    7.80    5.10
  -9  -2  17   -1.80    3.70
  11  -9  17   -1.80    3.80
  11  -9  17    0.10    4.80
  -1 -11 -17    0.30    7.80
  11 -12  17    5.80    6.90
  -4 -11 -17   -1.20    7.90
  11 -15  17   -4.50    8.00
  13 -12 -17    3.10    6.20
   1 -13  17    8.40   10.30
  10 -12 -17   -1.90    6.40
  -2 -10  17    2.90   10.40
   7 -12 -17    4.90    7.20
  -5  -7  17   13.10    8.00
   4 -12 -17    1.10    9.80
  12  -8  17    4.50    3.90
  -8  -4  17    5.60   11.60
  12  -8  17    5.40    4.00
  -8  -4  17   16.60    6.80
   1 -12 -17   12.30   10.40
  12 -11  17    1.50    4.70
  12 -11  17    2.90    6.00
 -11  -1  17    0.60    2.70
 -11  -1  17    1.60    2.90
  -2 -12 -17    1.30    9.10
  12 -14  17    3.70    7.80
  12 -13 -17    6.20    6.50
  -1 -12  17   -2.10    7.70
   9 -13 -17    3.90   10.40
  -4  -9  17   17.00   10.00
   6 -13 -17    8.40    8.20
  -7  -6  17    8.40    7.10
   3 -13 -17    3.00    9.20
 -10  -3  17    6.70    5.50
 -10  -3  17   16.50    6.50
  13 -10  17    7.20    5.00
  13 -10  17    8.00    5.00
   0 -13 -17   -6.20    7.50
  13 -13  17   -4.90    5.10
  11 -14 -17    7.00    8.10
  -3 -11  17    9.40    9.30
   8 -14 -17    2.10    7.20
  -6  -8  17   -0.40    5.90
   5 -14 -17    5.20    8.80
  -9  -5  17    0.50    5.90
   2 -14 -17    2.40    8.50
  14 -12  17    0.20    6.00
  10 -15 -17   14.80    9.00
  -5 -10  17    6.10    8.30
   7 -15 -17   17.40   10.10
  -8  -7  17    8.20    8.00
   4 -15 -17   -2.00    9.10
 -11  -4  17   -3.20    5.00
  15 -11  17   -0.10    5.00
   0   0 -18   99.39    7.10
   0   0  18   92.89    6.80
   2  -1 -18 3378.76   64.29
  -1  -1 -18 3192.98   63.89
  -1   2 -18 3396.36   66.69
   1   1  18 3270.97   64.09
   1  -2  18 3299.67   65.79
  -2   1  18 3325.47   63.79
   1   1 -18 3311.97   66.19
  -2   1 -18 3379.86   64.69
   1  -2 -18 3387.06   65.89
  -1   2  18 3303.97   65.49
  -1  -1  18 3325.37   65.69
   2  -1  18 3402.36   64.39
  -2  -2 -18  847.12   24.10
   4  -2 -18  855.91   22.60
   2  -4  18  866.41   27.10
  -4   2  18  822.02   22.10
   2   2  18  810.72   24.00
   3  -3 -18  620.14   19.30
   0   3 -18  617.44   22.00
  -3   0 -18  627.64   18.00
   3   0  18  601.74   17.60
  -3   3  18  641.04   20.70
   0  -3  18  596.64   21.20
   0  -3 -18  163.78   10.20
  -3   3 -18  168.28   10.30
   3   0 -18  153.58    9.00
   3  -3  18  163.18   10.20
   0   3  18  172.18   10.40
  -3   0  18  160.08    8.90
  -3  -3 -18   30.90    6.50
   6  -3 -18   28.40    5.30
   3  -6  18   23.80    7.40
  -6   3  18   33.80    5.20
   3  -6  18   25.20    6.70
   3   3  18   14.60    4.70
   5  -4 -18  835.92   23.90
  -4  -1 -18  777.12   22.40
   1  -5  18  824.22   28.60
   1  -5  18  836.02   29.20
   4   1  18  801.12   22.90
  -5   4  18  796.82   24.10
   2  -4 -18  819.02   25.30
   2   2 -18  818.72   25.50
  -4   2 -18  897.71   22.80
  -2  -2  18  803.72   24.50
  -2   4  18  783.52   25.30
   4  -2  18  847.82   21.70
  -1  -4 -18  367.66   17.20
   5  -1 -18  378.76   14.00
   1   4  18  369.16   17.30
   4  -5  18  404.06   17.90
  -5   1  18  361.96   13.20
   4  -5  18  350.36   16.70
  -4  -4 -18  405.06   19.30
   8  -4 -18  449.26   15.60
  -8   4  18  418.36   15.20
   4  -8  18  437.96   23.60
   4   4  18  418.46   20.20
   4  -8  18  504.35   25.10
  -5  -2 -18  157.98   10.30
   7  -5 -18  127.39    9.40
   2  -7  18  127.79   14.00
   5   2  18  138.39   10.10
   2  -7  18  153.58   14.10
  -7   5  18  135.59    9.80
  -5   1 -18  815.02   21.10
   4  -5 -18  840.72   26.10
   5  -1  18  807.82   20.60
  -1  -4  18  770.12   27.10
  -1  -4  18  841.32   28.30
  -4   5  18  772.62   26.00
   1  -5 -18  356.06   17.60
   4   1 -18  366.06   15.50
   5  -4  18  350.96   14.50
  -4  -1  18  361.96   14.60
  -1   5  18  352.46   17.70
  -2  -5 -18   61.99   10.30
   7  -2 -18   76.99    6.60
   5  -7  18   84.19   10.30
  -7   2  18   70.69    6.00
   5  -7  18   79.69   10.20
   2   5  18   55.49    8.70
  -5  -5 -18  195.98   15.10
  10  -5 -18  185.38    9.60
   5 -10  18  194.08   18.50
 -10   5  18  164.68    9.00
   9  -6 -18    0.20    3.30
  -6  -3 -18    0.70    3.90
  -9   6  18    0.50    3.50
   3  -9  18    2.40    6.60
   6   3  18   -1.00    3.70
   6  -6 -18  264.57   14.40
  -6   0 -18  268.87   11.30
   0  -6  18  269.97   19.90
  -6   6  18  280.57   15.30
   6   0  18  291.67   11.80
   0  -6  18  268.87   17.60
  -6   3 -18   28.50    5.50
   3  -6 -18   23.60    6.50
   6  -3  18   26.40    4.70
  -3  -3  18   27.60    6.50
  -3  -3  18   31.30    6.90
  -3   6  18   20.50    6.00
   6  -6  18  152.88   11.40
   0   6  18  132.49   12.30
  -6   0  18  129.99   10.10
   6  -6  18  135.59   11.00
  -3  -6 -18  236.18   17.00
   9  -3 -18  264.17   10.60
   3   6  18  292.67   19.10
   6  -9  18  242.58   18.50
   6  -9  18  262.77   19.10
  -9   3  18  264.57   10.00
  -6  -6 -18   28.20    8.70
   6 -12  18   42.70   13.60
  11  -7 -18   85.39    8.40
   4 -11  18   78.19   15.10
   7   4  18   86.69   10.90
 -11   7  18   75.89    8.00
   8  -7 -18  254.57   14.70
  -7  -1 -18  236.08   11.60
   1  -8  18  263.97   20.00
  -8   7  18  287.17   16.00
   1  -8  18  222.28   18.30
   7   1  18  256.67   12.50
   5  -7 -18  147.49   12.50
  -7   2 -18  154.78    7.80
  -2  -5  18  150.58   13.30
   7  -2  18  138.69    7.00
  -5   7  18  144.69   12.70
  -2  -5  18  156.08   13.60
   2  -7 -18   65.19    9.80
   7  -5  18   70.09    7.20
  -5  -2  18   80.19    8.60
  -2   7  18   69.49   10.40
  -5  -2  18   66.49    7.90
   7  -5  18   68.29    7.40
  -1  -7 -18  205.08   16.30
   1   7  18  238.78   17.70
   7  -8  18  196.98   15.20
   7  -8  18  184.68   15.50
  -8   1  18  212.38    9.60
  -4  -7 -18  257.67   19.30
   7 -11  18  233.68   20.50
  -7  -7 -18   12.70    7.80
   7 -14  18    9.70    9.10
  -8  -5 -18   39.20    9.70
  13  -8 -18   50.29    6.20
   5 -13  18   61.09   15.70
   8   5  18   34.70    9.80
  -8  -2 -18  418.66   17.10
  10  -8 -18  409.76   19.10
 -10   8  18  381.66   19.40
   8   2  18  421.36   18.00
   2 -10  18  474.45   28.60
  -8   1 -18  255.97    9.50
   7  -8 -18  242.78   16.20
  -1  -7  18  253.67   18.80
  -7   8  18  270.37   17.40
   8  -1  18  242.08    9.30
  -1  -7  18  255.77   19.00
   4  -8 -18  460.65   23.30
   8  -4  18  429.26   14.30
  -4  -4  18  423.06   20.80
  -4   8  18  461.65   23.90
   8  -4  18  422.26   13.90
  -4  -4  18  454.45   21.60
   1  -8 -18  212.78   17.50
   8  -7  18  214.08   13.90
  -7  -1  18  184.78   11.60
   8  -7  18  206.18   13.50
  -7  -1  18  205.98   11.60
  -1   8  18  205.58   17.10
  -2  -8 -18   47.10   11.60
   8 -10  18   37.90    9.70
  -5  -8 -18   28.10   10.30
   8 -13  18    8.40    8.60
  -9  -6 -18    5.20    6.30
   6 -15  18    4.60   10.50
  12  -9 -18   16.90    6.00
  -9  -3 -18   14.90    5.70
   9   3  18   15.30    6.00
   3 -12  18    7.80    8.80
 -12   9  18   16.10    6.10
   9  -9 -18   37.30    8.20
  -9   0 -18   29.30    4.60
  -9   9  18   17.10    7.40
   0  -9  18   34.90   10.90
   9   0  18   25.50    4.30
   6  -9 -18    1.30    5.10
  -3  -6  18   -5.10    3.90
  -3  -6  18    9.90    6.90
  -6   9  18    5.30    5.80
   3  -9 -18  266.97   19.80
  -6  -3  18  286.67   16.30
   9  -6  18  259.97   13.10
  -6  -3  18  260.87   16.00
   9  -6  18  279.07   13.20
   0  -9 -18  474.65   27.60
   9  -9  18  435.06   26.80
  -9   0  18  452.15   16.20
   9  -9  18  490.25   23.40
  -9   0  18  446.16   16.70
  -3  -9 -18   52.39   12.60
   9 -12  18   76.99   15.20
  -6  -9 -18   28.40   11.40
   9 -15  18    8.10   11.10
  14 -10 -18   23.00    6.50
   4 -14  18   24.10   13.00
  11 -10 -18  284.17   17.90
 -10  -1 -18  272.57   10.90
 -11  10  18  254.07   17.90
   8 -10 -18  431.86   23.80
  -2  -8  18  443.96   26.90
   5 -10 -18  173.38   17.20
  -5  -5  18  153.48   14.80
  10  -5  18  161.68    7.20
  10  -5  18  176.58    7.20
  -5  -5  18  174.18   15.30
   2 -10 -18   56.49   13.50
  -8  -2  18   41.40    8.10
  -8  -2  18   47.30    8.30
  10  -8  18   44.20    8.60
  10  -8  18   44.50    8.80
  -1 -10 -18   33.90   11.80
  10 -11  18   59.39   12.40
  -4 -10 -18   25.70   11.30
  10 -14  18   17.90   10.00
  13 -11 -18   12.80    6.80
 -11  -2 -18   12.50    3.70
 -11  -2 -18   20.20    5.40
 -13  11  18   30.60    9.00
   2 -13  18    8.40    7.90
  10 -11 -18  297.87   20.20
  -1 -10  18  275.57   23.80
   7 -11 -18   88.19   13.50
  -4  -7  18   89.49   13.60
   4 -11 -18  269.97   22.20
  -7  -4  18  251.67   17.10
  11  -7  18  236.08   11.70
  -7  -4  18  243.98   17.80
  11 -10  18   48.10   10.80
  11 -10  18   50.29   10.40
 -10  -1  18   41.10    6.50
 -10  -1  18   41.40    6.40
  -2 -11 -18   23.60   10.70
  11 -13  18   28.40   10.70
  12 -12 -18    0.70    5.50
   0 -12  18   -1.80    8.80
   9 -12 -18   17.90    8.20
  -3  -9  18   33.90   11.00
   6 -12 -18   60.69   13.70
  -6  -6  18   68.19   13.20
   3 -12 -18   94.59   18.20
  -9  -3  18   53.19    9.70
  -9  -3  18   65.59   10.00
  12  -9  18   63.89    9.00
  12  -9  18   72.89    9.00
   0 -12 -18  106.79   19.40
  12 -12  18  119.69   14.40
  14 -13 -18   16.70    8.10
   1 -14  18   20.00   12.70
  11 -13 -18   26.10    9.50
  -2 -11  18   11.70   10.30
   8 -13 -18   30.80   10.70
  -5  -8  18   53.19   12.80
   5 -13 -18   30.00   12.70
  -8  -5  18   15.40    7.60
  -8  -5  18   13.00   11.60
   2 -13 -18   21.30   11.10
 -11  -2  18   23.70    5.90
  13 -11  18   22.30    8.40
  13 -11  18   25.00    8.00
 -11  -2  18   26.20    6.30
  -1 -13 -18    5.70    9.70
  13 -14  18   24.70   10.30
  13 -14 -18   18.80    9.70
  -1 -13  18    2.10   10.60
  10 -14 -18   39.40   12.40
  -4 -10  18   23.70   11.40
   7 -14 -18   -1.70    6.70
  -7  -7  18    8.40    7.40
   4 -14 -18   22.60   10.70
 -10  -4  18   16.50    7.30
  14 -10  18   23.20    6.10
 -10  -4  18    8.40    7.30
  14 -10  18   36.10    6.60
   1 -14 -18   25.20   12.90
  14 -13  18   26.40    9.40
   9 -15 -18   13.30   10.10
  -6  -9  18   -0.30    7.70
   6 -15 -18   25.10   12.50
  -9  -6  18   12.40    8.50
   1  -1 -19   -1.80    2.50
   0   1 -19    3.00    3.60
  -1   0 -19    0.40    2.60
  -1   1  19   -0.80    2.70
   1   0  19    5.30    2.90
   0  -1  19   -2.40    2.40
   3  -2 -19  306.07   12.40
  -2  -1 -19  316.97   12.50
  -1   3 -19  284.17   14.40
   1  -3  19  297.57   14.20
   2   1  19  319.47   12.50
  -3   2  19  293.47   12.20
   0  -2 -19   -0.60    2.80
  -2   2 -19    0.50    2.90
   2   0 -19   -3.90    2.30
   2  -2  19   -0.10    2.50
  -2   0  19   -1.60    2.60
  -3  -2 -19  107.59    8.60
   5  -3 -19  115.29    8.10
   2  -5  19   99.79   10.20
   2  -5  19  119.99   11.00
   3   2  19  103.69    8.50
  -3   1 -19  300.57   12.00
   2  -3 -19  293.57   13.20
   1   2 -19  309.37   14.30
  -1  -2  19  305.37   13.70
  -2   3  19  315.07   13.70
   3  -1  19  309.37   11.90
   4  -1 -19    0.90    2.80
  -1  -3 -19   -0.40    3.10
  -4   1  19    6.00    3.30
   3  -4  19   -4.30    2.90
   1   3  19    3.40    3.10
  -4  -3 -19  127.29   10.30
   7  -4 -19  120.29    8.60
   3  -7  19  114.39   12.50
   3  -7  19  114.29   12.70
  -7   4  19  111.49    8.40
   4   3  19  117.89   10.30
  -4   0 -19    1.00    2.60
   4  -4 -19    0.20    3.10
   0  -4  19   -5.80    3.00
   4   0  19   -1.10    2.40
  -4   4  19   -2.00    2.90
   3   1 -19   -1.20    3.00
   1  -4 -19    1.40    3.40
  -4   3 -19    1.30    3.10
  -1   4  19    0.90    3.20
  -3  -1  19   -0.80    2.50
   4  -3  19    3.20    2.90
  -2  -4 -19  527.35   21.10
   6  -2 -19  511.15   16.80
  -6   2  19  489.55   16.00
   2   4  19  510.85   21.30
   4  -6  19  515.25   22.60
   4  -6  19  518.25   22.10
  -5  -4 -19    4.60    4.50
   9  -5 -19    6.90    3.80
   4  -9  19    7.20    6.50
   5   4  19    2.30    4.30
  -9   5  19    2.80    3.60
   6  -5 -19   48.90    7.10
  -5  -1 -19   36.50    5.90
  -6   5  19   48.60    7.80
   5   1  19   62.09    6.70
   1  -6  19   60.99    9.40
   1  -6  19   38.20    8.80
  -5   2 -19  134.59    8.10
   3  -5 -19  128.09   10.50
  -3   5  19  115.09   10.20
   5  -2  19  101.59    6.90
  -2  -3  19  103.59    9.50
   5   0 -19   -2.40    2.90
   0  -5 -19    1.20    4.20
   5  -5  19    2.20    3.40
   5  -5  19    6.70    3.90
  -5   0  19    2.40    4.70
   0   5  19   -4.20    3.00
   8  -3 -19   32.50    5.40
   5  -8  19   27.80    8.40
  -8   3  19   28.70    5.20
   5  -8  19   12.90    6.50
   3   5  19   21.30    7.20
  -6  -5 -19   82.49   11.10
  11  -6 -19   92.69    7.60
   5 -11  19   61.99   13.60
 -11   6  19   81.49    7.40
   6   5  19   80.69   13.70
  -6  -2 -19   41.40    7.40
   8  -6 -19   46.90    7.80
  -8   6  19   43.20    7.10
   2  -8  19   42.00   10.30
   6   2  19   43.70    6.90
   2  -8  19   34.20    9.60
  -6   1 -19   48.00    5.50
   5  -6 -19   35.90    7.20
  -1  -5  19   48.40    9.60
  -5   6  19   52.89    8.20
  -1  -5  19   49.80    9.50
   6  -1  19   48.40    5.20
   2  -6 -19  509.35   22.40
  -4  -2  19  468.85   18.80
  -2   6  19  547.05   23.20
   7  -1 -19   16.00    4.70
  -1  -6 -19   15.00    6.80
   1   6  19   11.50    6.30
   6  -7  19   16.00    6.00
   6  -7  19   11.60    6.10
  -7   1  19   13.70    4.10
  10  -4 -19   31.80    5.10
  -4  -6 -19   14.30    7.80
 -10   4  19   26.20    4.10
   6 -10  19   35.30   10.50
   4   6  19   27.00    8.90
  -7  -6 -19   -0.10    5.30
   6 -13  19   -0.40    8.10
  10  -7 -19    3.90    3.90
  -7  -3 -19    0.00    4.00
   7   3  19   -0.50    4.20
   3 -10  19    6.20    7.80
 -10   7  19    0.10    3.70
   7  -7 -19   -0.40    3.80
  -7   0 -19    3.60    3.00
  -7   7  19    1.20    4.20
   0  -7  19    0.70    4.40
   7   0  19    2.10    2.80
   0  -7  19   -4.30    4.20
   4  -7 -19  126.89   16.00
  -7   3 -19  111.59    7.70
  -3  -4  19  124.49   11.50
  -4   7  19  103.59   11.50
  -3  -4  19  130.79   11.90
   7  -3  19  106.89    6.90
   1  -7 -19    2.00    4.70
   7  -6  19    9.00    4.90
  -1   7  19   14.30    6.70
  -6  -1  19   11.80    4.70
   7  -6  19   11.50    5.20
  -2  -7 -19   35.70    9.60
  -9   2  19   27.50    4.50
   2   7  19   36.60   10.00
   7  -9  19   40.00   10.10
   7  -9  19   12.00    7.60
  -5  -7 -19    2.30    5.80
   7 -12  19   26.60   10.20
  -8  -7 -19   -5.70    6.40
   7 -15  19   -5.10    7.10
  -8  -4 -19    5.80    5.70
  12  -8 -19   11.10    4.90
   4 -12  19   16.90    9.60
   8   4  19   11.30    6.10
 -12   8  19    2.30    3.50
  -8  -1 -19   35.30    6.20
   9  -8 -19   34.20    8.30
   1  -9  19   36.20   11.20
   8   1  19   44.20    7.10
  -9   8  19   30.90    8.10
  -8   2 -19   34.40    4.30
   6  -8 -19   46.80    9.30
  -2  -6  19   40.70   10.00
  -2  -6  19   48.10   10.20
   8  -2  19   45.60    4.30
   3  -8 -19   29.00    8.10
  -5  -3  19   14.60    6.00
  -3   8  19   17.40    7.40
   8  -5  19   37.70    7.90
   8  -5  19   27.30    5.50
  -5  -3  19   20.70    6.20
   0  -8 -19   -1.70    4.80
   8  -8  19    3.90    4.70
  -8   0  19   -0.50    3.00
   8  -8  19    5.60    4.80
  -8   0  19   -1.60    3.10
  -3  -8 -19   16.50    8.20
   8 -11  19    6.60    7.80
  -6  -8 -19    6.10    7.50
   8 -14  19    5.90    8.90
  -9  -5 -19    7.40    6.50
  14  -9 -19   -2.60    2.90
   5 -14  19    0.80    7.40
  11  -9 -19   -4.70    4.20
  -9  -2 -19   -1.60    3.50
   9   2  19    3.80    3.90
   2 -11  19   -3.80    6.80
 -11   9  19    3.70    4.90
   8  -9 -19   42.10    9.10
  -8   9  19   40.90   10.50
  -1  -8  19   36.50   10.70
   9  -1  19   31.80    3.80
   5  -9 -19   -0.20    5.50
  -4  -5  19   -6.00    4.80
  -5   9  19    7.70    6.10
   9  -4  19    9.50    3.10
   9  -4  19    7.20    2.80
   2  -9 -19   73.19   13.70
  -7  -2  19   39.90    7.80
  -7  -2  19   43.60    7.90
   9  -7  19   43.70    8.10
   9  -7  19   36.20    8.20
  -1  -9 -19   16.30    8.90
   9 -10  19   14.50    7.10
 -10   1  19   16.50    3.50
   9 -10  19   29.00    9.70
 -10   1  19   30.50    4.40
  -4  -9 -19   12.50    9.00
   9 -13  19   -4.50   11.20
  13 -10 -19    4.80    5.00
 -10  -3 -19   -2.60    3.60
   3 -13  19    1.20    9.00
 -13  10  19    1.50    5.00
  10 -10 -19    8.60    6.40
 -10  10  19    2.00    5.70
   0 -10  19   -3.80    6.10
   7 -10 -19    1.30    5.50
  -3  -7  19   15.30    8.50
   4 -10 -19   34.10    9.90
  10  -6  19   29.80    6.00
  -6  -4  19   13.40    6.80
  -6  -4  19   25.90    8.00
  10  -6  19   27.40    5.60
   1 -10 -19   19.20    8.60
  10  -9  19    6.40    5.80
  -9  -1  19   16.30    5.40
  10  -9  19    6.30    5.90
  -9  -1  19   17.90    5.00
  -2 -10 -19   -2.60    7.50
  10 -12  19    8.10    7.70
  -5 -10 -19   23.60   11.40
  10 -15  19   31.40   12.40
 -11  -4 -19   12.30    5.60
  15 -11 -19    6.80    5.00
   4 -15  19   13.00   11.70
  12 -11 -19   -2.90    4.90
   1 -12  19   -6.50    7.70
   9 -11 -19    0.30    5.40
  -2  -9  19   -2.80    6.40
   6 -11 -19  106.49   15.20
  -5  -6  19   74.59   12.30
   3 -11 -19   15.20    8.90
  11  -8  19   10.10    5.20
  11  -8  19   23.80    6.60
  -8  -3  19   14.50    6.40
  -8  -3  19   17.30    7.20
   0 -11 -19    3.20    8.20
  11 -11  19    1.20    6.60
  -3 -11 -19    6.60    9.80
  11 -14  19   36.00   12.70
  14 -12 -19    4.90    5.90
   2 -14  19  -10.80    6.50
  11 -12 -19    0.40    5.50
  -1 -11  19   -3.20    6.90
   8 -12 -19    0.20    7.00
  -4  -8  19   -3.60    6.30
   5 -12 -19   11.60   11.70
  12  -7  19   14.60    3.30
  -7  -5  19    5.30    6.90
  12  -7  19   16.60    3.60
  -7  -5  19   17.70    8.30
   2 -12 -19    3.60    8.80
  12 -10  19   -1.40    5.20
  12 -10  19    4.30    5.80
 -10  -2  19    8.00    4.70
 -10  -2  19    3.00    4.00
  -1 -12 -19   -1.50    7.10
  12 -13  19   19.80    9.00
  13 -13 -19    1.90    6.80
   0 -13  19    0.70    8.80
  -3 -10  19    8.90    9.10
   7 -13 -19    3.90    8.20
  -6  -7  19    1.80    6.10
   4 -13 -19    1.30    8.40
  -9  -4  19    0.80    5.60
  13  -9  19    0.40    3.60
  13  -9  19    2.40    3.60
  -9  -4  19    0.40    6.30
   1 -13 -19   -6.60    7.80
  13 -12  19    5.00    6.60
  12 -14 -19   -3.60    6.00
  -2 -12  19    2.80    8.00
   9 -14 -19   -8.00    5.20
  -5  -9  19    3.00    7.30
   6 -14 -19    0.60    7.80
  -8  -6  19   12.50    8.20
   3 -14 -19   13.80   11.10
 -11  -3  19    9.50    5.40
  14 -11  19   20.10    8.50
  11 -15 -19    0.70    7.20
  -4 -11  19    0.40    9.70
   8 -15 -19   -4.80    7.20
  -7  -8  19    6.60    8.50
   5 -15 -19    7.10   10.00
 -10  -5  19   18.20    8.50
  -1   1 -20  581.74   18.20
   0  -1 -20  574.04   17.80
   1   0 -20  542.05   17.70
   1  -1  20  604.14   18.20
  -1   0  20  520.45   17.20
   2  -2 -20    3.60    3.00
  -2   0 -20    6.20    3.20
   0   2 -20    7.60    4.20
   0  -2  20    3.40    3.30
   2   0  20    7.50    3.20
  -2   2  20   -0.80    3.30
   3  -1 -20    1.10    3.10
  -1  -2 -20    1.20    3.00
  -2   3 -20    6.20    4.10
   2  -3  20    2.90    3.40
   1   2  20    4.40    3.00
  -3   1  20    1.50    2.70
  -3  -1 -20 2014.30   44.20
   4  -3 -20 2060.99   45.00
   1  -4  20 2060.89   50.09
  -4   3  20 2046.00   45.00
   2   1 -20    5.60    4.10
  -3   2 -20   -0.20    2.80
   1  -3 -20    2.10    3.40
   3  -2  20    1.00    2.60
  -1   3  20   -1.60    2.90
  -2  -1  20    0.90    3.20
  -2  -3 -20   24.40    5.70
   5  -2 -20   26.70    5.30
   3  -5  20   23.00    6.30
   2   3  20   40.60    7.30
  -5   2  20   25.20    4.80
  -4  -2 -20  560.54   19.70
   6  -4 -20  545.05   18.80
  -6   4  20  584.44   19.70
   2  -6  20  530.35   23.90
   2  -6  20  610.04   25.70
   4   2  20  561.94   20.30
   3  -4 -20 2081.89   48.20
  -4   1 -20 2138.89   44.50
   1   3 -20 2131.89   51.09
  -1  -3  20 2077.79   49.90
   4  -1  20 2095.29   43.80
  -3   4  20 2078.29   48.60
   0  -4 -20  647.74   22.80
   4   0 -20  604.14   19.80
   4  -4  20  576.54   20.50
   0   4  20  611.94   22.70
   7  -3 -20  185.38   10.30
  -3  -4 -20  217.68   13.70
   4  -7  20  202.78   19.90
  -7   3  20  194.88   10.50
   3   4  20  213.58   14.20
   4  -7  20  209.98   15.80
   8  -5 -20  103.29    8.70
  -5  -3 -20   91.09    9.40
   5   3  20   93.29    9.70
  -8   5  20   94.49    8.60
   3  -8  20   91.59   12.50
   3  -8  20   88.29   12.50
   5  -5 -20   93.29    8.90
  -5   0 -20   95.69    7.40
   5   0  20   95.29    7.20
   0  -5  20   96.79   11.00
   0  -5  20   98.29   10.80
  -5   5  20  111.19    9.60
   3   2 -20   26.40    6.20
   2  -5 -20   21.30    6.00
  -5   3 -20   21.60    5.20
   5  -3  20   24.00    4.60
  -2   5  20   17.70    6.00
  -3  -2  20   27.20    6.00
  -1  -5 -20   95.79   10.50
   6  -1 -20  110.59    8.50
   1   5  20   97.79   10.50
   5  -6  20  111.19   10.60
  -6   1  20  123.79    8.00
   5  -6  20  106.19   10.60
   9  -4 -20  330.37   13.30
  -4  -5 -20  334.87   18.90
  -9   4  20  344.67   13.30
   5  -9  20  377.96   23.00
   4   5  20  278.57   18.20
   5  -9  20  285.07   20.60
  -6  -4 -20   12.40    7.00
  10  -6 -20    3.90    4.40
   6   4  20   10.90    6.30
 -10   6  20    8.50    4.20
   4 -10  20   -4.30    6.30
   7  -6 -20   11.80    5.20
  -6  -1 -20   11.80    4.50
  -7   6  20   25.90    6.50
   6   1  20   19.60    4.90
   1  -7  20    7.20    6.70
   1  -7  20    7.70    6.70
   4  -6 -20  507.15   21.80
  -6   2 -20  532.35   16.80
  -4   6  20  542.15   23.00
   6  -2  20  555.04   16.40
  -2  -4  20  541.05   22.90
  -2  -4  20  582.04   23.50
   1  -6 -20   98.09   11.50
  -1   6  20  104.59   11.00
   6  -5  20   99.69    8.70
  -5  -1  20   90.39    8.20
   6  -5  20  108.59    9.10
   8  -2 -20   19.10    4.80
  -2  -6 -20   21.90    7.40
   6  -8  20    3.50    5.40
   2   6  20   22.60    7.50
   6  -8  20    8.80    6.20
  -8   2  20   18.30    4.20
  -5  -6 -20   89.59   14.20
  11  -5 -20   63.69    5.80
   5   6  20   48.80   11.50
   6 -11  20   91.79   14.20
 -11   5  20   77.29    5.80
  12  -7 -20   37.30    6.20
  -7  -5 -20   12.90    6.70
   5 -12  20   18.50   12.20
   7   5  20   24.70    9.00
 -12   7  20   16.20    6.10
   9  -7 -20    8.00    5.00
  -7  -2 -20   10.30    4.70
   2  -9  20    7.90    6.80
   7   2  20   15.60    5.60
  -9   7  20   16.70    6.10
   6  -7 -20   15.80    5.70
  -7   1 -20   17.30    4.20
   7  -1  20    8.90    3.40
  -6   7  20   11.70    5.50
  -1  -6  20   24.20    7.90
   3  -7 -20  243.08   16.30
  -4  -3  20  225.48   14.00
  -4  -3  20  203.78   13.60
   7  -4  20  205.28   10.50
  -3   7  20  199.78   15.20
   0  -7 -20   11.10    6.30
  -7   0  20   24.80    5.40
   7  -7  20   32.40    8.00
   0   7  20   14.40    6.30
   7  -7  20   28.80    7.60
  -3  -7 -20   84.49   12.70
   7 -10  20   90.99   13.40
 -10   3  20   95.09    5.80
  -6  -7 -20   17.20    8.60
   7 -13  20    5.40    8.30
  -8  -6 -20   11.30    7.00
   6 -14  20   -3.70    7.00
  11  -8 -20   45.90    8.40
  -8  -3 -20   24.30    6.70
 -11   8  20   38.40    8.10
   8   3  20   26.00    7.40
   3 -11  20   34.50   11.80
  -8   0 -20   59.79    6.40
   8  -8 -20   66.09   10.50
   0  -8  20   43.60   11.20
  -8   8  20   64.99    9.60
   8   0  20   52.49    6.30
   5  -8 -20   91.59   11.60
   8  -3  20  100.29    6.20
  -5   8  20   94.89   11.80
  -3  -5  20   81.79   11.20
  -3  -5  20  103.19   11.90
   2  -8 -20   10.10    6.70
   8  -6  20    8.00    4.70
   8  -6  20   14.40    5.60
  -2   8  20   16.80    7.80
  -6  -2  20   15.90    5.20
  -6  -2  20   10.30    5.10
  -1  -8 -20   48.60   11.60
   8  -9  20   47.40   10.50
  -9   1  20   45.30    6.00
   8  -9  20   53.99   11.10
  -9   1  20   44.20    5.50
  -4  -8 -20  118.59   15.50
   8 -12  20  119.99   16.30
  -7  -8 -20   28.90   16.60
   8 -15  20    0.40    8.10
  -9  -4 -20   13.50    6.30
  13  -9 -20   21.20    6.00
   9   4  20   17.70   11.80
 -13   9  20   15.50    5.60
   4 -13  20   30.00   12.10
  -9  -1 -20   98.39    8.20
  10  -9 -20  120.49   12.10
 -10   9  20   96.79   13.70
   1 -10  20   96.99   15.60
   9   1  20   96.19    9.10
   7  -9 -20   17.20    7.40
  -2  -7  20   18.10    7.90
  -7   9  20   14.50    7.30
   9  -2  20   16.90    2.80
   4  -9 -20  327.97   21.10
  -5  -4  20  371.46   19.90
   9  -5  20  314.27   13.30
   9  -5  20  317.97   12.80
  -5  -4  20  319.17   21.90
   1  -9 -20   45.30   11.60
  -8  -1  20   44.20    7.50
   9  -8  20   44.50    8.90
   9  -8  20   46.20    9.70
  -8  -1  20   45.60    7.90
  -2  -9 -20   18.50    9.30
   9 -11  20   17.80    9.10
  -5  -9 -20   14.80    9.30
   9 -14  20   -3.60    7.50
 -10  -5 -20   10.80    6.20
   5 -15  20   13.40   11.70
  12 -10 -20   15.60    6.90
 -10  -2 -20   19.50    5.70
   2 -12  20    1.00    9.40
 -12  10  20   17.20    7.40
   9 -10 -20  119.19   13.50
  -1  -9  20   83.39   16.00
   6 -10 -20   17.70    8.20
  -4  -6  20   10.60    7.30
  -4  -6  20   10.90    7.30
   3 -10 -20   88.79   14.50
  -7  -3  20  108.29   11.30
  -7  -3  20   86.79   10.80
  10  -7  20  114.19    9.60
  10  -7  20   93.09    9.40
   0 -10 -20   40.40   11.10
  10 -10  20   43.40   10.20
 -10   0  20   37.00    5.90
 -10   0  20   54.99    6.50
  10 -10  20   65.29   12.60
  -3 -10 -20   75.69   15.80
  10 -13  20   90.69   20.10
 -11  -3 -20    7.70    4.50
  14 -11 -20    1.70    5.20
   3 -14  20   14.90   10.50
  11 -11 -20   12.10    7.40
   0 -11  20    9.20    9.00
   8 -11 -20   25.50    9.10
  -3  -8  20   18.00    9.40
   5 -11 -20   99.29   14.70
  -6  -5  20   64.99   12.40
  11  -6  20   68.59    5.60
  -6  -5  20   91.69   12.60
  11  -6  20   71.39    5.60
   2 -11 -20   12.60    9.20
  -9  -2  20    4.40    4.50
  -9  -2  20   11.10    5.30
  11  -9  20   10.50    6.40
  11  -9  20   16.40    7.40
  -1 -11 -20   24.50   11.60
  11 -12  20   12.90    7.80
  -4 -11 -20   -4.50    8.10
  11 -15  20    9.90    9.70
  13 -12 -20   21.90    8.70
   1 -13  20   24.00   13.20
  10 -12 -20    7.60    7.20
  -2 -10  20    9.10    9.00
   7 -12 -20   50.39   12.20
  -5  -7  20   28.20   10.00
   4 -12 -20  169.28   19.50
  12  -8  20  101.59    8.70
  -8  -4  20   97.79   12.60
  -8  -4  20   83.89   12.10
  12  -8  20  106.39    9.10
   1 -12 -20   29.80   12.50
 -11  -1  20   29.40    5.70
  12 -11  20   26.90    8.70
  12 -11  20   20.50    9.00
  -2 -12 -20    3.80   11.30
  12 -14  20   15.00    9.40
  12 -13 -20   21.10    8.90
  -1 -12  20   21.20   13.10
   9 -13 -20   30.00   10.90
   6 -13 -20   15.40   10.10
  -7  -6  20   12.10    7.60
   3 -13 -20   91.39   18.80
 -10  -3  20   69.99   10.10
 -10  -3  20   85.89   11.10
  13 -10  20   69.39    9.70
  13 -10  20   61.59   10.50
   0 -13 -20   59.79   16.40
  13 -13  20   21.60    9.20
  11 -14 -20    5.60    6.50
  -3 -11  20   -7.30    7.30
   8 -14 -20   -1.20    6.40
  -6  -8  20    6.00    7.30
   5 -14 -20   21.30   12.10
  -9  -5  20   11.30    7.00
   2 -14 -20   23.00   11.80
  14 -12  20    5.90    6.60
 -12  -2  20   17.10    4.50
  10 -15 -20   21.00   10.70
  -5 -10  20   10.40    9.60
   7 -15 -20    6.50    9.70
  -8  -7  20    6.90    7.30
   4 -15 -20   -0.80    8.00
 -11  -4  20   -1.40    5.60
   0   0 -21   -0.60    3.40
   0   0  21    2.20    3.00
  -1  -1 -21   20.40    4.60
   2  -1 -21   24.50    4.90
  -1   2 -21   21.40    5.10
   1  -2  21   22.30    4.80
   1   1  21   24.00    5.70
  -2   1  21   24.00    4.60
   1  -2 -21   16.90    4.50
   1   1 -21   24.70    5.20
  -2   1 -21   32.20    5.30
  -1   2  21   22.50    4.70
  -1  -1  21   20.80    7.90
   2  -1  21   14.60    4.00
   4  -2 -21   67.59    6.80
  -2  -2 -21   60.99    7.00
   2  -4  21   64.09    7.90
   2   2  21   71.99    7.30
   0   3 -21   -2.60    3.20
  -3   0 -21   -2.20    2.20
   3  -3 -21   -3.70    2.60
   0  -3  21   -1.20    2.90
  -3   3  21   -3.10    2.50
   3   0  21   -1.90    2.20
   0  -3 -21    2.50    3.40
   3   0 -21   -0.40    2.80
  -3   3 -21   -2.10    3.00
   0   3  21    5.50    3.40
   3  -3  21   -0.80    3.00
   6  -3 -21  130.99    9.00
  -3  -3 -21  142.79   10.70
   3  -6  21  140.19   12.50
   3  -6  21  121.09   11.80
   3   3  21  146.19   11.00
  -6   3  21  106.99    8.20
   5  -4 -21  420.06   16.70
  -4  -1 -21  393.76   15.30
   1  -5  21  396.36   19.80
   1  -5  21  412.86   19.80
   4   1  21  406.76   15.70
  -5   4  21  411.96   16.80
   2   2 -21   64.59    7.90
   2  -4 -21   60.49    7.50
  -2   4  21   66.69    7.70
  -2  -2  21   63.39    7.40
  -1  -4 -21   27.40    6.40
   5  -1 -21   28.40    5.50
   4  -5  21   33.00    7.10
   1   4  21   39.10    7.60
   8  -4 -21   41.60    6.30
  -4  -4 -21   27.00    7.50
   4   4  21   40.70    8.40
   4  -8  21   59.39   12.10
  -8   4  21   37.20    5.90
   4  -8  21   31.30    9.20
   7  -5 -21   46.80    7.00
  -5  -2 -21   56.19    7.40
   5   2  21   45.20    7.10
   2  -7  21   47.00    9.70
  -7   5  21   49.00    7.20
   2  -7  21   46.20   10.10
   4  -5 -21  443.56   18.50
  -5   1 -21  403.36   14.70
  -1  -4  21  433.66   20.00
  -4   5  21  413.56   18.40
   5  -1  21  420.26   14.40
  -5   4 -21   33.30    6.90
   1  -5 -21   35.10    7.60
   4   1 -21   42.40    7.30
   5  -4  21   28.20    5.90
  -4  -1  21   36.80    6.50
  -1   5  21   17.40    5.60
  -2  -5 -21   75.89    9.90
   7  -2 -21   98.09    7.80
   2   5  21   67.79    9.50
   5  -7  21   62.59    9.60
   5  -7  21   68.59   10.10
  -7   2  21   71.19    6.80
  10  -5 -21  146.69    9.50
  -5  -5 -21  143.19   13.40
   5 -10  21  118.19   15.70
   5   5  21  159.98   14.90
   9  -6 -21   23.70    5.80
  -6  -3 -21   13.90    5.50
  -9   6  21   19.20    5.60
   6   3  21   23.60    6.20
   3  -9  21   23.00    8.80
   6  -6 -21   -5.30    2.80
  -6   0 -21    2.90    3.40
  -6   6  21    1.00    4.00
   0  -6  21   -4.50    4.60
   6   0  21    1.40    2.90
   0  -6  21   -4.50    3.80
  -6   3 -21  128.09    9.00
   3  -6 -21  132.69   11.90
  -3  -3  21  148.99   11.50
  -3   6  21  134.59   11.80
   6  -3  21  133.99    8.40
   6   0 -21   -6.20    2.80
   0  -6 -21    0.60    4.30
  -6   0  21    0.40    3.00
   6  -6  21   -3.90    2.70
   0   6  21    3.30    4.60
   6  -6  21    0.20    3.70
   9  -3 -21   45.00    6.10
  -3  -6 -21   54.49   10.80
   6  -9  21   51.69   11.20
   6  -9  21   42.60   10.70
  -9   3  21   56.99    5.90
   3   6  21   59.79   11.80
  -6  -6 -21    2.40    6.50
  12  -6 -21    2.60    2.90
 -12   6  21    2.10    2.50
   6 -12  21   -4.70    5.80
  11  -7 -21   15.50    5.50
  -7  -4 -21   27.70    7.30
 -11   7  21   15.00    5.30
   4 -11  21   30.30   11.60
   7   4  21    8.60    6.40
  -7  -1 -21   57.79    7.00
   8  -7 -21   51.59    8.40
   1  -8  21   49.99   11.90
  -8   7  21   49.40    9.00
   7   1  21   41.40    6.50
  -7   2 -21   44.40    5.60
  -5   7  21   55.49    9.60
  -2  -5  21   60.19    9.80
   7  -2  21   47.60    5.10
   2  -7 -21   71.79   10.40
  -2   7  21   70.39   10.30
   7  -5  21   74.79    7.70
  -5  -2  21   77.09    8.60
   7  -5  21   77.49    7.90
  -1  -7 -21   27.00    8.50
   1   7  21    6.20    6.90
   7  -8  21    7.90    5.10
   7  -8  21   22.00    8.20
  -4  -7 -21   14.80    8.20
   7 -11  21   21.70   10.30
  -7  -7 -21   14.70    8.30
   7 -14  21   11.00    9.90
  13  -8 -21    5.90    3.80
  -8  -5 -21    5.10    5.40
   5 -13  21   17.50    9.40
 -13   8  21   -3.00    2.90
   8   5  21   10.50    7.00
  -8  -2 -21   87.99    9.10
  10  -8 -21   96.99   11.00
   8   2  21   97.89    9.70
   2 -10  21  124.59   16.80
 -10   8  21  101.29   11.20
   7  -8 -21   49.90    9.40
  -8   1 -21   51.69    5.60
  -1  -7  21   35.50   10.20
   8  -1  21   56.69    5.60
  -7   8  21   49.40   11.30
  -1  -7  21   45.20   10.80
   4  -8 -21   41.90    9.60
  -4  -4  21   33.60    8.30
   8  -4  21   45.80    5.50
  -4   8  21   33.00    8.70
  -4  -4  21   19.10    6.80
   1  -8 -21   31.60    9.20
   8  -7  21   16.10    5.90
   8  -7  21   15.80    6.10
  -7  -1  21   19.60    5.70
  -7  -1  21   24.00    6.10
  -2  -8 -21   -3.80    5.50
   8 -10  21   -5.90    4.60
 -10   2  21   -0.80    2.30
 -10   2  21    2.00    2.60
  -5  -8 -21    1.80    7.20
   8 -13  21    5.60    9.80
  -9  -6 -21    9.10    7.00
   6 -15  21   11.40   11.50
  12  -9 -21    6.10    8.50
  -9  -3 -21   12.90    5.50
 -12   9  21   14.10    5.60
   3 -12  21    1.30    7.30
   9   3  21    4.60    5.40
   9  -9 -21   -0.60    5.00
  -9   0 -21   -0.30    3.00
   9   0  21   -0.20    2.90
   0  -9  21   -5.20    5.30
  -9   9  21   -4.50    4.30
   6  -9 -21   16.20    7.10
   9  -3  21   22.40    3.60
  -3  -6  21    8.70    6.50
  -3  -6  21   18.90    7.60
  -6   9  21    9.00    7.00
   3  -9 -21   58.59   12.30
  -6  -3  21   52.09    9.80
   9  -6  21   51.69    8.10
   9  -6  21   52.69    7.10
  -6  -3  21   71.29    9.70
   0  -9 -21   14.00    7.60
   9  -9  21    1.20    4.90
   9  -9  21    5.60    6.40
  -9   0  21    3.80    3.50
  -9   0  21    2.60    3.80
  -3  -9 -21   -5.90    5.70
   9 -12  21    8.20    8.20
  -6  -9 -21    5.40    7.80
   9 -15  21    2.70    9.70
 -10  -4 -21   12.30    6.00
  14 -10 -21   -1.90    4.00
   4 -14  21    5.90   11.20
  11 -10 -21    3.60    5.70
 -10  -1 -21    6.00    3.60
 -11  10  21    2.20    5.20
   1 -11  21   -0.50    6.10
   8 -10 -21   83.99   12.60
  -2  -8  21  135.49   16.50
   5 -10 -21  188.78   17.30
  -5  -5  21  139.69   14.60
  10  -5  21  150.98    8.10
  -5  -5  21  168.08   15.40
  10  -5  21  150.28    7.80
   2 -10 -21   -1.50    5.60
  -8  -2  21   -4.80    4.10
  -8  -2  21    8.20    4.90
  10  -8  21    0.40    4.60
  10  -8  21    0.90    4.50
  -1 -10 -21   23.20   10.90
  10 -11  21   27.50    9.60
  -4 -10 -21    4.40    9.50
  10 -14  21   -6.20    6.60
 -11  -2 -21   20.50    5.00
  13 -11 -21   36.60    9.30
   2 -13  21   21.20   12.10
 -13  11  21   33.00   12.30
  10 -11 -21   -1.40    5.40
  -1 -10  21    7.30    9.30
   7 -11 -21   15.80    7.80
  -4  -7  21   12.50    7.90
   4 -11 -21   12.30    8.90
  11  -7  21   12.00    4.60
  -7  -4  21   11.10    7.30
  11  -7  21    8.50    4.50
  -7  -4  21    7.80    6.30
   1 -11 -21   10.00    9.10
  11 -10  21    5.30    5.70
  11 -10  21   10.70    6.10
 -10  -1  21    8.70    4.80
 -10  -1  21    6.60    4.30
  -2 -11 -21    5.60    9.20
  11 -13  21   -2.50    6.00
  12 -12 -21    5.60    6.10
   0 -12  21    2.30    8.50
   9 -12 -21   15.40    8.00
  -3  -9  21   12.00    8.20
   6 -12 -21   -0.10    6.80
  -6  -6  21    2.30    6.40
   3 -12 -21    3.90    8.50
  12  -9  21    2.60    4.60
  -9  -3  21    3.00    5.60
  -9  -3  21    5.60    9.00
  12  -9  21    0.20    3.80
   0 -12 -21    6.60    9.80
  12 -12  21    5.20    6.90
  14 -13 -21    2.80    6.90
   1 -14  21   -1.80    8.50
  11 -13 -21    6.60    8.70
  -2 -11  21    7.30    9.30
   8 -13 -21   -1.10    5.60
  -5  -8  21    0.00    6.00
   5 -13 -21   18.50   10.60
  13  -8  21    2.80    2.50
  -8  -5  21   16.80    8.60
   2 -13 -21   -4.50    7.60
  13 -11  21    0.90    6.40
 -11  -2  21   10.20    5.10
  13 -11  21    1.80    5.70
 -11  -2  21    5.90    4.20
  -1 -13 -21   14.50   11.20
  13 -14  21   -3.30    6.30
  13 -14 -21    4.70    6.40
  -1 -13  21    0.10    9.10
  10 -14 -21   -1.30    7.10
  -4 -10  21    5.50    8.90
   7 -14 -21   21.20   10.90
  -7  -7  21   15.40    8.20
   4 -14 -21   -5.80    7.30
 -10  -4  21    5.00    6.80
  14 -10  21   -0.50    3.70
 -10  -4  21    5.10    6.90
   1 -14 -21    4.20    9.90
  14 -13  21   -4.00    5.90
   9 -15 -21    9.40    9.50
  -6  -9  21    8.90   10.20
   6 -15 -21    0.40    9.50
  -9  -6  21    6.90    7.10
  -1   0 -22    1.60    2.80
   0   1 -22    2.50    3.00
   1  -1 -22   -1.30    2.60
   1   0  22    4.50    3.00
   0  -1  22    4.00    4.50
  -1   3 -22  621.74   22.40
  -2  -1 -22  624.14   19.60
   3  -2 -22  624.34   19.90
   2   1  22  629.74   19.70
   1  -3  22  633.34   21.90
  -3   2  22  642.14   19.90
   2   0 -22  856.41   24.20
  -2   2 -22  816.72   24.40
   0  -2 -22  835.22   24.30
   0   2  22  817.02   24.00
   2  -2  22  849.52   24.00
   5  -3 -22  370.86   15.00
  -3  -2 -22  367.76   15.60
  -5   3  22  333.77   14.30
   2  -5  22  345.67   18.20
   3   2  22  348.27   15.50
  -3   1 -22  651.73   19.70
   2  -3 -22  627.14   20.80
   1   2 -22  629.14   22.10
   3  -1  22  653.73   19.50
  -2   3  22  640.14   21.10
  -1  -2  22  593.14   21.00
  -1  -3 -22   28.60    6.00
  -3   4 -22   36.00    7.60
   4  -1 -22   35.50    5.70
  -4   1  22   35.90    6.90
   1   3  22   33.00    6.40
   3  -4  22   42.90    7.70
   7  -4 -22  227.68   12.20
  -4  -3 -22  255.77   14.30
   3  -7  22  244.38   17.70
   4   3  22  232.88   14.20
  -7   4  22  220.48   12.00
   3  -7  22  234.28   16.80
   4  -4 -22  484.85   18.50
  -4   0 -22  462.55   16.50
   4   0  22  537.25   19.90
  -4   4  22  469.05   18.60
   0  -4  22  498.55   21.20
   1  -4 -22   44.60    7.00
  -4   3 -22   34.60    6.50
   3   1 -22   35.70    6.50
   4  -3  22   27.80    5.20
  -1   4  22   38.40    7.00
  -3  -1  22   34.90    6.20
   6  -2 -22   62.29    6.90
  -2  -4 -22   66.39    8.70
   4  -6  22   68.19    9.80
   4  -6  22   64.29    9.50
   2   4  22   67.39    8.60
  -6   2  22   75.89    7.00
  -5  -4 -22  149.69   12.60
   9  -5 -22  150.18   10.30
   4  -9  22  164.88   16.70
   5   4  22  153.78   13.40
  -9   5  22  183.88   11.00
   6  -5 -22    7.40    4.20
  -5  -1 -22    6.60    3.90
   5   1  22   15.10    4.80
   1  -6  22    7.70    5.40
  -6   5  22    8.80    4.50
   1  -6  22    7.30    5.80
   3  -5 -22  348.17   17.00
  -5   2 -22  343.77   13.80
  -3   5  22  351.06   17.30
  -2  -3  22  374.86   17.40
   5  -2  22  333.07   13.20
   0  -5 -22 2438.96   59.19
   5   0 -22 2540.85   54.59
  -5   0  22 2443.16   52.49
   5  -5  22 2429.26   56.29
   0   5  22 2444.96   59.89
  -3  -5 -22  780.22   28.90
   8  -3 -22  752.82   22.60
   5  -8  22  724.63   30.70
   3   5  22  702.73   28.80
   5  -8  22  750.82   31.40
  -6  -5 -22   58.19   11.10
  11  -6 -22   49.20    7.00
 -11   6  22   42.60    6.40
   5 -11  22   49.60   12.60
   6   5  22   43.30   10.60
   8  -6 -22    2.80    4.10
  -6  -2 -22    2.50    3.70
   2  -8  22    1.80    5.10
   6   2  22    6.00    4.20
   2  -8  22    5.30    5.90
  -8   6  22    2.40    3.60
  -6   1 -22    9.60    3.70
   5  -6 -22    0.30    3.70
  -5   6  22    9.40    5.30
  -1  -5  22   10.60    5.40
   6  -1  22    6.90    3.40
  -1  -5  22    8.40    5.50
   2  -6 -22   58.79    9.10
  -2   6  22   53.89    8.70
   6  -4  22   99.69    7.90
  -4  -2  22   69.49    8.30
   7  -1 -22   12.90    4.90
  -1  -6 -22    9.70    5.70
  -7   1  22   10.80    4.20
   6  -7  22    4.30    4.50
   1   6  22   13.50    6.80
   6  -7  22   -1.10    4.10
  -4  -6 -22  123.99   13.60
  10  -4 -22  155.48    9.20
   6 -10  22  132.39   15.70
   4   6  22  129.89   14.50
 -10   4  22  137.79    8.30
  -7  -6 -22   19.80    8.80
  13  -7 -22   19.00    3.90
   6 -13  22    4.70    8.60
  10  -7 -22   84.09    9.50
  -7  -3 -22  103.19   10.50
 -10   7  22   56.49    8.50
   7   3  22   67.29    9.70
   3 -10  22   69.99   14.80
   7  -7 -22   10.10    5.60
  -7   0 -22   18.00    4.70
   0  -7  22   36.00    9.60
  -7   7  22   19.00    6.40
   0  -7  22   19.00    8.70
   4  -7 -22  248.98   16.10
  -7   3 -22  240.08   11.60
   7  -3  22  226.28   10.50
  -3  -4  22  246.28   16.00
  -4   7  22  227.48   16.00
  -3  -4  22  224.98   15.40
   1  -7 -22   11.50    6.00
  -6  -1  22    6.30    4.40
   7  -6  22   10.10    4.90
   7  -6  22    1.10    3.90
  -1   7  22   20.20    7.70
  -2  -7 -22  152.78   15.00
   7  -9  22  110.79   13.40
   7  -9  22  141.49   14.40
  -9   2  22  127.09    8.10
  -5  -7 -22   31.10   10.40
   7 -12  22   11.40    8.70
  -8  -7 -22   -1.60    6.10
   7 -15  22    7.90   10.30
  -8  -4 -22  105.09   11.50
  12  -8 -22  100.39    9.90
 -12   8  22   91.19    9.70
   4 -12  22   89.49   17.10
  -8  -1 -22  152.08   10.20
   9  -8 -22  158.28   13.00
   1  -9  22  169.38   18.00
  -9   8  22  147.49   13.20
   8   1  22  163.28   10.80
   6  -8 -22    4.50    5.60
  -8   2 -22    6.30    3.40
  -6   8  22    5.70    5.00
   8  -2  22    5.10    2.80
  -2  -6  22    2.80    4.90
  -2  -6  22   10.40    6.70
   3  -8 -22  733.93   31.00
   8  -5  22  704.83   22.50
  -5  -3  22  737.03   27.00
   8  -5  22  757.62   23.50
  -5  -3  22  748.13   27.30
  -3   8  22  733.73   31.60
   0  -8 -22  322.57   21.60
   8  -8  22  353.46   19.60
   8  -8  22  370.66   20.60
  -8   0  22  343.57   14.90
  -8   0  22  343.67   15.40
  -3  -8 -22   92.79   14.20
   8 -11  22   56.09   12.90
  -6  -8 -22   -1.10    5.40
   8 -14  22   12.90   10.70
  14  -9 -22   27.70    5.90
  -9  -5 -22   43.30    9.70
   5 -14  22   22.60   12.40
  -9  -2 -22  132.59   10.60
  11  -9 -22  168.38   13.60
   9   2  22  150.48   11.60
 -11   9  22  152.18   16.60
   2 -11  22  159.08   20.30
   8  -9 -22  167.98   14.70
  -9   1 -22  158.58    8.20
   9  -1  22  159.78    8.10
  -1  -8  22  134.79   16.30
  -8   9  22  163.68   15.20
   5  -9 -22  167.58   15.60
   9  -4  22  158.08    8.20
  -4  -5  22  150.28   14.40
  -4  -5  22  148.29   14.20
   9  -4  22  148.29    8.30
   2  -9 -22  148.19   15.90
  -7  -2  22  154.08   12.30
   9  -7  22  137.19   11.40
   9  -7  22  127.59   11.10
  -7  -2  22  118.89   10.80
  -1  -9 -22   28.00    9.70
 -10   1  22   36.10    5.70
   9 -10  22   64.99   19.70
   9 -10  22   47.70   10.80
 -10   1  22   37.20    5.40
  -4  -9 -22  159.18   26.30
   9 -13  22  120.89   17.40
  13 -10 -22   39.90    9.30
 -10  -3 -22   55.09    8.30
   3 -13  22   57.69   16.60
  10 -10 -22  223.08   16.90
 -10   0 -22  228.28    9.30
   0 -10  22  225.48   21.90
   7 -10 -22   75.79   12.50
  -3  -7  22   83.69   13.30
   4 -10 -22  140.09   16.40
  10  -6  22  135.29    9.20
  -6  -4  22  136.69   13.50
  10  -6  22  144.59   10.00
  -6  -4  22  133.69   15.70
   1 -10 -22   37.70   11.60
  -9  -1  22   48.10    7.70
  10  -9  22   51.49   10.80
  10  -9  22   39.70    9.60
  -9  -1  22   31.70    7.00
  -2 -10 -22   21.60   10.80
  10 -12  22   19.30    9.30
  -5 -10 -22    4.60    9.20
  10 -15  22    4.20    9.40
 -11  -4 -22   30.50   11.70
   4 -15  22    2.70   12.50
  12 -11 -22   32.00    8.40
   1 -12  22   32.70   13.80
   9 -11 -22  136.39   15.20
  -2  -9  22  144.89   18.20
   6 -11 -22   51.69   12.50
  -5  -6  22   62.99   13.00
   3 -11 -22   66.19   14.60
  11  -8  22   63.79    9.00
  -8  -3  22   67.29   10.30
  -8  -3  22   91.69   18.20
  11  -8  22   87.49    9.60
   0 -11 -22   65.69   15.30
 -11   0  22   48.00    5.40
 -11   0  22   54.19    5.80
  11 -11  22   56.99   12.20
  -3 -11 -22   10.00    9.70
  11 -14  22   25.90   11.20
  14 -12 -22   17.50    7.80
   2 -14  22   24.80   12.20
  11 -12 -22   25.20    8.90
  -1 -11  22   28.40   12.90
   8 -12 -22   99.39   15.10
  -4  -8  22   96.39   15.00
   5 -12 -22   25.40   14.10
  12  -7  22   32.90    5.00
  12  -7  22   30.60    4.90
  -7  -5  22   22.40    8.50
   2 -12 -22   31.00   12.30
  12 -10  22   29.50    8.30
 -10  -2  22   36.00    8.10
 -10  -2  22   34.10    7.60
  12 -10  22   29.60   12.80
  -1 -12 -22   61.89   15.90
  12 -13  22   61.99   13.90
  13 -13 -22   -5.80    6.10
   0 -13  22   20.80   12.30
  10 -13 -22   51.99   12.80
  -3 -10  22   42.80   14.00
   7 -13 -22    9.80    7.60
  -6  -7  22   17.50    8.40
   4 -13 -22   86.99   17.50
  13  -9  22  129.39   10.10
  -9  -4  22   92.99   12.90
  13  -9  22  115.69    9.90
  -9  -4  22  131.29   13.80
   1 -13 -22   56.49   15.60
  13 -12  22   58.69   11.90
  12 -14 -22   20.60    9.80
  -2 -12  22    2.00    8.70
   9 -14 -22   15.70    9.90
  -5  -9  22   23.10   11.10
   6 -14 -22    8.80    9.00
  -8  -6  22    4.60    7.50
   3 -14 -22   12.40   12.40
 -11  -3  22   16.40    6.80
  14 -11  22   16.90    7.00
  11 -15 -22   30.50   11.80
  -4 -11  22   23.80   12.10
   8 -15 -22    5.50    8.50
  -7  -8  22    7.30    8.50
   5 -15 -22   -8.50    7.80
 -10  -5  22   12.30    7.90
   0  -1 -23   -0.30    2.70
  -1   1 -23    5.60    3.60
   1   0 -23   -3.60    2.90
  -1   0  23    1.30    3.00
   0   1  23   -3.10    2.30
   1  -1  23    0.30    2.80
   2  -2 -23   -1.40    3.00
   0   2 -23    2.60    3.40
  -2   0 -23   -2.10    2.60
   0  -2  23   -1.90    2.60
  -2   2  23   -2.70    2.40
  -1  -2 -23   37.40    6.20
   3  -1 -23   32.20    5.90
  -2   3 -23   24.70    5.80
  -3   1  23   34.30    5.50
   1   2  23   37.00    6.20
   2  -3  23   33.20    6.50
   4  -3 -23  434.16   16.70
  -1   4 -23  441.86   20.30
  -3  -1 -23  438.36   16.40
   1  -4  23  464.05   20.10
  -4   3  23  464.75   17.20
   3   1  23  425.56   16.30
  -3   2 -23   35.00    5.80
   2   1 -23   31.50    6.00
   1  -3 -23   34.90    6.40
  -1   3  23   31.30    5.90
  -2  -1  23   36.90    6.20
   3  -2  23   37.70    5.70
   5  -2 -23   46.60    6.50
  -2  -3 -23   59.59    7.90
  -5   2  23   58.89    6.70
   3  -5  23   40.30    8.30
   2   3  23   54.59    7.50
  -4  -2 -23    1.60    3.50
   6  -4 -23    2.10    3.20
   2  -6  23    3.70    5.00
   2  -6  23    1.40    5.00
  -6   4  23    1.30    3.50
   4   2  23   -2.30    3.10
  -4   1 -23  439.46   16.00
   3  -4 -23  427.36   17.90
   1   3 -23  415.56   19.30
  -1  -3  23  454.35   19.10
   4  -1  23  461.95   16.20
  -3   4  23  465.45   18.70
   0  -4 -23    5.20    3.90
   4   0 -23    2.80    3.50
  -4   4 -23   -4.20    3.80
   0   4  23    1.60    3.70
   4  -4  23    3.10    3.20
  -4   0  23   -0.40    3.10
  -3  -4 -23  142.09   11.60
   7  -3 -23  135.89    9.50
  -7   3  23  140.99    9.20
   4  -7  23  126.49   13.00
   3   4  23  117.99   11.20
   4  -7  23  129.59   12.90
   8  -5 -23    5.10    4.10
  -5  -3 -23    5.50    4.10
   3  -8  23   16.90    8.00
  -8   5  23    1.10    3.70
   3  -8  23    0.10    4.90
   5   3  23    6.80    4.40
   5  -5 -23   -3.50    3.00
  -5   0 -23    1.10    3.30
  -5   5  23   -0.20    3.40
   0  -5  23   -4.90    4.50
   5   0  23   -1.80    2.70
   0  -5  23   -3.10    3.70
   3   2 -23   54.49    8.10
   2  -5 -23   53.19    8.10
  -5   3 -23   54.89    7.00
  -3  -2  23   57.29    7.60
  -2   5  23   51.29    8.80
   5  -3  23   62.89    6.60
   6  -1 -23    2.60    3.50
  -1  -5 -23    2.60    4.10
   1   5  23   11.30    5.40
   5  -6  23    0.00    3.60
   5  -6  23    4.20    5.10
  -6   1  23    2.50    2.90
  -4  -5 -23   22.20    7.60
   9  -4 -23   15.10    4.80
   4   5  23   24.50    9.50
   5  -9  23   22.40    9.10
  -9   4  23   21.60    5.20
  -6  -4 -23   -4.90    4.70
  10  -6 -23    4.10    4.20
 -10   6  23    7.80    4.10
   6   4  23    5.60    5.80
   4 -10  23   14.70    8.70
   7  -6 -23   55.39    7.90
  -6  -1 -23   53.99    6.80
   6   1  23   41.70    6.60
  -7   6  23   63.59    8.60
   1  -7  23   68.99   10.80
   1  -7  23   62.19   12.50
  -6   2 -23    5.40    3.20
   4  -6 -23    0.30    4.20
  -4   6  23   -1.10    3.10
  -2  -4  23    1.30    4.10
   6  -2  23    6.10    3.10
   5   1 -23    8.90    4.60
   1  -6 -23    5.10    4.90
   6  -5  23   -0.40    3.00
  -1   6  23    7.10    5.30
  -5  -1  23    3.80    3.50
   8  -2 -23    5.00    4.30
  -2  -6 -23   -2.10    4.50
   6  -8  23   15.00    6.80
   6  -8  23    8.40    5.70
   2   6  23    5.50    5.60
  -8   2  23    2.50    3.50
  -5  -6 -23   12.80    7.30
  11  -5 -23   18.10    4.90
   6 -11  23    5.40    7.00
 -11   5  23    3.60    3.20
  -7  -5 -23   41.20    9.40
  12  -7 -23   45.20    7.60
   7   5  23   50.29   11.30
   5 -12  23   17.20   11.40
 -12   7  23   35.50    6.80
   9  -7 -23   -0.60    4.40
  -7  -2 -23    0.70    4.00
  -9   7  23   -3.80    3.10
   2  -9  23   -4.80    4.90
   7   2  23    1.70    4.10
  -7   1 -23   54.89    6.30
  -6   7  23   61.99    9.60
  -1  -6  23   58.69   11.50
   7  -1  23   59.39    6.00
  -1  -6  23   63.19   11.10
   3  -7 -23  142.49   13.10
   7  -4  23  136.39    9.10
  -4  -3  23  141.89   11.90
   0  -7 -23    2.70    5.40
   0   7  23    4.20    5.40
   7  -7  23   -3.30    3.30
   7  -7  23   -0.30    3.80
  -7   0  23    1.30    3.60
  -3  -7 -23    6.60    6.50
 -10   3  23   12.00    3.80
   7 -10  23   17.80    7.80
  -6  -7 -23    5.50    7.00
   7 -13  23   14.60   10.00
  -8  -6 -23    8.40    6.80
   6 -14  23   20.80   13.10
  -8  -3 -23    0.80    4.40
  11  -8 -23   -3.70    3.80
   3 -11  23    1.50    7.60
 -11   8  23    7.10    5.30
   8   3  23    5.10    5.10
  -8   0 -23    2.80    3.50
   8  -8 -23   -5.80    3.90
   0  -8  23   -5.40    5.60
  -8   8  23    0.80    4.50
   5  -8 -23    3.70    5.50
  -8   3 -23   11.90    4.30
  -3  -5  23   25.90   14.30
   8  -3  23   11.20    3.70
  -3  -5  23    9.80    5.90
  -5   8  23    9.70    5.90
   2  -8 -23   -5.10    4.50
   8  -6  23    7.60    4.30
  -6  -2  23    6.90    4.90
  -6  -2  23    0.90    3.90
   8  -6  23    5.80    4.80
  -2   8  23    2.60    5.50
  -1  -8 -23    5.70    6.90
   8  -9  23   23.20    8.40
  -9   1  23   18.80    5.00
   8  -9  23    8.90    6.20
  -4  -8 -23   17.00    9.00
   8 -12  23   16.20    8.60
  -7  -8 -23   -3.20    6.20
   8 -15  23    2.80    9.80
  -9  -4 -23   -5.30    4.40
  13  -9 -23    2.70    4.50
 -13   9  23    3.60    4.40
   9   4  23   -6.30    4.80
   4 -13  23    7.30    8.90
  -9  -1 -23   15.50    5.30
  10  -9 -23   10.00    6.60
   9   1  23   18.40    5.30
   1 -10  23   17.00    9.60
 -10   9  23   33.90    9.20
   7  -9 -23   -3.10    5.00
  -9   2 -23    0.10    2.90
  -7   9  23   -1.60    4.50
   9  -2  23    4.80    2.60
  -2  -7  23    7.20    7.10
   4  -9 -23   32.80    9.10
   9  -5  23   23.20    5.40
  -5  -4  23   29.60    8.50
  -5  -4  23   24.50    8.10
   9  -5  23   24.40    5.30
   1  -9 -23   41.40   11.50
   9  -8  23   28.60    8.50
  -8  -1  23   15.00    5.40
  -8  -1  23   16.00    5.70
   9  -8  23   23.20    7.60
  -2  -9 -23    4.30    7.30
   9 -11  23   23.70    9.10
  -5  -9 -23   -4.40    5.70
   9 -14  23    5.50    7.50
  15 -10 -23    5.30    6.90
 -10  -5 -23    4.50    6.20
   5 -15  23    3.30    9.60
 -10  -2 -23   15.60    5.40
  12 -10 -23    6.40    5.10
   2 -12  23   -8.80    6.80
 -12  10  23   -3.30    4.90
   9 -10 -23   12.40    6.60
  -1  -9  23   15.20    8.90
   6 -10 -23    4.50    5.90
  10  -4  23    1.40    2.40
  -4  -6  23    0.80    6.10
  10  -4  23    1.80    2.30
   3 -10 -23   10.50    7.70
  10  -7  23    9.50    4.90
  10  -7  23   22.40    6.60
  -7  -3  23    3.90    5.80
  -7  -3  23   15.20    7.50
   0 -10 -23   -2.20    7.60
 -10   0  23    0.60    3.10
  10 -10  23   -1.60    5.40
  10 -10  23    4.00    5.20
 -10   0  23    4.70    3.60
  -3 -10 -23   -3.90    6.50
  10 -13  23  -11.80   11.10
 -11  -3 -23    1.30    4.00
  14 -11 -23   -0.90    5.10
   3 -14  23   -8.80    6.10
  11 -11 -23    2.30    5.60
   0 -11  23  -14.50    6.10
   8 -11 -23   -8.50    4.30
  -3  -8  23    2.30    7.10
   5 -11 -23   19.30    9.10
  11  -6  23    9.80    3.90
  -6  -5  23    6.10    6.90
  11  -6  23    5.20    3.40
  -6  -5  23    9.60    6.80
   2 -11 -23   27.20   13.20
  -9  -2  23   13.80    6.50
  -9  -2  23   13.50    6.20
  11  -9  23   14.40    6.70
  11  -9  23   20.60    7.80
  -1 -11 -23    8.90    9.40
  11 -12  23   -4.60    6.20
  -4 -11 -23    2.90    9.40
  11 -15  23   12.70    9.80
  13 -12 -23    4.70    5.60
   1 -13  23    2.50    8.20
  10 -12 -23   -7.50    4.30
  -2 -10  23   -9.90    5.80
   7 -12 -23   38.30   12.40
  -5  -7  23   16.30    8.40
   4 -12 -23    3.90    8.90
  -8  -4  23   16.50    7.90
  12  -8  23    9.90    4.80
  12  -8  23   16.00    5.60
  -8  -4  23   15.00    8.40
   1 -12 -23   -0.20    8.70
 -11  -1  23    3.50    3.70
  12 -11  23   -0.30    4.50
 -11  -1  23    1.10    3.70
  -2 -12 -23   11.40    9.80
  12 -14  23    2.60    6.20
  12 -13 -23   -0.50    6.40
  -1 -12  23   -5.30    7.60
   9 -13 -23   -7.10    6.10
  -4  -9  23    5.50    8.20
   6 -13 -23   13.90    8.90
  -7  -6  23   10.70    7.00
   3 -13 -23    1.80    8.40
 -10  -3  23   15.80    8.20
  13 -10  23   12.90    6.10
 -10  -3  23    9.70    6.70
   0 -13 -23    8.70   11.20
  13 -13  23    4.10    6.70
  11 -14 -23   -3.60    5.70
  -3 -11  23   18.60   12.20
   8 -14 -23   -8.60    5.50
  -6  -8  23   -6.50    7.30
   5 -14 -23   -6.70    7.50
  -9  -5  23   12.30    7.40
   2 -14 -23   -0.30    9.10
  14 -12  23    0.40    5.70
 -12  -2  23    0.60    3.70
  10 -15 -23    6.90    8.60
  -5 -10  23   -2.30    8.00
   7 -15 -23   -3.60    7.10
  -8  -7  23    1.80    7.30
   4 -15 -23   10.60   17.60
 -11  -4  23    3.30    6.30
   0   0 -24  387.26   15.30
   0   0  24  389.86   15.20
   2  -1 -24  242.98   12.00
  -1   2 -24  227.68   12.60
  -1  -1 -24  228.08   11.70
   1  -2  24  256.07   12.70
   1   1  24  259.67   12.20
  -2   1  24  250.47   11.80
   1   1 -24  213.98   12.00
  -2   1 -24  229.98   11.70
   1  -2 -24  236.08   11.90
  -1  -1  24  230.68   11.80
  -1   2  24  210.18   11.40
   2  -1  24  246.88   11.70
   4  -2 -24  135.49    9.20
  -2   4 -24  118.49   10.90
  -2  -2 -24  103.79    9.00
   2  -4  24  111.89   10.20
  -4   2  24  114.39    8.70
   2   2  24  120.79    9.30
   0   3 -24 2401.86   56.39
   3  -3 -24 2373.46   52.39
  -3   0 -24 2378.96   51.09
  -3   3  24 2419.06   52.89
   3   0  24 2411.76   50.99
   0  -3  24 2338.17   54.69
   3   0 -24   10.50    4.30
   0  -3 -24    1.50    3.40
  -3   3 -24    5.60    3.90
   0   3  24    4.20    3.70
   3  -3  24    4.60    3.40
  -3   0  24    6.20    3.70
   6  -3 -24  749.73   23.20
  -3  -3 -24  747.23   25.50
  -6   3  24  748.13   22.80
   3   3  24  734.73   25.90
   3  -6  24  770.82   29.40
   3  -6  24  712.83   28.30
   5  -4 -24  224.28   12.50
  -4  -1 -24  237.68   12.10
   1  -5  24  230.68   15.40
   4   1  24  252.07   12.60
  -5   4  24  246.48   13.30
   2  -4 -24  131.99   10.50
  -4   2 -24  105.29    8.50
   2   2 -24  120.89   10.30
  -2  -2  24  121.59    9.70
   4  -2  24  112.49    8.40
  -2   4  24  114.49    9.80
   5  -1 -24  263.57   13.10
  -1  -4 -24  251.17   14.70
   1   4  24  260.47   15.10
  -5   1  24  227.48   11.80
   4  -5  24  240.28   14.60
   8  -4 -24  489.95   18.50
  -4  -4 -24  481.15   21.50
   4  -8  24  528.85   26.40
  -8   4  24  489.85   18.30
   4   4  24  484.75   22.50
   4  -8  24  510.45   26.10
  -5  -2 -24   11.40    4.70
   7  -5 -24   -2.20    3.40
  -7   5  24    4.90    4.10
   2  -7  24    3.60    5.70
   5   2  24   -0.70    3.10
   2  -7  24   10.10    6.70
  -5   1 -24  250.47   11.90
   4  -5 -24  246.88   14.30
  -1  -4  24  215.78   14.60
  -4   5  24  236.68   14.10
   1  -5 -24  278.67   15.90
  -5   4 -24  261.37   14.30
   4   1 -24  253.67   14.00
  -4  -1  24  245.18   13.10
  -1   5  24  261.67   15.70
   5  -4  24  237.18   12.90
  -2  -5 -24   42.20    8.70
   7  -2 -24   45.00    6.80
   5  -7  24   60.89   10.90
   5  -7  24   48.90    9.40
  -7   2  24   54.19    6.50
   2   5  24   58.89    9.10
  -5  -5 -24   65.99   10.80
  10  -5 -24   88.19    8.40
   5   5  24   74.99   11.40
   5 -10  24   81.49   15.50
 -10   5  24   90.29    8.40
   9  -6 -24  191.48   12.50
  -6  -3 -24  179.68   13.00
   3  -9  24  203.38   18.90
   6   3  24  184.18   13.60
  -9   6  24  181.68   12.40
   6  -6 -24 1062.59   33.10
  -6   0 -24 1126.49   29.20
  -6   6  24 1033.60   33.60
   6   0  24 1139.49   29.50
   0  -6  24 1155.18   38.60
  -6   3 -24  749.03   23.30
   3  -6 -24  741.63   27.70
  -3  -3  24  746.73   26.70
  -3   6  24  758.82   28.50
   6  -3  24  748.93   22.20
   0  -6 -24   -3.00    3.40
   6   0 -24    5.30    4.20
   6  -6  24   -3.10    3.40
   0   6  24    3.60    4.60
  -6   0  24    1.20    3.60
   6  -6  24    8.40    4.90
   9  -3 -24  210.98   11.70
  -3  -6 -24  215.78   16.50
   6  -9  24  229.58   18.70
  -9   3  24  233.08   12.20
   6  -9  24  174.48   16.30
   3   6  24  210.78   17.20
  12  -6 -24   29.20    5.70
  -6  -6 -24   31.10    9.00
   6 -12  24   13.60    9.70
 -12   6  24   19.30    4.50
  11  -7 -24   39.60    7.60
  -7  -4 -24   65.79    9.70
 -11   7  24   45.30    8.10
   4 -11  24   49.80   14.50
  -7  -1 -24    0.30    3.80
   8  -7 -24    3.50    4.40
   7   1  24   -2.00    3.20
   1  -8  24   -1.70    5.60
  -8   7  24   11.70    5.90
  -7   2 -24    7.00    4.40
   5  -7 -24    2.90    5.40
  -2  -5  24    7.50    5.80
  -5   7  24   -1.70    3.70
  -2  -5  24   10.90    6.40
   7  -2  24    6.10    3.50
   2  -7 -24   65.09   11.40
   7  -5  24   53.09    7.20
  -2   7  24   56.39   10.80
  -5  -2  24   65.19    8.30
   8  -1 -24   22.30    5.80
  -1  -7 -24   23.20    8.30
   7  -8  24    1.60    4.70
   7  -8  24    6.70   11.20
  -8   1  24   15.70    4.80
   1   7  24   21.00    8.60
  -4  -7 -24   72.39   13.70
 -11   4  24   49.50    5.20
   7 -11  24   16.50    9.40
  -7  -7 -24   -1.90    6.20
   7 -14  24    2.60    7.90
  13  -8 -24   22.10    5.80
  -8  -5 -24   17.50    7.60
 -13   8  24   14.30    5.10
   5 -13  24   18.00   10.60
  10  -8 -24   19.40    7.70
  -8  -2 -24   25.60    6.90
 -10   8  24   23.20    7.70
   2 -10  24   17.30    9.30
   8   2  24   26.30    6.50
  -8   1 -24    4.70    3.40
   7  -8 -24   -3.00    4.20
  -1  -7  24   -2.90    6.40
  -7   8  24    6.10    5.60
  -1  -7  24   -0.30    5.70
   8  -1  24    2.20    3.30
   4  -8 -24  490.65   24.50
  -4  -4  24  467.35   22.50
  -4   8  24  494.35   25.30
   8  -4  24  492.75   20.90
   1  -8 -24   10.10    6.60
   8  -7  24   17.70    5.90
   8  -7  24   16.30    6.20
  -7  -1  24   17.40    5.80
  -2  -8 -24  137.49   15.70
   8 -10  24  113.39   14.30
 -10   2  24  105.39    7.60
  -5  -8 -24   88.79   14.30
   8 -13  24   90.89   17.60
  -9  -6 -24    3.70    6.70
   6 -15  24    4.40   10.50
  12  -9 -24  187.88   14.00
  -9  -3 -24  200.88   13.60
 -12   9  24  190.08   14.70
   9   3  24  183.88   14.30
   3 -12  24  175.28   20.80
   9  -9 -24  586.04   26.10
  -9   0 -24  531.05   18.10
   0  -9  24  584.94   32.00
  -9   9  24  635.54   28.40
   9   0  24  609.44   23.10
   6  -9 -24  200.58   16.70
   9  -3  24  201.98    9.00
  -3  -6  24  178.38   16.40
  -3  -6  24  165.88   15.90
   3  -9 -24  241.28   19.20
   9  -6  24  217.78   13.20
  -6  -3  24  202.18   14.90
  -6  -3  24  200.48   14.60
   9  -6  24  227.38   12.80
   0  -9 -24   28.00   10.20
   9  -9  24   34.20    9.40
  -9   0  24   57.39    7.50
  -9   0  24   46.70    7.40
   9  -9  24   43.10    9.50
  -3  -9 -24  121.59   16.80
   9 -12  24   95.29   15.30
  -6  -9 -24    9.00    8.30
   9 -15  24    1.30    9.00
 -10  -4 -24   19.50    7.20
 -14  10  24   13.30    8.80
   4 -14  24   10.80   11.30
  11 -10 -24    6.30    6.20
 -10  -1 -24   18.80    4.60
   1 -11  24   30.90   12.20
 -11  10  24    8.90    6.40
  10   1  24   11.50    4.90
   8 -10 -24   17.80    7.30
  -2  -8  24   16.90    9.10
   5 -10 -24  110.09   14.50
  10  -5  24   89.59    7.40
  -5  -5  24   97.59   13.00
  10  -5  24   83.89    6.90
  -5  -5  24   87.19   12.40
   2 -10 -24   90.39   14.50
  10  -8  24   88.89   10.60
  10  -8  24   91.49   10.90
  -8  -2  24  105.89   10.70
  -8  -2  24  136.49   12.40
  -1 -10 -24    6.00   10.80
  10 -11  24   11.80    8.10
 -11   1  24    8.70    3.10
 -11   1  24    8.50    3.30
  -4 -10 -24   37.00   11.90
  10 -14  24   38.20   13.30
 -11  -2 -24   17.80    5.20
  13 -11 -24   21.40    8.10
   2 -13  24   10.30    9.90
  10 -11 -24   19.70    8.20
   7 -11 -24   61.59   12.40
  -4  -7  24   64.59   13.10
   4 -11 -24   85.09   15.50
  11  -7  24   55.99    7.30
  -7  -4  24   35.90    9.10
  -7  -4  24   45.60   10.50
  11  -7  24   48.00    7.20
   1 -11 -24   19.70   10.90
  11 -10  24   17.10    7.60
 -10  -1  24    7.20    4.50
 -10  -1  24   11.50    5.10
  11 -10  24    9.60    6.90
  -2 -11 -24   60.89   15.40
  11 -13  24   67.39   18.50
  12 -12 -24   57.29   11.90
   0 -12  24   39.10   14.10
   9 -12 -24  179.58   18.20
  -3  -9  24  213.18   21.40
   6 -12 -24   32.90   18.90
  -6  -6  24   21.70    8.30
   3 -12 -24  128.69   18.50
  12  -9  24  142.29   12.30
  -9  -3  24  123.09   12.90
  -9  -3  24  107.79   12.40
  12  -9  24  116.19   11.50
   0 -12 -24   43.20   13.50
  12 -12  24   30.70    9.00
  14 -13 -24    5.30    6.90
   1 -14  24  -11.80   14.60
  11 -13 -24   21.90   10.00
  -2 -11  24   17.90   11.20
   8 -13 -24   15.30    9.40
  -5  -8  24   18.20    9.90
   5 -13 -24   64.49   16.00
  13  -8  24   89.29    6.90
  -8  -5  24   77.29   12.70
  13  -8  24   95.19    7.00
   2 -13 -24   21.70   11.80
 -11  -2  24   75.49    9.40
 -11  -2  24   59.99    8.80
  13 -11  24   45.10   10.70
  13 -11  24   63.09   11.60
  -1 -13 -24    1.80    9.20
  13 -14  24    3.20    6.90
  13 -14 -24   -0.70    7.10
  -1 -13  24   -6.70    7.90
  10 -14 -24   11.30    8.40
  -4 -10  24   23.70   11.40
   7 -14 -24    0.30    8.70
  -7  -7  24   -3.00    6.50
   4 -14 -24   14.30   10.80
  14 -10  24   17.20    5.70
 -10  -4  24   17.90    7.60
 -10  -4  24   17.30    8.70
   1 -14 -24   15.70   18.90
  14 -13  24    7.30    6.80
   9 -15 -24   20.30   11.80
  -6  -9  24   25.70   11.00
   6 -15 -24   -3.50    9.20
  -9  -6  24    7.10    7.80
   0   1 -25   -1.60    2.70
  -1   0 -25   -1.80    2.60
   1  -1 -25    5.80    3.50
  -1   1  25    1.90    2.90
   1   0  25   -3.90    2.20
   0  -1  25    2.00    3.00
  -2  -1 -25   14.90    4.60
  -1   3 -25   20.90    5.80
   3  -2 -25    4.80    3.90
  -3   2  25   20.50    4.90
   2   1  25   18.70    4.70
   1  -3  25   18.80    5.20
   2   0 -25    0.90    2.90
   0  -2 -25    1.50    3.60
  -2   2 -25    0.20    3.00
   2  -2  25   -3.00    2.20
   0   2  25    1.00    3.10
  -2   0  25    0.40    2.80
   5  -3 -25   -0.80    3.30
  -3  -2 -25   -0.80    3.60
  -5   3  25    2.10    3.40
   2  -5  25   -3.90    3.70
   3   2  25   -1.80    3.30
   1   2 -25   28.60    6.50
   2  -3 -25    6.70    4.40
  -3   1 -25   25.40    5.40
   3  -1  25   24.70    5.30
  -2   3  25   23.90    5.40
  -1  -2  25   14.20    4.90
   4  -1 -25   49.90    6.80
  -1  -3 -25   55.59    7.40
  -3   4 -25   56.49    8.40
   3  -4  25   54.39    7.50
   1   3  25   47.40    7.90
  -4   1  25   50.19    6.40
  -4  -3 -25  132.59   11.10
   7  -4 -25  130.49    9.80
   3  -7  25   90.09   12.20
   3  -7  25  126.59   13.00
   4   3  25  130.79   11.20
  -7   4  25  123.19    9.60
  -4   0 -25   -3.60    2.80
   4  -4 -25   -1.90    3.00
   0  -4  25   -5.10    3.60
  -4   4  25    3.30    3.90
   4   0  25   -1.50    3.00
  -4   3 -25   59.99    8.70
   3   1 -25   53.79    7.60
   1  -4 -25   53.09    7.80
  -3  -1  25   47.00    6.70
  -1   4  25   69.59    8.20
   4  -3  25   47.60    6.50
  -2  -4 -25  202.68   13.70
   6  -2 -25  191.98   11.50
  -6   2  25  194.48   11.10
   4  -6  25  201.58   14.70
   2   4  25  205.38   13.80
   9  -5 -25    1.00    3.90
  -5  -4 -25   -5.60    3.70
   5   4  25   -3.30    4.30
   4  -9  25    1.00    6.80
  -9   5  25   -3.90    3.20
   6  -5 -25   15.30    5.20
  -5  -1 -25   17.80    5.30
  -6   5  25   19.90    5.70
   1  -6  25    2.60    5.20
   1  -6  25    9.30    5.60
   5   1  25   21.60    5.20
   3  -5 -25   -1.10    4.00
   2   3 -25   -2.50    3.20
  -5   2 -25    0.90    3.10
   5  -2  25    2.10    2.90
  -2  -3  25    7.80    4.20
  -3   5  25   -6.10    2.40
   5   0 -25    0.40    3.60
   0  -5 -25   -2.70    3.90
   5  -5  25    0.50    3.60
   0   5  25   -2.70    3.50
  -5   0  25   -3.70    2.90
   8  -3 -25   -0.40    3.30
  -3  -5 -25   12.70    6.70
   3   5  25   -1.90    5.60
   5  -8  25    7.40    6.00
  -8   3  25    7.90    4.10
   5  -8  25    0.60    5.90
  -6  -5 -25    2.40    6.30
  11  -6 -25    7.90    5.10
   5 -11  25    0.90    8.50
 -11   6  25    8.80    4.90
   6   5  25    0.80    5.60
   8  -6 -25   46.70    8.00
  -6  -2 -25   50.09    7.60
  -8   6  25   42.50    8.00
   6   2  25   61.69    8.00
   2  -8  25   39.70   10.00
  -6   1 -25   18.60    5.20
   5  -6 -25   25.20    6.70
  -1  -5  25   18.20    6.80
  -5   6  25   15.40    6.00
  -1  -5  25   18.10    8.00
   6  -1  25   11.70    4.30
  -6   4 -25  185.08   12.20
   2  -6 -25  193.68   14.60
   4   2 -25  203.88   13.80
  -4  -2  25  184.48   12.40
   6  -4  25  203.28   11.50
  -2   6  25  190.78   14.40
   7  -1 -25   37.70    7.40
  -1  -6 -25   36.40    8.30
  -7   1  25   39.20    6.10
   6  -7  25   29.00    7.70
   1   6  25   37.70    9.00
  -4  -6 -25   49.40   10.70
  10  -4 -25   44.40    6.70
 -10   4  25   48.20    6.50
   4   6  25   41.60   11.50
   6 -10  25   56.19   12.60
  -7  -6 -25    4.10    6.90
  13  -7 -25   -1.60    2.80
 -13   7  25    2.80    3.30
   6 -13  25   -0.20    5.60
  -7  -3 -25   35.90    8.10
  10  -7 -25   53.59    8.60
 -10   7  25   43.90    8.40
   3 -10  25   22.30   10.40
   7   3  25   44.70    9.60
  -7   0 -25   -1.80    2.90
  -7   7  25   -4.60    3.00
   7   0  25    2.50    3.40
   0  -7  25   -9.50    4.30
   0  -7  25   -4.90    5.10
   4  -7 -25  137.49   12.90
  -7   3 -25  121.09    9.20
  -3  -4  25  116.69   11.90
   7  -3  25  123.89    8.90
  -3  -4  25  126.29   12.30
   1  -7 -25   35.90    9.20
  -1   7  25   50.39   10.50
   7  -6  25   47.60    7.80
  -6  -1  25   30.00    6.60
   7  -6  25   44.50    8.30
  -2  -7 -25   25.70    8.40
   9  -2 -25   11.00    4.80
   7  -9  25    4.60    6.10
  -9   2  25   16.30    4.70
   7  -9  25   12.70    7.40
  -5  -7 -25   22.40    9.00
   7 -12  25   26.10   10.80
 -12   5  25   30.40    4.20
  -8  -7 -25    1.90    6.50
   7 -15  25   -7.40    7.00
  12  -8 -25    8.30    5.20
  -8  -4 -25    8.20    5.80
   8   4  25    2.20    5.50
 -12   8  25    0.20    4.40
   4 -12  25   -1.30    7.20
  -8  -1 -25    3.50    4.30
   9  -8 -25   -7.50    4.00
   8   1  25    1.20    4.10
   1  -9  25    0.20    6.00
  -9   8  25    2.40    5.30
  -8   2 -25   39.00    6.30
   6  -8 -25   39.00    9.30
  -6   8  25   37.70    9.40
  -2  -6  25   57.39   12.40
  -2  -6  25   52.99   11.30
   8  -2  25   47.30    5.80
   3  -8 -25    5.90    5.90
  -5  -3  25    6.80    5.20
  -3   8  25    3.80    5.90
   8  -5  25    5.20    3.50
  -5  -3  25   -4.80    4.60
   0  -8 -25    1.50    5.80
  -8   0  25    2.40    3.70
   8  -8  25    1.00    5.00
   8  -8  25   -1.80    4.50
  -3  -8 -25    7.90    8.30
   8 -11  25   -6.50    5.40
 -11   3  25    4.00    3.00
  -6  -8 -25    1.20    6.10
   8 -14  25    0.80    8.60
  -9  -5 -25   -0.40    5.30
  14  -9 -25   -0.70    3.80
   5 -14  25  -10.20    6.20
  11  -9 -25    5.20    5.50
  -9  -2 -25    9.00    5.00
   2 -11  25   -0.30   11.10
   9   2  25    3.00    4.80
 -11   9  25    6.70    6.00
   8  -9 -25    5.10    5.80
  -9   1 -25    5.00    3.80
   9  -1  25    1.40    3.40
  -8   9  25    3.80    5.60
  -1  -8  25    8.20    7.80
   5  -9 -25   -5.30    4.90
  -4  -5  25    1.00    5.90
   9  -4  25    1.50    2.80
  -4  -5  25   -2.90    4.90
   2  -9 -25   13.70    7.20
   9  -7  25   11.30    5.50
  -7  -2  25    7.80    4.20
   9  -7  25   13.00    5.90
  -7  -2  25   31.40    7.50
  -1  -9 -25    4.40    7.30
 -10   1  25    0.90    3.30
   9 -10  25   19.70    8.40
 -10   1  25   -0.70    3.00
  -4  -9 -25    1.50    8.50
   9 -13  25   -1.90    6.80
 -10  -3 -25    1.30    4.40
  13 -10 -25    3.50    5.20
  10   3  25   -0.60    4.60
   3 -13  25    2.10    8.30
 -13  10  25    0.40    5.40
 -10   0 -25    0.10    3.10
  10 -10 -25   -4.60    4.60
   0 -10  25    3.80    7.90
  10   0  25   -1.40    2.80
   7 -10 -25   48.60   11.10
  -3  -7  25   35.50   10.70
  10  -3  25   31.00    4.10
   4 -10 -25   58.09   12.40
  -6  -4  25   52.29   10.40
  -6  -4  25   50.99   11.00
  10  -6  25   54.59    7.00
  10  -6  25   50.59    8.40
   1 -10 -25   -1.50    5.70
  10  -9  25    0.70    5.00
  -9  -1  25    1.90    4.20
  -9  -1  25    5.30    4.70
  10  -9  25   -0.60    4.40
  -2 -10 -25    7.40    8.80
  10 -12  25   -0.70    7.00
  -5 -10 -25    3.50    8.30
  10 -15  25   10.90    9.50
 -11  -4 -25    7.90    7.10
  15 -11 -25    1.50    4.80
   4 -15  25   -6.80    9.30
  12 -11 -25   24.80    8.70
 -11  -1 -25   19.60    4.40
   1 -12  25   25.10   12.10
   9 -11 -25   -0.50    6.30
  -2  -9  25    8.90    7.80
   6 -11 -25    0.10    6.80
  -5  -6  25   -0.30    6.40
  11  -5  25    3.30    2.40
  11  -5  25    4.20    2.60
   3 -11 -25  -11.50    5.60
  -8  -3  25    1.90    5.90
  11  -8  25    8.90    5.40
  -8  -3  25    3.40    5.80
  11  -8  25    6.30    5.10
   0 -11 -25   -3.80    6.80
  11 -11  25   -0.80    5.30
 -11   0  25    5.10    3.70
  -3 -11 -25   38.20   13.20
  11 -14  25   40.30   12.40
  14 -12 -25   -1.60    5.20
   2 -14  25    9.60   11.40
  11 -12 -25   11.90    7.40
  -1 -11  25   21.10   11.50
   8 -12 -25   -3.90    7.00
  -4  -8  25   23.40   10.40
   5 -12 -25   23.90   10.00
  12  -7  25   39.90    7.90
  12  -7  25   36.60    5.90
  -7  -5  25   20.40    8.60
   2 -12 -25   11.40   10.00
 -10  -2  25    8.20    5.60
 -10  -2  25    4.20    5.30
  12 -10  25   13.20    7.80
  12 -10  25    9.80    7.10
  -1 -12 -25   -5.10    7.70
  12 -13  25   10.40    8.40
  13 -13 -25   13.50    8.90
   0 -13  25   -4.10    8.30
  10 -13 -25    1.50    6.90
  -3 -10  25    0.40    8.10
   7 -13 -25   10.40    8.30
  -6  -7  25    0.40    6.20
   4 -13 -25    0.30    8.30
  -9  -4  25   10.20    7.30
  13  -9  25   -0.70    4.10
  -9  -4  25    6.30    7.50
  13  -9  25   -1.60    4.20
   1 -13 -25   13.50   11.10
 -12  -1  25    5.20    4.00
 -12  -1  25    2.10    3.30
  13 -12  25    3.70    6.10
  12 -14 -25   10.50    8.50
  -2 -12  25    0.90    9.70
   9 -14 -25    6.60    8.60
  -5  -9  25    4.30   10.30
   6 -14 -25   19.30   10.90
  -8  -6  25    6.70    7.80
   3 -14 -25   30.50   13.20
  14 -11  25   35.60    8.70
  11 -15 -25    8.70    8.90
  -4 -11  25    1.80    9.40
   8 -15 -25  -14.50    6.60
  -7  -8  25   27.20   10.70
   5 -15 -25   11.60   10.90
 -10  -5  25    6.70    6.90
   1   0 -26   90.99    8.30
  -1   1 -26   84.49    8.00
   0  -1 -26   94.29    8.20
  -1   0  26   99.69    8.20
   1  -1  26   92.89    7.90
   0   1  26   97.19    8.20
   2  -2 -26  933.71   26.60
   0   2 -26  873.91   27.80
  -2   0 -26  858.81   25.30
   0  -2  26  892.81   27.00
   2   0  26  898.61   25.50
  -2   2  26  879.41   26.00
   3  -1 -26  126.79    9.70
  -1  -2 -26  128.59    9.70
  -2   3 -26  124.09   10.40
  -3   1  26  143.59    9.70
   2  -3  26  143.69   10.40
   1   2  26  151.98   10.20
  -1   4 -26  408.86   20.20
  -3  -1 -26  464.25   17.70
   4  -3 -26  466.75   18.00
   1  -4  26  460.15   20.40
  -4   3  26  459.05   18.00
   3   1  26  456.25   17.40
  -3   2 -26  142.89   10.10
   2   1 -26  128.19   10.10
   1  -3 -26  140.69   10.40
   3  -2  26  135.99    9.50
  -2  -1  26  120.19    9.40
  -1   3  26  114.99    9.50
  -2  -3 -26  636.44   23.30
   5  -2 -26  663.73   22.20
   3  -5  26  644.84   25.20
   2   3  26  664.13   24.10
  -5   2  26  658.73   21.50
   6  -4 -26  136.39   10.30
  -4  -2 -26  130.79   10.50
   2  -6  26  127.89   12.60
  -6   4  26  130.59   10.00
   4   2  26  135.29   10.40
   2  -6  26  108.59   12.30
  -4   1 -26  438.36   17.00
   3  -4 -26  440.76   18.70
   1   3 -26  476.15   21.00
   4  -1  26  451.15   16.60
  -1  -3  26  474.55   20.00
  -3   4  26  467.45   19.20
   0  -4 -26  372.96   18.00
  -4   4 -26  344.77   17.40
   4   0 -26  401.96   17.00
   0   4  26  361.36   17.80
  -4   0  26  396.86   16.10
   4  -4  26  373.56   17.00
  -3  -4 -26  374.26   18.90
   7  -3 -26  385.06   16.50
   4  -7  26  363.96   20.80
   4  -7  26  453.95   35.50
   3   4  26  391.76   19.80
  -7   3  26  361.56   15.60
   8  -5 -26  199.28   12.40
  -5  -3 -26  182.78   12.90
   3  -8  26  174.98   16.40
  -8   5  26  177.08   11.90
   3  -8  26  196.78   17.20
   5   3  26  181.08   13.30
  -5   0 -26  328.17   14.50
   5  -5 -26  327.77   16.40
  -5   5  26  339.67   17.10
   0  -5  26  351.06   19.30
   5   0  26  328.67   14.20
  -5   3 -26  684.93   22.70
   3   2 -26  610.54   24.00
   2  -5 -26  617.54   24.30
   5  -3  26  634.04   21.20
  -2   5  26  657.23   25.20
  -3  -2  26  636.54   23.20
   6  -1 -26  431.66   17.80
  -1  -5 -26  426.26   27.20
   1   5  26  436.36   21.30
   5  -6  26  413.06   20.20
  -6   1  26  399.56   16.40
  -4  -5 -26  211.38   15.70
   9  -4 -26  204.98   12.20
  -9   4  26  201.98   11.90
   5  -9  26  236.58   19.20
   4   5  26  176.98   15.30
  10  -6 -26  156.48   11.40
  -6  -4 -26  116.39   12.00
 -10   6  26  143.09   11.20
   6   4  26  116.79   15.10
   4 -10  26  121.49   16.40
  -6  -1 -26   32.90    6.40
   7  -6 -26   35.90    7.70
   1  -7  26   44.50   10.00
   6   1  26   45.70    6.90
   1  -7  26   56.99   12.40
  -7   6  26   43.00    8.50
   4  -6 -26  132.09   11.70
  -6   2 -26  137.29    9.60
  -4   6  26  144.59   12.40
  -2  -4  26  138.49   12.40
   6  -2  26  124.19    8.70
   1  -6 -26  389.26   20.30
   5   1 -26  397.46   18.70
  -1   6  26  402.36   21.30
   6  -5  26  381.36   17.50
  -5  -1  26  421.86   17.80
   8  -2 -26  188.08   11.70
  -2  -6 -26  177.08   14.90
   6  -8  26  160.08   14.90
   6  -8  26  153.68   14.60
   2   6  26  150.78   14.50
  -8   2  26  161.58   10.20
  -5  -6 -26   22.80    8.90
  11  -5 -26   21.30    5.50
   6 -11  26   21.30   10.50
 -11   5  26   26.20    5.30
  12  -7 -26   14.20    5.10
  -7  -5 -26    4.40    5.60
   5 -12  26   -1.30    7.30
 -12   7  26    7.10    4.60
   7   5  26   16.70    8.70
  -7  -2 -26   10.70    5.30
   9  -7 -26    9.00    5.50
  -9   7  26    4.30    4.50
   7   2  26    3.00    3.70
   2  -9  26   22.40   10.00
  -7   1 -26   44.20    6.50
   6  -7 -26   31.80    7.60
  -6   7  26   46.40    9.70
   7  -1  26   37.80    5.90
  -1  -6  26   50.39   10.60
  -1  -6  26   34.80    9.10
   3  -7 -26  378.16   20.70
  -7   4 -26  373.56   17.10
  -4  -3  26  387.76   19.40
   7  -4  26  392.16   15.90
  -3   7  26  425.46   22.40
   0  -7 -26    0.40    5.20
   7   0 -26    6.50    5.10
  -7   0  26    0.80    3.80
   7  -7  26    1.50    4.90
   0   7  26    7.00    6.50
   7  -7  26    1.80    4.20
  -3  -7 -26   30.20    9.70
  10  -3 -26   41.70    6.90
 -10   3  26   37.90    7.90
   7 -10  26   36.20   10.10
  -6  -7 -26    0.90    6.50
   7 -13  26   -7.00    5.50
  -8  -6 -26   -6.30    5.60
  14  -8 -26   12.50    4.20
   6 -14  26   12.20   11.10
  -8  -3 -26  201.48   14.00
 -11   8  26  167.78   13.60
   8   3  26  181.08   14.40
   3 -11  26  208.88   21.40
   8  -8 -26   60.99   10.50
  -8   0 -26   61.29    7.40
  -8   8  26   62.79   11.60
   0  -8  26   81.69   14.80
   8   0  26   48.60    6.90
  -8   3 -26  206.78   11.40
   5  -8 -26  199.28   15.80
  -3  -5  26  191.78   15.70
  -3  -5  26  208.88   16.10
  -5   8  26  179.78   15.70
   2  -8 -26  168.48   15.70
   8  -6  26  128.79   10.90
  -6  -2  26  156.58   12.20
   8  -6  26  151.48   11.80
  -1  -8 -26   70.69   13.60
   8  -9  26   54.99   11.00
  -9   1  26   66.89    7.60
   8  -9  26   80.39   11.70
  -4  -8 -26  129.29   16.00
   8 -12  26  136.09   17.30
  -7  -8 -26    3.20    7.90
   8 -15  26    2.60    9.80
  13  -9 -26   53.89   11.10
  -9  -4 -26   66.89   10.30
   4 -13  26   61.69   16.30
   9   4  26   74.39   12.70
 -13   9  26   61.69    9.30
  -9  -1 -26  148.89   10.80
  10  -9 -26  153.58   14.20
 -10   9  26  148.69   14.40
   1 -10  26   97.79   17.60
   9   1  26  170.58   11.60
   7  -9 -26    6.50    6.20
  -9   2 -26    5.60    3.90
  -2  -7  26    1.30    7.10
   9  -2  26    2.60    3.00
   4  -9 -26  194.48   17.00
   9  -5  26  177.88   11.30
  -5  -4  26  189.38   15.30
   9  -5  26  189.28   11.10
   1  -9 -26   57.59   12.80
   9  -8  26   51.29   10.20
   9  -8  26   59.79    9.60
  -8  -1  26   82.79    9.10
  -8  -1  26   82.99    9.40
  -2  -9 -26   88.19   15.70
   9 -11  26  103.19   14.70
 -11   2  26   90.59    6.70
 -11   2  26   87.19    6.90
  -5  -9 -26   -0.20    7.40
   9 -14  26    6.90    9.70
  15 -10 -26   27.90    8.90
 -10  -5 -26   33.30    9.40
   5 -15  26   11.70   11.80
  12 -10 -26   36.80    9.10
 -10  -2 -26   32.70    7.20
  10   2  26   30.60    7.00
 -12  10  26   44.50   10.70
   2 -12  26   44.80   13.60
 -10   1 -26  152.48    8.10
   9 -10 -26  130.09   14.30
  10  -1  26  146.99    8.10
  -1  -9  26  143.79   17.80
   6 -10 -26  115.99   14.40
  10  -4  26  128.79    7.80
  10  -4  26  118.39    7.30
  -4  -6  26  124.19   15.30
   3 -10 -26   36.20   10.40
  10  -7  26   28.10    7.80
  -7  -3  26   48.30   10.00
  -7  -3  26   41.20    9.10
  10  -7  26   48.40    7.60
   0 -10 -26    2.20    7.80
  10 -10  26    9.30    6.90
 -10   0  26    0.50    3.70
 -10   0  26    4.70    4.40
  -3 -10 -26   41.40   11.80
  10 -13  26   27.00   11.40
 -11  -3 -26   54.59    9.10
  14 -11 -26   42.90    9.90
   3 -14  26   56.49   16.20
  11 -11 -26   32.90    9.70
   0 -11  26   37.70   14.10
   8 -11 -26  218.58   18.70
  -3  -8  26  188.98   19.40
   5 -11 -26   33.00   10.80
  11  -6  26   36.90    6.50
  -6  -5  26   18.30    8.70
   2 -11 -26   58.79   15.30
  11  -9  26   82.99   10.80
  -9  -2  26   86.89   10.80
  11  -9  26   83.79   11.00
  -9  -2  26   90.89   11.00
  -1 -11 -26   52.09   13.80
  11 -12  26   63.79   13.80
  13 -12 -26    8.70    7.00
   1 -13  26   13.20   11.00
  10 -12 -26   35.10   10.40
  -2 -10  26   17.80   10.10
   7 -12 -26    2.90    7.30
  -5  -7  26   13.90    9.30
   4 -12 -26  128.59   18.30
  -8  -4  26   95.89   13.20
  -8  -4  26  105.99   13.60
  12  -8  26  113.99   10.00
  12  -8  26  127.69   10.60
   1 -12 -26   43.80   13.50
  12 -11  26   46.20   11.10
 -11  -1  26   53.99    7.90
 -11  -1  26   43.40    7.20
  -2 -12 -26   35.90   13.30
  12 -14  26   15.80    8.90
  12 -13 -26   15.10    9.30
  -1 -12  26   10.90   10.60
   9 -13 -26   65.49   14.40
  -4  -9  26   38.10   12.10
   6 -13 -26    3.20    7.40
  -7  -6  26    8.70    6.80
   3 -13 -26   36.30   14.00
 -10  -3  26   33.50   11.40
  13 -10  26   33.30    9.00
  13 -10  26   30.50    8.10
 -10  -3  26   19.00    7.20
   0 -13 -26   -2.60   11.00
  13 -13  26   -3.00    5.50
  11 -14 -26   35.80   11.60
  -3 -11  26   47.30   14.90
   8 -14 -26    6.70    7.40
  -6  -8  26    3.10    6.90
   5 -14 -26   11.50   10.30
  14  -9  26    1.40    3.70
  -9  -5  26   13.20    7.70
  14  -9  26    8.10    3.60
   2 -14 -26    4.20   10.90
 -12  -2  26   13.00    5.60
  14 -12  26    9.30    7.30
  10 -15 -26   21.70   11.10
  -5 -10  26   37.40   14.40
   7 -15 -26    3.10    8.80
  -8  -7  26    7.60    8.80
   0   0 -27    2.40    3.30
   0   0  27   -0.90    2.90
  -1  -1 -27   77.39    7.80
   2  -1 -27   90.69    8.20
  -1   2 -27   84.89    8.70
  -2   1  27   88.79    7.90
   1  -2  27   99.99    8.70
   1   1  27   72.09    7.50
  -2   1 -27   98.69    8.50
   1  -2 -27   75.49    7.80
   1   1 -27   75.19    8.20
   2  -1  27   86.39    7.70
  -1  -1  27   92.99    8.30
  -1   2  27  100.29    8.50
  -2   4 -27  162.38   12.70
   4  -2 -27  167.38   10.80
  -2  -2 -27  155.58   10.90
   2  -4  27  175.28   12.40
   2   2  27  141.89   10.50
  -4   2  27  175.28   10.80
   3  -3 -27    0.10    3.60
  -3   0 -27    3.40    3.60
   0   3 -27   -2.80    3.10
   0  -3  27    1.20    3.90
  -3   3  27   -1.90    3.00
   3   0  27    0.90    3.10
   0  -3 -27    1.00    3.20
  -3   3 -27    4.70    4.40
   3   0 -27    6.70    3.80
   0   3  27   -1.20    3.10
  -3   0  27    5.90    3.60
   3  -3  27   -0.50    2.90
   6  -3 -27  167.18   11.00
  -3  -3 -27  147.59   11.60
   3   3  27  149.79   11.70
  -6   3  27  162.98   10.70
   3  -6  27  156.18   13.80
  -4  -1 -27   71.79    7.90
   5  -4 -27   76.79    8.40
  -5   4  27   77.19    8.40
   4   1  27   91.89    8.30
   1  -5  27   77.79   10.20
   2  -4 -27  160.28   11.70
  -4   2 -27  159.68   10.80
   2   2 -27  159.28   12.10
  -2  -2  27  153.08   11.20
  -2   4  27  160.58   11.70
   4  -2  27  179.78   10.60
   5  -1 -27  470.35   18.80
  -1  -4 -27  457.45   20.50
   4  -5  27  480.25   20.90
   1   4  27  478.55   21.00
  -5   1  27  497.75   18.40
   8  -4 -27   29.20    6.60
  -4  -4 -27   17.60    8.00
   4   4  27   22.00    7.00
  -8   4  27   28.20    6.30
   4  -8  27   10.70    6.60
   4  -8  27   14.80    7.90
  -5  -2 -27  185.48   12.20
   7  -5 -27  194.78   12.50
  -7   5  27  183.98   12.50
   5   2  27  176.58   12.40
   2  -7  27  194.08   16.40
   2  -7  27  211.28   17.10
  -5   1 -27   80.39    7.90
   4  -5 -27   90.39    9.50
  -4   5  27   91.39    9.70
  -1  -4  27   92.19   10.40
   5  -1  27   81.99    7.70
   4   1 -27  472.95   20.10
   1  -5 -27  460.35   21.10
  -5   4 -27  452.85   19.70
  -4  -1  27  480.25   19.20
  -1   5  27  453.45   21.10
   5  -4  27  459.85   18.60
  -2  -5 -27   41.80    9.10
   7  -2 -27   33.70    7.10
   5  -7  27   21.50    7.60
   2   5  27   43.40    9.40
  -7   2  27   32.40    6.50
   5  -7  27   25.50    7.80
  10  -5 -27    0.80    4.20
  -5  -5 -27   11.10    6.60
   5   5  27    1.40    4.90
   5 -10  27    8.70    8.80
 -10   5  27    3.20    3.90
   9  -6 -27    7.30    5.70
  -6  -3 -27   -0.70    4.20
   6   3  27    5.30    4.70
  -9   6  27   15.70    6.30
   3  -9  27    5.50    7.20
   6  -6 -27   -0.30    4.10
  -6   0 -27   -0.20    3.00
  -6   6  27   -3.60    3.30
   0  -6  27   -4.60    4.50
   6   0  27   -0.30    3.10
   0  -6  27   -6.90    3.40
   3  -6 -27  155.58   13.20
  -6   3 -27  156.58   10.90
  -3   6  27  159.18   13.20
  -3  -3  27  134.29   11.60
   6  -3  27  150.68    9.90
   0  -6 -27   -0.60    4.10
   6   0 -27   -5.90    3.10
   0   6  27   -2.40    4.20
  -6   0  27   -3.70    3.30
   6  -6  27    1.10    3.80
  -3  -6 -27   16.40    7.70
   9  -3 -27   31.20    6.30
  -9   3  27   22.30    5.40
   6  -9  27   32.40    9.60
   3   6  27   18.80    7.80
  12  -6 -27   11.90    4.80
  -6  -6 -27    6.70    6.40
   6 -12  27   -1.00    7.40
 -12   6  27   15.80    4.90
  11  -7 -27   22.30    6.40
  -7  -4 -27   11.30    6.20
   7   4  27   15.90    7.20
   4 -11  27   16.20    9.60
 -11   7  27    4.00    4.70
   8  -7 -27   24.80    8.80
  -7  -1 -27   32.40    6.60
   7   1  27   30.10    6.60
   1  -8  27   27.00    9.40
  -8   7  27   18.40    7.50
   5  -7 -27  193.88   14.80
  -7   2 -27  202.78   11.40
   7  -2  27  191.38   10.50
  -2  -5  27  192.68   15.90
   2  -7 -27   41.90    9.50
  -5  -2  27   49.00    8.70
  -2   7  27   26.70    7.90
   7  -5  27   44.10    7.90
  -1  -7 -27    8.00    6.90
   8  -1 -27    3.40    4.60
  -8   1  27   -5.50    2.40
   7  -8  27   -3.80    4.60
   7  -8  27    5.60    4.90
  11  -4 -27    4.90    4.30
  -4  -7 -27   -8.80    5.80
   7 -11  27   -0.10    8.30
  -7  -7 -27   16.70    8.20
   7 -14  27   13.20   10.10
  -8  -5 -27    6.90    5.90
  13  -8 -27    5.60    4.90
 -13   8  27    4.20    4.70
   5 -13  27    7.80    9.20
  10  -8 -27   -0.80    4.50
  -8  -2 -27    7.10    5.50
   2 -10  27   -5.40    5.50
 -10   8  27    7.40    6.20
   8   2  27    3.60    4.70
  -8   1 -27   38.50    6.90
   7  -8 -27   24.60    8.10
   8  -1  27   18.20    5.00
  -7   8  27    8.20    6.00
  -1  -7  27   27.70   10.20
   4  -8 -27   22.70    7.60
  -4   8  27   13.50    7.00
   8  -4  27   33.90    6.10
  -4  -4  27   22.80    7.80
  -4  -4  27   19.40    7.80
   1  -8 -27    2.90    5.90
  -7  -1  27   -0.20    3.70
   8  -7  27    5.00    4.40
   8  -7  27    1.00    3.80
  -2  -8 -27   28.50   10.60
   8 -10  27   30.90   10.10
 -10   2  27   30.50    5.90
  -5  -8 -27    6.90    7.70
   8 -13  27   24.20   11.10
  -9  -6 -27   16.50    8.70
   6 -15  27  -13.40    6.60
  -9  -3 -27    8.60    8.80
  12  -9 -27   14.10    6.80
   3 -12  27   -4.20    7.00
 -12   9  27    2.00    8.40
   9   3  27   -0.30    5.40
   9  -9 -27   -5.00    4.60
  -9   0 -27   -4.30    3.80
   0  -9  27    2.20    6.70
   9   0  27    1.20    3.60
  -9   9  27   -5.10    4.70
  -9   3 -27   11.40    4.50
   6  -9 -27    4.60    5.70
  -3  -6  27   -3.30    6.00
  -3  -6  27   16.30   10.30
   9  -3  27    4.40    3.40
   3  -9 -27   12.90    7.40
   9  -6  27   31.80    7.30
  -6  -3  27   36.10    8.50
  -6  -3  27   20.60    8.60
   9  -6  27   43.30    7.90
   0  -9 -27   -3.70    5.40
   9  -9  27   -8.60    4.60
  -9   0  27   -5.90    3.10
  -9   0  27   -3.30    3.60
   9  -9  27    1.10    5.50
  -3  -9 -27   12.50    8.80
   9 -12  27   24.80   10.70
  -6  -9 -27    2.00    8.10
   9 -15  27    5.30    9.40
  14 -10 -27   -3.30    4.90
 -10  -4 -27    5.00    5.40
   4 -14  27   -0.50    8.90
  11 -10 -27   -5.90    4.40
 -10  -1 -27    4.50    4.20
   1 -11  27   -2.90    6.40
  10   1  27    2.90    3.90
   8 -10 -27   -0.80    5.30
  -2  -8  27   10.90    7.40
  10  -2  27    5.30    3.10
   5 -10 -27   -4.90    5.70
  -5  -5  27    2.20    6.30
  10  -5  27    3.60    3.30
  -5  -5  27    8.10    6.70
  10  -5  27   -5.10    2.60
   2 -10 -27   30.00   10.40
  -8  -2  27   24.40    7.40
  10  -8  27   30.40   13.70
  -8  -2  27   23.50    7.50
  10  -8  27   27.90    8.00
  -1 -10 -27    7.00    9.10
 -11   1  27   10.10    4.40
  10 -11  27   17.70    8.30
  -4 -10 -27   10.40    8.90
  10 -14  27   -2.70    7.10
 -11  -2 -27    1.20    3.90
  13 -11 -27    8.60    6.70
   2 -13  27    1.50    7.20
  10 -11 -27    1.40    5.10
  -1 -10  27   14.10    9.60
   7 -11 -27   -1.00    6.50
  -4  -7  27    1.00    6.00
   4 -11 -27    2.40    7.50
  -7  -4  27   -1.30    5.70
  11  -7  27   -6.00    3.40
  11  -7  27    4.30    4.30
  -7  -4  27    7.00    7.30
   1 -11 -27   18.60   10.60
 -10  -1  27    9.20    5.20
  11 -10  27   12.90    7.20
  11 -10  27    2.80    5.30
 -10  -1  27   16.30    6.20
  -2 -11 -27    4.60    8.60
  11 -13  27   -1.50    7.40
  12 -12 -27    3.10    7.10
   0 -12  27    4.80    7.70
   9 -12 -27   -2.20    6.40
  -3  -9  27   12.80   15.60
   6 -12 -27   21.00   10.10
  -6  -6  27   18.30    9.40
  12  -6  27   13.40    3.20
  12  -6  27   12.40    2.90
   3 -12 -27   24.30   12.50
  -9  -3  27   15.80    6.80
  12  -9  27    8.50    5.80
  -9  -3  27   25.90    8.20
   0 -12 -27    5.10    9.10
 -12   0  27    2.60    2.90
  12 -12  27   -2.40    5.30
 -12   0  27    0.30    2.70
  11 -13 -27    2.40    6.10
  -2 -11  27   -4.00    7.70
   8 -13 -27   -5.50    5.60
  -5  -8  27   -0.40    6.30
   5 -13 -27   15.70    9.80
  13  -8  27   10.80    4.50
  -8  -5  27    7.60    7.90
   2 -13 -27    8.70    9.20
  13 -11  27   -1.10    7.30
  13 -11  27   -2.70    4.30
 -11  -2  27    6.80    5.40
 -11  -2  27   -2.00    4.20
  10 -14 -27   12.30    9.30
  -4 -10  27    6.50    7.90
   7 -14 -27   28.70   12.50
  -7  -7  27   12.60    8.80
   4 -14 -27    2.50    8.40
  14 -10  27    9.30    5.10
 -10  -4  27    4.80    7.10
   9 -15 -27   28.10   12.20
  -6  -9  27    5.00    7.70
   6 -15 -27    1.80   10.40
  -9  -6  27   -7.50    5.70
   0   1 -28 1306.17   34.90
  -1   0 -28 1266.97   33.60
   1  -1 -28 1303.77   34.00
   1   0  28 1238.98   33.00
  -1   1  28 1288.17   33.60
   0  -1  28 1317.87   34.20
  -1   3 -28 1141.89   34.30
  -2  -1 -28 1162.38   31.60
   3  -2 -28 1137.39   31.50
   2   1  28 1120.99   31.10
   1  -3  28 1112.29   33.00
  -3   2  28 1136.79   31.40
   0  -2 -28  344.87   15.50
  -2   2 -28  341.17   15.80
   2   0 -28  325.97   15.30
   0   2  28  330.67   15.40
  -2   0  28  323.57   14.90
   2  -2  28  350.56   15.60
   5  -3 -28  161.38   11.00
  -3  -2 -28  161.28   11.30
   3   2  28  162.98   11.50
   2  -5  28  179.28   13.50
  -5   3  28  162.48   10.90
  -3   1 -28 1129.79   31.10
   1   2 -28 1111.49   33.60
   2  -3 -28 1138.09   32.10
  -1  -2  28 1108.79   32.40
   3  -1  28 1155.78   30.80
  -2   3  28 1137.79   32.20
   4  -1 -28 1010.30   29.30
  -3   4 -28  991.40   32.30
  -1  -3 -28 1035.40   30.90
   1   3  28  951.20   30.40
   3  -4  28  999.60   31.20
  -4   1  28  974.40   28.30
   7  -4 -28  317.67   15.60
  -4  -3 -28  312.57   16.70
   3  -7  28  351.96   21.00
   3  -7  28  298.97   19.90
   4   3  28  291.97   16.60
  -7   4  28  333.07   15.80
   0   4 -28  250.77   16.50
   4  -4 -28  272.47   14.60
  -4   0 -28  274.37   13.60
   4   0  28  242.28   12.70
  -4   4  28  272.27   14.70
   0  -4  28  274.07   16.20
   3   1 -28 1023.20   31.20
   1  -4 -28 1042.70   31.80
  -4   3 -28  940.21   29.80
  -1   4  28 1023.00   31.80
   4  -3  28 1006.90   29.40
  -3  -1  28  978.40   29.70
   6  -2 -28  597.74   21.70
  -2  -4 -28  548.45   23.30
   2   4  28  614.34   24.90
  -6   2  28  617.54   21.10
   4  -6  28  626.44   26.10
  -5  -4 -28  376.46   19.60
   9  -5 -28  337.87   16.60
   5   4  28  369.86   20.90
   4  -9  28  315.27   22.70
  -9   5  28  366.46   17.00
   6  -5 -28  435.46   19.30
  -5  -1 -28  470.65   18.60
  -6   5  28  415.76   19.30
   1  -6  28  440.76   23.10
   5   1  28  453.55   18.40
   1  -6  28  520.15   27.70
  -5   2 -28  160.68   10.80
   2   3 -28  165.28   13.20
   3  -5 -28  187.08   13.10
  -2  -3  28  152.38   12.20
   5  -2  28  168.28   10.30
  -3   5  28  175.18   12.90
   5   0 -28   13.80    5.60
   5  -5  28   16.60    6.00
   0   5  28    9.60    5.50
  -5   0  28   15.60    5.40
   8  -3 -28  140.89   10.80
  -3  -5 -28  158.28   13.80
  -8   3  28  158.48   10.50
   5  -8  28  141.09   14.70
   5  -8  28  173.68   15.80
   3   5  28  149.39   13.80
  11  -6 -28   50.59    7.90
  -6  -5 -28   37.30    8.80
   5 -11  28   50.09   14.20
 -11   6  28   26.60    6.60
   6   5  28   17.80    7.90
  -6  -2 -28   81.99    9.30
   8  -6 -28   65.99    9.00
   6   2  28   72.09    9.20
  -8   6  28   70.49    9.50
   2  -8  28   87.59   13.20
  -6   1 -28  458.75   17.70
   5  -6 -28  462.25   21.90
  -5   6  28  475.25   21.80
   6  -1  28  464.65   17.40
  -1  -5  28  439.16   22.70
   4   2 -28  619.24   24.90
   2  -6 -28  586.04   25.30
  -6   4 -28  634.44   23.50
  -4  -2  28  608.84   23.40
  -2   6  28  594.24   26.00
   6  -4  28  621.64   22.10
   7  -1 -28  121.99   10.50
  -1  -6 -28   90.99   11.60
   6  -7  28   96.39   11.50
  -7   1  28   98.79    8.80
   1   6  28  102.69   12.30
   6  -7  28  107.39   11.80
  -4  -6 -28   81.59   12.30
  10  -4 -28   55.19    7.90
 -10   4  28   76.99    8.00
   6 -10  28   68.19   14.40
  -7  -6 -28    0.50    5.90
  13  -7 -28    1.00    3.70
   6 -13  28    8.40    8.70
 -13   7  28   -0.20    3.30
  10  -7 -28  107.09   11.30
  -7  -3 -28  117.59   14.50
 -10   7  28  123.39   12.00
   3 -10  28  106.39   16.20
   7   3  28  121.39   12.50
   7  -7 -28   20.70    6.90
  -7   0 -28   28.10    6.30
   0  -7  28   12.90   10.30
   0  -7  28   40.10   10.80
   7   0  28   23.30    5.90
  -7   7  28   12.60    6.50
   4  -7 -28  331.97   19.00
  -7   3 -28  304.57   14.90
   7  -3  28  310.77   13.90
  -4   7  28  312.37   19.30
  -3  -4  28  319.37   18.50
   1  -7 -28  107.49   12.70
   6   1 -28  104.49   11.20
  -6  -1  28  105.69   10.00
   7  -6  28  100.69   10.30
  -1   7  28   97.99   12.20
   9  -2 -28  108.79    9.90
  -2  -7 -28  104.99   13.40
   7  -9  28   93.79   15.50
  -9   2  28  101.09    8.80
   7  -9  28  107.99   13.80
  12  -5 -28  142.19    9.20
  -5  -7 -28  125.59   15.40
   7 -12  28  119.29   23.10
 -12   5  28  129.29    9.00
  -8  -7 -28   15.20    9.20
   7 -15  28   17.30   10.60
  -8  -4 -28   95.19   11.90
  12  -8 -28  112.29   11.10
   4 -12  28  127.29   19.20
   8   4  28  104.99   12.80
 -12   8  28   91.69   10.80
  -8  -1 -28   82.39    9.10
   9  -8 -28   95.09   11.40
   1  -9  28   83.99   16.70
   8   1  28   75.99    8.80
  -9   8  28   71.29   10.90
   6  -8 -28   78.99   11.00
  -8   2 -28   66.99    7.50
  -2  -6  28   74.79   11.90
  -2  -6  28   47.50   11.10
  -6   8  28   76.09   11.10
   8  -2  28   84.79    7.40
   3  -8 -28  158.38   15.10
   8  -5  28  151.48   10.80
  -5  -3  28  159.68   13.30
   0  -8 -28    7.50    6.80
   8  -8  28    0.10    5.00
   8  -8  28   -7.00    4.10
  -8   0  28    2.30    3.90
  -3  -8 -28  177.68   18.00
 -11   3  28  193.38   14.80
   8 -11  28  175.08   18.40
   8 -14  28    4.70    9.70
  14  -9 -28   16.40    5.70
  -9  -5 -28   15.20    7.70
   5 -14  28    6.20    8.90
 -14   9  28    4.40    5.70
  11  -9 -28  143.79   13.60
  -9  -2 -28  148.39   12.00
   2 -11  28  148.59   19.20
   9   2  28  135.79   11.80
 -11   9  28  124.19   13.50
  -9   1 -28   79.19    8.10
   8  -9 -28  118.69   13.10
   9  -1  28   94.89   12.80
  -1  -8  28   78.29   14.20
   5  -9 -28  330.97   21.70
   9  -4  28  338.37   14.10
  -4  -5  28  318.77   20.50
  -4  -5  28  334.37   21.40
   2  -9 -28  127.99   15.10
   9  -7  28  104.29   10.90
  -7  -2  28  129.79   11.90
   9  -7  28   80.39   10.30
  -7  -2  28   91.79   10.80
  -1  -9 -28  116.79   16.00
 -10   1  28  112.89    9.00
   9 -10  28  125.99   14.70
 -10   1  28  100.59    9.30
  -4  -9 -28    7.20    8.20
   9 -13  28   22.60   10.20
  13 -10 -28   66.09   10.60
 -10  -3 -28   56.59   12.00
   3 -13  28   68.19   16.60
  10   3  28   72.49   11.10
 -13  10  28   57.09   11.50
 -10   0 -28   96.99    8.10
  10 -10 -28   51.39   10.80
   0 -10  28   68.29   17.20
   7 -10 -28  139.79   15.30
  10  -3  28  129.19    7.70
  -3  -7  28  124.99   16.50
   4 -10 -28   54.69   12.50
  -6  -4  28   69.29   11.50
  10  -6  28   65.09    8.40
  -6  -4  28   58.69   11.20
  10  -6  28   70.19    8.10
   1 -10 -28  123.19   17.10
  10  -9  28   93.49   12.20
  -9  -1  28  111.09   10.80
  -9  -1  28  108.29   11.30
  10  -9  28  112.89   13.10
  -2 -10 -28  154.98   19.00
  10 -12  28  146.09   17.10
  -5 -10 -28   64.39   14.50
  10 -15  28   55.69   16.60
 -11  -1 -28   26.10    5.40
  12 -11 -28   37.30   10.00
   1 -12  28   32.60   12.60
   9 -11 -28  148.39   15.90
  -2  -9  28  142.79   18.50
   6 -11 -28   45.60   12.00
  11  -5  28   42.20    5.60
  11  -5  28   30.10    4.90
  -5  -6  28   36.30   10.80
   3 -11 -28  162.78   22.30
  -8  -3  28  202.38   15.60
  11  -8  28  190.98   13.70
  -8  -3  28  204.98   16.40
  11  -8  28  197.78   14.40
   0 -11 -28   34.30   12.50
 -11   0  28   39.60    7.10
  11 -11  28   55.09   12.40
 -11   0  28   31.00    6.70
  -3 -11 -28   43.80   14.10
  11 -14  28   61.39   15.60
  14 -12 -28   11.40    7.50
   2 -14  28  -10.60    9.00
  11 -12 -28   23.30    9.10
  -1 -11  28   20.50   10.40
   8 -12 -28   99.49   15.40
  -4  -8  28  101.09   17.90
   5 -12 -28  136.99   18.20
  12  -7  28  132.59    9.40
  12  -7  28  137.69    9.70
  -7  -5  28  167.38   16.70
   2 -12 -28  157.88   20.10
  12 -10  28  141.29   13.90
  12 -10  28  123.99   13.80
 -10  -2  28  125.39   12.40
 -10  -2  28  144.39   13.90
  -1 -12 -28    4.80   10.40
  12 -13  28   12.10   10.90
  13 -13 -28   50.49   14.70
   0 -13  28   20.90   12.40
  10 -13 -28   59.09   13.40
  -3 -10  28   61.59   15.00
   7 -13 -28   13.40    9.20
  -6  -7  28   -2.90    6.30
   4 -13 -28   26.20   12.50
  13  -9  28   30.30    7.00
  -9  -4  28   19.90    8.20
  13  -9  28    9.80    5.20
   1 -13 -28   21.80   11.40
 -12  -1  28   15.00    5.00
  13 -12  28    2.50    6.00
  12 -14 -28   17.00    9.40
  -2 -12  28   10.70   10.10
   9 -14 -28   25.40   11.20
  -5  -9  28    7.00    9.30
   6 -14 -28    4.00    9.70
  -8  -6  28   -6.70    5.30
   3 -14 -28   40.70   15.10
  14 -11  28   37.40    9.40
 -11  -3  28   54.79   10.00
   8 -15 -28   17.30   10.80
  -7  -8  28   14.70   10.10
   5 -15 -28   83.39   28.20
 -10  -5  28   99.69   14.60
   0  -1 -29    4.10    3.60
   1   0 -29   -1.20    3.30
  -1   1 -29    3.70    3.90
   0   1  29   -0.80    2.80
   1  -1  29    3.80    3.60
  -1   0  29   -0.70    2.30
   2  -2 -29   -5.70    2.50
  -2   0 -29    3.40    3.50
   0   2 -29    0.40    4.00
   0  -2  29    0.50    3.50
  -2   2  29   -3.60    2.60
   2   0  29    0.40    3.10
   3  -1 -29  420.76   17.90
  -2   3 -29  423.66   19.20
  -1  -2 -29  433.66   17.90
   2  -3  29  441.46   18.60
  -3   1  29  409.66   17.00
   1   2  29  447.76   18.10
   4  -3 -29   61.59    7.90
  -3  -1 -29   63.39    7.70
  -1   4 -29   64.39    9.70
   1  -4  29   46.80    7.80
  -4   3  29   61.79    7.70
   3   1  29   53.29    7.40
   2   1 -29  415.36   18.50
  -3   2 -29  446.46   18.40
   1  -3 -29  427.76   18.50
  -1   3  29  413.76   18.10
   3  -2  29  416.76   17.00
  -2  -1  29  436.16   18.10
  -3   5 -29   84.89   10.90
   5  -2 -29   86.79    8.80
  -2  -3 -29   71.59    9.00
  -5   2  29   76.09    8.10
   3  -5  29   66.19    9.20
   2   3  29   81.69    9.00
   6  -4 -29  162.08   11.80
  -4  -2 -29  183.08   12.40
   4   2  29  175.18   12.30
   2  -6  29  199.48   17.50
  -6   4  29  176.38   12.00
   3  -4 -29   64.99    8.30
   1   3 -29   55.19    8.90
  -4   1 -29   64.19    7.80
  -1  -3  29   72.89    9.00
  -3   4  29   64.79    8.20
   4  -1  29   50.09    6.70
  -4   4 -29    2.90    4.80
   4   0 -29   -1.70    3.50
   0  -4 -29    3.30    4.20
   0   4  29    3.20    3.70
  -4   0  29    1.70    3.40
   4  -4  29   -3.00    2.60
   7  -3 -29   18.10    5.80
   4  -7  29   14.20    6.90
   4  -7  29    9.30    6.60
   3   4  29   16.80    6.40
  -7   3  29   14.60    5.40
   8  -5 -29  116.09   10.50
  -5  -3 -29  106.39   11.00
   5   3  29  119.39   11.60
  -8   5  29  104.69   10.20
   3  -8  29  120.29   14.20
  -5   0 -29   -1.10    3.40
   5  -5 -29   -0.50    4.00
   0  -5  29    2.90    4.50
   5   0  29    0.50    3.30
  -5   5  29   -1.00    3.50
   2  -5 -29   65.29    9.20
  -5   3 -29   82.09    8.80
   3   2 -29   88.69   10.00
   5  -3  29   73.69    7.70
  -3  -2  29   58.69    8.30
  -2   5  29   72.49    9.30
  -1  -5 -29    2.60    4.60
   6  -1 -29   -1.20    4.00
   1   5  29    6.00    4.60
   5  -6  29    4.10    5.30
  -6   1  29    0.80    3.50
  -4  -5 -29   -4.60    3.60
   9  -4 -29   -3.90    3.70
   5  -9  29    4.50    6.20
   4   5  29    2.30    5.20
  -9   4  29    2.40    3.80
  10  -6 -29   -3.80    3.50
  -6  -4 -29    1.50    5.00
   6   4  29   -4.60    4.90
   4 -10  29  -10.20    5.40
 -10   6  29   -1.30    4.00
  -6  -1 -29   -0.70    3.30
   7  -6 -29   -0.70    3.80
   1  -7  29    7.50    6.50
  -7   6  29    7.80    4.70
   1  -7  29   -0.40    4.80
   6   1  29    6.10    4.20
  -6   2 -29  183.58   11.40
   4  -6 -29  150.18   12.90
  -2  -4  29  176.08   13.90
   6  -2  29  184.58   10.70
  -4   6  29  170.08   13.60
   5   1 -29    1.90    4.30
   1  -6 -29   -2.60    3.80
   6  -5  29    3.20    3.60
  -5  -1  29   -0.50    3.50
  -1   6  29    4.80    4.90
  -2  -6 -29   22.80    7.70
   8  -2 -29   44.40    8.40
   6  -8  29   31.00    9.70
   2   6  29   51.29   10.60
  -8   2  29   40.30    6.70
   6  -8  29   47.10   10.90
  11  -5 -29   13.20    5.40
  -5  -6 -29   24.50    8.90
   6 -11  29   11.80    8.70
 -11   5  29   15.70    5.20
  -7  -5 -29    5.70    6.40
  12  -7 -29    5.40    4.80
 -12   7  29    1.80    4.00
   5 -12  29    5.00    7.80
   9  -7 -29    6.10    5.00
  -7  -2 -29   16.30    6.20
   2  -9  29    9.00    7.70
   7   2  29    4.20    5.00
  -9   7  29   14.30    6.30
   6  -7 -29    6.10    4.50
  -7   1 -29    0.20    3.30
   7  -1  29    6.00    3.70
  -1  -6  29    0.50    6.20
  -1  -6  29    1.80    4.90
  -7   4 -29   21.40    6.70
   3  -7 -29   13.20    6.50
  -4  -3  29   20.10    6.90
   7  -4  29   20.30    5.50
  -3   7  29   16.90    7.20
   7   0 -29    2.60    4.80
   0  -7 -29    1.80    5.80
  -7   0  29    3.70    4.00
   7  -7  29   -2.10    3.80
   7  -7  29   -0.50    4.10
  10  -3 -29  116.29   10.10
  -3  -7 -29  119.69   14.90
 -10   3  29   94.09    8.70
   7 -10  29   93.09   14.70
  -6  -7 -29   39.40   10.30
  13  -6 -29   15.50    4.40
   7 -13  29    4.30    8.00
 -13   6  29   11.40    3.50
  -8  -6 -29    4.60    6.90
  14  -8 -29    1.70    3.50
 -14   8  29    5.20    5.00
   6 -14  29   -4.10    8.00
  11  -8 -29   20.60    7.20
  -8  -3 -29   19.70    6.90
 -11   8  29   16.50    7.50
   8   3  29   21.50    7.70
  -8   0 -29   -6.10    3.40
   8  -8 -29   -2.60    5.80
  -8   8  29   -3.60    4.20
   8   0  29   -6.00    2.90
   0  -8  29   -2.60    6.60
   5  -8 -29  124.09   13.30
  -8   3 -29  120.99    9.90
  -5   8  29  132.39   14.00
   8  -3  29  110.09    8.70
  -3  -5  29  110.79   12.90
  -3  -5  29   83.09   11.80
   2  -8 -29   22.80    8.20
   8  -6  29   36.70    7.50
   8  -6  29   24.30    7.10
  -6  -2  29   24.20    7.00
  -1  -8 -29    0.40    6.30
   8  -9  29    3.90    5.90
   8  -9  29   11.80    6.90
  -9   1  29    7.30    4.60
  -4  -8 -29   22.70   10.20
 -12   4  29   18.00    3.80
   8 -12  29   12.80   10.00
  -7  -8 -29    5.20    7.40
   8 -15  29    1.10    8.60
  13  -9 -29    2.20    4.90
  -9  -4 -29   15.30    7.10
   4 -13  29    8.20    8.70
 -13   9  29    6.30    6.10
   9   4  29   12.50    7.60
  10  -9 -29    4.20    5.90
  -9  -1 -29    0.70    4.50
 -10   9  29    3.50    6.40
   9   1  29    3.70    5.00
   1 -10  29    2.00    7.40
   7  -9 -29   15.50    8.00
  -9   2 -29   15.10    5.20
  -2  -7  29   -0.40    6.30
   4  -9 -29   -0.30    5.70
  -5  -4  29   -3.70    4.40
   9  -5  29    0.40    3.20
  -5  -4  29   -5.00    4.70
   1  -9 -29    4.90    6.60
  -8  -1  29    0.00    4.60
   9  -8  29   13.80    7.50
   9  -8  29    9.20    6.40
  -8  -1  29    5.50    5.20
  -2  -9 -29   16.80    9.50
   9 -11  29    2.80    7.10
 -11   2  29    4.90    5.40
 -11   2  29    7.20    3.90
  -5  -9 -29   -5.20    6.70
   9 -14  29   -4.80    6.80
  15 -10 -29    4.60    6.60
 -10  -5 -29    7.50    7.00
   5 -15  29   -5.20   17.30
  12 -10 -29   12.80    7.10
 -10  -2 -29    8.70    5.50
  10   2  29    4.30    5.30
   2 -12  29   10.50   10.30
 -10   1 -29    5.60    3.70
   9 -10 -29    3.80    6.40
  10  -1  29    3.80    3.70
  -1  -9  29   -4.10    6.50
   6 -10 -29    4.80    7.30
  -4  -6  29   -2.40    5.10
  10  -4  29    0.10    3.10
   3 -10 -29  126.89   16.20
  10  -7  29  107.89   10.80
  -7  -3  29  126.09   15.60
  10  -7  29  110.59   11.20
  -7  -3  29   95.59   12.20
   0 -10 -29    5.20    8.00
  10 -10  29   -2.60    5.70
 -10   0  29   -1.30    3.60
 -10   0  29   -2.80    3.70
  -3 -10 -29   22.60   11.10
  10 -13  29   16.80   10.50
 -11  -3 -29    5.70    5.10
  14 -11 -29    6.20    6.30
   3 -14  29  -10.60    7.10
  11 -11 -29    8.00    7.40
 -11   0 -29    0.50    2.90
   0 -11  29   -5.10    6.20
   8 -11 -29   19.40    8.50
  -3  -8  29   19.70   10.90
   5 -11 -29   15.60   10.00
  11  -6  29   23.20    5.40
  -6  -5  29    3.30    7.00
  11  -6  29   17.20    5.30
   2 -11 -29    1.40    8.10
  -9  -2  29   -1.50    4.40
  11  -9  29    9.50    7.10
  11  -9  29    5.80    6.20
  -1 -11 -29    3.80    8.70
  11 -12  29    8.20    7.70
 -12   1  29    1.00    2.80
 -12   1  29    1.40    2.70
  13 -12 -29    6.20    6.50
   1 -13  29   33.40   15.90
  10 -12 -29    1.60    6.20
  -2 -10  29    3.10    8.10
   7 -12 -29    0.10    7.00
  -5  -7  29   -4.40    7.20
   4 -12 -29    0.80    6.70
  12  -8  29    9.20    5.00
  12  -8  29   18.10    5.80
  -8  -4  29   13.30    7.50
   1 -12 -29   -7.60    7.70
 -11  -1  29    4.70    4.70
  12 -11  29   -4.60    5.50
 -11  -1  29    0.50    4.50
  -2 -12 -29    5.20    9.20
  12 -14  29   20.00   10.60
  12 -13 -29   13.50    8.80
  -1 -12  29   10.90   10.20
   9 -13 -29    9.60    8.40
  -4  -9  29    4.50    8.30
   6 -13 -29   16.50    9.90
  -7  -6  29   14.90    8.50
   3 -13 -29   24.00   12.10
 -10  -3  29   25.60    7.90
 -10  -3  29   28.20    8.60
  13 -10  29   17.60    7.10
   0 -13 -29    0.20    9.30
  13 -13  29    7.10    6.90
  11 -14 -29   -3.70    6.20
  -3 -11  29   -6.90    6.80
   8 -14 -29    2.90    8.20
  -6  -8  29    3.90    8.00
   5 -14 -29    5.50    9.40
  14  -9  29    4.20    3.60
  -9  -5  29   -4.00    5.70
   2 -14 -29   13.80   12.60
  14 -12  29    4.90    6.00
 -12  -2  29    2.80    4.80
  10 -15 -29    5.30    7.50
  -5 -10  29   12.80   10.50
   7 -15 -29   -0.20    8.30
  -8  -7  29   10.50    8.40
   0   0 -30   62.49    7.80
   0   0  30   67.69    7.50
  -1  -1 -30   46.60    6.90
   2  -1 -30   24.80    6.10
  -1   2 -30   41.90    7.70
   1  -2  30   31.90    6.40
   1   1  30   41.20    7.00
  -2   1  30   46.80    6.50
  -2   1 -30   31.00    6.40
   1   1 -30   30.80    6.40
   1  -2 -30   41.00    7.00
  -1  -1  30   43.40    6.90
  -1   2  30   29.30    6.00
   2  -1  30   29.30    6.20
   4  -2 -30  487.75   19.30
  -2   4 -30  445.96   21.50
  -2  -2 -30  496.75   19.70
   2   2  30  485.25   19.60
   2  -4  30  472.05   21.00
  -4   2  30  474.55   18.90
   0   3 -30   10.00    5.00
   3  -3 -30    4.70    4.10
  -3   0 -30    2.40    3.90
  -3   3  30    1.30    3.80
   0  -3  30    2.40    3.80
   3   0  30    1.30    3.20
  -3   3 -30  630.74   24.00
   3   0 -30  604.54   22.90
   0  -3 -30  633.24   23.70
   0   3  30  653.83   23.90
  -3   0  30  641.74   22.50
   3  -3  30  677.73   23.50
   6  -3 -30  119.89   10.20
  -3  -3 -30  116.89   10.80
   3   3  30  113.69   10.80
  -6   3  30  128.39   10.30
   3  -6  30  136.99   13.00
  -4  -1 -30  237.68   13.40
   5  -4 -30  213.88   13.40
   1  -5  30  229.18   15.70
  -5   4  30  217.78   13.50
   4   1  30  211.98   12.70
   2  -4 -30  472.75   20.50
   2   2 -30  468.65   21.00
  -4   2 -30  494.75   19.50
   4  -2  30  463.95   18.30
  -2  -2  30  481.15   20.10
  -2   4  30  429.66   19.70
  -4   5 -30  137.79   12.90
   5  -1 -30  156.68   11.50
  -1  -4 -30  165.28   12.60
   4  -5  30  160.58   12.60
  -5   1  30  131.79   10.20
   1   4  30  153.88   12.50
   8  -4 -30  256.77   14.90
  -4  -4 -30  275.17   17.20
   4   4  30  282.37   17.80
  -8   4  30  272.67   14.70
   4  -8  30  279.67   22.40
   4  -8  30  300.17   20.60
  -5  -2 -30  443.36   19.60
   7  -5 -30  465.35   20.10
  -7   5  30  485.25   20.80
   2  -7  30  466.55   25.30
   2  -7  30  465.15   25.10
   5   2  30  477.05   20.60
   4  -5 -30  235.78   14.80
   1   4 -30  245.48   16.80
  -5   1 -30  231.78   13.00
  -1  -4  30  249.58   15.90
  -4   5  30  235.48   14.90
   5  -1  30  231.38   12.40
   4   1 -30  157.78   12.50
  -5   4 -30  176.08   12.90
   5  -4  30  168.08   11.60
  -4  -1  30  153.18   11.30
  -1   5  30  175.98   13.60
  -2  -5 -30  483.25   23.20
   7  -2 -30  465.65   19.60
   2   5  30  469.85   23.30
  -7   2  30  460.65   18.70
   5  -7  30  478.05   24.30
   5  -7  30  507.25   24.70
  10  -5 -30   86.09    9.60
  -5  -5 -30  104.49   12.40
 -10   5  30   95.49    9.60
   5   5  30  113.09   13.50
   5 -10  30  108.09   17.90
   9  -6 -30    2.50    4.50
   3  -9  30   -6.80    6.20
   6   3  30    1.40    4.00
  -9   6  30    5.80    5.20
  -6   0 -30    7.70    4.60
  -6   6  30    9.50    5.40
   0  -6  30    9.20    6.50
   0  -6  30   11.70    6.10
   6   0  30   20.50    6.20
  -6   3 -30  107.79   10.10
   3  -6 -30  132.09   12.30
   3   3 -30  149.19   13.30
   6  -3  30  109.99    9.40
  -3   6  30  126.79   12.50
  -3  -3  30  113.09   11.40
   0  -6 -30   46.10    9.40
   6   0 -30   54.29    9.10
  -6   0  30   28.60    6.70
   0   6  30   36.90    9.00
   6  -6  30   37.20    8.70
   9  -3 -30   14.30    5.70
  -3  -6 -30    5.90    6.60
   6  -9  30   -2.60    5.50
  -9   3  30   11.70    5.10
  12  -6 -30   -1.10    4.00
  -6  -6 -30   -4.40    5.20
 -12   6  30   -0.20    3.40
   6 -12  30   -3.10    7.10
  11  -7 -30   99.69   10.80
  -7  -4 -30   78.99   11.20
 -11   7  30  107.09   11.20
   4 -11  30   94.29   18.40
   7   4  30   83.29   12.00
   8  -7 -30    3.40    4.80
  -7  -1 -30    4.80    4.50
   1  -8  30   -2.00    6.10
  -8   7  30    2.70    5.10
   7   1  30    7.60    4.60
   5  -7 -30  495.75   23.50
  -7   2 -30  473.75   18.80
  -2  -5  30  508.75   24.70
   7  -2  30  481.65   18.00
  -5   7  30  467.05   23.60
   2  -7 -30  457.05   23.80
   7  -5  30  491.45   20.20
  -2   7  30  463.85   24.60
  -5  -2  30  470.15   20.90
  -1  -7 -30    8.60    7.20
   8  -1 -30    3.20    5.20
   7  -8  30   -4.50    4.60
   7  -8  30    3.70    4.90
  -8   1  30    0.40    3.60
  -4  -7 -30  147.09   15.90
  11  -4 -30  149.09   10.90
 -11   4  30   97.29    8.90
   7 -11  30  104.29   18.40
  -7  -7 -30   13.50    7.60
   7 -14  30   24.20   12.10
  13  -8 -30   14.60    6.00
  -8  -5 -30    5.50    6.40
   5 -13  30   12.20    9.50
 -13   8  30   15.40    6.20
  10  -8 -30  197.48   14.80
  -8  -2 -30  174.78   13.00
   8   2  30  168.38   13.80
   2 -10  30  192.48   20.50
 -10   8  30  200.98   15.70
   7  -8 -30    5.50    5.40
  -8   1 -30    6.80    4.50
  -1  -7  30   -1.20    6.50
  -7   8  30    4.40    5.30
   8  -1  30    1.50    3.60
   4  -8 -30  306.57   20.00
  -8   4 -30  286.77   15.50
  -4  -4  30  296.97   18.80
   8  -4  30  279.77   14.10
  -4  -4  30  264.97   18.00
   1  -8 -30    0.70    6.10
   8  -7  30   10.40   10.40
  -7  -1  30    4.30    4.50
   8  -7  30    0.20    4.70
  -2  -8 -30   51.49   11.70
 -10   2  30   54.19    7.40
   8 -10  30   55.99   13.20
  -5  -8 -30    5.10    7.10
   8 -13  30    4.70    7.80
  -9  -6 -30   11.10    7.70
   6 -15  30    1.70    8.80
  -9  -3 -30   30.40    8.30
  12  -9 -30   51.99   10.80
   3 -12  30   29.70   13.90
 -12   9  30   30.00    8.50
   9   3  30   17.70    6.80
   9  -9 -30   60.59   11.20
  -9   0 -30   67.89    8.30
   9   0  30   37.30    7.30
   0  -9  30   61.79   14.60
   6  -9 -30   -4.80    4.80
  -9   3 -30    6.50    4.60
  -3  -6  30    7.10    7.20
   9  -3  30    5.30    3.80
   3  -9 -30    2.90    6.50
   9  -6  30   13.00    5.70
  -6  -3  30    5.90    6.60
   9  -6  30    1.10    4.70
  -6  -3  30   -3.20    4.70
   0  -9 -30   26.80   10.70
   9  -9  30   15.50    7.50
   9  -9  30   12.00    7.40
  -9   0  30   27.50    7.30
 -12   3  30   38.80    5.20
   9 -12  30   38.80   12.10
 -12   3  30   43.60    5.20
  -6  -9 -30    8.00    7.80
   9 -15  30   11.40   10.90
  14 -10 -30   53.99    9.80
 -10  -4 -30   57.99   10.90
   4 -14  30   49.70   15.30
 -10  -1 -30   24.20    6.10
  11 -10 -30   26.20    8.90
  10   1  30   32.70    7.30
   1 -11  30   31.50   12.30
   8 -10 -30  201.08   17.50
 -10   2 -30  194.98   10.40
  -2  -8  30  184.68   19.70
  10  -2  30  184.38    9.90
   5 -10 -30  118.59   15.10
  10  -5  30  100.89    9.20
  10  -5  30   99.49    8.60
  -5  -5  30  117.69   14.00
   2 -10 -30   51.19   12.80
  -8  -2  30   33.00   12.20
  10  -8  30   64.09   10.20
  -8  -2  30   58.29   10.00
  10  -8  30   74.19   10.40
  -1 -10 -30   42.80   12.70
  10 -11  30   55.49   12.60
 -11   1  30   40.40    7.00
 -11   1  30   42.30    7.20
  -4 -10 -30   30.60   11.50
  10 -14  30   31.90   12.00
 -11  -2 -30   55.89    8.30
  13 -11 -30   49.90   10.90
   2 -13  30   37.50   14.50
  10 -11 -30   35.60   10.10
  -1 -10  30   55.09   14.80
  11  -1  30   34.10    4.60
   7 -11 -30   85.19   14.10
  -4  -7  30  101.19   15.20
  11  -4  30   93.79    6.70
  11  -4  30   83.39    6.20
   4 -11 -30  161.48   18.50
  11  -7  30  130.49   11.20
  -7  -4  30  117.09   13.90
  -7  -4  30  124.79   14.70
  11  -7  30  128.69   10.80
   1 -11 -30   28.20   12.00
 -10  -1  30   33.80    7.80
 -10  -1  30   36.80    8.50
  11 -10  30   61.19   12.30
  -2 -11 -30   35.60   12.60
  11 -13  30   16.20    9.80
  12 -12 -30    5.30    5.90
   0 -12  30   -6.40    7.20
   9 -12 -30    0.80    6.40
  -3  -9  30   37.90   13.10
   6 -12 -30    9.40    9.20
  12  -6  30    1.50    2.90
  12  -6  30    2.20    3.00
  -6  -6  30    4.60    7.90
   3 -12 -30   45.10   13.60
  12  -9  30   46.60    9.50
  -9  -3  30   42.20   10.80
  12  -9  30   51.99    9.80
  -9  -3  30   32.10    9.20
   0 -12 -30    4.50    8.60
 -12   0  30    0.10    3.40
  12 -12  30    4.00    6.00
  11 -13 -30   50.59   12.20
  -2 -11  30   72.69   17.90
   8 -13 -30   -4.10    7.10
   5 -13 -30   -1.20    7.50
  13  -8  30    2.60    3.60
  -8  -5  30   -3.10    6.50
  13  -8  30    0.80    3.40
   2 -13 -30   33.90   13.20
  13 -11  30   21.30    8.20
 -11  -2  30   29.10   11.40
 -11  -2  30   23.80    7.80
  10 -14 -30   38.80   12.80
  -4 -10  30   69.09   15.70
   7 -14 -30   24.80   10.90
  -7  -7  30   10.40    8.60
   4 -14 -30   49.50   16.30
  14 -10  30   47.30    9.30
 -10  -4  30   40.80   10.10
   9 -15 -30   -3.80    7.40
  -6  -9  30    5.90   10.00
   6 -15 -30   15.00   12.40
  -9  -6  30   11.70    9.60
   0   1 -31   -0.30    3.10
   1  -1 -31   -2.60    3.20
  -1   0 -31   -3.30    2.90
   1   0  31   -4.50    2.60
   0  -1  31   -1.90    2.80
  -1   1  31   -5.90    2.30
  -1   3 -31    1.60    4.00
   3  -2 -31    3.60    3.60
  -2  -1 -31    3.60    4.00
   1  -3  31    2.70    4.00
   2   1  31   -0.10    3.40
  -3   2  31    5.00    3.40
  -2   2 -31    2.70    3.60
   2   0 -31   -2.60    3.00
   0  -2 -31    6.00    4.30
   2  -2  31    3.40    3.40
  -2   0  31   -1.90    3.00
   0   2  31   -0.20    3.40
  -3  -2 -31   54.29    7.90
  -2   5 -31   47.90   10.20
   5  -3 -31   47.20    7.30
  -5   3  31   54.99    7.60
   3   2  31   50.39    8.80
   2  -5  31   54.89    9.00
  -3   1 -31   -2.30    3.20
   1   2 -31    0.90    3.90
   2  -3 -31    3.20    4.30
  -1  -2  31   -3.10    3.00
  -2   3  31   -1.30    3.30
   3  -1  31    0.00    3.20
   4  -1 -31   73.19    8.50
  -1  -3 -31   76.49    9.30
  -3   4 -31   63.19    9.40
  -4   1  31   76.69    8.20
   3  -4  31   87.19    9.60
   1   3  31   74.29    9.00
   7  -4 -31   51.09    7.90
  -4  -3 -31   52.09    9.30
  -7   4  31   47.80    7.60
   3  -7  31   59.69   11.90
   3  -7  31   27.40    8.80
   4   3  31   59.29   10.10
   4  -4 -31   -4.20    3.30
   0   4 -31   -4.00    3.50
  -4   0 -31   -5.10    3.00
   4   0  31   -2.40    3.30
   0  -4  31   -0.80    3.90
  -4   4  31   -0.50    3.40
  -4   3 -31   78.39    9.30
   1  -4 -31  102.09   10.10
   3   1 -31   79.19    9.50
  -3  -1  31   74.39    8.70
  -1   4  31   82.09    9.60
   4  -3  31   94.69    9.00
   6  -2 -31  249.18   14.40
   2   4  31  279.47   16.90
  -6   2  31  247.68   13.80
   4  -6  31  257.17   17.00
  -5  -4 -31   17.70    7.30
   9  -5 -31    1.80    4.40
   5   4  31    6.90    5.40
   4  -9  31    2.70    6.80
  -9   5  31    1.50    4.10
   6  -5 -31   49.50    8.20
  -5  -1 -31   72.19    8.60
   5   1  31   59.49    8.10
  -6   5  31   61.99    8.60
   1  -6  31   68.29   11.60
  -5   2 -31   56.89    7.80
   2   3 -31   55.69    9.20
   3  -5 -31   38.50    7.60
  -3   5  31   68.79    9.10
   5  -2  31   48.60    7.80
  -2  -3  31   52.79    9.40
   5   0 -31    1.80    4.30
  -5   5 -31   -3.00    3.60
   0  -5 -31    0.50    4.20
   5  -5  31    0.40    3.90
  -5   0  31   -0.60    3.10
   0   5  31    2.20    3.90
  -3  -5 -31    0.20    5.20
   8  -3 -31    3.10    4.20
   5  -8  31    8.30    6.60
   5  -8  31   -7.40    3.60
  -8   3  31   -0.30    3.60
   3   5  31    4.00    5.60
  11  -6 -31  114.39   10.80
  -6  -5 -31   97.89   12.70
 -11   6  31  105.69   10.60
   5 -11  31   87.69   16.50
   8  -6 -31   17.30    6.80
  -6  -2 -31   13.20    5.10
   2  -8  31    4.10    6.10
   6   2  31   13.60    5.80
  -8   6  31    9.90    5.70
  -6   1 -31   63.79    7.90
   5  -6 -31   59.89    9.50
   6  -1  31   63.99    7.40
  -5   6  31   60.59    9.20
  -1  -5  31   63.19   11.40
  -6   4 -31  274.87   15.80
   2  -6 -31  229.68   16.50
   4   2 -31  274.27   16.90
  -2   6  31  239.48   16.70
  -4  -2  31  251.67   15.20
   6  -4  31  249.18   14.00
  -1  -6 -31   -3.20    4.10
   7  -1 -31   -2.70    4.10
  -7   1  31    1.20    4.10
   1   6  31    2.10    4.90
   6  -7  31    3.90    5.30
  10  -4 -31   14.40    5.80
  -4  -6 -31    9.90    7.70
 -10   4  31    3.90    4.20
   6 -10  31   16.80    8.90
  13  -7 -31    9.40    4.80
  -7  -6 -31    4.20    5.80
   6 -13  31   21.80   11.00
 -13   7  31    2.90    4.00
  10  -7 -31   24.40    7.80
  -7  -3 -31   33.50    8.60
   7   3  31   12.90    6.20
 -10   7  31   33.80    8.90
   3 -10  31   34.80   11.30
   7  -7 -31   -5.20    3.70
  -7   0 -31   -0.70    4.00
   0  -7  31   -4.10    5.00
   7   0  31    2.70    3.80
  -7   7  31    1.50    4.80
   4  -7 -31   69.09   11.40
  -7   3 -31   54.69    8.20
  -4   7  31   47.50   10.30
   7  -3  31   60.29    7.30
  -3  -4  31   38.40   13.10
   6   1 -31   -4.50    3.80
   1  -7 -31   -4.10    3.90
   7  -6  31   -0.20    4.00
  -6  -1  31    3.60    4.60
  -1   7  31   -2.30    4.40
  -2  -7 -31   55.49   11.40
   9  -2 -31   58.79    8.80
   7  -9  31   63.99   12.80
  -9   2  31   48.80    8.40
  12  -5 -31    1.90    4.40
  -5  -7 -31    4.60    6.50
   7 -12  31   -9.00    5.70
 -12   5  31    6.70    4.10
  -8  -7 -31    0.80    7.30
   7 -15  31    1.90    9.60
  12  -8 -31    3.00    5.80
  -8  -4 -31    6.40    6.00
   8   4  31   14.50    7.30
 -12   8  31    7.90    5.60
   4 -12  31   15.50    9.90
   9  -8 -31    7.00    6.20
  -8  -1 -31   13.60    5.70
   8   1  31   -1.00    4.30
   1  -9  31    3.30    7.40
  -9   8  31    7.20    6.40
   6  -8 -31    4.10    5.70
  -8   2 -31    4.00    5.00
  -6   8  31    7.50    6.30
  -2  -6  31   12.10    6.90
   8  -2  31    3.10    3.50
   3  -8 -31   -8.30    4.50
   8  -5  31   -5.00    2.70
  -5  -3  31    3.40    4.30
   0  -8 -31   -1.80    6.20
   8  -8  31    5.60    5.60
   8  -8  31    4.20    5.50
  -8   0  31    8.60    5.10
  -3  -8 -31   53.39   13.00
   8 -11  31   51.29   13.00
 -11   3  31   60.79    7.40
  -6  -8 -31   -1.00    6.10
   8 -14  31   11.50    9.20
  14  -9 -31    3.60    5.30
  -9  -5 -31    2.30    5.50
   5 -14  31    6.00    9.90
  -9  -2 -31   11.00    5.80
  11  -9 -31    3.90    5.60
 -11   9  31    3.00    5.90
   9   2  31    0.20    4.60
   2 -11  31    0.60    7.40
  -9   1 -31    4.70    4.30
   8  -9 -31    0.80    5.20
  -1  -8  31    4.30    6.30
   9  -1  31   -1.80    3.50
   5  -9 -31   14.10    7.80
   9  -4  31   19.60    5.30
  -4  -5  31   -0.60    5.30
  -4  -5  31   25.90    9.20
   2  -9 -31   56.69   12.80
  -7  -2  31   62.59    9.60
   9  -7  31   63.89   10.30
   9  -7  31   61.89   10.90
  -1  -9 -31    3.80    7.80
 -10   1  31   16.40    5.60
   9 -10  31    5.70    7.50
  -4  -9 -31   -0.90    7.40
   9 -13  31   -0.80    6.70
 -10  -3 -31    0.60    4.70
  13 -10 -31    6.60    6.40
  10   3  31    0.30    6.40
   3 -13  31   -1.30    8.20
 -13  10  31    7.90    7.90
 -10   0 -31    1.50    4.40
  10 -10 -31   -2.80    5.70
  10   0  31    3.40    4.10
   0 -10  31    5.60    7.60
   7 -10 -31   28.40    9.60
  -3  -7  31   28.10   10.60
   4 -10 -31    2.10    6.90
  10  -6  31   13.50    5.30
  -6  -4  31   11.90    6.80
  -6  -4  31   -1.70    5.40
  10  -6  31   13.90    5.00
   1 -10 -31   -6.40    6.20
  10  -9  31    3.10    5.40
  -9  -1  31   -1.60    5.10
  10  -9  31   -7.60    4.30
  -9  -1  31    1.40    5.00
  -2 -10 -31   -0.60    6.60
 -12   2  31    6.50    3.50
 -12   2  31    4.50    3.20
  10 -12  31    9.40    7.50
 -11  -1 -31    2.20    3.90
  12 -11 -31    0.00    5.30
  11   1  31    3.80    4.10
   1 -12  31   -1.20    8.00
   9 -11 -31    9.40    6.90
  11  -2  31    5.60    2.80
  -2  -9  31   -5.80    7.60
   6 -11 -31  114.89   15.60
  11  -5  31  119.49    8.90
  -5  -6  31  147.59   17.00
   3 -11 -31   54.49   13.60
  11  -8  31   48.60   15.80
  11  -8  31   44.80    8.90
  -8  -3  31   51.69   11.20
  -8  -3  31   42.20    9.50
   0 -11 -31   -6.00    7.10
  11 -11  31    7.10    7.40
 -11   0  31   -1.80    3.60
 -11   0  31    2.10    4.10
  -3 -11 -31   -0.40    7.90
  11 -14  31    8.30    8.50
  14 -12 -31    2.70    6.70
   2 -14  31   12.10   17.90
  11 -12 -31    4.60    7.20
  -1 -11  31   -5.80    8.10
   8 -12 -31   25.00   11.40
  -4  -8  31   11.80    9.80
   5 -12 -31   -4.00    6.50
  12  -7  31    2.60    3.60
  -7  -5  31   -2.90    6.20
  12  -7  31   -4.20    3.40
   2 -12 -31    1.80    8.20
  12 -10  31    1.90    5.70
 -10  -2  31    8.10    6.20
 -10  -2  31    2.70    5.40
  12 -10  31    1.50    5.70
  -1 -12 -31    6.60    9.90
  12 -13  31    1.60    6.70
  13 -13 -31   -1.20    5.80
   0 -13  31   22.70   13.00
  10 -13 -31   10.40    7.50
  -3 -10  31    5.00    8.50
   7 -13 -31   11.40    9.70
  -6  -7  31    6.90    7.20
   4 -13 -31    5.60    9.90
  -9  -4  31    3.30    6.60
  13  -9  31    6.50    4.80
  13  -9  31    5.70    5.40
   1 -13 -31   -3.90    7.80
 -12  -1  31    9.20    4.80
  13 -12  31    1.00    5.60
  12 -14 -31    9.60    8.60
  -2 -12  31    0.30    9.90
   9 -14 -31    2.40    7.90
  -5  -9  31   25.80   11.90
   6 -14 -31    0.30    7.70
  -8  -6  31    9.20    8.40
   3 -14 -31    7.10   10.90
  14 -11  31    2.40    5.00
 -11  -3  31    2.50    5.50
   8 -15 -31   18.00   11.40
  -7  -8  31    1.40    7.70
   1   0 -32  364.76   17.20
  -1   1 -32  393.16   17.70
   0  -1 -32  373.76   16.90
  -1   0  32  363.96   16.60
   1  -1  32  368.06   16.70
   0   1  32  389.06   17.00
   2  -2 -32  176.28   12.00
   0   2 -32  183.68   13.00
  -2   0 -32  175.08   11.80
   2   0  32  183.68   11.60
   0  -2  32  171.98   12.00
  -2   2  32  193.28   12.20
   3  -1 -32 1305.97   36.10
  -1  -2 -32 1307.67   36.00
  -2   3 -32 1234.48   37.50
   1   2  32 1248.88   35.60
   2  -3  32 1281.47   36.30
  -3   1  32 1277.57   35.00
  -3  -1 -32  201.08   12.70
  -1   4 -32  173.68   14.20
   4  -3 -32  210.88   13.30
   3   1  32  223.48   13.00
   1  -4  32  207.98   14.50
  -4   3  32  199.88   12.70
  -3   2 -32 1278.77   36.30
   2   1 -32 1321.57   37.30
   1  -3 -32 1312.67   36.80
  -2  -1  32 1301.17   36.30
  -1   3  32 1285.77   36.60
   3  -2  32 1232.28   34.70
  -2  -3 -32   33.30    7.30
   5  -2 -32   24.00    6.40
  -3   5 -32   21.10    7.40
   2   3  32   26.30    6.60
  -5   2  32   22.80    5.90
   3  -5  32   27.00    7.00
   6  -4 -32  324.27   16.70
  -4  -2 -32  286.17   15.60
   4   2  32  320.17   16.90
  -6   4  32  309.77   16.20
   2  -6  32  300.77   19.30
   3  -4 -32  192.78   13.20
  -4   1 -32  187.58   12.10
   1   3 -32  193.68   14.50
   4  -1  32  206.38   11.90
  -1  -3  32  176.68   13.10
  -3   4  32  185.98   13.00
   0  -4 -32  280.87   16.40
   4   0 -32  308.47   16.20
  -4   4 -32  294.87   17.00
  -4   0  32  263.97   14.60
   0   4  32  306.37   16.90
   4  -4  32  285.27   15.70
   7  -3 -32  377.16   18.10
  -3  -4 -32  380.46   20.00
   4  -7  32  325.47   20.90
   4  -7  32  410.36   22.90
   3   4  32  361.36   20.00
  -7   3  32  393.96   17.90
  -5  -3 -32  129.89   19.60
   8  -5 -32  148.09   12.20
  -8   5  32  165.48   12.70
   3  -8  32  171.98   16.90
   5   3  32  174.38   13.90
  -5   0 -32   -1.00    3.80
   5  -5 -32    1.80    4.40
  -5   5  32    1.30    4.20
   5   0  32    2.70    3.70
  -5   3 -32   27.00    7.00
   2  -5 -32   15.00    6.00
   3   2 -32   15.80    5.90
   5  -3  32   23.20    5.70
  -3  -2  32   14.80    5.60
  -2   5  32   26.20    6.90
  -1  -5 -32  240.38   16.40
   6  -1 -32  188.88   13.20
  -6   1  32  221.78   13.20
   1   5  32  221.48   16.20
   5  -6  32  202.98   15.10
   9  -4 -32   39.20    8.00
  -4  -5 -32   24.10    7.70
  -9   4  32   35.80    7.50
   4   5  32   33.40    9.20
   5  -9  32   36.40   10.80
  10  -6 -32  146.59   12.20
  -6  -4 -32  157.78   14.10
 -10   6  32  157.78   12.90
   4 -10  32  161.58   18.80
   6   4  32  116.99   13.20
   7  -6 -32  124.39   11.90
  -6  -1 -32  100.69   10.10
   1  -7  32  128.99   15.00
  -7   6  32  115.49   11.50
   6   1  32  129.49   11.20
   4  -6 -32  343.37   18.80
  -6   2 -32  311.37   15.80
   6  -2  32  291.67   14.50
  -2  -4  32  311.17   18.60
  -4   6  32  309.77   21.70
  -6   5 -32  210.88   15.30
   1  -6 -32  206.78   15.90
   5   1 -32  180.58   14.00
  -1   6  32  206.48   15.90
   6  -5  32  221.28   14.00
  -5  -1  32  223.88   14.20
   8  -2 -32   26.00    7.20
  -2  -6 -32   33.00    9.10
   6  -8  32   22.80    8.20
   6  -8  32   17.30    7.70
   2   6  32   23.60    8.90
  -8   2  32   25.60    6.20
  -5  -6 -32  129.29   14.80
  11  -5 -32  168.98   12.30
 -11   5  32  152.28   11.60
   6 -11  32  164.28   18.70
  12  -7 -32   30.10    7.60
  -7  -5 -32   19.70    7.90
   5 -12  32   31.20   13.00
 -12   7  32   33.70    8.00
  -7  -2 -32  183.08   13.40
   9  -7 -32  196.58   14.70
  -9   7  32  155.48   16.70
   7   2  32  171.18   13.60
   2  -9  32  207.28   20.10
  -7   1 -32  122.59   10.20
   6  -7 -32  163.58   14.00
  -6   7  32  129.69   13.30
   7  -1  32  113.69    9.50
  -1  -6  32  121.89   13.90
  -1  -6  32  125.69   14.30
   3  -7 -32  425.16   22.70
  -7   4 -32  430.56   19.90
  -3   7  32  397.76   22.60
   7  -4  32  397.26   17.70
  -4  -3  32  401.06   20.50
   7   0 -32   69.29   10.00
   0  -7 -32   49.60   10.20
   7  -7  32   81.59   11.50
   7  -7  32   64.59   11.70
  -7   0  32   77.99    9.30
  10  -3 -32  174.98   12.80
  -3  -7 -32  175.78   17.20
   7 -10  32  144.89   17.60
 -10   3  32  156.38   11.40
  13  -6 -32   13.70    4.80
  -6  -7 -32    9.90    8.10
   7 -13  32   -4.80    6.60
 -13   6  32   15.30    5.20
  -8  -6 -32   17.60    8.10
  14  -8 -32    6.70    4.60
   6 -14  32    6.10    9.90
  -8  -3 -32  174.48   14.00
  11  -8 -32  160.78   14.00
 -11   8  32  147.69   13.90
   3 -11  32  158.88   19.60
   8  -8 -32    7.20    5.90
  -8   0 -32   -1.10    3.90
   8   0  32    6.50    4.70
   0  -8  32   25.70    9.70
  -8   8  32    6.40    6.10
  -8   3 -32  182.58   12.50
   5  -8 -32  176.38   15.90
  -3  -5  32  174.18   16.00
  -3  -5  32  149.59   14.70
   8  -3  32  183.38   11.30
   2  -8 -32   32.20    9.30
   8  -6  32   21.60    7.00
  -6  -2  32   28.40    8.00
  -1  -8 -32   93.99   14.40
   9  -1 -32  105.49   11.30
   8  -9  32  108.69   13.80
  -9   1  32  110.19   10.00
  -4  -8 -32   22.10   10.50
 -12   4  32   16.40    6.30
  -7  -8 -32   23.60   10.80
   8 -15  32   -3.40    8.80
  13  -9 -32   41.20    8.90
  -9  -4 -32   41.70    9.80
   9   4  32   38.10   10.90
   4 -13  32   25.20   11.50
 -13   9  32   33.10    9.30
  10  -9 -32  111.59   13.00
  -9  -1 -32   91.09   10.10
   9   1  32   92.99   10.30
   1 -10  32  110.39   19.20
  -9   2 -32  185.08   11.90
   7  -9 -32  153.78   15.30
   9  -2  32  165.98   10.90
  -2  -7  32  166.88   17.50
   4  -9 -32   30.70    9.10
   9  -5  32   45.00    7.50
  -5  -4  32   34.30    8.80
  -5  -4  32   43.20   10.50
   1  -9 -32   87.39   14.10
   9  -8  32   76.39   11.10
   9  -8  32  107.09   12.10
  -8  -1  32   96.29   10.90
  -2  -9 -32  197.98   19.90
   9 -11  32  175.38   18.40
 -11   2  32  202.08   11.90
  -5  -9 -32   19.50   10.10
   9 -14  32   35.70   13.00
  12 -10 -32   98.39   12.90
 -10  -2 -32  122.99   11.30
  10   2  32   94.29   11.20
   2 -12  32   98.99   20.40
   9 -10 -32   82.99   12.90
 -10   1 -32   77.29    8.20
  -1  -9  32   45.40   12.20
  10  -1  32   80.59    8.00
   6 -10 -32  156.28   16.60
  10  -4  32  156.58   10.10
  -4  -6  32  184.78   18.00
   3 -10 -32  202.48   19.40
  -7  -3  32  150.98   14.80
  -7  -3  32  201.58   15.80
  10  -7  32  154.78   12.80
  10  -7  32  173.58   13.90
   0 -10 -32  142.19   21.20
  10 -10  32  207.58   17.80
 -10   0  32  198.88   13.90
 -10   0  32  213.48   13.50
  -3 -10 -32   60.99   14.20
  10 -13  32   78.39   16.10
  14 -11 -32   24.70    8.50
 -11  -3 -32   45.00   13.80
   3 -14  32   37.00   14.90
 -11   0 -32    9.50    4.60
  11 -11 -32    8.80    6.20
   0 -11  32   -1.50    8.40
   8 -11 -32  146.99   16.80
  -3  -8  32  127.19   17.40
  11  -3  32  141.89    8.00
   5 -11 -32  142.39   17.40
  11  -6  32  132.09   10.80
  11  -6  32  129.99   10.20
  -6  -5  32  150.28   16.60
   2 -11 -32  229.88   22.20
  11  -9  32  207.58   16.20
  -9  -2  32  194.78   15.70
  11  -9  32  223.28   16.90
  -1 -11 -32   15.30    9.70
 -12   1  32   25.60    5.40
  11 -12  32   20.90    9.80
  13 -12 -32   37.70   10.50
   1 -13  32   -1.30    9.10
  10 -12 -32  109.69   16.70
  -2 -10  32  119.99   18.50
   7 -12 -32   29.60   10.80
  12  -5  32   25.40    4.00
  -5  -7  32   41.50   12.60
   4 -12 -32   13.60    9.40
  12  -8  32   24.60    6.80
  12  -8  32   13.10    6.20
  -8  -4  32   15.50    7.40
   1 -12 -32    8.00    9.40
 -11  -1  32   15.50    6.00
  12 -11  32   25.30    9.60
 -11  -1  32   26.40    7.20
  -2 -12 -32   -7.60    7.60
  12 -14  32   15.30   10.50
  12 -13 -32    7.30    7.50
  -1 -12  32    5.70    9.70
   9 -13 -32   23.70   10.50
  -4  -9  32   32.30   12.10
   6 -13 -32    6.60    9.90
  -7  -6  32   10.30    7.70
  13  -7  32   10.30    3.80
  13  -7  32   10.30    3.50
   3 -13 -32   92.99   19.70
 -10  -3  32   49.80   11.20
  13 -10  32   58.99   11.20
  13 -10  32   83.79   11.60
 -10  -3  32   78.09   12.20
   0 -13 -32    9.20   10.70
  11 -14 -32    8.30    8.60
  -3 -11  32   14.50    9.90
   8 -14 -32    0.60    6.80
  -6  -8  32   -6.70    6.50
   5 -14 -32    9.40   10.30
  14  -9  32   10.60    4.70
  -9  -5  32   26.10   10.10
  14 -12  32   23.70    9.10
 -12  -2  32   21.70    7.10
   7 -15 -32   19.00   12.10
  -8  -7  32    8.10    9.20
   0   0 -33    3.60    3.90
   0   0  33    0.90    2.90
  -1   2 -33  524.25   21.50
   2  -1 -33  494.05   20.40
  -1  -1 -33  463.15   19.60
  -2   1  33  528.95   20.20
   1   1  33  460.55   19.50
   1  -2  33  498.85   20.40
   1   1 -33  452.35   20.40
  -2   1 -33  459.15   19.60
   1  -2 -33  468.55   19.90
  -1   2  33  494.05   20.00
  -1  -1  33  516.45   20.40
   2  -1  33  500.65   19.80
   4  -2 -33  118.79   10.30
  -2   4 -33  111.09   11.70
  -2  -2 -33  128.59   10.90
  -4   2  33  125.29   10.20
   2   2  33  116.59   10.40
   2  -4  33  122.09   11.40
  -3   0 -33    5.20    4.40
   0   3 -33   -3.20    4.30
   3  -3 -33   -3.50    3.30
  -3   3  33    5.10    4.30
   3   0  33   -4.10    2.80
   0  -3  33   -0.70    3.40
   3   0 -33    6.40    4.40
  -3   3 -33    4.10    5.00
   0  -3 -33    6.30    4.60
  -3   0  33   -9.00    2.60
   3  -3  33   -4.00    3.40
   0   3  33   -6.20    2.50
   6  -3 -33   45.00    8.30
  -3  -3 -33   40.60    8.20
   3   3  33   37.00    7.90
   3  -6  33   34.00    9.00
  -6   3  33   45.90    7.50
   5  -4 -33  418.86   19.20
  -1   5 -33  391.46   22.30
  -4  -1 -33  436.06   19.00
  -5   4  33  418.36   19.20
   4   1  33  441.46   18.90
   1  -5  33  404.16   21.50
   2  -4 -33  112.39   10.80
  -4   2 -33  124.59   10.60
   2   2 -33  119.79   11.70
  -2  -2  33  115.79   10.70
  -2   4  33  102.59   10.40
   4  -2  33  120.99    9.80
   5  -1 -33    1.30    3.40
  -4   5 -33    8.10    5.40
  -1  -4 -33   -1.80    4.40
   1   4  33    1.10    4.20
   4  -5  33    2.70    3.60
  -5   1  33   -0.20    3.20
   8  -4 -33   55.69    8.80
  -4  -4 -33   65.59   10.90
   4  -8  33   59.89   12.40
   4   4  33   61.89   10.00
  -8   4  33   55.19    9.30
  -5  -2 -33   -4.10    3.40
   7  -5 -33    6.90    5.00
   2  -7  33    3.20    6.00
  -7   5  33    2.90    4.60
   5   2  33    2.20    4.60
   2  -7  33   -1.10    5.00
   4  -5 -33  394.86   25.10
  -5   1 -33  401.46   17.90
   1   4 -33  412.96   22.30
   5  -1  33  400.96   17.40
  -4   5  33  410.86   20.20
  -1  -4  33  445.06   21.60
   4   1 -33   -0.20    4.60
   1  -5 -33   -3.70    3.70
  -5   4 -33    2.60    4.50
  -4  -1  33   -2.30    3.60
   5  -4  33    3.40    3.80
  -1   5  33    0.90    3.40
  -2  -5 -33   13.10    6.20
   7  -2 -33    9.80    5.10
  -7   2  33    1.20    3.80
   2   5  33    7.50    5.40
   5  -7  33    7.90    6.40
  10  -5 -33   60.99    9.30
  -5  -5 -33   74.79   12.90
   5 -10  33   69.19   13.90
 -10   5  33   71.79    9.10
  -6  -3 -33    5.20    5.50
   3  -9  33    7.10    8.10
   6   3  33    0.40    4.30
  -9   6  33    8.40    5.60
  -6   0 -33    3.30    4.60
   6  -6 -33   -2.10    4.20
   0  -6  33    2.00    5.40
  -6   6  33   -1.10    3.30
   6   0  33    0.30    3.90
   3   3 -33   50.39   14.10
   3  -6 -33   48.00    9.50
  -6   3 -33   59.69    8.80
  -3  -3  33   45.20    9.00
  -3   6  33   45.50    9.40
   6  -3  33   45.40    7.50
   0  -6 -33    2.40    5.80
   6   0 -33    2.60    4.80
  -6   0  33    3.00    4.20
   6  -6  33   -3.10    3.50
   0   6  33    7.00    5.70
  -3  -6 -33   -3.70    4.50
   9  -3 -33    0.00    4.30
   6  -9  33   -3.00    5.10
  -9   3  33    3.30    4.60
  -6  -6 -33    7.50    7.10
  12  -6 -33   15.40    5.80
   6 -12  33   16.40   10.30
 -12   6  33    9.70    5.20
  -7  -4 -33    6.90    6.00
  11  -7 -33   -3.70    4.50
   7   4  33    1.20    5.70
 -11   7  33    0.80    4.80
  -7  -1 -33   66.59    9.10
   8  -7 -33   65.29   11.10
   1  -8  33   94.89   14.20
   7   1  33   81.49    9.80
  -8   7  33   77.89   11.50
  -7   2 -33   -2.30    3.60
   5  -7 -33   -1.60    4.70
  -5   7  33    0.10    4.50
  -2  -5  33   -6.00    4.10
   7  -2  33   -1.70    3.10
  -7   5 -33   18.80    7.40
   5   2 -33    7.60    6.50
   2  -7 -33   -1.70    5.10
   7  -5  33    2.90    4.40
  -2   7  33    7.50    6.10
  -5  -2  33   19.00    6.80
  -1  -7 -33   -0.20    5.70
   8  -1 -33    2.60    5.00
   7  -8  33   -2.20    4.70
  -8   1  33    2.60    4.00
   7  -8  33    5.10    5.90
  -4  -7 -33   -1.40    6.30
  11  -4 -33   11.00    5.40
 -11   4  33    7.90    5.20
   7 -11  33    8.60    9.00
  -7  -7 -33    8.70    8.40
  14  -7 -33    1.00    3.50
   7 -14  33   21.50   12.10
  13  -8 -33    1.30    8.20
  -8  -5 -33   -0.10    6.10
 -13   8  33    7.60    5.50
   5 -13  33    4.20    9.60
  10  -8 -33   37.90    9.30
  -8  -2 -33   13.50    6.60
   8   2  33   35.60    8.60
   2 -10  33    4.20    8.10
 -10   8  33    8.80    6.20
  -8   1 -33   65.09    8.40
   7  -8 -33   84.19   12.00
   8  -1  33   61.69    8.30
  -1  -7  33   75.99   14.40
  -7   8  33   70.79   11.70
   4  -8 -33   45.70   10.30
  -8   4 -33   59.09   10.10
  -4  -4  33   60.39   11.40
   8  -4  33   54.59    7.80
   1  -8 -33   -2.30    6.10
   8  -7  33   -4.30    4.20
   8  -7  33    6.30    5.00
  -7  -1  33    6.30    5.20
  10  -2 -33   14.30    5.90
  -2  -8 -33   22.30    9.80
   8 -10  33   19.20    8.90
 -10   2  33   13.00    5.40
 -13   5  33    0.30    2.60
   8 -13  33    9.30    8.60
  -9  -6 -33    0.90    6.60
   6 -15  33  -18.00   10.70
  -9  -3 -33   20.70    7.40
  12  -9 -33   22.10    8.10
   3 -12  33   34.10   13.00
 -12   9  33   19.80    8.10
   9   3  33   16.80    7.10
   9  -9 -33    9.30    6.60
  -9   0 -33   -2.30    3.90
   9   0  33    4.70    4.50
   0  -9  33    4.60    7.50
   6  -9 -33    2.90    6.40
  -9   3 -33    5.50    4.00
   9  -3  33    8.10    4.40
  -3  -6  33   12.30    8.10
   3  -9 -33    3.40    7.20
   9  -6  33    0.30    4.20
  -6  -3  33   15.90    6.60
  -6  -3  33    5.90    5.40
   0  -9 -33   -2.00    6.50
   9  -9  33   -2.60    5.70
  -9   0  33    5.90    4.90
   9  -9  33   -1.90    6.40
  -3  -9 -33   -6.50    6.20
   9 -12  33   -2.70    7.30
 -12   3  33    3.90    4.50
  -6  -9 -33   -8.50    6.70
   9 -15  33   -5.80    7.30
  14 -10 -33    2.80    5.40
 -10  -4 -33    6.40    6.90
   4 -14  33   18.20   11.80
  11 -10 -33    2.80    5.60
 -10  -1 -33    8.20    5.10
  10   1  33   -4.20    3.90
   1 -11  33   16.40   11.00
 -10   2 -33   19.30    5.50
   8 -10 -33   23.40    9.30
  10  -2  33   20.00    5.10
  -2  -8  33   23.20    9.80
   5 -10 -33   63.19   12.90
  10  -5  33   53.89    7.40
  -5  -5  33   58.69   12.30
   2 -10 -33    3.70    6.40
  10  -8  33   27.10   11.40
  10  -8  33   16.70    7.30
  -8  -2  33   13.70   12.30
  -8  -2  33   15.60    6.70
  -1 -10 -33    0.10    8.40
 -11   1  33    6.00    4.20
 -11   1  33    1.20    4.20
  10 -11  33    3.00    7.70
  -4 -10 -33   -0.70    7.70
  10 -14  33   -1.70    8.20
  13 -11 -33    5.90    6.80
 -11  -2 -33    4.00    4.60
   2 -13  33    9.90   10.70
  10 -11 -33   11.60    7.50
 -11   1 -33    6.20    4.00
  -1 -10  33    6.60   10.60
  11  -1  33    4.30    3.50
   7 -11 -33    2.40    7.10
  11  -4  33    0.80    4.10
  -4  -7  33    2.70    6.50
   4 -11 -33   10.10   13.40
  -7  -4  33   18.80    8.40
  11  -7  33   17.60    6.80
  11  -7  33   13.70    5.40
   1 -11 -33   -9.50    6.40
 -10  -1  33   -4.20    4.40
  11 -10  33   -5.10    5.00
 -10  -1  33    5.60    5.60
  -2 -11 -33   -3.20    8.00
  11 -13  33    5.80    8.00
  12 -12 -33    3.40    7.00
   0 -12  33   -5.00    7.20
   9 -12 -33   23.30   10.00
  -3  -9  33   22.40   10.70
   6 -12 -33   20.30   10.40
  -6  -6  33    9.90    7.40
  12  -6  33   10.80    6.20
  12  -6  33    9.00    4.30
   3 -12 -33    5.10    8.40
  -9  -3  33    1.60    6.30
  12  -9  33   17.00   10.00
  12  -9  33    1.20    5.50
  -9  -3  33    3.30    5.80
   0 -12 -33   -4.50    7.10
  12 -12  33    3.20    6.20
 -12   0  33    5.90    4.40
 -12   0  33    2.90    4.30
  11 -13 -33    5.10    7.80
  -2 -11  33   12.30   11.00
   8 -13 -33   11.50    8.50
  -5  -8  33   12.30   10.00
   5 -13 -33   -0.30    8.20
  -8  -5  33   -2.10    5.70
  13  -8  33    6.80    4.50
  13  -8  33   -1.30    4.10
   2 -13 -33   -1.70    9.30
  13 -11  33    4.70    6.20
 -11  -2  33    5.20    5.80
  10 -14 -33    2.90    7.40
  -4 -10  33    6.90    8.80
   7 -14 -33    0.70    7.80
  -7  -7  33    3.20    9.20
   4 -14 -33   -2.20    7.00
 -10  -4  33   -1.60    6.60
   9 -15 -33    2.50    8.40
  -6  -9  33    0.40    7.90
  -9  -6  33   -0.80    7.50
  -1   0 -34  545.65   21.40
   1  -1 -34  564.64   21.60
   0   1 -34  516.05   21.60
   0  -1  34  551.34   21.20
  -1   1  34  517.65   20.70
   1   0  34  539.45   20.80
  -1   3 -34   55.09    8.90
   3  -2 -34   51.39    7.80
  -2  -1 -34   47.60    7.40
  -3   2  34   52.39    7.60
   2   1  34   45.20    7.30
   1  -3  34   56.29    8.30
   0  -2 -34  207.08   13.50
  -2   2 -34  211.58   14.00
   2   0 -34  218.38   13.80
  -2   0  34  196.48   12.70
   2  -2  34  242.08   13.80
   0   2  34  218.58   13.50
  -3  -2 -34  125.09   10.80
   5  -3 -34  104.59   10.20
  -2   5 -34   94.89   12.10
  -5   3  34  122.49   10.50
   2  -5  34   81.29   10.50
   3   2  34  108.19   10.30
   2  -3 -34   47.70    8.40
  -3   1 -34   41.30    7.70
   1   2 -34   56.09    9.90
   3  -1  34   43.50    7.00
  -2   3  34   46.70    7.70
  -1  -2  34   53.69    9.10
   4  -1 -34  304.87   16.10
  -3   4 -34  226.78   15.90
  -1  -3 -34  281.37   16.10
   1   3  34  280.77   16.10
   3  -4  34  274.17   16.20
  -4   1  34  308.67   15.60
  -4  -3 -34  495.05   23.30
   7  -4 -34  488.35   21.10
  -7   4  34  516.25   21.60
   4   3  34  487.75   22.60
   3  -7  34  514.65   26.30
   0   4 -34   37.60   10.30
   4  -4 -34   46.40    8.30
  -4   0 -34   45.60    7.40
  -4   4  34   49.40    8.40
   0  -4  34   48.90    9.30
   4   0  34   44.80    7.80
   3   1 -34  297.67   17.00
  -4   3 -34  272.47   16.00
   1  -4 -34  271.17   16.40
  -3  -1  34  309.27   16.30
   4  -3  34  292.07   15.60
  -1   4  34  288.77   16.80
  -2  -4 -34  142.99   12.90
   6  -2 -34  148.99   12.00
  -6   2  34  192.38   12.80
   2   4  34  170.98   14.00
   9  -5 -34    4.20    4.70
  -5  -4 -34    4.70    6.00
   4  -9  34    5.60    8.30
  -9   5  34    8.90    5.50
   5   4  34    4.40    5.30
   6  -5 -34  121.49   11.70
  -5  -1 -34  125.89   10.90
   5   1  34   89.29    9.80
  -6   5  34  121.99   11.40
   1  -6  34  128.79   13.40
   3  -5 -34  106.49   11.40
   2   3 -34  102.49   14.10
  -5   2 -34  119.59   10.60
   5  -2  34   97.79    9.20
  -3   5  34  109.09   11.10
  -2  -3  34  101.29   10.90
   5   0 -34  148.39   12.60
   0  -5 -34  157.48   13.50
  -5   5 -34  164.38   14.00
   5  -5  34  147.59   12.40
   0   5  34  146.19   13.30
  -5   0  34  152.78   11.90
   8  -3 -34   95.39   10.40
  -3  -5 -34  104.09   12.30
  -8   3  34   77.39    9.20
   5  -8  34   87.09   13.10
   3   5  34   72.99   12.90
  -6  -5 -34  141.99   14.80
  11  -6 -34  138.99   12.40
   5 -11  34  139.79   18.70
 -11   6  34  154.18   12.70
   8  -6 -34  126.69   12.30
  -6  -2 -34  106.29   11.00
  -8   6  34  123.69   12.00
   6   2  34  120.59   11.90
   2  -8  34  145.29   16.20
   5  -6 -34  113.89   11.90
  -6   1 -34  141.79   10.80
   6  -1  34  116.39    9.90
  -1  -5  34  115.49   12.80
   2  -6 -34  161.48   14.30
  -6   4 -34  121.89   12.00
   4   2 -34  141.29   13.50
  -2   6  34  179.28   14.70
   6  -4  34  136.39   11.20
  -4  -2  34  162.38   13.10
   7  -1 -34   24.80    7.40
  -1  -6 -34    8.80    6.10
   6  -7  34   27.30    8.50
  -7   1  34   16.20    6.00
   1   6  34   27.30    8.50
  10  -4 -34  146.99   12.20
  -4  -6 -34  185.78   16.60
 -10   4  34  143.19   11.60
   6 -10  34  139.09   17.20
  -7  -6 -34   15.80    8.10
  13  -7 -34   18.90    6.10
   6 -13  34   10.40    9.60
 -13   7  34   14.30    5.90
  -7  -3 -34  156.28   13.70
  10  -7 -34  201.88   15.00
   7   3  34  180.38   15.20
   3 -10  34  146.49   18.30
   7  -7 -34   15.60    6.80
  -7   0 -34   17.40    6.20
   7   0  34   17.60    5.60
   0  -7  34    5.00    7.30
  -7   7  34   12.80    6.00
  -7   3 -34  511.55   21.40
   4  -7 -34  556.04   26.10
  -3  -4  34  541.35   25.50
   7  -3  34  504.35   20.00
  -4   7  34  529.95   26.20
   6   1 -34   17.50    7.10
   1  -7 -34   29.90    8.50
   7  -6  34   46.90    9.40
  -6  -1  34   25.60    6.50
  -2  -7 -34    4.90    6.10
   9  -2 -34   16.60    6.40
   7  -9  34    8.10    7.30
  -9   2  34   10.60    5.10
  12  -5 -34    4.90    4.70
  -5  -7 -34   19.90    8.90
   7 -12  34   15.80   10.50
 -12   5  34    1.60    4.20
  -8  -7 -34    3.90    8.10
   7 -15  34    3.10    9.40
  12  -8 -34    0.30    4.30
  -8  -4 -34    3.80    5.60
 -12   8  34    1.70    6.50
   8   4  34   12.00   10.20
   4 -12  34    3.80    8.90
  -8  -1 -34    2.10    4.70
   9  -8 -34    1.40    5.80
   1  -9  34    6.30    7.30
   8   1  34   -0.90    4.70
  -9   8  34    2.90    5.40
  -8   2 -34  124.29   10.70
   6  -8 -34  118.79   13.50
   8  -2  34  118.19    9.90
  -2  -6  34  111.49   14.20
   3  -8 -34   69.29   13.20
  -5  -3  34   86.89   11.50
   8  -5  34   97.99    9.80
   8   0 -34    1.80    5.50
   0  -8 -34    3.90    6.80
  -8   0  34   -5.50    4.50
   8  -8  34   -5.10    4.10
   8  -8  34    9.50    6.50
  -3  -8 -34   69.89   14.20
  11  -3 -34   61.39    9.20
 -11   3  34   60.79    8.20
   8 -11  34   67.59   14.80
  -6  -8 -34   28.00   10.90
   8 -14  34   22.40   11.70
  -9  -5 -34   16.30    8.10
  14  -9 -34   21.50    7.30
   5 -14  34   10.40   10.40
  11  -9 -34   26.70    8.10
  -9  -2 -34   32.90   13.30
   9   2  34   13.90    6.50
   2 -11  34   31.00   11.50
   8  -9 -34    0.50    5.80
  -9   1 -34   -1.50    4.30
   9  -1  34    3.00    4.10
  -1  -8  34    8.80    8.20
   5  -9 -34   18.30    7.60
  -9   4 -34    9.50    5.60
   9  -4  34   -3.50    2.90
  -4  -5  34    4.60    6.90
   2  -9 -34   -2.50    6.30
   9  -7  34    4.00    5.60
  -7  -2  34    7.60   10.30
   9  -7  34    7.40    5.80
  -1  -9 -34  110.69   16.00
 -10   1  34   79.49    9.50
   9 -10  34   93.79   14.10
  -4  -9 -34   19.90    9.90
   9 -13  34   50.79   15.40
 -10  -3 -34   23.70    6.90
  13 -10 -34   25.70    8.40
  10   3  34   12.50    9.30
   3 -13  34   38.10   15.20
  10 -10 -34    8.10    6.10
 -10   0 -34   -1.30    4.00
  10   0  34    2.10    4.50
   0 -10  34   -0.40    7.30
   7 -10 -34  163.78   16.90
 -10   3 -34  166.88   11.60
  10  -3  34  187.18   11.10
  -3  -7  34  180.28   18.70
   4 -10 -34  151.68   17.30
  10  -6  34  144.09   11.70
  10  -6  34  162.18   12.90
  -6  -4  34  153.28   15.90
   1 -10 -34  167.08   27.00
  -9  -1  34   95.09   11.50
  10  -9  34  104.99   13.40
  10  -9  34   88.39   12.60
  -9  -1  34   96.19   20.20
  -2 -10 -34   17.20    9.10
  10 -12  34   31.70   11.40
 -12   2  34   23.00    5.60
 -12   2  34   32.50    6.60
 -11  -1 -34   28.20    6.60
  12 -11 -34   24.10    9.40
  11   1  34   30.40    7.20
   1 -12  34   16.70   10.70
   9 -11 -34   17.60    8.70
  -2  -9  34   37.20   13.60
  11  -2  34   19.20    4.50
   6 -11 -34  119.69   16.30
  -5  -6  34  161.88   18.20
  11  -5  34  131.69   10.10
  11  -5  34  149.39   10.30
   3 -11 -34   74.39   15.10
  11  -8  34   85.59   11.30
  -8  -3  34   76.89   12.40
  -8  -3  34   88.99   12.30
  11  -8  34   62.99   10.10
   0 -11 -34   14.90   10.20
  11 -11  34   -1.60    5.60
 -11   0  34   11.90    5.30
 -11   0  34    3.20    5.00
  -3 -11 -34   29.60   12.60
  11 -14  34   47.10   15.20
  11 -12 -34   53.49   19.10
  -1 -11  34   14.40    9.50
   8 -12 -34   -9.20    5.50
  -4  -8  34   -5.90    7.30
   5 -12 -34    7.60    8.90
  -7  -5  34   -4.60    5.70
  12  -7  34   14.80    5.20
  12  -7  34    9.60    5.50
   2 -12 -34   29.80   12.40
 -10  -2  34   32.20    8.70
 -10  -2  34   18.10    7.40
  12 -10  34   29.70    9.00
  -1 -12 -34   14.80   10.40
  12 -13  34   10.30    9.30
  13 -13 -34    3.70    6.60
   0 -13  34    4.80    9.40
  10 -13 -34   11.00    7.90
  -3 -10  34   23.50   11.60
   7 -13 -34    3.90    8.40
  -6  -7  34   23.30   10.30
   4 -13 -34   31.30   12.50
  13  -9  34   26.60    7.70
  -9  -4  34   33.20   10.20
   1 -13 -34    2.10    8.70
 -12  -1  34    4.70    4.70
  13 -12  34    1.30    6.70
   9 -14 -34   -1.30    7.50
  -5  -9  34   21.00   11.90
   6 -14 -34   36.30   13.90
  -8  -6  34   27.60   10.50
   3 -14 -34   18.30   12.80
  14 -11  34   33.00    9.90
 -11  -3  34   21.90    8.40
   8 -15 -34   -6.10    7.50
  -7  -8  34    1.00    8.00
   0  -1 -35    5.40    3.80
   1   0 -35    2.50    4.30
  -1   1 -35    6.30    4.30
   0   1  35    2.20    3.30
  -1   0  35   -1.20    3.30
   1  -1  35   -1.70    3.00
   2  -2 -35    8.50    4.70
   0   2 -35   -1.40    4.20
  -2   0 -35    4.90    4.20
   2   0  35   -2.60    2.90
   0  -2  35   -1.20    3.30
  -2   2  35    0.50    3.60
   3  -1 -35  234.68   14.60
  -2   3 -35  252.57   16.20
  -1  -2 -35  262.17   15.10
   1   2  35  269.57   15.40
   2  -3  35  257.37   15.30
  -3   1  35  274.97   14.90
   4  -3 -35   -3.40    3.10
  -3  -1 -35    7.50    4.40
   1  -4  35    3.50    4.60
  -4   3  35   -7.60    2.70
   3   1  35   -1.70    3.10
  -3   2 -35  264.17   15.50
   1  -3 -35  280.57   15.70
   2   1 -35  252.67   15.60
  -1   3  35  259.07   15.10
  -2  -1  35  252.57   14.80
   3  -2  35  274.17   14.90
  -2  -3 -35   53.89    8.60
  -3   5 -35   65.59   10.70
   5  -2 -35   37.90    7.90
  -5   2  35   39.00    7.70
   3  -5  35   46.90    9.80
   2   3  35   34.70    8.10
   6  -4 -35   33.20    7.60
  -4  -2 -35   19.10    6.40
   2  -6  35   20.00    8.00
   4   2  35   17.90    6.10
  -6   4  35   18.10    5.90
  -4   1 -35    2.40    4.30
   1   3 -35    4.10    4.90
   3  -4 -35   -1.60    3.80
  -1  -3  35    4.20    4.40
  -3   4  35   -0.30    4.10
   4  -1  35   -4.20    2.60
  -4   4 -35   13.30    5.70
   0  -4 -35   -0.60    4.00
   4   0 -35   -1.30    3.90
   4  -4  35    0.10    3.50
  -4   0  35   -4.20    2.80
   0   4  35   -5.50    3.10
   7  -3 -35   -2.60    4.30
  -3  -4 -35    4.60    5.00
  -7   3  35    3.40    4.40
   4  -7  35   -7.40    4.20
   3   4  35    1.10    4.10
  -5  -3 -35   94.59   11.00
   8  -5 -35   90.19   10.80
   5   3  35   83.29   11.00
   3  -8  35  114.29   14.80
  -8   5  35   87.89   10.30
   5  -5 -35   -1.60    3.90
  -5   0 -35   -2.10    4.10
   5   0  35   -3.80    2.90
   0  -5  35   -2.00    4.70
  -5   5  35    3.70    4.30
   2  -5 -35   52.29    9.80
  -5   3 -35   49.10    9.00
   3   2 -35   47.40   10.10
   5  -3  35   52.69    7.60
  -3  -2  35   26.30    7.20
  -2   5  35   41.50    8.80
   6  -1 -35  147.59   12.20
  -1  -5 -35  144.99   13.60
   5  -6  35  137.99   16.30
  -6   1  35  143.49   11.40
   1   5  35  133.59   13.20
  -4  -5 -35   -3.10    5.40
   9  -4 -35    3.90    5.20
  -9   4  35    0.80    4.20
   5  -9  35  -10.60    4.70
  10  -6 -35  203.18   17.00
  -6  -4 -35  193.48   15.70
 -10   6  35  228.58   15.70
   6   4  35  196.28   16.70
   4 -10  35  173.28   19.70
  -6  -1 -35   19.00    6.50
   7  -6 -35    9.40    5.90
  -7   6  35    5.90    6.00
   6   1  35   11.00    5.10
   1  -7  35    0.70    6.10
  -6   2 -35   35.90    8.20
   4  -6 -35   16.10    6.60
   2   4 -35   24.40    8.30
  -2  -4  35   13.80    6.40
  -4   6  35    0.30    4.50
   6  -2  35   23.90    5.60
  -6   5 -35  149.19   13.70
   5   1 -35  124.99   12.90
   1  -6 -35  144.29   13.70
   6  -5  35  150.98   12.30
  -1   6  35  148.69   14.10
  -5  -1  35  141.29   12.00
   8  -2 -35   10.60    5.60
  -2  -6 -35    5.80    6.90
  -8   2  35    9.30    4.80
   6  -8  35    0.00    6.20
  11  -5 -35   14.30    5.70
  -5  -6 -35   -3.90    6.20
   6 -11  35    8.10    8.70
 -11   5  35   13.20    5.60
  -7  -5 -35   10.50    7.50
   5 -12  35    1.80    7.50
 -12   7  35   12.00    6.60
   9  -7 -35    4.60    6.10
  -7  -2 -35   -0.80    8.10
   2  -9  35   -4.60    5.00
   7   2  35    0.20    4.60
  -9   7  35    5.00    5.90
  -7   1 -35   16.00    5.60
   6  -7 -35   15.50    7.00
  -6   7  35   20.00    7.50
   7  -1  35   11.20    4.50
  -1  -6  35   11.40    7.10
   4   3 -35    5.20    6.00
  -7   4 -35    6.90    5.70
   3  -7 -35   -0.50    4.70
   7  -4  35    1.80    4.00
  -3   7  35    4.80    5.50
   7   0 -35    3.80    6.30
   0  -7 -35   -3.10    5.10
  -7   0  35    4.60    5.10
   7  -7  35    1.20    5.10
  -3  -7 -35    0.00    6.60
  10  -3 -35   -0.20    4.60
 -10   3  35    2.30    4.90
   7 -10  35    8.30    8.30
  -6  -7 -35   24.40    9.70
  13  -6 -35    4.40    5.00
 -13   6  35   15.10    5.40
   7 -13  35    0.50    8.30
  14  -8 -35    6.00    4.80
  -8  -6 -35   -8.50    5.70
   6 -14  35  -10.00    6.20
  -8  -3 -35   13.60    6.80
  11  -8 -35   11.80    6.40
   3 -11  35   10.40   10.50
   8   3  35    9.00    6.70
 -11   8  35   14.60    7.50
  -8   0 -35    0.50    4.10
   8  -8 -35    4.80    6.30
  -8   8  35    0.40    5.20
   0  -8  35    2.70    6.50
   8   0  35   -2.70    3.60
   5  -8 -35  100.19   13.10
  -8   3 -35   88.19   10.00
   8  -3  35   88.49    9.10
  -3  -5  35   80.99   13.00
   2  -8 -35   25.20    9.10
  -6  -2  35   17.60    6.80
   8  -6  35   10.00    5.50
  -1  -8 -35   55.69   13.00
   9  -1 -35   38.20    9.00
   8  -9  35   20.00    8.30
  -9   1  35   15.80    5.80
  -4  -8 -35   -0.90    7.00
  12  -4 -35   -2.80    4.00
 -12   4  35   -1.10    3.80
   8 -12  35    1.00    7.20
  13  -9 -35   12.10    6.60
  -9  -4 -35    8.70    6.90
 -13   9  35   11.30    7.20
   4 -13  35   36.20   14.30
  10  -9 -35    5.30    5.90
  -9  -1 -35    4.70    5.10
   1 -10  35    0.00   10.20
   9   1  35    1.60    4.50
  -9   2 -35   -2.70    4.20
   7  -9 -35   12.20    7.60
   9  -2  35   -4.20    3.50
  -2  -7  35    3.40    6.60
   4  -9 -35    2.90    6.70
  -5  -4  35  -11.80    4.90
  -5  -4  35    7.30    6.10
   9  -5  35   -0.30    3.90
   1  -9 -35   28.30   10.90
  -8  -1  35   24.80    7.80
   9  -8  35   45.40   10.40
   9  -8  35   17.00    7.90
  -2  -9 -35   11.00   13.90
   9 -11  35   24.30   11.30
 -11   2  35   19.40    6.20
  -5  -9 -35    0.80    7.60
   9 -14  35   -8.80    6.40
 -10  -2 -35   14.80    7.90
  12 -10 -35   19.60    8.90
   2 -12  35   13.90   10.70
  10   2  35   16.30    7.30
   9 -10 -35   -5.30    4.80
 -10   1 -35   -2.30    4.00
  -1  -9  35   -7.10    7.40
  10  -1  35    0.40    3.60
   6 -10 -35  201.38   18.90
  -4  -6  35  246.78   20.90
  10  -4  35  219.08   12.70
   3 -10 -35   13.60    9.00
  -7  -3  35   10.10    6.60
  10  -7  35    1.30    4.10
  10  -7  35   14.80    7.40
  -7  -3  35   17.80    7.70
   0 -10 -35   12.10    8.40
  10 -10  35   -0.70    5.80
 -10   0  35    2.00    4.10
 -10   0  35    1.70    4.50
  -3 -10 -35   17.70    9.80
  10 -13  35   10.40    8.30
 -11  -3 -35   -0.80    4.70
  14 -11 -35    1.70    6.30
   3 -14  35   17.30   12.80
  11 -11 -35    8.60    6.50
 -11   0 -35    2.80    4.30
   0 -11  35    2.80    9.70
  11   0  35    2.60    3.50
   8 -11 -35    0.50    6.50
  -3  -8  35   11.20    9.20
  -6  -5  35   10.70    8.10
  11  -6  35   13.70    5.30
  11  -6  35    3.30    4.40
   2 -11 -35   14.20    9.40
  -9  -2  35   17.00    7.60
  11  -9  35   11.90    7.00
  -9  -2  35   -2.80    5.50
  11  -9  35   -0.60    4.90
  -1 -11 -35   16.30    9.90
  11 -12  35   18.10    9.80
 -12   1  35   23.40    6.20
 -12   1  35   16.40    5.60
  13 -12 -35    4.20    6.70
 -12  -1 -35    7.20    5.10
   1 -13  35   11.70   11.80
  10 -12 -35   15.30    9.50
  -2 -10  35    6.60    9.90
   7 -12 -35    3.40    7.40
  12  -5  35    6.10    3.80
  12  -5  35    8.00    3.90
  -5  -7  35    4.20    8.60
   4 -12 -35   -0.10    8.00
  12  -8  35    3.40    4.90
  -8  -4  35   11.00    7.60
  12  -8  35    5.20    6.50
   1 -12 -35   -2.70    7.50
 -11  -1  35    9.50    6.50
  12 -11  35    2.80    6.30
  12 -13 -35   19.90    9.80
  -1 -12  35    4.80   10.20
   9 -13 -35    1.70    7.30
  -4  -9  35    4.10    9.30
   6 -13 -35   14.10    9.90
  -7  -6  35   11.10    7.90
  13  -7  35   11.60    4.70
   3 -13 -35    6.10    8.80
  13 -10  35    5.20    6.20
 -10  -3  35    0.70    5.50
  11 -14 -35    5.30    7.10
  -3 -11  35   21.80   12.90
   8 -14 -35   -1.90    7.80
  -6  -8  35   -1.80    6.60
   5 -14 -35   -4.10    7.40
  14  -9  35    2.10    3.90
  -9  -5  35    6.50    8.00
   0   0 -36  181.78   12.80
   0   0  36  167.48   12.10
  -1   2 -36 1025.10   33.10
  -1  -1 -36 1038.00   32.00
   2  -1 -36 1004.10   31.90
   1  -2  36 1008.90   32.10
   1   1  36 1003.20   31.50
  -2   1  36 1037.80   31.60
   1   1 -36 1057.19   34.00
  -2   1 -36 1110.09   33.40
  -1   2  36 1080.59   33.10
  -1  -1  36 1036.90   32.50
   2  -1  36 1083.39   32.70
  -2  -2 -36  313.57   16.80
   4  -2 -36  316.47   16.90
  -2   4 -36  348.07   22.10
  -4   2  36  297.97   16.20
   2  -4  36  317.17   17.70
   2   2  36  295.87   16.40
  -3   0 -36  327.27   16.70
   3  -3 -36  326.97   17.40
   0   3 -36  327.57   19.10
  -3   3  36  328.27   17.20
   3   0  36  342.37   16.80
   0  -3  36  337.97   18.00
   0  -3 -36 1071.49   33.70
  -3   3 -36 1035.40   34.10
   3   0 -36 1085.19   34.00
   3  -3  36 1071.99   33.20
  -3   0  36  985.70   31.90
   0   3  36 1039.80   33.50
  -3  -3 -36  690.93   27.10
   6  -3 -36  701.73   26.20
  -6   3  36  715.43   25.90
   3   3  36  678.23   27.20
   3  -6  36  701.83   29.70
  -4  -1 -36    6.20    5.20
   5  -4 -36    1.60    4.70
  -1   5 -36    2.60    5.80
   1  -5  36   -3.80    3.60
   4   1  36    4.20    4.10
  -5   4  36    4.00    4.70
  -4   2 -36  309.17   16.90
   2   2 -36  313.57   18.40
  -2  -2  36  324.97   17.50
   4  -2  36  295.17   15.80
  -2   4  36  325.57   17.90
  -4   5 -36  153.28   14.00
   5  -1 -36  168.98   12.80
  -1  -4 -36  111.39   12.00
  -5   1  36  129.39   11.00
   4  -5  36  102.09   11.30
   1   4  36  136.49   12.80
   8  -4 -36   -1.50    4.50
  -4  -4 -36    1.80    5.00
   4  -8  36    2.80    7.30
  -8   4  36    3.90    5.10
   4   4  36   -4.20    4.10
   7  -5 -36  196.58   14.80
  -5  -2 -36  196.18   14.50
   5   2  36  180.88   13.90
  -7   5  36  178.28   14.10
  -5   1 -36    1.30    4.00
   1   4 -36    4.50    6.00
   4  -5 -36    5.40    5.50
   5  -1  36   -1.20    3.30
  -4   5  36   -0.70    4.00
  -5   4 -36  157.58   13.60
   4   1 -36  147.99   13.10
   1  -5 -36  116.49   12.30
  -1   5  36  148.29   13.40
  -4  -1  36  153.08   12.20
   5  -4  36  151.98   12.10
  -2  -5 -36  128.39   13.50
   7  -2 -36  131.89   12.00
   2   5  36  135.89   13.70
  -7   2  36  115.79   11.00
   5  -7  36  111.69   12.90
  -5  -5 -36  196.98   16.90
  10  -5 -36  187.18   14.20
 -10   5  36  175.18   13.60
   5 -10  36  175.08   19.60
  -6  -3 -36  271.27   17.10
   9  -6 -36  246.98   16.40
  -9   6  36  256.27   17.00
   3  -9  36  246.38   21.50
   6   3  36  226.58   17.00
  -6   0 -36  184.48   13.20
   6  -6 -36  196.48   14.90
   0  -6  36  213.78   18.70
   6   0  36  211.08   13.30
  -6   6  36  172.78   14.30
  -6   3 -36  716.33   26.30
   3   3 -36  647.54   28.70
   3  -6 -36  626.24   27.60
  -3   6  36  677.93   28.70
  -3  -3  36  714.33   29.20
   6  -3  36  652.33   24.40
   6   0 -36  240.28   16.30
   0  -6 -36  251.97   18.10
  -6   0  36  254.57   15.60
   0   6  36  224.38   17.50
   6  -6  36  235.78   16.80
   9  -3 -36  226.28   14.90
  -3  -6 -36  207.28   17.50
   6  -9  36  175.48   17.60
  -9   3  36  195.78   13.50
  12  -6 -36   68.39    9.60
  -6  -6 -36   56.19   12.10
   6 -12  36   42.70   13.70
 -12   6  36   48.10    8.60
  -7  -4 -36   96.99   12.50
  11  -7 -36   72.79   10.80
   4 -11  36  103.39   19.80
  -7  -1 -36   31.00    7.80
   8  -7 -36   37.90    9.50
  -8   7  36   29.30    8.80
   1  -8  36   19.10    9.20
   7   1  36   30.60    8.20
  -7   2 -36  175.78   12.70
   5  -7 -36  176.98   15.50
   7  -2  36  170.98   12.00
  -2  -5  36  154.78   15.00
  -5   7  36  184.08   15.80
   5   2 -36  120.19   13.40
  -7   5 -36  119.49   12.50
   2  -7 -36  155.88   15.00
  -5  -2  36  113.19   11.80
   7  -5  36  129.89   11.60
   8  -1 -36   22.30    7.70
  -1  -7 -36   25.20    8.00
   7  -8  36   41.20   11.80
  -8   1  36   35.30    7.80
   7  -8  36   16.60    8.00
  -4  -7 -36    1.80    6.20
  11  -4 -36    9.10    5.30
   7 -11  36    9.10    9.50
 -11   4  36    6.10    5.00
  14  -7 -36   13.10    5.20
   7 -14  36   -1.20    7.40
  -8  -5 -36   11.00    7.20
  13  -8 -36   10.40    6.50
   5 -13  36   13.10   11.70
 -13   8  36   13.10    8.10
  -8  -2 -36   70.79   10.50
  10  -8 -36  111.19   13.00
   8   2  36   87.19   11.40
 -10   8  36   96.09   12.90
   2 -10  36  104.89   16.50
   7  -8 -36   46.40   10.90
  -8   1 -36   31.30    7.70
   8  -1  36   36.90    7.90
  -1  -7  36   20.80   10.50
   4  -8 -36    1.50    6.00
  -8   4 -36    4.00    5.40
   8  -4  36    2.00    4.00
  -4  -4  36    0.40    5.30
   7   1 -36   21.40    7.80
   1  -8 -36   32.40    9.70
  -7  -1  36   48.00    9.50
   8  -7  36   12.50    6.20
  -2  -8 -36  134.09   16.50
  10  -2 -36  124.39   12.20
   8 -10  36  146.69   16.90
 -10   2  36  138.19   11.50
  -5  -8 -36   24.80   10.10
   8 -13  36   18.50   11.60
 -13   5  36   16.90    5.10
  12  -9 -36  102.69   12.70
  -9  -3 -36  116.29   12.90
   9   3  36   89.19   12.90
   3 -12  36   90.59   19.20
   9  -9 -36  203.48   17.40
  -9   0 -36  206.98   13.50
   0  -9  36  212.28   21.50
   9   0  36  205.18   13.80
  -9   3 -36  326.47   16.80
   6  -9 -36  266.27   20.10
   9  -3  36  268.47   14.60
  -3  -6  36  259.37   21.00
   3  -9 -36  220.08   19.10
  -6  -3  36  196.28   15.90
   9  -6  36  196.38   14.10
   0  -9 -36  277.37   22.30
   9  -9  36  258.07   19.60
  -9   0  36  245.98   15.70
  -3  -9 -36   71.09   14.50
 -12   3  36   75.59    8.60
   9 -12  36   51.19   13.70
 -10  -4 -36   16.40    7.30
  14 -10 -36    3.40    6.50
   4 -14  36   21.90   12.70
 -10  -1 -36   21.50    7.00
  11 -10 -36   25.50    9.10
   1 -11  36    1.40    8.20
  10   1  36   15.70    6.60
 -10   2 -36   95.89    9.70
   8 -10 -36   93.79   15.70
  -2  -8  36   80.09   16.20
  10  -2  36   81.69    8.70
   5 -10 -36  170.18   18.10
  -5  -5  36  179.58   17.70
  10  -5  36  171.38   12.20
   2 -10 -36  129.59   17.30
  -8  -2  36  106.19   12.40
  -8  -2  36  149.59   14.60
  10  -8  36  144.19   14.00
  10  -8  36  134.99   13.30
  -1 -10 -36  126.99   17.70
  10 -11  36  125.89   16.00
 -11   1  36  107.69   11.00
 -11   1  36  108.09   10.60
  -4 -10 -36   28.80   11.10
  10 -14  36   12.80   10.10
  13 -11 -36   45.50   11.50
 -11  -2 -36   26.10    7.80
   2 -13  36   43.40   15.10
 -11   1 -36   18.70    5.80
  10 -11 -36    3.40    7.10
  11  -1  36   18.80    5.60
  -1 -10  36   31.00   12.40
   7 -11 -36   87.19   14.30
  11  -4  36   93.29    8.60
  -4  -7  36  110.19   16.20
   4 -11 -36   -8.00    6.20
  -7  -4  36   -1.30    5.90
  11  -7  36    1.50    4.00
  11  -7  36   -0.10    4.30
   1 -11 -36  112.49   18.00
  11 -10  36  102.79   13.70
 -10  -1  36   96.09   12.10
  -2 -11 -36    6.80   10.10
  11 -13  36   11.40    9.40
   0 -12  36   31.00   13.30
   9 -12 -36  104.99   15.70
  -3  -9  36   85.79   18.10
   6 -12 -36   58.79   15.00
  12  -6  36   34.00    6.70
  -6  -6  36   42.20   11.90
  12  -6  36   46.60    7.60
   3 -12 -36   63.49   15.30
  -9  -3  36   82.79   13.20
  12  -9  36   83.59   11.80
  12  -9  36   71.19   11.10
   0 -12 -36    5.10    9.70
 -12   0  36   12.20    5.70
  12 -12  36    3.20    6.40
  11 -13 -36   22.60   11.30
  -2 -11  36   20.20   12.00
   8 -13 -36   14.50    8.80
  -5  -8  36   12.00    9.70
   5 -13 -36   14.90   10.00
  -8  -5  36   24.00    9.20
  13  -8  36   19.20    6.50
  13  -8  36   15.30    5.90
   2 -13 -36   11.30   11.00
  13 -11  36   24.20    9.00
 -11  -2  36   16.90    7.30
  10 -14 -36   19.10   10.90
  -4 -10  36   18.40   10.30
   7 -14 -36    8.70    9.00
  -7  -7  36    5.00    8.50
   4 -14 -36   12.90   10.90
 -10  -4  36   11.80    7.70
  14 -10  36    8.10    6.40
  -1   0 -37    2.10    3.90
   0   1 -37   -3.50    3.50
   1  -1 -37   -0.10    4.20
   1   0  37    1.70    4.00
  -1   1  37    2.80    3.30
   0  -1  37   -0.40    3.30
  -2  -1 -37   63.09    8.50
  -1   3 -37   54.49    9.80
   3  -2 -37   61.99    8.60
   2   1  37   70.39    8.70
   1  -3  37   59.29    9.90
  -3   2  37   70.89    9.00
   0  -2 -37   -1.30    4.20
   2   0 -37    4.20    4.60
  -2   2 -37   -2.00    4.00
   0   2  37   -1.10    3.50
   2  -2  37    2.60    3.80
  -2   0  37    0.40    4.00
  -3  -2 -37   19.70    6.60
   5  -3 -37   19.90    6.60
  -2   5 -37   27.60    9.20
   3   2  37   26.40    6.90
   2  -5  37   15.20    6.30
  -5   3  37   10.50    5.40
  -3   1 -37   78.09    9.20
   1   2 -37   64.39    9.50
   2  -3 -37   70.29    9.00
  -1  -2  37   64.29    9.10
   3  -1  37   79.49    8.80
  -2   3  37   59.59    8.50
   4  -1 -37   28.40    7.70
  -3   4 -37   12.70    6.70
   1   3  37   11.70    5.60
  -4   1  37    4.40    3.90
   3  -4  37   15.00    5.80
  -4  -3 -37    6.70    5.30
   7  -4 -37    0.90    4.20
  -7   4  37   -5.20    3.10
   4   3  37    2.00    6.00
  -4   0 -37   -3.10    4.00
   0   4 -37   -1.00    4.30
  -4   4  37   -3.30    3.20
   4   0  37   -4.60    3.20
   0  -4  37    1.70    4.50
  -4   3 -37   29.20    7.70
   1  -4 -37    4.30    3.90
   3   1 -37   19.00    6.50
   4  -3  37   26.80    6.80
  -1   4  37   20.20    6.30
  -3  -1  37   15.00    5.60
  -2  -4 -37   13.00    6.40
   6  -2 -37   12.30    5.80
   4  -6  37   12.40    6.10
   2   4  37   23.90    8.00
  -6   2  37    5.80    4.70
   9  -5 -37  107.39   12.10
  -5  -4 -37   91.99   12.20
  -9   5  37   96.79   11.20
   5   4  37   99.89   12.50
   4  -9  37  138.49   17.10
   6  -5 -37    5.20    5.70
  -5  -1 -37    0.40    3.70
  -6   5  37   -2.20    4.00
   1  -6  37   -3.20    4.60
   5   1  37    0.50    3.80
  -5   2 -37   24.30    6.80
   3  -5 -37   15.70    6.60
   2   3 -37   36.60    9.40
   5  -2  37   17.50    5.90
  -2  -3  37   18.10    6.40
  -5   5 -37   -4.60    4.10
   0  -5 -37    3.10    5.20
   5   0 -37    2.20    4.70
  -5   0  37   -4.40    3.40
   0   5  37   -5.00    3.50
   5  -5  37    0.10    3.80
   8  -3 -37   -1.30    4.20
  -3  -5 -37    8.00    5.70
   5  -8  37   15.10    8.50
  -8   3  37    2.40    5.10
   3   5  37    0.20    5.10
  -6  -5 -37    8.90    6.60
  11  -6 -37   15.60    6.80
 -11   6  37    8.00    6.10
   5 -11  37    3.30    9.80
  -6  -2 -37   72.29   10.30
   8  -6 -37   75.19   10.80
   2  -8  37   60.69   12.80
   6   2  37   47.60    9.60
  -8   6  37   49.20    9.80
  -6   1 -37    9.20    5.00
   5  -6 -37   -1.10    4.30
  -1  -5  37    1.00    5.20
  -5   6  37    0.10    4.60
   6  -1  37    2.30    4.10
   4   2 -37    7.90    6.50
   2  -6 -37   12.90    6.60
  -6   4 -37   14.30    6.40
  -2   6  37    7.00    5.50
   6  -4  37    9.20    4.80
  -4  -2  37    8.50    5.30
  -1  -6 -37   -0.10    5.20
   7  -1 -37    1.40    5.10
  -7   1  37    5.70    5.10
   6  -7  37   -3.90    4.60
  -4  -6 -37   73.99   13.30
  10  -4 -37   88.69   10.60
   6 -10  37   55.69   14.30
 -10   4  37   80.59   10.10
  13  -7 -37   -0.40    4.20
  -7  -6 -37    2.80    6.50
   6 -13  37  -11.50    7.00
 -13   7  37   10.50    6.10
  10  -7 -37   49.90   10.20
  -7  -3 -37   23.30    7.80
 -10   7  37   46.20   10.20
   7   3  37   14.60    7.30
   3 -10  37   38.00   12.80
   7  -7 -37   -0.30    4.60
  -7   0 -37    1.50    5.30
   7   0  37   -0.20    4.20
  -7   7  37    0.40    5.50
   0  -7  37    0.00    5.50
   4  -7 -37   -6.10    4.20
  -7   3 -37    6.60    5.30
  -4   7  37   -3.80    4.50
  -3  -4  37    2.90    5.10
   7  -3  37    4.60    4.30
   6   1 -37    7.30    6.50
   1  -7 -37    4.80    6.10
   7  -6  37   -0.30    4.10
  -6  -1  37    4.80    5.60
   9  -2 -37   -2.40    4.40
  -2  -7 -37    1.30    5.50
   7  -9  37    8.60    6.80
  -9   2  37    5.80    5.80
  -5  -7 -37    0.80    7.30
  12  -5 -37    3.90    4.70
 -12   5  37    6.70    5.30
   7 -12  37   -0.10    7.20
  -8  -4 -37   -2.00    5.20
  12  -8 -37    4.00    5.90
 -12   8  37   -2.60    4.70
   4 -12  37    7.70   10.00
  -8  -1 -37   24.40    7.30
   9  -8 -37   38.30    9.60
   8   1  37   38.70    8.60
   1  -9  37   58.89   15.20
   6  -8 -37   76.39   12.90
  -8   2 -37   57.69    8.90
   8  -2  37   74.59    8.80
  -2  -6  37   52.09   12.30
  -8   5 -37    4.60    6.50
   3  -8 -37   -3.20    4.80
  -5  -3  37    4.30    5.30
   8  -5  37    1.70    3.90
   8   0 -37   -9.20    4.70
   0  -8 -37   10.30    7.40
   8  -8  37   10.10    7.20
   8  -8  37    1.30    4.90
  -8   0  37    1.40    4.30
  11  -3 -37   38.10    8.50
  -3  -8 -37   18.60   10.00
   8 -11  37    9.20    8.30
 -11   3  37   17.10    5.80
  -6  -8 -37   -3.60    7.20
   8 -14  37    5.10    8.70
  14  -9 -37    5.30    5.70
  -9  -5 -37    7.20    7.50
   5 -14  37    7.30    9.30
  11  -9 -37   77.29   13.10
  -9  -2 -37   67.19   10.50
   9   2  37   56.39   14.30
   2 -11  37   98.99   20.10
   8  -9 -37   17.50    7.90
  -9   1 -37   24.50    7.60
   9  -1  37   25.70    7.10
  -1  -8  37   37.50   12.20
   5  -9 -37  107.09   14.70
  -9   4 -37  118.69   11.80
   9  -4  37  118.99   10.60
  -4  -5  37  114.79   14.80
   2  -9 -37    8.90    8.10
   9  -7  37   10.20    6.30
   9  -7  37   -5.30    4.90
  -7  -2  37    0.20    5.70
  -1  -9 -37   -1.20    7.30
   9 -10  37    1.00    7.40
 -10   1  37    4.80    4.70
  -4  -9 -37    0.90    7.80
   9 -13  37    0.00    7.00
 -10  -3 -37    1.00    5.70
  13 -10 -37    7.10    6.30
   3 -13  37   -4.10    8.60
 -10   0 -37   -1.70    4.20
  10 -10 -37    7.20    6.60
   0 -10  37   -1.30    8.20
  10   0  37    0.70    4.40
   7 -10 -37   34.00   10.80
 -10   3 -37   25.90    7.10
  -3  -7  37   40.60   11.10
  10  -3  37   45.50    8.00
   4 -10 -37   73.59   14.50
  -6  -4  37   76.19   13.80
  10  -6  37   83.89   10.00
   1 -10 -37   10.20    8.50
  -9  -1  37    6.80    6.20
  10  -9  37    9.00    6.80
  -9  -1  37    2.10    5.40
  -2 -10 -37    3.50    8.10
 -12   2  37   10.90    5.50
 -12   2  37    5.10    4.80
  10 -12  37    9.80   10.30
 -11  -1 -37    4.00    4.90
  12 -11 -37    3.20    6.50
  11   1  37    2.60    5.70
   1 -12  37    5.20    9.50
   9 -11 -37   60.29   13.50
 -11   2 -37   59.99    7.90
  -2  -9  37   68.99   16.10
  11  -2  37   72.89    7.80
   6 -11 -37    5.80   14.20
  -5  -6  37   49.99   13.90
  11  -5  37   12.10    5.30
   3 -11 -37   30.50   11.30
  11  -8  37   14.40    6.40
  11  -8  37   18.50    7.60
  -8  -3  37   25.80    8.80
   0 -11 -37   -6.70    6.40
 -11   0  37   -2.40    4.60
 -11   0  37   -2.50    4.30
  11 -11  37    1.40    5.70
  -3 -11 -37    3.20    9.20
  11 -14  37    0.60    8.20
  11 -12 -37    8.80    8.10
  -1 -11  37   24.20   13.00
   8 -12 -37    1.20    7.10
  12  -4  37   14.70    4.30
  12  -4  37    4.20    3.20
  -4  -8  37   16.90    9.80
   5 -12 -37   -1.40    7.30
  12  -7  37    1.10    3.80
  12  -7  37    3.30    4.80
  -7  -5  37   -9.70    5.10
   2 -12 -37   11.20   10.40
  12 -10  37   13.40    8.20
 -10  -2  37   27.50    9.30
 -10  -2  37   19.90    8.20
  -1 -12 -37   -5.60    6.70
  12 -13  37    7.80    8.50
  10 -13 -37   -2.70    7.00
  -3 -10  37    5.30    9.70
   7 -13 -37    4.60    8.30
  13  -6  37    2.30    3.00
  13  -6  37    2.20    2.80
  -6  -7  37   -1.40   11.70
   4 -13 -37   -3.70    8.80
  -9  -4  37   -2.40    5.70
  13  -9  37    1.80    4.70
   1 -13 -37   -1.00    7.50
 -12  -1  37    1.40    5.50
  13 -12  37    0.30    6.80
   9 -14 -37  -10.50    5.30
  -5  -9  37   -0.20    7.30
   6 -14 -37   -3.40    7.70
  -8  -6  37    9.80    9.00
  14  -8  37    1.60    3.40
 -11  -3  37    4.80    6.10
  14 -11  37    6.00    6.30
   1   0 -38   44.80    8.70
   0  -1 -38   65.79    8.70
  -1   1 -38   61.29    9.00
  -1   0  38   47.50    7.90
   0   1  38   47.80    7.80
   1  -1  38   42.70    7.60
  -2   0 -38  900.01   29.70
   0   2 -38  829.32   30.50
   2  -2 -38  842.32   29.20
   0  -2  38  856.21   29.70
  -2   2  38  842.72   29.00
   2   0  38  839.82   28.50
  -1  -2 -38  486.25   21.60
   3  -1 -38  497.45   21.80
  -2   3 -38  458.35   22.60
   2  -3  38  499.65   22.10
   1   2  38  475.15   21.40
  -3   1  38  537.25   21.70
   4  -3 -38   36.00    7.70
  -3  -1 -38   35.20    7.70
  -1   4 -38   46.30    9.90
  -4   3  38   36.20    7.80
   1  -4  38   31.10    7.70
   3   1  38   61.49    8.50
   2   1 -38  481.65   22.40
   1  -3 -38  490.85   22.70
  -3   2 -38  519.85   22.60
  -1   3  38  482.85   21.80
   3  -2  38  507.25   21.40
  -2  -1  38  557.44   22.60
  -3   5 -38  545.15   26.10
   5  -2 -38  474.15   21.60
  -2  -3 -38  427.96   21.20
   3  -5  38  499.65   30.20
  -5   2  38  480.25   21.20
   2   3  38  486.75   22.70
  -4  -2 -38  501.45   31.60
   6  -4 -38  494.05   27.10
   2  -6  38  482.85   25.40
  -6   4  38  502.15   22.40
   4   2  38  529.55   23.20
   3  -4 -38   43.50    8.20
   1   3 -38   43.30    9.70
  -4   1 -38   50.19    8.90
  -3   4  38   53.89    8.50
   4  -1  38   50.29    7.80
  -1  -3  38   35.50    7.80
   0  -4 -38   71.99   10.20
  -4   4 -38   75.59   11.20
   4   0 -38   71.59    9.80
   4  -4  38   56.69    9.10
  -4   0  38   95.19   10.00
   7  -3 -38   13.80    6.60
  -3  -4 -38   18.10    7.40
   4  -7  38   14.70    8.60
  -7   3  38   14.70    6.00
   3   4  38   15.10    6.90
  -5  -3 -38   58.99   10.70
   8  -5 -38   57.89    9.60
   5   3  38   53.69   10.30
   3  -8  38   87.69   13.90
  -8   5  38   53.29    9.70
   5  -5 -38  270.97   16.90
   0   5 -38  271.47   19.80
  -5   0 -38  233.38   15.10
   0  -5  38  286.17   18.90
   5   0  38  258.87   15.40
   2  -5 -38  477.85   23.30
   3   2 -38  461.35   23.30
  -5   3 -38  520.75   22.70
  -2   5  38  457.75   22.90
   5  -3  38  451.55   20.50
  -3  -2  38  510.65   23.00
  -1  -5 -38   71.39   11.00
   6  -1 -38  101.99   11.00
  -6   1  38  100.89   10.40
   1   5  38   86.59   11.50
   5  -6  38   70.49   10.50
   9  -4 -38  152.78   15.60
  -4  -5 -38   95.19   13.30
  -9   4  38  154.58   13.20
   5  -9  38  167.58   18.00
  10  -6 -38  146.89   13.70
  -6  -4 -38  165.98   15.10
   4 -10  38  161.88   19.30
  -6  -1 -38  106.99   11.20
   7  -6 -38  102.69   11.90
  -7   6  38   87.19   11.20
   6   1  38   90.99   10.40
  -6   2 -38  469.55   21.40
   2   4 -38  524.55   26.80
   4  -6 -38  514.05   24.60
   6  -2  38  527.45   21.30
  -2  -4  38  490.95   24.40
  -4   6  38  480.65   24.20
   5   1 -38   81.19   11.50
  -6   5 -38   95.19   16.20
   1  -6 -38   72.69   11.30
  -5  -1  38   70.29    9.70
  -1   6  38   73.19   11.00
   6  -5  38   76.39   10.10
   8  -2 -38   34.90    8.30
  -2  -6 -38   29.10    9.10
  -8   2  38   24.50    6.90
   6  -8  38   15.70    8.20
  -5  -6 -38   27.90    9.60
  11  -5 -38   31.50    8.80
 -11   5  38   25.00    7.50
   6 -11  38   34.20   19.50
  12  -7 -38   57.99   10.30
  -7  -5 -38   40.10   10.50
   5 -12  38   34.70   13.00
   9  -7 -38   91.59   12.10
  -7  -2 -38   67.69   10.70
   2  -9  38  102.59   15.90
  -9   7  38   89.59   12.10
   7   2  38   83.59   18.20
  -7   1 -38  103.69   10.90
   6  -7 -38   96.99   12.20
  -6   7  38   95.49   12.50
   7  -1  38  119.79   10.70
   3  -7 -38    7.30    6.00
  -7   4 -38   14.20    6.70
   4   3 -38    4.00    6.80
   7  -4  38   14.10    5.60
  -4  -3  38    8.30    6.40
   0  -7 -38   62.79   12.60
   7   0 -38   28.70    9.00
  -7   0  38   56.29    9.20
   7  -7  38   25.80    8.20
  -3  -7 -38   36.30   10.20
  10  -3 -38   19.80    7.70
   7 -10  38   18.50   10.90
 -10   3  38   18.80    6.40
  -6  -7 -38   15.00    8.40
  13  -6 -38   16.60    6.50
 -13   6  38   12.60    5.70
   7 -13  38   30.80   12.60
  -8  -6 -38   16.90    8.60
   6 -14  38    0.50    9.20
  11  -8 -38   32.50    8.90
  -8  -3 -38   28.00    8.10
   3 -11  38   31.50   13.40
 -11   8  38   39.30   10.10
   8   3  38   47.70   11.00
   8  -8 -38   92.19   12.40
  -8   0 -38   88.59   10.40
   8   0  38   93.49   10.40
   0  -8  38   87.99   16.40
   5  -8 -38   62.79   12.20
  -8   3 -38   62.89   10.80
   8  -3  38   56.39    8.60
   2  -8 -38   12.20    7.10
   6   2 -38   16.50    7.30
  -6  -2  38   29.40    8.50
   8  -6  38   24.20    7.20
  -1  -8 -38   38.70   11.10
   9  -1 -38   31.80   16.00
   8  -9  38   13.20    7.80
  -9   1  38   45.30    8.40
  -4  -8 -38   35.20   14.80
  12  -4 -38   37.00    9.00
   8 -12  38   16.80   10.70
 -12   4  38   15.90    5.50
  13  -9 -38    7.40    6.20
  -9  -4 -38   12.10    6.90
   4 -13  38   22.60   12.00
 -13   9  38    6.10   10.80
  10  -9 -38   26.20    8.80
  -9  -1 -38   15.60    6.60
   1 -10  38    7.80    9.70
   9   1  38    7.60    5.80
   7  -9 -38   85.39   14.60
  -9   2 -38   89.19   10.60
  -2  -7  38  101.79   15.80
   9  -2  38   94.09    9.60
   4  -9 -38  162.38   17.10
   9  -5  38  146.29   12.30
   1  -9 -38   17.90    9.00
  -8  -1  38   30.30    8.70
   9  -8  38   16.60    7.80
   9  -8  38   37.10    9.60
  -2  -9 -38   99.39   17.60
   9 -11  38   45.90   12.70
 -11   2  38   79.39    9.90
  -5  -9 -38   19.80   10.30
   9 -14  38    5.20    9.00
  12 -10 -38   18.80    7.70
 -10  -2 -38    6.20    5.70
   2 -12  38    8.10   10.30
 -10   1 -38    7.30    5.20
   9 -10 -38   22.70    8.70
  10  -1  38    3.40    4.70
  -1  -9  38   10.70   13.70
 -10   4 -38  162.58   13.40
   6 -10 -38  156.98   17.50
  -4  -6  38  152.98   17.90
  10  -4  38  147.89   11.50
   3 -10 -38   21.70   10.10
  10  -7  38   23.60    8.90
  -7  -3  38   46.40   11.00
  10  -7  38   41.10    9.80
   0 -10 -38  137.59   18.10
  10 -10  38  161.98   17.00
 -10   0  38  145.89   13.00
  -3 -10 -38   -4.40    8.10
  10 -13  38    9.10    9.10
 -13   3  38    9.30    3.90
  14 -11 -38   35.10   10.00
 -11  -3 -38   22.60    7.40
   3 -14  38   31.10   15.10
  11 -11 -38   41.50   11.90
 -11   0 -38   44.30    8.20
   0 -11  38   45.60   14.40
  11   0  38   44.20    8.50
   8 -11 -38   34.70   11.40
  11  -3  38   25.80    6.40
  -3  -8  38   44.90   13.80
   5 -11 -38   28.60   10.40
  11  -6  38   40.00    7.90
  -6  -5  38   36.10   10.60
  11  -6  38   25.00    6.60
   2 -11 -38   94.79   17.50
  11  -9  38   87.49   21.50
  -9  -2  38   77.79   12.30
  11  -9  38   68.39   12.50
  -9  -2  38   84.09   12.40
  -1 -11 -38    7.50    9.90
 -12   1  38    7.70    5.00
 -12   1  38    5.30    5.10
  13 -12 -38    9.00    9.30
 -12  -1 -38   14.50    6.40
   1 -13  38   12.20   10.80
  10 -12 -38    2.30    6.70
  12  -2  38   14.00    3.90
  -2 -10  38    7.70    9.80
   7 -12 -38   27.80   11.30
  12  -5  38   38.70    6.80
  12  -5  38   41.30    6.60
  -5  -7  38   14.50    9.50
   4 -12 -38   43.60   14.10
  -8  -4  38   26.10    9.60
  12  -8  38   29.40    8.20
  12  -8  38   25.60    7.60
   1 -12 -38   -9.90    6.60
 -11  -1  38    2.40    5.50
  12 -11  38    6.20    6.70
 -11  -1  38    3.40    5.60
  12 -13 -38   28.80   10.50
  -1 -12  38   24.90   13.50
   9 -13 -38    2.90    7.50
  -4  -9  38   -4.00    6.20
   6 -13 -38   23.00   11.50
  -7  -6  38   27.60   11.30
  13  -7  38   17.90    5.60
  13  -7  38   27.40    6.10
   3 -13 -38   24.40   12.40
  13 -10  38   11.90    7.10
 -10  -3  38    8.40    7.00
  11 -14 -38   44.10   13.60
  -3 -11  38   35.80   13.00
   8 -14 -38   24.80   12.10
  -6  -8  38    0.30    7.40
   5 -14 -38   11.90   11.80
  14  -9  38   18.70    6.10
  -9  -5  38   26.20    9.90
   0   0 -39    3.60    4.30
   0   0  39   -3.20    3.40
  -1   2 -39  384.76   19.80
  -1  -1 -39  339.57   18.00
   2  -1 -39  367.56   18.90
  -2   1  39  364.96   18.10
   1   1  39  362.76   18.30
   1  -2  39  384.06   18.80
   1  -2 -39  361.36   18.40
   1   1 -39  353.56   19.00
  -2   1 -39  335.27   18.00
  -1  -1  39  330.47   17.50
   2  -1  39  348.77   17.70
  -1   2  39  351.46   18.10
   4  -2 -39   -5.20    4.00
  -2  -2 -39   -1.80    4.30
  -2   4 -39    4.40    5.90
   2  -4  39    7.10    5.20
   2   2  39   -1.10    3.40
  -4   2  39    2.20    4.40
  -3   0 -39    2.00    4.70
   0   3 -39   -1.70    4.10
   3  -3 -39   -0.30    5.20
   0  -3  39    0.90    4.00
   3   0  39    9.60    4.70
  -3   3  39    1.20    4.10
   3   0 -39   -1.20    4.40
   0  -3 -39    4.00    4.80
  -3   3 -39   -4.70    3.90
   3  -3  39   -1.30    3.20
   0   3  39    2.10    3.90
  -3   0  39    1.40    4.10
  -3  -3 -39    6.70    5.30
   6  -3 -39   -0.70    4.70
   3   3  39    1.00    7.90
  -6   3  39    2.50    4.40
   3  -6  39    2.20    5.30
  -4  -1 -39  152.08   12.60
  -1   5 -39  149.29   15.20
   5  -4 -39  166.98   13.40
   4   1  39  134.29   11.80
  -5   4  39  149.39   12.60
   1  -5  39  126.39   13.20
   2  -4 -39   -3.60    3.60
  -4   2 -39    6.00    5.00
   2   2 -39   -2.30    4.20
  -2   4  39   -1.60    3.80
  -2  -2  39    2.40    4.80
   4  -2  39    2.90    3.00
  -1  -4 -39   53.79   10.20
  -4   5 -39   67.29   10.90
   5  -1 -39   69.79    9.70
  -5   1  39   66.99    9.10
   1   4  39   61.79    9.60
  -4  -4 -39   77.29   11.70
   8  -4 -39   89.09   11.20
  -8   4  39   54.19   10.10
   4   4  39   77.49   11.40
   4  -8  39   66.39   13.50
   7  -5 -39    9.70    6.00
  -5  -2 -39    8.80    5.50
   5   2  39    9.00    5.30
   4  -5 -39  148.39   13.20
   1   4 -39  156.28   15.10
  -5   1 -39  142.49   12.10
  -4   5  39  141.29   12.90
   5  -1  39  134.49   11.40
  -1  -4  39  135.49   13.30
  -5   4 -39   66.99   11.60
   1  -5 -39   76.59   11.10
   4   1 -39   87.19   11.50
  -4  -1  39   65.49    9.30
   5  -4  39   80.29    9.90
  -1   5  39   67.19   11.30
   7  -2 -39    3.90    5.10
  -2  -5 -39   -1.70    5.50
  -7   2  39   -4.60    3.70
   2   5  39   -2.70    4.90
   5  -7  39    2.40    5.00
  -5  -5 -39   28.70    8.90
  10  -5 -39   34.20    8.70
   5 -10  39   24.90   11.20
 -10   5  39   51.69    9.90
   9  -6 -39  163.38   14.50
  -6  -3 -39  171.68   14.90
   3  -9  39  218.18   20.80
   6   3  39  166.68   15.30
  -9   6  39  193.28   15.30
   6  -6 -39   -2.00    4.30
  -6   0 -39   -2.00    4.10
   6   0  39    3.00    4.50
  -6   6  39   -2.90    4.00
  -6   3 -39    8.40    6.20
   3   3 -39   -2.40    4.50
   3  -6 -39   -4.80    4.10
  -3   6  39   -5.80    4.00
  -3  -3  39   -2.10    4.00
   6  -3  39   -3.90    3.20
   6   0 -39   -1.90    4.20
   0  -6 -39   -0.90    5.80
   6  -6  39   -2.80    4.70
  -6   0  39   -4.80    3.90
   9  -3 -39   27.10    9.80
  -3  -6 -39   33.30    9.60
  -9   3  39   39.30    8.10
   6  -9  39   31.20   11.30
  -6  -6 -39   -2.40    6.20
  12  -6 -39    0.70    5.00
 -12   6  39    1.20    4.70
   6 -12  39   -4.50    7.20
  -7  -4 -39   -6.70    4.80
  11  -7 -39   -1.90    4.90
 -11   7  39    9.70    6.10
   4 -11  39   -2.90    6.90
   8  -7 -39   97.09   12.50
   7   1  39  115.19   11.90
   1  -8  39  140.19   17.40
  -8   7  39  157.08   14.80
   5  -7 -39   14.30    7.10
  -7   2 -39    8.70    5.90
   7  -2  39   15.30    5.30
   2  -7 -39   -1.60    5.20
  -7   5 -39   -1.00    6.30
   5   2 -39    2.40    5.70
   7  -5  39   -1.10    3.60
  -5  -2  39   -3.00    4.30
   8  -1 -39   -1.30    5.30
  -1  -7 -39    1.10    5.80
   7  -8  39    5.50    6.60
  -8   1  39    8.70    5.50
  11  -4 -39   -0.20    4.80
  -4  -7 -39   -2.10    5.90
   7 -11  39    4.10    8.60
 -11   4  39    0.10    4.60
  -7  -7 -39    3.30    7.20
  14  -7 -39    1.10    4.50
   7 -14  39    3.00    9.70
  13  -8 -39    9.30    6.60
  -8  -5 -39   10.20    7.70
 -13   8  39    0.90    5.90
   5 -13  39   -9.50    6.80
  -8  -2 -39   -3.50    5.00
  10  -8 -39    1.20    6.70
   8   2  39   -5.30    4.40
   2 -10  39    3.10    8.20
  -8   1 -39  115.59   11.50
   7  -8 -39  120.19   14.00
   8  -1  39  128.89   11.60
  -1  -7  39   95.89   14.80
   4  -8 -39   58.89   12.00
  -8   4 -39   78.19   10.80
  -4  -4  39   78.39   15.50
   8  -4  39   78.79    9.70
   1  -8 -39   -6.50    4.50
   7   1 -39   12.70    7.30
  -7  -1  39   11.70    6.60
   8  -7  39    2.90    5.50
  10  -2 -39   51.99   11.70
  -2  -8 -39   19.00    9.20
   8 -10  39   20.80   10.00
 -10   2  39   26.20    7.60
  -5  -8 -39    7.60    8.60
  13  -5 -39   -2.10    4.80
 -13   5  39   -0.60    4.50
   8 -13  39    2.90    8.40
  12  -9 -39   -1.10    4.80
  -9  -3 -39    2.00    6.00
   9   3  39   -0.30    6.20
   3 -12  39    6.00    9.20
  -9   0 -39   -1.80    4.50
   9  -9 -39    2.60    6.30
   9   0  39    1.20    4.60
   0  -9  39   -6.30    5.90
  -9   3 -39  190.18   14.20
   6  -9 -39  217.28   18.90
   9  -3  39  189.78   13.10
  -3  -6  39  192.28   19.00
   3  -9 -39   24.60    9.80
  -6  -3  39   26.60    8.60
   9  -6  39   20.60    6.30
   0  -9 -39   -1.30    6.90
  -9   0  39    7.20    6.20
   9  -9  39   -7.70    4.90
  -3  -9 -39   26.50   10.10
   9 -12  39   17.20    9.80
 -12   3  39   22.60    6.60
 -10  -4 -39   -3.30    5.20
  14 -10 -39   -0.80    6.00
   4 -14  39    5.80   10.50
 -10  -1 -39   34.20    8.70
  11 -10 -39   23.30    8.80
  10   1  39   23.40    7.40
   1 -11  39   23.20   12.40
   8 -10 -39   -4.10    6.50
 -10   2 -39   -3.30    4.30
  -2  -8  39    2.50    8.60
  10  -2  39   -2.70    3.20
   5 -10 -39   18.80    8.60
  10  -5  39   42.20    8.30
  -5  -5  39   58.99   13.40
   2 -10 -39   14.30   10.50
  10  -8  39   20.10    6.90
  -8  -2  39   42.60   10.30
  -8  -2  39   43.20    9.80
  10  -8  39   17.90    7.30
  -1 -10 -39   14.30    8.90
 -11   1  39   11.10    6.10
  10 -11  39   20.30   10.00
  -4 -10 -39   18.40   10.70
  10 -14  39    8.80    9.80
  13 -11 -39   11.30    7.60
   2 -13  39    4.90   11.00
 -11   1 -39   20.10    6.10
  10 -11 -39   37.40   11.10
  -1 -10  39   37.70   13.00
  11  -1  39   23.70    6.30
  11  -4  39    0.20    4.10
  -4  -7  39   -3.70    6.60
   4 -11 -39   10.30    8.80
  11  -7  39    1.80    4.80
  -7  -4  39   18.20    8.70
  11  -7  39    1.30    4.70
   1 -11 -39   29.50   12.60
  11 -10  39   21.70    9.70
 -10  -1  39   25.30    7.60
 -10  -1  39   27.00    8.80
  -2 -11 -39   -1.40    9.00
 -13   2  39    1.00    3.60
  11 -13  39    3.50    6.50
 -12   0 -39   -1.30    3.80
  12 -12 -39    2.10    6.30
   0 -12  39    4.40   10.60
   9 -12 -39   -2.10    6.80
  -3  -9  39   16.20    9.80
  12  -3  39    0.40    3.10
   6 -12 -39    0.40    7.10
  12  -6  39   -0.10    4.00
  12  -6  39    2.00    4.10
  -6  -6  39  -12.00    4.70
   3 -12 -39   26.00   11.30
  12  -9  39   25.70    8.30
  -9  -3  39    7.10    7.60
  12  -9  39   15.00    7.30
   0 -12 -39   -0.80    8.20
  12 -12  39    0.30    6.60
 -12   0  39   11.30    6.00
  11 -13 -39    0.00    7.70
  -2 -11  39    6.60    9.90
   8 -13 -39    0.90    7.80
  -5  -8  39    4.20    8.90
   5 -13 -39    7.40    9.50
  13  -8  39    5.50    5.40
  13  -8  39    1.50    4.90
  -8  -5  39   -5.20    5.50
   2 -13 -39   -1.50    8.00
 -11  -2  39    0.70    5.50
  13 -11  39    6.40    6.90
  10 -14 -39   -2.50    6.90
  -4 -10  39   -1.00    8.40
   7 -14 -39   -1.40    8.20
  -7  -7  39   -0.30    8.30
   4 -14 -39    1.80    9.70
  14 -10  39    3.00    5.60
 -10  -4  39    4.80    7.40
  -1   0 -40   43.40    8.70
   1  -1 -40   60.29    9.30
   0   1 -40   56.79    8.90
  -1   1  40   49.99    8.90
   0  -1  40   58.39    8.50
   1   0  40   49.40    8.60
  -1   3 -40  235.58   16.80
   3  -2 -40  252.17   15.70
  -2  -1 -40  260.47   16.00
   1  -3  40  250.27   16.10
   2   1  40  249.97   15.50
  -3   2  40  296.57   16.50
   0  -2 -40  460.05   22.30
   2   0 -40  442.46   21.30
  -2   2 -40  463.45   21.90
  -2   0  40  420.56   20.30
   0   2  40  482.75   21.50
   2  -2  40  484.65   21.30
  -2   5 -40  374.06   22.60
   5  -3 -40  344.67   21.10
  -3  -2 -40  384.56   19.90
   2  -5  40  371.26   21.10
  -5   3  40  364.26   18.90
   3   2  40  376.06   19.60
  -3   1 -40  259.97   15.90
   2  -3 -40  284.17   17.10
   1   2 -40  251.97   17.80
  -1  -2  40  276.27   16.60
   3  -1  40  298.97   16.20
  -2   3  40  270.67   16.50
   4  -1 -40  531.95   23.50
  -3   4 -40  508.85   24.70
  -1  -3 -40  479.45   22.50
   1   3  40  479.35   22.60
  -4   1  40  490.15   21.60
   3  -4  40  526.35   23.60
  -4  -3 -40   16.40    7.20
   7  -4 -40   -2.70    4.80
  -7   4  40   10.20    5.60
   4   3  40    1.90    4.90
   0   4 -40   16.80    7.50
   4  -4 -40    6.70    5.60
  -4   0 -40   16.10    6.40
   4   0  40   10.20    5.50
   0  -4  40   16.70    6.50
  -4   4  40   17.20    6.40
  -4   3 -40  550.84   24.20
   3   1 -40  505.55   27.10
   1  -4 -40  519.65   23.70
  -3  -1  40  513.95   22.70
  -1   4  40  524.85   24.40
   4  -3  40  507.05   22.10
  -4   6 -40  183.28   17.00
  -2  -4 -40  162.78   14.40
   2   4  40  191.58   15.50
   4  -6  40  191.88   16.00
  -6   2  40  207.78   14.30
   9  -5 -40  423.26   22.30
  -5  -4 -40  467.15   23.90
   4  -9  40  477.05   29.20
  -9   5  40  446.46   34.60
   6  -5 -40  423.96   21.40
   5   1  40  375.56   19.40
  -6   5  40  365.56   20.20
   2   3 -40  355.66   21.20
   3  -5 -40  370.06   20.50
  -5   2 -40  363.16   19.20
  -3   5  40  334.07   19.80
  -2  -3  40  338.37   19.60
   5  -2  40  391.26   18.70
   0  -5 -40  188.58   15.80
  -5   5 -40  194.88   16.40
   5   0 -40  186.58   15.10
   0   5  40  163.48   14.90
  -5   0  40  186.28   14.00
  -3  -5 -40   67.09   12.20
   8  -3 -40   64.49   10.00
  -8   3  40   60.69   10.10
   5  -8  40   83.59   15.10
  -6  -5 -40   27.70    9.20
  11  -6 -40   41.40    8.80
   5 -11  40   26.30   11.90
 -11   6  40   24.20    8.50
  -6  -2 -40   54.59   10.40
   8  -6 -40   58.89   10.70
   6   2  40   43.80   10.10
   2  -8  40   63.39   14.80
  -8   6  40   51.09   10.60
   5  -6 -40  363.56   20.90
  -6   1 -40  362.66   18.70
  -1  -5  40  366.66   24.90
  -5   6  40  385.06   21.70
   6  -1  40  396.76   18.90
  -6   4 -40  204.08   17.60
   2  -6 -40  197.28   16.40
   4   2 -40  177.48   15.70
   6  -4  40  172.88   13.20
  -2   6  40  159.38   15.60
  -4  -2  40  160.88   13.90
   7  -1 -40  179.58   15.00
  -1  -6 -40  184.58   16.70
  -7   1  40  171.28   13.40
   6  -7  40  201.58   16.70
  -4  -6 -40    8.50    8.30
  10  -4 -40   20.90    7.50
   6 -10  40   29.40   11.10
 -10   4  40   16.70    6.70
  13  -7 -40   37.70    8.70
  -7  -6 -40   33.20   10.60
 -13   7  40   33.90    9.00
   6 -13  40   63.79   17.30
  10  -7 -40   53.99   10.30
  -7  -3 -40   34.00    9.60
 -10   7  40   50.19   11.00
   7   3  40   70.99   11.60
   3 -10  40   39.00   15.00
  -7   0 -40    5.30    5.70
   7  -7 -40   -7.40    4.80
   0  -7  40    7.50    8.50
  -7   7  40   17.30    8.40
   7   0  40    8.00    5.50
   4  -7 -40   -1.20    5.30
  -7   3 -40   12.10    6.10
  -3  -4  40   -0.80    4.70
   7  -3  40    1.00    3.90
   6   1 -40  160.08   15.40
   1  -7 -40  178.38   16.80
  -6  -1  40  181.88   15.20
   7  -6  40  157.08   14.10
   9  -2 -40   87.99   12.10
  -2  -7 -40   91.09   13.60
  -9   2  40   90.49   10.80
   7  -9  40   72.79   14.60
  -5  -7 -40   60.19   13.50
  12  -5 -40   41.20   10.20
 -12   5  40   40.40    9.00
   7 -12  40   60.39   15.50
  -8  -4 -40   74.49   12.10
  12  -8 -40   60.49   11.80
   4 -12  40   75.29   17.40
 -12   8  40   65.49   12.50
   9  -8 -40  240.28   18.30
  -8  -1 -40  233.58   16.10
   8   1  40  224.38   15.90
   1  -9  40  235.58   22.40
  -8   2 -40   51.29    9.90
   6  -8 -40   32.70    9.40
   8  -2  40   53.89    9.60
  -8   5 -40   71.89   20.50
   3  -8 -40   80.49   13.00
   8  -5  40   67.39    9.40
  -5  -3  40   42.10   10.20
   0  -8 -40   62.89   13.30
   8   0 -40   72.49   12.70
   8  -8  40   69.19   13.10
  11  -3 -40   27.00    8.30
  -3  -8 -40   40.00   11.90
 -11   3  40   24.30    7.70
   8 -11  40   33.40   12.40
  14  -6 -40    3.60    4.70
  -6  -8 -40    8.50    8.80
   8 -14  40    6.20    9.90
  -9  -5 -40    2.60    7.30
  14  -9 -40   -3.30    4.90
   5 -14  40   15.20   13.10
  -9  -2 -40   32.00    8.50
  11  -9 -40   24.50    9.00
   2 -11  40   14.30   12.30
   9   2  40    9.60    6.90
  -9   1 -40  242.58   15.80
   8  -9 -40  204.58   18.00
  -1  -8  40  227.48   21.80
   9  -1  40  211.18   14.50
   5  -9 -40  492.55   27.70
  -9   4 -40  511.45   23.20
  -4  -5  40  509.55   28.10
   9  -4  40  445.86   20.50
   2  -9 -40   90.59   14.60
   9  -7  40   82.09   11.10
  -7  -2  40   90.89   12.30
  -1  -9 -40  182.38   19.80
   9 -10  40  137.69   16.20
 -10   1  40  120.99   12.30
  -4  -9 -40    3.50    8.00
   9 -13  40    1.80    7.60
 -13   4  40    3.80    5.80
  13 -10 -40   13.40    7.70
 -10  -3 -40   34.70    9.40
   3 -13  40   32.30   13.40
 -10   0 -40    7.60    5.50
  10 -10 -40   14.40    8.00
  10   0  40    7.70    5.60
   0 -10  40    8.40    8.40
   7 -10 -40   53.69   12.40
 -10   3 -40   50.09    9.10
  10  -3  40   41.80    8.40
  -3  -7  40   43.20   12.20
   4 -10 -40   -1.80    5.70
  10  -6  40   19.30    6.40
  -6  -4  40    8.30    7.20
   1 -10 -40  145.59   19.10
  -9  -1  40  148.69   14.50
  10  -9  40  175.28   16.80
  -2 -10 -40   12.30    9.60
 -12   2  40    9.50    5.90
  10 -12  40   24.60   10.10
  12 -11 -40   21.90   10.30
 -11  -1 -40   21.20    7.20
   1 -12  40   37.80   14.90
   9 -11 -40   11.20    9.00
 -11   2 -40   11.60    5.70
  11  -2  40   16.70    6.00
  -2  -9  40   22.70   10.80
   6 -11 -40   19.40    9.50
  11  -5  40   24.20    6.50
  -5  -6  40   44.80   12.50
   3 -11 -40   21.20   10.60
  -8  -3  40   25.80    9.60
  11  -8  40   30.70    8.60
  11  -8  40   43.60   10.80
   0 -11 -40   27.90   12.60
 -11   0  40   26.10   13.00
 -11   0  40   14.40    6.70
  11 -11  40   20.10    9.40
 -12   1 -40   24.20    5.80
  11 -12 -40   14.70    8.60
  -1 -11  40   12.50   11.50
   8 -12 -40   53.89   13.60
  12  -4  40   50.19    7.50
  -4  -8  40   88.89   17.50
   5 -12 -40   35.70   12.60
  12  -7  40   26.60    7.00
  -7  -5  40   66.59   13.80
  12  -7  40   44.30   10.00
   2 -12 -40   21.10   11.20
  12 -10  40   19.50    8.50
 -10  -2  40    4.30    6.40
  -1 -12 -40   12.30   10.50
  12 -13  40   11.20    8.60
 -13   1  40   21.20    8.00
  10 -13 -40   29.30   10.90
  -3 -10  40   30.20   13.90
   7 -13 -40   46.90   13.50
  -6  -7  40   32.80   11.70
  13  -6  40   28.10    6.00
   4 -13 -40    3.50   10.20
  -9  -4  40    2.90    7.90
  13  -9  40   14.10    6.90
   1 -13 -40   12.30   12.40
  13 -12  40   23.80    9.80
 -12  -1  40   20.60    7.80
   9 -14 -40    7.20    9.20
  -5  -9  40   13.50   10.50
   6 -14 -40   -1.60    8.70
  14  -8  40    3.30    4.20
  -8  -6  40    0.80    7.50
   1   0 -41    2.60    4.30
   0  -1 -41    2.50    4.60
  -1   1 -41   -6.30    3.10
  -1   0  41   -1.40    3.60
   0   1  41    0.50    3.90
   1  -1  41    4.40    4.40
  -2   0 -41    0.80    4.50
   0   2 -41   -1.60    4.30
   0  -2  41    2.30    4.10
   2   0  41    2.30    4.10
  -2   2  41   -3.70    3.60
   3  -1 -41   33.10    9.00
  -2   3 -41   41.80    9.20
  -1  -2 -41   42.70    8.70
   2  -3  41   38.40    8.10
  -3   1  41   31.70    7.40
   1   2  41   27.40    6.70
  -3  -1 -41   71.89   15.40
   4  -3 -41   59.39   10.30
  -1   4 -41   69.79   11.20
  -4   3  41   64.39    9.50
   1  -4  41   70.69   10.10
   3   1  41   62.69   10.40
   2   1 -41   32.70    9.10
  -3   2 -41   25.70    7.30
   1  -3 -41   39.50    8.10
  -1   3  41   47.50    8.90
   3  -2  41   37.00    7.70
  -2  -1  41   35.10    7.90
  -2  -3 -41   47.40    9.60
  -3   5 -41   37.20    9.50
   5  -2 -41   46.10    9.40
   2   3  41   35.30    8.10
  -5   2  41   47.60    8.90
   3  -5  41   45.10    9.40
   6  -4 -41   -1.20    4.00
  -4  -2 -41   -2.40    4.50
  -6   4  41   -0.40    6.30
   4   2  41   -0.20    4.60
   1   3 -41   75.99   11.10
   3  -4 -41   65.39    9.90
  -4   1 -41   50.59    9.10
   4  -1  41   57.79    8.50
  -3   4  41   35.90    9.50
  -1  -3  41   72.79   10.20
   4   0 -41    1.60    4.50
  -4   4 -41   -5.90    4.30
   0  -4 -41   -0.60    4.40
  -4   0  41    2.20    4.50
   0   4  41    1.30    4.00
   4  -4  41    5.40    4.90
  -3  -4 -41   31.80    8.50
   7  -3 -41   68.59   10.70
  -7   3  41   38.40    8.60
   3   4  41   32.20    9.10
  -5  -3 -41    6.40    5.80
   8  -5 -41    3.30    5.40
   3  -8  41    1.00    6.50
  -8   5  41    9.20    5.70
   5   3  41    2.20    6.40
   0   5 -41    1.90    5.80
  -5   0 -41   -4.80    4.40
   5  -5 -41    6.80    5.50
   5   0  41   -2.50    3.30
  -5   5  41    5.20    5.20
   0  -5  41   -5.40    4.20
   2  -5 -41   26.20    7.70
  -5   3 -41   23.80    7.50
   3   2 -41   38.20    9.00
  -3  -2  41   31.80    9.50
   5  -3  41   36.40    8.20
  -2   5  41   44.90    9.10
  -5   6 -41   56.99   12.00
   6  -1 -41   68.89   10.30
  -1  -5 -41   71.39   12.30
   5  -6  41   67.59   11.90
   1   5  41   75.29   13.10
  -6   1  41   71.19    9.70
  -4  -5 -41   80.19   12.60
   9  -4 -41   78.99   11.50
   5  -9  41   72.19   15.10
  -9   4  41   77.99   11.40
  10  -6 -41   -0.30    5.50
  -6  -4 -41    3.50    6.20
 -10   6  41    1.30    5.00
   4 -10  41   -0.20    7.60
  -6  -1 -41  352.86   19.20
   7  -6 -41  329.07   20.00
   6   1  41  334.07   19.00
  -7   6  41  345.57   20.60
  -6   2 -41   -6.30    4.20
   4  -6 -41    2.00    5.30
   2   4 -41    0.70    5.90
  -2  -4  41   -1.50    4.00
  -4   6  41    3.90    4.30
   6  -2  41    2.60    4.40
   5   1 -41   66.39   10.90
  -6   5 -41   71.59   11.40
   1  -6 -41   66.39   12.30
  -5  -1  41   69.39   14.60
   8  -2 -41   20.20    7.50
  -2  -6 -41   16.80    7.80
  -8   2  41   22.10    7.40
   6  -8  41   10.20    7.60
  -5  -6 -41   -1.30    6.20
  11  -5 -41   17.10    6.90
 -11   5  41   -1.20    4.30
   6 -11  41   -0.10    8.00
  12  -7 -41    1.70    4.70
  -7  -5 -41   -2.20    5.80
 -12   7  41    2.10    5.70
   5 -12  41   -7.80    6.60
   9  -7 -41   26.20    7.90
  -7  -2 -41   20.20    7.70
  -9   7  41   11.40    6.70
   7   2  41    3.60    5.60
   2  -9  41    6.90    8.00
  -7   1 -41  320.27   18.20
   6  -7 -41  342.37   20.90
   7  -1  41  339.97   18.00
   4   3 -41   36.70   10.60
   3  -7 -41   61.59   12.20
  -7   4 -41   57.59   13.60
  -4  -3  41   39.30    9.70
   7  -4  41   38.50    8.00
   0  -7 -41   -1.60    5.70
   7   0 -41    2.00    6.20
   7  -7  41   -0.20    5.20
  -3  -7 -41   16.90    8.30
  10  -3 -41   -0.10    5.00
 -10   3  41    2.20    5.10
   7 -10  41   -1.80    6.50
  -6  -7 -41   -5.30    6.20
  13  -6 -41    8.40    9.20
 -13   6  41    1.80    5.20
   7 -13  41    7.80    9.60
  -8  -6 -41   -3.40    6.30
  14  -8 -41    1.70    4.90
   6 -14  41    2.90    9.90
  11  -8 -41    7.40    6.50
  -8  -3 -41    0.00    5.00
   3 -11  41  -14.40    5.60
  -8   0 -41   -8.10    5.20
   8  -8 -41   -2.20    5.00
   0  -8  41   10.00    9.10
   8   0  41    0.30    4.70
  -8   3 -41    5.90    6.00
   5  -8 -41   11.10    7.20
   8  -3  41    4.60    4.60
   6   2 -41   17.50    9.40
   2  -8 -41   14.80    8.90
  -6  -2  41   33.80    9.40
   8  -6  41   33.70    8.50
   9  -1 -41   -4.90    5.40
  -1  -8 -41   -0.20    6.20
   8  -9  41   -7.30    5.50
  -9   1  41    4.40    5.20
  12  -4 -41    3.80    5.90
  -4  -8 -41    6.80    8.40
 -12   4  41    0.80    5.30
   8 -12  41    8.00    8.50
  13  -9 -41   17.50    7.90
  -9  -4 -41   10.90    7.30
   4 -13  41   14.20   11.50
  10  -9 -41   69.89   13.10
  -9  -1 -41   71.69   11.00
   9   1  41   70.19   12.40
   1 -10  41   78.19   16.60
  -9   2 -41    6.00    6.20
   7  -9 -41   10.60    7.20
  -2  -7  41   16.30    8.90
   9  -2  41    9.40    5.50
   4  -9 -41   73.19   14.90
  -9   5 -41   89.29   21.50
   9  -5  41   59.59    9.30
   1  -9 -41   -4.80    5.60
   9  -8  41   -2.90    4.80
  -8  -1  41   -0.20    4.70
  -2  -9 -41   28.00   11.10
 -11   2  41   59.89   10.60
   9 -11  41   27.20   10.70
  -5  -9 -41   -3.40    6.90
   9 -14  41   -2.20    8.30
  12 -10 -41    3.40    5.80
 -10  -2 -41    5.70    6.10
  10   2  41   12.60    7.20
   2 -12  41    4.80    9.70
 -10   1 -41   78.89   10.20
   9 -10 -41   90.89   13.80
  10  -1  41   61.59    9.30
  -1  -9  41   64.19   15.60
 -10   4 -41    8.70    6.90
   6 -10 -41   -3.50    5.50
  10  -4  41    7.20    5.30
  -4  -6  41    0.30    8.00
   3 -10 -41   -4.60   11.00
  10  -7  41    9.30    6.50
  -7  -3  41    4.50    5.90
  10  -7  41   10.10    6.20
   0 -10 -41   -3.20    7.10
 -10   0  41    8.90    5.80
  10 -10  41    7.60    7.20
  -3 -10 -41   -6.50    7.10
 -13   3  41   -2.40    3.70
  10 -13  41   -1.50    6.90
  11 -11 -41   -2.50    6.40
 -11   0 -41   -1.20    4.30
  11   0  41    3.40    4.80
   0 -11  41  -10.30    6.80
 -11   3 -41   -2.90    4.30
   8 -11 -41  -12.50    6.40
  11  -3  41   -1.00    3.80
  -3  -8  41   -6.50    6.40
   5 -11 -41    5.90    8.20
  -6  -5  41    0.40    6.20
  11  -6  41    2.60    6.00
  11  -6  41   -4.70    3.40
   2 -11 -41   40.70   12.20
  -9  -2  41   57.19   12.40
  11  -9  41   46.80   11.10
  -1 -11 -41    2.50    8.30
  11 -12  41   -1.60    6.40
 -12   1  41    3.80    5.20
 -12  -1 -41    3.10    7.80
  13 -12 -41   13.00    8.30
   1 -13  41   45.40   28.80
  10 -12 -41    7.20    8.80
  -2 -10  41    2.60    7.70
   7 -12 -41   -9.00    6.00
  12  -5  41   -3.80    3.30
  12  -5  41   -5.70    3.40
   4 -12 -41   17.40   10.20
  12  -8  41    4.20    5.30
  -8  -4  41   -6.90    5.50
  12  -8  41   -2.70    4.60
   1 -12 -41   -8.60    7.20
 -11  -1  41   -1.20    6.00
  12 -11  41    6.60    6.40
  12 -13 -41   20.60   10.70
  -1 -12  41   15.10   13.10
   9 -13 -41    1.60    9.10
  -4  -9  41    6.90   10.00
   6 -13 -41  -13.20    5.80
  -7  -6  41   -8.40    7.90
  13  -7  41    3.90    4.50
   3 -13 -41   -7.00    7.90
  13 -10  41   -0.90    5.10
 -10  -3  41    7.70    7.90
   8 -14 -41    1.50    8.10
  -6  -8  41    5.40    8.70
   5 -14 -41   16.60   10.90
  -9  -5  41    3.70    7.80
   0   0 -42  441.56   22.80
   0   0  42  419.96   20.20
  -1   2 -42  233.98   16.50
   2  -1 -42  285.17   26.80
  -2   1  42  229.38   14.90
   1  -2  42  217.88   14.80
   1   1  42  249.97   15.60
  -2   1 -42  256.37   16.60
   1  -2 -42  263.07   16.30
   1   1 -42  238.48   16.80
   2  -1  42  233.28   15.20
  -1   2  42  264.97   16.30
  -1  -1  42  259.87   16.10
  -2   4 -42  318.57   20.30
  -2  -2 -42  300.37   17.90
   4  -2 -42  283.57   17.50
   2   2  42  302.07   17.70
  -4   2  42  291.87   17.20
   2  -4  42  289.07   18.20
   0   3 -42   22.80    7.70
  -3   0 -42   30.60    7.40
   3  -3 -42   38.70    8.90
   3   0  42   36.90    7.50
  -3   3  42   44.00    8.80
   0  -3  42   35.60    9.20
  -3   3 -42  318.27   19.20
   3   0 -42  339.67   19.40
   0  -3 -42  334.57   19.00
   3  -3  42  338.37   18.60
  -3   0  42  348.47   18.70
  -3  -3 -42    5.50    5.80
   6  -3 -42   21.90    7.20
  -3   6 -42    8.50    7.60
   3  -6  42   20.40    8.50
   3   3  42   19.30    6.90
  -6   3  42   12.00    6.00
  -1   5 -42  676.93   31.80
   5  -4 -42  695.63   28.00
  -4  -1 -42  669.03   26.90
   1  -5  42  722.83   30.80
   4   1  42  686.53   27.10
  -5   4  42  713.63   28.30
   2  -4 -42  272.47   17.60
   2   2 -42  301.57   19.30
  -4   2 -42  295.17   18.50
   4  -2  42  309.57   17.30
  -2   4  42  305.97   18.50
   5  -1 -42  261.67   17.10
  -1  -4 -42  236.48   16.90
  -4   5 -42  217.48   17.80
   1   4  42  249.88   17.60
  -5   1  42  263.87   16.20
   4  -5  42  249.18   17.10
   8  -4 -42  479.95   23.30
  -4  -4 -42  412.26   22.90
  -8   4  42  421.26   25.10
   7  -5 -42   16.60    6.80
  -5  -2 -42   26.70    9.00
  -7   5  42   14.40    7.10
   5   2  42   21.40    7.60
   1   4 -42  723.73   32.20
   4  -5 -42  694.53   28.80
  -5   1 -42  665.03   26.80
   5  -1  42  691.73   26.50
  -1  -4  42  712.73   30.20
  -4   5  42  700.23   29.30
   4   1 -42  224.38   17.00
  -5   4 -42  232.08   17.00
   1  -5 -42  240.88   17.50
  -1   5  42  228.48   17.00
   5  -4  42  221.48   15.30
   7  -2 -42   31.20    8.40
  -2  -5 -42   49.20   10.90
  -7   2  42   34.70    8.00
  -5  -5 -42  113.59   14.00
  10  -5 -42   87.09   11.80
 -10   5  42   93.29   12.00
   5 -10  42  135.89   18.20
   9  -6 -42   79.69   11.30
  -6  -3 -42   88.49   12.00
   6   3  42   77.39   11.90
  -9   6  42   95.49   12.50
   3  -9  42   77.59   15.50
  -6   0 -42   93.59   21.50
   6  -6 -42   70.29   11.10
  -6   6  42   72.79   11.30
   6   0  42   72.99   10.10
   3   3 -42   21.40    8.70
  -6   3 -42   32.20   10.00
   3  -6 -42   15.50    6.90
   6  -3  42   23.40    6.90
  -3  -3  42   10.00    6.00
   0  -6 -42   32.20    9.90
   6   0 -42   29.20    9.30
  -6   6 -42   41.00   10.70
   6  -6  42   25.20    7.80
  -6   0  42   37.80   11.90
   9  -3 -42   15.70    7.10
  -3  -6 -42   -0.20    6.20
  -9   3  42    2.80    6.10
   6  -9  42   -5.00    6.10
  -6  -6 -42   40.10   11.30
  12  -6 -42   44.80    9.80
   6 -12  42   17.20   11.80
 -12   6  42   38.50    9.60
  -7  -4 -42   84.39   12.60
  11  -7 -42   47.50   10.20
   4 -11  42   45.20   13.30
 -11   7  42   62.49   11.70
  -7  -1 -42  214.88   15.70
   8  -7 -42  212.08   17.20
   1  -8  42  214.28   20.80
  -7   2 -42   13.40    6.70
   5  -7 -42    6.40    6.30
   7  -2  42   11.30    5.60
  -7   5 -42   68.99   12.80
   2  -7 -42   55.89   11.80
   5   2 -42   39.00   10.00
  -5  -2  42   45.70    9.70
  -1  -7 -42  155.68   16.90
   8  -1 -42  185.18   16.10
   7  -8  42  187.98   17.80
  -8   1  42  189.98   23.90
  11  -4 -42   76.69   11.30
  -4  -7 -42   51.99   13.30
 -11   4  42   63.99   10.20
   7 -11  42  104.29   17.20
  14  -7 -42   35.30   14.30
  -7  -7 -42   59.99   13.70
   7 -14  42   27.80   14.10
  13  -8 -42   61.99   11.30
  -8  -5 -42   46.70   11.80
   5 -13  42   24.20   13.50
 -13   8  42   24.40    8.90
  -8  -2 -42  112.29   12.90
  10  -8 -42   95.09   13.20
   8   2  42   88.29   12.40
   2 -10  42  115.99   18.00
   7  -8 -42  194.08   17.40
  -8   1 -42  231.38   15.60
   8  -1  42  220.28   15.00
  -1  -7  42  225.68   21.00
   4  -8 -42  535.65   28.20
  -8   4 -42  455.45   29.90
   8  -4  42  465.95   21.70
   7   1 -42  211.38   17.70
   1  -8 -42  197.38   18.80
   8  -7  42  167.68   15.40
  -7  -1  42  183.78   15.30
  10  -2 -42   78.09   12.10
  -2  -8 -42  102.89   15.70
   8 -10  42  115.09   16.10
 -10   2  42  108.09   12.80
  -5  -8 -42   18.40   10.10
  13  -5 -42   33.20    8.70
   8 -13  42    8.90    9.70
 -13   5  42   28.20    9.40
  -9  -3 -42   -1.70    5.00
  12  -9 -42    2.00    5.80
   3 -12  42  -14.40    6.00
   9  -9 -42   33.50    9.70
   0  -9  42    6.70    9.90
   9   0  42   26.20    8.10
  -9   3 -42   85.49   11.40
   6  -9 -42   55.39   12.20
  -3  -6  42   65.99   13.40
   9  -3  42   93.59   10.50
   3  -9 -42    6.60    7.20
   9  -6  42    6.20    5.40
  -9   0  42   40.40    9.10
   9  -9  42   81.29   13.30
  -3  -9 -42    2.90    8.50
   9 -12  42    5.30    8.60
 -12   3  42   17.50    7.10
 -10  -4 -42    9.10    7.80
  14 -10 -42   23.20    8.80
   4 -14  42    3.10   14.00
 -10  -1 -42   35.50    9.10
  11 -10 -42   36.50   11.30
   1 -11  42   55.49   16.80
  10   1  42   23.50    9.50
 -10   2 -42   90.39   11.10
   8 -10 -42   79.89   15.50
  -2  -8  42   69.09   17.90
  10  -2  42   81.89   10.00
   5 -10 -42  101.09   15.80
  10  -5  42   96.79   10.70
  -5  -5  42  109.49   15.60
   2 -10 -42  119.09   17.20
  10  -8  42  109.09   13.80
  -1 -10 -42   22.70   10.20
 -11   1  42   39.70   15.40
  10 -11  42   64.19   14.30
  -4 -10 -42   -1.90    8.10
  10 -14  42   -3.60    7.00
 -11  -2 -42   33.10    8.60
  13 -11 -42   49.10   12.40
   2 -13  42   44.40   15.20
 -11   1 -42   33.90    7.70
  -1 -10  42   74.99   19.00
  11  -1  42   28.00    7.20
   7 -11 -42   52.89   12.80
  -4  -7  42   55.59   14.20
  11  -4  42   53.69    9.20
   4 -11 -42   61.49   14.70
  11  -7  42   72.69   10.80
  -7  -4  42   58.79   13.40
  11  -7  42   57.59   10.90
   1 -11 -42   40.00   13.20
  11 -10  42   33.70   10.50
 -10  -1  42   23.80    8.60
 -10  -1  42   43.80   10.30
  -2 -11 -42    3.10    8.80
  11 -13  42    0.70    7.00
 -13   2  42    6.80    5.00
  12 -12 -42    1.20    5.80
 -12   0 -42   11.90    5.60
   0 -12  42    3.90    9.80
   9 -12 -42   10.00    8.60
  -3  -9  42   10.70   10.10
  12  -3  42    4.90    3.90
   6 -12 -42   40.90   13.90
  -6  -6  42   72.79   15.00
  12  -6  42   43.20    8.50
  12  -6  42   51.69    9.40
   3 -12 -42    8.60    8.00
  -9  -3  42   21.80    9.30
  12  -9  42   22.10    8.70
   0 -12 -42   13.30   10.10
  12 -12  42   22.00    9.00
 -12   0  42   22.90    8.00
  11 -13 -42   19.70    9.90
  -2 -11  42    5.60    9.80
   8 -13 -42    2.70    7.60
  13  -5  42   29.70    5.30
  -5  -8  42   27.90   12.70
   5 -13 -42   45.90   14.50
  13  -8  42   23.00    7.20
  -8  -5  42   25.50   11.30
   2 -13 -42    1.00    9.30
  13 -11  42   -2.90    5.70
 -11  -2  42    1.80    6.40
  10 -14 -42   14.90   10.70
  -4 -10  42   26.60   12.70
   7 -14 -42   11.80    9.10
  -7  -7  42   34.20   12.20
   4 -14 -42  -11.00    7.90
 -10  -4  42   21.30    9.80
  14 -10  42   13.30    7.40
   1  -1 -43    2.20    4.70
  -1   0 -43    3.70    7.00
   0   1 -43    1.40    4.20
   0  -1  43    0.10    3.90
  -1   1  43    3.60    4.20
   1   0  43   -2.20    3.30
   3  -2 -43   86.59   11.00
  -2  -1 -43  111.59   11.50
  -1   3 -43   96.29   12.40
   2   1  43  107.99   11.00
  -3   2  43  104.49   10.90
   1  -3  43  104.79   12.70
   0  -2 -43    2.20    4.20
   2   0 -43    0.50    3.90
  -2   2 -43    7.40    5.30
  -2   0  43    1.10    4.40
   0   2  43   -2.70    3.20
   2  -2  43   -2.10    3.50
   5  -3 -43   14.10    6.30
  -2   5 -43   13.00    7.50
  -3  -2 -43    4.10    4.60
   3   2  43   16.50    6.70
   2  -5  43    2.70    5.50
   2  -3 -43   93.09   11.10
   1   2 -43   97.89   12.00
   3  -1  43  100.69   10.50
  -1  -3 -43  140.99   13.10
   4  -1 -43  166.48   13.90
  -3   4 -43  115.79   13.50
   1   3  43  132.79   12.90
  -4   1  43  131.59   12.00
   3  -4  43  125.59   12.50
  -4  -3 -43    2.30    6.20
   7  -4 -43    7.50    5.80
  -7   4  43   -0.80    5.10
   4   3  43   10.40    6.20
  -4   0 -43   -2.70    5.00
   4  -4 -43    1.30    5.10
   0   4 -43    6.90    6.90
   0  -4  43   -1.60    4.50
   4   0  43   -0.70    4.60
  -4   4  43    3.90    4.90
   1  -4 -43  136.99   13.20
   3   1 -43  135.89   13.70
  -4   3 -43  140.09   13.80
   4  -3  43  155.38   13.00
  -1   4  43  141.39   13.40
  -2  -4 -43    7.20    5.80
   6  -2 -43   14.30    6.50
  -4   6 -43    2.30    6.20
  -6   2  43   13.20    7.20
   2   4  43    3.80    5.40
   4  -6  43    4.80    5.70
   9  -5 -43   15.20    7.30
  -5  -4 -43    2.70    6.80
  -9   5  43    6.00    6.10
   4  -9  43   24.20    9.90
   6  -5 -43  184.58   15.40
  -5  -1 -43  221.58   15.50
   5   1  43  189.88   18.00
  -6   5  43  194.28   15.50
   2   3 -43    4.10    5.80
   3  -5 -43    9.20    6.10
  -2  -3  43   14.00    6.40
  -3   5  43    8.10    6.00
   5  -2  43    6.10    5.20
   0  -5 -43   -5.10    4.50
  -5   5 -43    4.30    5.80
   5   0 -43   -1.80    4.20
  -5   0  43    4.30    6.40
   0   5  43    6.90    8.80
   5  -5  43    3.70    4.80
  -3  -5 -43   49.90   11.00
   8  -3 -43   38.30    9.50
  -8   3  43   42.40   10.90
  11  -6 -43    1.00    5.60
  -6  -5 -43    4.40    6.50
 -11   6  43   12.70    7.40
   5 -11  43    5.00    8.50
   8  -6 -43   45.30   10.50
  -6  -2 -43   55.89   10.80
   6   2  43   28.90    8.60
  -8   6  43   44.30   10.10
   2  -8  43   61.89   14.40
   1   5 -43  189.38   18.60
   5  -6 -43  202.28   16.30
  -5   6  43  143.29   16.20
   6  -1  43  172.68   13.60
  -6   4 -43    5.60    6.70
   4   2 -43    7.50    6.30
   2  -6 -43    5.20    6.00
   6  -4  43   21.30    7.20
  -4  -2  43   23.00    7.60
   7  -1 -43   -3.20    4.90
  -1  -6 -43    1.70    6.30
  -7   1  43    5.70    5.50
  -4  -6 -43    1.00    5.60
  10  -4 -43    6.00    5.70
   6 -10  43   26.80   10.80
 -10   4  43    9.80    6.80
  13  -7 -43   -3.20    4.40
  -7  -6 -43    7.60    7.80
 -13   7  43   -3.90    5.20
   6 -13  43   -9.60    7.40
  -7  -3 -43    1.20    6.20
  10  -7 -43    2.20    5.50
   3 -10  43   -0.10    7.60
   7  -7 -43    8.50    6.30
  -7   0 -43   -0.20    5.10
   7   0  43    2.70    4.80
   3   4 -43   13.10    8.70
   4  -7 -43   10.80    7.40
   7  -3  43    0.20    4.60
  -7   6 -43    2.40    7.00
   1  -7 -43    7.30    6.80
   6   1 -43    0.70    5.40
   7  -6  43   -6.50    4.20
  -6  -1  43    6.40    5.80
  -2  -7 -43   -4.70    5.80
   9  -2 -43    1.80    5.90
  -9   2  43    1.00    6.20
   7  -9  43    4.90    6.90
  12  -5 -43   11.60    6.50
  -5  -7 -43   25.20   15.70
   7 -12  43   18.30   10.50
 -12   5  43    8.20    6.60
  -8  -4 -43    3.00    7.10
  12  -8 -43    4.60    6.10
   4 -12  43    6.80    9.10
  -8  -1 -43   15.40    7.10
   9  -8 -43   38.90   10.50
   1  -9  43   23.00   11.60
   8   1  43   18.50    7.20
  -8   2 -43   49.10   10.20
   6  -8 -43   67.89   13.00
   8  -2  43   47.50    9.80
   5   3 -43   31.40   10.50
   3  -8 -43   40.50   10.90
  -8   5 -43   60.99   11.90
   8   0 -43    8.30    6.70
   0  -8 -43  -10.30    5.90
  -8   0  43    4.90    5.30
   8  -8  43   -2.60    5.50
  -3  -8 -43   24.20   11.00
  11  -3 -43   39.70   10.00
   8 -11  43   32.40   15.50
 -11   3  43   29.10    8.60
  -6  -8 -43   -0.80    7.20
  14  -6 -43   -3.70    4.90
   8 -14  43    1.70    9.00
  14  -9 -43    4.40    6.80
  -9  -5 -43   -4.40    5.80
   5 -14  43   -0.20   10.00
  11  -9 -43    0.50    5.70
  -9  -2 -43    8.60    6.50
   9   2  43   -3.00    4.90
   2 -11  43  -11.20    5.20
  -9   1 -43   12.30    6.60
   8  -9 -43   12.90    8.10
  -1  -8  43   14.50    9.80
   9  -1  43   15.60    6.50
   5  -9 -43   15.10    8.50
  -9   4 -43   -1.30    6.50
   9  -4  43   16.00    6.30
   2  -9 -43    3.90    7.40
   9  -7  43    7.80    5.60
  10  -1 -43   56.09   11.10
  -1  -9 -43   60.79   14.10
 -10   1  43   57.29   10.60
   9 -10  43   55.29   14.50
  -4  -9 -43    1.30    7.60
   9 -13  43    7.30    8.60
 -10  -3 -43   -2.40    5.70
  13 -10 -43    8.50    8.00
   3 -13  43   23.60   13.40
 -10   0 -43    3.50   10.90
  10 -10 -43   -8.10    5.10
  10   0  43    1.90    4.90
   0 -10  43    3.10    7.60
   7 -10 -43   -1.80    6.30
 -10   3 -43    4.30    5.80
  10  -3  43    6.80    5.70
  -3  -7  43    0.30    7.40
   4 -10 -43   26.70   17.10
  -6  -4  43   18.10    8.80
   1 -10 -43   70.39   16.10
  -9  -1  43   61.09   12.20
  10  -9  43   81.79   14.50
  -2 -10 -43   -9.60    5.70
 -12   2  43    6.40    6.10
  10 -12  43    8.00    8.70
  12 -11 -43    4.50    8.50
   1 -12  43   -7.10    8.40
 -11   2 -43    1.10    5.10
   9 -11 -43   18.60    9.40
  11  -2  43   -0.10    4.50
  -2  -9  43    3.80    8.60
   6 -11 -43   10.20    8.50
  -5  -6  43   -0.80    7.30
  11  -5  43    4.50    5.40
   3 -11 -43   25.60   12.10
  11  -8  43   16.10    7.00
  -8  -3  43   28.00   10.50
  11  -8  43   33.20   10.60
   0 -11 -43    3.30    7.90
 -11   0  43    2.50    5.90
  11 -11  43   10.50    6.70
 -11   0  43    1.00    5.60
 -12   1 -43    4.10    4.50
  11 -12 -43   -3.10    7.60
  -1 -11  43    6.00   10.80
   8 -12 -43   -3.50    6.20
  -4  -8  43    8.40    9.10
  12  -4  43    2.50    4.70
   5 -12 -43    9.90    8.00
  12  -7  43   20.00    7.30
  12  -7  43   15.70    6.30
  -7  -5  43   19.10   10.10
   2 -12 -43   -2.90    7.40
 -10  -2  43    9.00    7.80
  12 -10  43    7.70    6.50
  10 -13 -43   -3.80    7.40
  -3 -10  43    2.50   10.60
   7 -13 -43   -2.40    7.60
  -6  -7  43   -0.90    7.60
  13  -6  43    8.50    4.80
   4 -13 -43   -1.00    8.00
  -9  -4  43   -0.10    8.10
  13  -9  43    7.60    5.80
   9 -14 -43   23.60   11.30
  -5  -9  43    2.50    9.60
   6 -14 -43   -2.50    7.60
  14  -8  43    7.10    5.10
  -8  -6  43    5.50    8.70
   0  -1 -44  204.48   15.00
  -1   1 -44  199.18   15.10
   1   0 -44  173.18   14.20
   0   1  44  168.68   13.40
  -1   0  44  173.78   13.60
   1  -1  44  188.08   14.10
   0   2 -44    7.50    5.50
  -2   0 -44    2.10    4.80
   2  -2 -44   -1.00    4.40
   2   0  44    0.00    4.20
  -2   2  44    0.00    4.50
   3  -1 -44   81.59   11.10
  -1  -2 -44   84.79   10.70
  -2   3 -44   82.69   11.40
  -3   1  44   71.09    9.70
   2  -3  44   78.99   10.80
   1   2  44   93.19   18.40
  -3  -1 -44  242.28   16.30
   4  -3 -44  278.37   17.50
  -1   4 -44  225.08   18.30
   3   1  44  259.47   17.30
   1  -4  44  291.77   18.70
  -4   3  44  236.08   16.30
  -3   2 -44   68.29   11.80
   1  -3 -44   65.29   10.30
   2   1 -44   69.79   10.90
  -1   3  44   78.79   10.30
   3  -2  44   86.59   10.30
   5  -2 -44  109.49   12.30
  -3   5 -44  138.99   15.20
  -2  -3 -44  134.69   13.20
   2   3  44  110.69   12.40
   3  -5  44  136.39   13.60
  -4  -2 -44   11.30    5.90
  -2   6 -44    2.30    7.00
   6  -4 -44   12.30    6.20
   4   2  44    7.20    5.30
  -6   4  44    0.20    5.20
  -4   1 -44  278.47   17.40
   1   3 -44  262.07   18.90
   3  -4 -44  249.18   17.60
   4  -1  44  261.17   16.10
  -1  -3  44  264.37   17.70
  -3   4  44  258.67   17.20
   0  -4 -44  548.85   25.30
  -4   4 -44  521.65   25.70
   4   0 -44  535.75   25.10
   0   4  44  447.36   23.70
  -4   0  44  502.65   27.50
   4  -4  44  482.25   23.50
   7  -3 -44  205.58   15.70
  -3  -4 -44  180.38   15.70
  -7   3  44  155.38   13.90
   8  -5 -44  140.69   14.10
  -5  -3 -44  157.98   14.70
  -8   5  44  139.49   13.90
   5   3  44  103.89   13.10
   5  -5 -44  834.92   32.50
   0   5 -44  779.82   35.50
  -5   0 -44  849.81   31.00
  -5   5  44  778.52   31.50
   5   0  44  818.52   30.20
   2  -5 -44  130.09   13.80
  -5   3 -44  129.49   13.60
   3   2 -44  154.28   15.20
   5  -3  44  144.29   12.70
  -2   5  44  120.49   13.10
  -3  -2  44  100.59   11.90
  -5   6 -44   52.29   12.20
  -1  -5 -44   67.89   12.00
   6  -1 -44   67.29   11.80
   5  -6  44   43.50    9.90
  -6   1  44   56.99   10.00
  -4  -5 -44   81.09   14.00
   9  -4 -44   83.29   13.00
  -9   4  44   67.29   10.70
   5  -9  44   74.29   14.60
  10  -6 -44   31.20    9.20
  -6  -4 -44   51.39   11.70
   4 -10  44   21.30   14.10
 -10   6  44   44.60   10.70
   7  -6 -44    8.70    6.60
  -6  -1 -44   -0.60    5.40
  -7   6  44    6.60    7.60
   6   1  44   16.20    6.40
  -6   2 -44   -0.20    5.10
   4  -6 -44    3.60    6.20
   2   4 -44    4.60    7.20
   6  -2  44    7.90    5.30
   1  -6 -44   64.99   12.00
   5   1 -44   39.40   10.10
  -6   5 -44   55.09   11.50
  -5  -1  44   62.29   11.30
   6  -5  44   65.89   10.30
  -2  -6 -44   46.40   12.10
   8  -2 -44   28.60    8.80
  -8   2  44   46.80    9.70
  -5  -6 -44   11.00    8.30
  11  -5 -44   23.50    8.70
 -11   5  44   10.80    6.90
   6 -11  44   16.00   10.70
  -7  -5 -44   82.19   14.70
  12  -7 -44   95.99   12.80
 -12   7  44   90.89   13.70
   5 -12  44   75.19   18.70
  -7  -2 -44   74.49   11.30
   9  -7 -44   67.09   12.60
   2  -9  44   85.09   16.30
   7   2  44   51.69   11.30
  -7   1 -44   -2.70    5.20
   6  -7 -44    1.80    6.10
   7  -1  44    2.90    5.50
   3  -7 -44  207.08   18.10
   4   3 -44  172.48   17.30
  -7   4 -44  156.18   15.10
   7  -4  44  191.68   17.90
   0  -7 -44  331.47   23.10
   7   0 -44  292.07   20.10
  -7   0  44  299.47   18.70
  10  -3 -44   20.50    7.80
  -3  -7 -44   14.50    8.40
 -10   3  44   17.50    7.20
   7 -10  44   28.30   11.50
  13  -6 -44   26.60    8.30
  -6  -7 -44   44.30   12.70
   7 -13  44   26.10   12.50
  -8  -6 -44    3.30    7.30
  14  -8 -44    5.80    6.00
   6 -14  44   18.40   12.20
  11  -8 -44   -5.90    5.10
  -8  -3 -44   -1.40    5.80
   3 -11  44   10.70   10.10
  -8   0 -44  210.28   15.70
   8  -8 -44  198.68   17.50
   0  -8  44  247.28   22.30
   8   0  44  164.28   17.60
   5  -8 -44  112.39   15.10
  -8   3 -44  150.28   17.00
   8  -3  44  111.09   11.90
   2  -8 -44   47.20   11.80
   6   2 -44   27.00    9.70
  -6  -2  44   29.90   10.10
   8  -6  44   37.70    9.00
   9  -1 -44   89.39   13.30
  -1  -8 -44  112.79   16.00
  -9   1  44   96.49   12.10
   8  -9  44  107.79   15.00
  -4  -8 -44   25.30   11.00
  12  -4 -44   24.20    7.90
   8 -12  44   18.30   11.10
 -12   4  44   12.30    6.70
  -9  -4 -44   49.99   11.80
  13  -9 -44   23.70    8.80
   4 -13  44   24.90   13.40
  10  -9 -44   36.90   10.70
  -9  -1 -44   26.40    8.70
   1 -10  44   32.50   12.70
   9   1  44   42.10   10.30
  -9   2 -44   71.09   11.40
   7  -9 -44   71.89   13.80
   9  -2  44   80.39   10.50
  -2  -7  44   76.99   16.30
  -9   5 -44   78.29   11.80
   4  -9 -44   42.80   11.10
   9  -5  44   44.90   15.90
   1  -9 -44  101.19   24.10
   9  -8  44  120.09   14.50
  -8  -1  44  125.39   14.30
  11  -2 -44    8.50    6.80
  -2  -9 -44   46.50   13.00
 -11   2  44   32.50   10.70
  -5  -9 -44   12.30    9.60
   9 -14  44    4.70   10.00
 -10  -2 -44   22.10    7.90
  12 -10 -44   16.60    7.80
   2 -12  44   31.80   13.40
   9 -10 -44   42.10   11.90
 -10   1 -44   43.20    9.60
  -1  -9  44   26.20   12.10
  10  -1  44   41.40    9.30
 -10   4 -44   44.00   10.30
   6 -10 -44   22.30    9.80
  10  -4  44   34.90    8.40
  -4  -6  44   39.70   12.00
   3 -10 -44   17.90   11.00
  10  -7  44   10.80    6.50
   0 -10 -44    6.10    7.90
  10 -10  44    5.90    6.80
 -10   0  44   13.70    7.00
  -3 -10 -44    5.10    9.20
  10 -13  44   -2.60    6.90
  11 -11 -44    4.80    8.10
 -11   0 -44    2.30    5.10
   0 -11  44   16.80   12.00
   8 -11 -44    7.70    7.60
 -11   3 -44    1.80    5.40
  11  -3  44    3.00    4.40
  -3  -8  44   -8.50    7.30
   5 -11 -44   21.80   10.40
  -6  -5  44    4.70    7.90
  11  -6  44   21.70    7.40
   2 -11 -44   24.40   11.10
  11  -9  44   28.80   10.30
  -9  -2  44   23.90    9.90
  -1 -11 -44   20.80   11.10
 -12   1  44   12.20    6.70
  11 -12  44   28.10   11.50
 -12   2 -44   23.90    6.60
  10 -12 -44   17.80    9.70
  -2 -10  44   21.00   12.00
   7 -12 -44   87.69   16.40
  -5  -7  44  115.89   18.30
  12  -5  44   73.99    9.50
   4 -12 -44   21.30   10.80
  12  -8  44   23.30    7.70
  12  -8  44    9.40    7.00
  -8  -4  44   14.50    9.00
   1 -12 -44   27.60   12.00
 -11  -1  44   37.90   10.20
  12 -11  44    9.90    7.10
   9 -13 -44   47.50   13.30
  -4  -9  44   25.60   12.60
  13  -4  44   36.20    5.80
   6 -13 -44   31.20   12.70
  -7  -6  44   30.70   11.50
  13  -7  44   31.80    8.30
   3 -13 -44   -4.20    8.30
  13 -10  44    3.80    6.60
 -10  -3  44   11.40    8.20
   8 -14 -44    5.30    9.80
  -6  -8  44   16.30   10.40
   5 -14 -44   -0.50   13.80
  14  -9  44    1.60    5.00
  -9  -5  44   -1.70    7.80
   0   0 -45    6.70    4.80
   0   0  45   -3.80    3.30
   2  -1 -45    5.70    5.50
  -1   2 -45   10.90    6.10
  -1  -1 -45    9.10    6.00
   1  -2  45   26.10   10.30
  -2   1  45   21.50    9.00
   1   1  45    3.90    5.30
  -2   1 -45    5.90    6.00
   1  -2 -45   13.20    6.30
   1   1 -45   13.70    6.40
   2  -1  45    4.60    4.50
  -1   2  45   10.50    6.00
  -1  -1  45   -1.50    5.90
  -2  -2 -45  554.34   24.80
   4  -2 -45  458.35   23.10
  -2   4 -45  496.45   26.00
  -4   2  45  475.95   23.20
   2  -4  45  481.55   24.20
   2   2  45  463.75   22.80
   0   3 -45   -4.30    4.30
  -3   0 -45   -6.10    3.80
   3  -3 -45    4.50    5.00
  -3   3  45   -4.20    4.10
   0  -3  45    4.60    4.70
   3   0  45    1.70    4.10
   0  -3 -45   -1.60    4.40
  -3   3 -45   -6.50    5.00
   3   0 -45    1.50    4.50
   0   3  45   -1.60    3.70
  -3   0  45    1.30    4.40
   3  -3  45   -2.30    3.70
  -3  -3 -45   14.30    6.80
   6  -3 -45   25.50    7.90
  -3   6 -45    8.90    9.10
  -6   3  45    5.20    5.00
   3   3  45   14.80    6.60
  -1   5 -45    5.50    6.50
   5  -4 -45   -1.80    5.20
  -4  -1 -45    2.00    5.30
  -5   4  45    5.80    5.80
   4   1  45   -4.70    3.50
   2  -4 -45  485.85   24.20
  -4   2 -45  479.35   23.60
   2   2 -45  510.45   25.80
   4  -2  45  513.95   23.20
  -2   4  45  482.55   23.80
  -2  -2  45  459.55   23.10
   5  -1 -45   56.19   10.70
  -4   5 -45   27.70    9.40
  -1  -4 -45   23.50    8.00
   4  -5  45   27.70    8.70
   1   4  45   28.40    9.00
  -5   1  45   28.00    7.50
  -4  -4 -45   16.50    7.80
   8  -4 -45   -2.70    5.50
  -8   4  45    4.80    6.20
  -5  -2 -45   69.19   10.90
   7  -5 -45   69.59   11.10
   5   2  45   66.39   10.90
  -7   5  45   85.69   13.40
   4  -5 -45   -2.10    5.50
  -5   1 -45   -5.10    5.10
   1   4 -45    1.40    6.10
   5  -1  45    0.30    5.00
  -1  -4  45    3.90    6.10
  -4   5  45    7.70    6.20
  -5   4 -45   34.70    9.30
   1  -5 -45   75.09   12.90
   4   1 -45   29.60    9.10
   5  -4  45   35.70    8.20
  -4  -1  45   34.80    8.40
   7  -2 -45   -1.70    5.30
  -2  -5 -45   -5.10    6.20
  -7   2  45    2.70    5.40
  -5  -5 -45    3.60    6.60
  10  -5 -45    6.30    6.30
 -10   5  45    2.00    5.80
   5 -10  45   -1.10   15.00
   9  -6 -45   -6.70    5.00
  -6  -3 -45   -8.90    4.40
   3  -9  45  -11.50    4.50
   6  -6 -45    1.90    6.00
  -6   0 -45    2.30    5.50
   6   0  45    4.70    8.20
   3  -6 -45    9.60    6.30
  -6   3 -45   23.20    7.90
   3   3 -45   13.40    7.80
   6  -3  45   13.20    6.40
  -3  -3  45    2.40    5.40
   0  -6 -45    4.10    6.40
   6   0 -45    0.40    6.10
  -6   6 -45   13.90    7.40
  -6   0  45    9.20    6.50
   6  -6  45    0.20    5.60
   9  -3 -45   64.99   11.40
  -3  -6 -45   51.89   12.90
  -9   3  45   71.19   11.00
   6  -9  45   46.30   13.40
  12  -6 -45   -4.30    4.50
  -6  -6 -45   -8.20    5.80
 -12   6  45   -2.30    5.20
   6 -12  45   -8.80    7.20
  11  -7 -45    1.40    6.10
  -7  -4 -45    9.80    6.80
   4 -11  45   11.00   10.10
  -7  -1 -45   37.10    9.50
   8  -7 -45   21.60    7.90
   7   1  45   43.50    9.90
   1  -8  45   61.99   14.30
   5  -7 -45   55.99   11.50
  -7   2 -45   88.89   11.60
   7  -2  45   69.29    9.90
  -7   5 -45    0.20    5.70
   2  -7 -45   12.70    7.50
   5   2 -45   10.20    7.70
  -5  -2  45   -3.30    4.50
   7  -5  45    2.90    5.50
  -1  -7 -45   27.30   10.10
   8  -1 -45   23.60    8.80
  -8   1  45   23.90    7.90
  11  -4 -45   13.30    7.10
  -4  -7 -45    5.10    7.30
   7 -11  45   18.00   11.60
 -11   4  45    1.30    5.80
  14  -7 -45    0.00    5.50
  -7  -7 -45    0.80    7.00
   7 -14  45   18.90   11.10
  13  -8 -45   -3.20    5.40
  -8  -5 -45    0.70    6.30
   5 -13  45    8.50   10.50
  -8  -2 -45   29.90    9.00
  10  -8 -45   15.90    8.30
   2 -10  45   18.90   11.10
   8   2  45   16.50    7.00
  -8   1 -45   46.70   10.10
   7  -8 -45   37.00   11.00
  -1  -7  45   37.50   12.50
   8  -1  45   23.30    7.70
   4  -8 -45    7.70    8.20
  -8   4 -45    0.00    5.40
   1  -8 -45   22.60    9.50
   7   1 -45   21.20   10.00
  -7  -1  45    7.90    6.70
  -2  -8 -45   24.40   16.50
  10  -2 -45   19.70    7.90
 -10   2  45    8.20    6.60
   8 -10  45   16.90    9.40
  13  -5 -45    3.20    5.50
  -5  -8 -45    5.60    8.30
   8 -13  45   -1.40    9.00
  -9  -3 -45    7.50    7.20
  12  -9 -45   -0.40    6.30
   3 -12  45    0.80    8.20
   9  -9 -45   -4.80    6.00
  -9   0 -45   -1.00    5.00
   9   0  45   -3.90    5.50
   0  -9  45   15.40   11.60
   6  -9 -45   -3.80    5.00
  -9   3 -45    3.10    6.40
   9  -3  45   -5.90    4.30
  -3  -6  45    6.10    7.70
   3  -9 -45   22.20    9.40
   9  -6  45   51.49   10.60
   0  -9 -45    7.00    7.70
   9   0 -45   -9.40    5.30
  -9   0  45    2.40    5.10
   9  -9  45  -11.70    4.60
  12  -3 -45   -2.10    5.70
  -3  -9 -45   -0.30    7.00
   9 -12  45   -6.80    6.60
 -12   3  45   -2.80    7.20
 -10  -1 -45   15.00    7.20
  11 -10 -45    4.40    7.20
   1 -11  45   -4.50    8.00
  10   1  45    5.20    6.20
   8 -10 -45   15.90    8.90
 -10   2 -45   15.10    7.50
  -2  -8  45    2.60    9.30
  10  -2  45   21.00    7.60
   5 -10 -45    6.20   10.40
  -5  -5  45   18.90    9.20
  10  -5  45    6.70    5.40
   2 -10 -45   19.60    9.60
  10  -8  45   11.30    7.40
  -1 -10 -45   -8.00    6.20
 -11   1  45    2.20    5.80
 -11  -2 -45   -1.30    5.60
  13 -11 -45   -1.90   14.40
   2 -13  45   33.50   19.60
  10 -11 -45   -2.60    6.60
 -11   1 -45    1.50    5.20
  11  -1  45    5.40    5.30
  -1 -10  45    2.10   10.00
   7 -11 -45   -3.50    5.70
  -4  -7  45    7.40   11.20
  11  -4  45    4.10    5.60
   4 -11 -45    2.00    8.10
  11  -7  45    7.60    6.50
  -7  -4  45    8.20    8.60
  11  -7  45    9.30    7.20
   1 -11 -45    4.20    7.80
 -10  -1  45   -5.60    5.10
  11 -10  45  -10.70    4.70
  -2 -11 -45    3.90    8.70
  11 -13  45    8.80    9.50
 -13   2  45   -2.00    4.30
 -12   0 -45    1.50    5.20
  12 -12 -45    3.90    7.80
   0 -12  45   20.60   12.90
   9 -12 -45    6.70    9.10
  12  -3  45   -1.90    4.10
  -3  -9  45    4.80   10.10
   6 -12 -45   -2.90    7.30
  12  -6  45    4.10    5.00
   3 -12 -45   10.30   10.60
  -9  -3  45    3.80    6.60
  12  -9  45   -1.10    5.70
   0 -12 -45    1.70    9.00
 -12   0  45    1.20    6.00
  12 -12  45    8.60    9.10
  11 -13 -45   17.20   10.60
  -2 -11  45    0.20    8.60
   8 -13 -45    9.10    8.90
  -5  -8  45   -0.80    7.70
  13  -5  45    2.30    3.90
   5 -13 -45   -0.80    7.00
  -8  -5  45    4.80    8.80
  13  -8  45    0.30    5.80
   2 -13 -45    4.60   12.20
  13 -11  45    0.50    7.40
 -11  -2  45    0.80    7.70
   7 -14 -45   10.80   10.30
  -7  -7  45    2.00    8.80
   1  -1 -46  886.21   32.40
  -1   0 -46  850.41   32.00
   0   1 -46  828.62   32.30
   0  -1  46  863.81   32.50
  -1   1  46  844.12   33.80
  -1   3 -46   89.99   12.30
   3  -2 -46  100.39   12.00
  -2  -1 -46   73.89   10.50
   2   1  46   76.29   10.20
  -3   2  46  107.99   11.70
   1  -3  46   83.09   10.70
   0  -2 -46  461.45   22.80
  -2   2 -46  435.86   23.00
   2   0 -46  462.05   23.20
  -2   0  46  464.55   22.40
   0   2  46  489.95   23.10
   2  -2  46  458.75   22.60
  -2   5 -46    2.70    6.60
  -3  -2 -46    6.10    5.40
   5  -3 -46   18.80    7.30
  -5   3  46    4.70    4.30
   3   2  46   -3.40    4.60
   2  -3 -46   75.69   10.60
   1   2 -46   80.69   11.70
  -3   1 -46   92.29   11.40
  -2   3  46  108.29   11.80
  -1  -2  46   99.69   11.40
   3  -1  46   88.29   18.70
   4  -1 -46  374.46   21.20
  -3   4 -46  372.66   22.60
  -1  -3 -46  339.87   20.60
  -4   1  46  383.86   20.40
   1   3  46  377.86   21.00
   3  -4  46  353.76   20.40
  -4  -3 -46  238.88   18.20
   7  -4 -46  262.37   18.00
   4   3  46  262.17   21.30
  -7   4  46  262.67   17.70
   4  -4 -46 1935.61   54.19
   0   4 -46 1981.30   58.49
  -4   0 -46 1983.60   53.49
   4   0  46 1814.72   57.99
   0  -4  46 1867.41   55.19
  -4   4  46 1882.41   53.19
   3   1 -46  375.96   21.80
  -4   3 -46  326.87   20.70
   1  -4 -46  335.47   20.50
  -3  -1  46  377.16   20.70
  -1   4  46  340.27   20.40
   4  -3  46  387.06   20.40
   6  -2 -46   57.99   11.10
  -4   6 -46   65.09   13.20
  -2  -4 -46   70.99   12.30
  -6   2  46   60.59   10.40
   9  -5 -46   46.60   10.40
  -5  -4 -46   33.90   10.10
  -9   5  46   33.60    9.30
   4  -9  46   62.39   15.00
  -5  -1 -46    0.40    5.10
   6  -5 -46   -1.00    4.40
   5   1  46   -2.10    4.40
  -6   5  46    5.20    5.70
  -5   2 -46    5.90    6.40
   2   3 -46   11.40    7.30
   3  -5 -46    5.90    6.30
  -2  -3  46    7.60    6.00
  -3   5  46    3.80    8.90
   5   0 -46   54.89   11.10
  -5   5 -46   50.49   11.30
   0  -5 -46   78.39   12.10
   5  -5  46   65.39   11.90
  -5   0  46   51.49   10.00
   8  -3 -46  114.89   13.60
  -3  -5 -46  129.89   15.10
  -8   3  46  128.79   13.10
  11  -6 -46  100.99   13.30
  -6  -5 -46  112.19   15.00
 -11   6  46  111.19   16.20
   5 -11  46  135.49   19.90
  -6  -2 -46   83.99   12.40
   8  -6 -46   73.29   11.70
   2  -8  46   63.59   13.40
   6   2  46   67.59   12.90
  -6   1 -46    8.00    6.00
   1   5 -46   15.60    8.90
   5  -6 -46    4.30    6.50
   2  -6 -46   59.79   11.50
   4   2 -46   49.30   11.70
  -6   4 -46   56.09   11.50
  -4  -2  46   25.70    8.10
   6  -4  46   68.89   10.20
   7  -1 -46  169.08   15.80
  -1  -6 -46  153.58   16.50
  -7   1  46  146.39   13.70
  -4  -6 -46   37.50   10.90
  10  -4 -46   50.79   10.70
 -10   4  46   27.40    8.20
   6 -10  46   40.50   13.50
  -7  -6 -46   16.30   13.00
  13  -7 -46   11.90    6.80
   6 -13  46   20.80   12.70
  10  -7 -46   64.89   12.00
  -7  -3 -46   76.09   12.40
   3 -10  46   37.00   12.40
   7  -7 -46  423.46   24.30
  -7   0 -46  433.56   22.50
   7   0  46  428.76   22.20
   3   4 -46  257.67   21.30
   4  -7 -46  269.17   20.20
  -7   3 -46  283.77   18.80
  -7   6 -46  149.69   16.70
   1  -7 -46  185.58   17.90
   6   1 -46  158.68   16.20
   7  -6  46  148.39   14.70
  -6  -1  46  127.09   13.90
  -2  -7 -46   96.49   15.10
   9  -2 -46   78.79   14.00
  -9   2  46   67.19   12.00
   7  -9  46  100.99   15.20
  -5  -7 -46   56.49   13.30
  12  -5 -46   26.50    9.00
 -12   5  46   14.50    7.50
   7 -12  46   53.79   16.40
  12  -8 -46   27.40    9.20
  -8  -4 -46   52.29   11.90
   4 -12  46   31.00   14.00
   9  -8 -46  140.69   15.70
  -8  -1 -46  126.89   13.50
   8   1  46  121.59   13.60
   1  -9  46   79.89   15.90
   6  -8 -46   85.39   13.00
  -8   2 -46   84.99   11.40
   8  -2  46   87.49   11.40
  -8   5 -46  139.79   15.30
   3  -8 -46  122.19   15.80
   5   3 -46   95.79   15.10
   8  -5  46   94.99   11.70
   8   0 -46  318.67   22.00
   0  -8 -46  301.77   23.40
  -8   0  46  313.27   19.80
  -3  -8 -46   74.59   15.20
  11  -3 -46   65.79   12.50
   8 -11  46   61.59   15.00
 -11   3  46   56.69   10.50
  -6  -8 -46   56.99   14.60
  14  -6 -46   73.79   18.80
   8 -14  46   62.59   16.50
  -9  -2 -46   23.40    8.40
  11  -9 -46   14.40    8.30
   2 -11  46   -0.50    8.60
  -9   1 -46  107.39   13.00
   8  -9 -46  133.89   15.80
  -1  -8  46  141.19   34.20
   9  -1  46  125.29   15.20
   5  -9 -46   43.50   12.50
  -9   4 -46   28.20    9.20
   2  -9 -46   69.99   16.70
  10  -1 -46   32.70   10.10
  -1  -9 -46   27.30   11.00
 -10   1  46   23.10    8.30
   9 -10  46   30.80   11.00
  -4  -9 -46   -2.50    7.40
   9 -13  46   -8.70    6.40
 -10  -3 -46    3.70    7.20
  13 -10 -46    4.20    6.50
   3 -13  46    0.70   10.20
 -10   0 -46  136.69   13.60
  10 -10 -46  135.89   16.60
  10   0  46   81.49   18.40
   0 -10  46  146.59   20.90
   7 -10 -46   63.79   17.40
  -3  -7  46   40.90   11.20
  10  -3  46   54.19    9.70
   4 -10 -46   75.49   15.10
  10  -6  46   34.40    9.10
   1 -10 -46   14.90    9.60
  10  -9  46    8.10    8.40
  -2 -10 -46    8.10    8.90
  10 -12  46   21.70   10.00
  12 -11 -46   22.20    9.90
 -11  -1 -46   32.50    9.00
   1 -12  46   24.60   13.80
 -11   2 -46   15.60    7.00
   9 -11 -46   10.80    7.60
  -2  -9  46   25.90   13.40
  11  -2  46   10.40    5.50
   6 -11 -46   86.19   16.70
  11  -5  46  102.09   11.70
  -5  -6  46  149.99   18.60
   3 -11 -46   61.39   14.90
  -8  -3  46   77.29   14.90
  11  -8  46   42.10   10.20
   0 -11 -46   46.00   15.00
 -11   0  46   60.49   11.90
 -11   0  46   56.29   17.90
  11 -11  46   10.00    9.70
 -12   1 -46   41.90    8.90
  11 -12 -46   23.30   10.40
  -1 -11  46   40.00   14.80
   8 -12 -46   37.20   12.40
  -4  -8  46   27.70   12.30
  12  -4  46   31.90    7.50
   5 -12 -46   28.20   12.20
  -7  -5  46   27.30   11.70
  12  -7  46   17.70    7.10
  12  -7  46   37.80    9.10
   2 -12 -46   21.40   12.10
 -10  -2  46   19.20   10.10
  12 -10  46   19.60    9.00
  10 -13 -46    7.00    8.90
  -3 -10  46   14.80   11.50
   7 -13 -46   21.00   11.30
  -6  -7  46   22.80   12.60
  13  -6  46   16.60    6.60
   4 -13 -46   10.30    9.90
  -9  -4  46    6.30    7.50
  13  -9  46   11.90    7.50
  -8  -6  46   62.29   14.70
  14  -8  46   65.19   13.30
   1   0 -47    5.10    4.90
   0  -1 -47   -8.40    3.50
  -1   1 -47   -4.90    4.60
   0   1  47   -0.20    4.10
  -1   0  47   -2.10    4.20
   1  -1  47    3.20    4.60
   2  -2 -47    3.00    5.10
  -2   0 -47    3.80    5.20
   0   2 -47    2.90    5.50
  -2   2  47   -3.30    3.40
   0  -2  47    6.40    5.70
   2   0  47    3.10    4.80
  -2   3 -47  222.98   17.70
   3  -1 -47  230.88   16.70
  -1  -2 -47  197.48   15.50
   1   2  47  196.28   15.30
  -3   1  47  201.58   15.00
   2  -3  47  205.08   15.50
  -1   4 -47    2.50    6.10
   4  -3 -47    0.30    5.90
  -3  -1 -47   -4.30    3.70
   3   1  47    6.80    4.80
   1  -4  47   -5.70    3.70
  -4   3  47   -7.10    4.80
   2   1 -47  243.58   17.60
   1  -3 -47  203.98   15.90
  -3   2 -47  208.08   16.50
   3  -2  47  175.38   14.50
  -1   3  47  197.28   15.60
  -2  -1  47  214.18   15.70
  -3   5 -47    1.00    7.00
  -2  -3 -47   20.10    7.80
   5  -2 -47   10.50    6.20
   2   3  47    5.20    5.50
  -5   2  47   10.20    5.80
  -4  -2 -47  182.68   15.40
   6  -4 -47  167.58   15.00
  -2   6 -47  150.98   17.80
  -6   4  47  171.88   15.00
   4   2  47  161.28   14.80
  -4   1 -47   -3.40    5.20
   3  -4 -47    3.10    5.80
   1   3 -47   -9.10    4.70
  -1  -3  47    8.10    5.40
   4  -1  47   -0.40    4.20
  -3   4  47   -3.80    4.00
  -4   4 -47    7.10    6.00
   4   0 -47   15.50    7.40
   0  -4 -47    1.20    6.10
   4  -4  47   -3.60    3.60
  -4   0  47    2.90    5.00
   0   4  47   -2.10    4.90
  -3  -4 -47   14.00    6.80
   7  -3 -47   17.20    7.80
  -7   3  47   14.10    7.00
  -5  -3 -47    8.70    7.00
   8  -5 -47    6.00    6.90
  -8   5  47   14.90    8.50
  -5   0 -47   -5.20    4.50
   0   5 -47    1.00    6.40
   5  -5 -47   -5.20    5.00
   5   0  47    1.00    4.10
  -5   3 -47    0.20    5.70
   3   2 -47    9.40    7.90
   2  -5 -47   22.40    8.00
   5  -3  47   18.00    6.70
  -3  -2  47   17.30    7.20
  -5   6 -47    0.60    5.10
  -1  -5 -47   -1.20    5.00
   6  -1 -47   -4.10    4.90
  -6   1  47   -1.00    4.30
   9  -4 -47    3.50    5.50
  -4  -5 -47   17.20    8.40
  -9   4  47   -3.10    5.20
   5  -9  47    8.50    6.70
  10  -6 -47    9.30    6.60
  -6  -4 -47    1.80    5.70
   4 -10  47    6.40    8.10
  -6  -1 -47  175.68   15.30
   7  -6 -47  168.88   16.00
   6   1  47  198.68   16.10
  -6   2 -47  145.89   14.20
   2   4 -47  170.78   17.70
   4  -6 -47  137.29   14.70
   6  -2  47  146.59   13.50
  -6   5 -47   -8.70    5.20
   1  -6 -47   -1.70    5.70
   5   1 -47   -1.60    5.10
   6  -5  47    3.80    6.20
  -5  -1  47    1.90    5.40
   8  -2 -47   47.70   10.40
  -2  -6 -47   74.09   14.10
  -8   2  47   80.79   11.70
  11  -5 -47    1.30    5.40
  -5  -6 -47    2.70    6.60
   6 -11  47   -8.20    6.90
 -11   5  47   -3.20    4.90
  12  -7 -47   17.60    8.00
  -7  -5 -47   11.40    8.10
   5 -12  47    6.90   10.80
  -7  -2 -47   39.60    9.60
   9  -7 -47   21.80    8.10
   6  -7 -47  182.68   16.80
  -7   1 -47  191.88   15.90
   7  -1  47  153.68   14.40
   3  -7 -47    7.60    6.90
  -7   4 -47   27.40    9.80
   4   3 -47   19.90   10.10
   7  -4  47   29.80    8.20
   7   0 -47   10.90    7.90
   0  -7 -47   -5.00    6.60
  -7   0  47   -5.40    4.20
  -3  -7 -47    0.20    6.90
  10  -3 -47   13.30    7.10
   7 -10  47   -1.30    6.50
 -10   3  47   13.10    7.30
  13  -6 -47    4.20    6.10
  -6  -7 -47    1.40    6.80
   7 -13  47   11.80   10.30
  11  -8 -47  -10.00    4.90
  -8  -3 -47    8.40    7.60
   3 -11  47    3.40    9.00
  -8   0 -47   -0.30    4.60
   8  -8 -47    7.60    7.70
   0  -8  47    1.70    7.80
   8   0  47    2.60    5.00
   5  -8 -47   13.60    9.70
  -8   3 -47   20.90    8.70
   8  -3  47   13.40    6.60
  -8   6 -47   92.09   15.70
   6   2 -47   66.49   13.90
   2  -8 -47   56.69   13.10
   8  -6  47   72.09   11.50
   9  -1 -47   13.00    7.90
  -1  -8 -47    7.20   10.60
   8  -9  47   -6.10    5.10
  -9   1  47   19.80    7.10
  12  -4 -47   30.80    9.20
  -4  -8 -47   36.40   11.20
 -12   4  47   18.70    7.60
   8 -12  47   37.80   14.20
  13  -9 -47    7.60    7.10
  -9  -4 -47    8.40    7.30
   4 -13  47    1.00    9.10
  10  -9 -47    6.10    7.10
  -9  -1 -47    6.50    6.50
   9   1  47    0.40    5.70
   1 -10  47    8.80   10.80
  -9   2 -47   24.80    8.50
   7  -9 -47   22.50    9.50
  -2  -7  47    7.40    9.60
   9  -2  47   19.20   13.10
   4  -9 -47    1.50    7.50
  -9   5 -47   -0.80    5.80
   9  -5  47    8.60    5.60
   8   1 -47   -1.00    6.90
   1  -9 -47    1.90    7.50
   9  -8  47    3.10    7.10
  11  -2 -47    8.50    7.20
  -2  -9 -47   -5.10    6.60
   9 -11  47    2.40    7.50
 -11   2  47    4.00    6.40
 -10  -2 -47    2.60    6.70
  12 -10 -47   -3.70    5.50
   2 -12  47    2.70   10.00
   9 -10 -47    6.20    7.60
 -10   1 -47   -1.20    5.60
  -1  -9  47    5.00    7.20
  10  -1  47    4.00    7.50
 -10   4 -47   18.00    8.40
   6 -10 -47   -3.10    6.80
  10  -4  47    5.30    6.70
  -4  -6  47   12.00    9.00
   3 -10 -47    4.00    7.60
   0 -10 -47   -6.10    7.00
  10 -10  47   -4.80    5.90
  -3 -10 -47   11.20   10.30
  10 -13  47   -2.50    6.70
 -11   0 -47    4.40    6.20
  11 -11 -47   -5.40    6.10
   0 -11  47   -4.20    9.40
 -11   3 -47   12.00    6.90
   8 -11 -47   -0.90    5.90
  11  -3  47    1.50    4.70
  -3  -8  47    1.40    8.40
   5 -11 -47    6.50    8.90
  -6  -5  47   -7.10    5.60
  11  -6  47   -0.40    4.40
   2 -11 -47   -8.40    6.60
  -9  -2  47    1.70    6.90
  11  -9  47   -9.10    4.80
  -1 -11 -47   -6.60    7.20
 -12   1  47    1.70    5.60
  11 -12  47   15.60    9.00
 -12   2 -47    3.20    5.10
  10 -12 -47   -1.80    6.90
  -2 -10  47    8.00   10.00
   7 -12 -47    1.70    7.60
  -5  -7  47   19.10   10.60
  12  -5  47    1.70    5.40
   4 -12 -47   15.00   10.70
  -8  -4  47   19.20    9.70
  12  -8  47   41.80   11.20
   1 -12 -47   11.40   11.10
 -11  -1  47   -1.10    5.90
  12 -11  47    2.20    6.90
   9 -13 -47   -8.60    6.50
  -4  -9  47   -2.50    9.20
   6 -13 -47   -4.80    6.90
  13  -7  47   -0.50    5.40
  -7  -6  47   12.80   10.40
   3 -13 -47    6.10   10.40
  13 -10  47   -2.10    5.40
 -10  -3  47    2.60    7.60
   0   0 -48  123.09   12.70
   0   0  48  136.89   12.70
  -1   2 -48   54.69   10.90
  -1  -1 -48   48.40    9.60
   2  -1 -48   85.59   11.30
  -2   1  48   66.39    9.70
   1  -2  48   35.30    8.30
   1   1  48   36.60    8.30
   1   1 -48   60.69   11.20
  -2   1 -48   46.50   10.10
   1  -2 -48   43.70    9.00
  -1   2  48   37.50    8.50
   2  -1  48   54.19   10.40
  -1  -1  48   62.59    9.70
  -2  -2 -48   -4.10    4.50
   4  -2 -48   -0.90    5.70
  -2   4 -48    6.10    6.80
  -4   2  48    2.50    4.50
   2   2  48    4.50    5.70
   2  -4  48   12.20    6.20
   0   3 -48  255.97   19.50
  -3   0 -48  286.37   18.50
   3  -3 -48  240.58   17.30
   0  -3  48  272.27   18.60
  -3   3  48  252.67   17.40
   3   0  48  246.58   16.70
  -3   3 -48  176.28   15.90
   0  -3 -48  175.38   15.40
   3   0 -48  180.78   15.90
   3  -3  48  149.79   13.80
   0   3  48  156.78   14.30
  -3   0  48  177.18   14.80
  -3  -3 -48  185.58   16.60
  -3   6 -48  170.38   18.20
   5  -4 -48  141.89   14.30
  -4  -1 -48  145.79   14.10
  -1   5 -48  149.99   16.70
  -5   4  48  162.78   14.80
   4   1  48  168.28   14.70
   2  -4 -48   -2.00    5.80
   2   2 -48    4.50    6.90
  -4   2 -48   -9.00    5.30
  -2  -2  48    4.80    5.60
   4  -2  48    1.30    4.50
  -2   4  48   -3.60    3.90
  -4   5 -48   13.80    8.10
   5  -1 -48   17.80    7.90
  -1  -4 -48   13.40    7.20
  -5   1  48   28.10    8.10
   8  -4 -48   19.20    7.80
  -4  -4 -48   14.70    7.70
  -8   4  48   11.50    6.50
   7  -5 -48   32.90    9.30
  -5  -2 -48   45.50   10.10
   5   2  48   30.50    8.80
  -5   1 -48  166.78   14.70
   4  -5 -48  127.29   14.60
   1   4 -48  177.18   17.90
   5  -1  48  180.98   14.50
   1  -5 -48   34.40    9.60
  -5   4 -48   20.60    9.10
   4   1 -48   17.90    8.10
  -4  -1  48   10.50    6.60
   5  -4  48   10.80    6.10
   7  -2 -48   61.69   11.50
  -2  -5 -48   26.50   10.20
  -7   2  48   37.40    8.90
  -5  -5 -48    5.60    7.50
  10  -5 -48   21.00    8.40
   5 -10  48   10.20    9.10
  -6  -3 -48   76.89   12.20
   9  -6 -48   57.19   11.40
   3  -9  48   47.80   13.80
   6  -6 -48   76.79   13.00
  -6   0 -48   61.09   11.40
   6   0  48   39.60    9.40
   3   3 -48  213.78   18.90
   3  -6 -48  173.78   16.80
  -6   3 -48  192.68   16.30
   6  -3  48  180.88   14.70
   6   0 -48  175.38   16.90
   0  -6 -48  203.48   18.50
  -6   6 -48  233.08   20.00
  -6   0  48  200.68   16.30
  -3  -6 -48  121.89   15.60
   9  -3 -48  120.79   13.90
  -9   3  48   77.89   11.90
   6  -9  48  100.99   15.80
  -6  -6 -48   40.10   18.50
  12  -6 -48   34.70   10.20
   6 -12  48   46.30   14.10
  11  -7 -48   23.10    8.90
  -7  -4 -48   14.80    8.40
   4 -11  48   21.30   11.90
  -7  -1 -48  120.99   13.60
   8  -7 -48  131.29   15.00
   1  -8  48  103.49   16.90
   7   1  48  119.99   13.50
  -7   2 -48   29.10    9.30
   5  -7 -48   26.80    9.00
   7  -2  48   28.40    8.00
   5   2 -48   41.70   11.50
   2  -7 -48   28.50    9.80
  -7   5 -48   57.79   12.60
   7  -5  48   20.20    7.60
  -1  -7 -48  135.59   16.90
   8  -1 -48  107.09   14.20
  -8   1  48  110.99   12.90
  11  -4 -48   18.90    8.30
  -4  -7 -48    3.20    6.70
 -11   4  48   17.10    7.90
   7 -11  48   14.40   10.40
  -8  -5 -48   23.20   10.30
  13  -8 -48   16.20    8.00
   5 -13  48    2.30   10.50
  -8  -2 -48    0.70    5.90
  10  -8 -48   11.30    7.00
   2 -10  48  -11.20    7.40
   7  -8 -48  125.69   15.10
  -8   1 -48  126.69   13.50
   8  -1  48   96.29   12.10
  -8   4 -48   31.40    9.60
   4  -8 -48   17.10    9.30
   8  -4  48   37.10    8.90
   7   1 -48  110.49   15.50
   1  -8 -48   98.89   15.30
  10  -2 -48   -2.90    5.70
  -2  -8 -48   -1.50    7.30
   8 -10  48    1.20    6.60
 -10   2  48    6.10    6.20
  13  -5 -48   37.70   10.10
  -5  -8 -48   26.50   10.60
   8 -13  48   25.40   12.60
  12  -9 -48   25.20    9.30
  -9  -3 -48   32.50   10.40
   3 -12  48   15.10   11.50
   9  -9 -48  181.18   17.90
  -9   0 -48  179.88   15.80
   0  -9  48  192.38   22.10
   9   0  48  155.98   15.00
  -9   3 -48   65.79   12.50
   6  -9 -48   63.29   13.50
   9  -3  48   45.70   10.10
   3  -9 -48  126.69   24.30
   9  -6  48   76.09   11.50
   0  -9 -48    3.20    8.90
   9   0 -48    3.30    8.00
   9  -9  48    7.60    7.90
  12  -3 -48   14.30    7.80
  -3  -9 -48    8.40    8.30
 -12   3  48    7.80    7.60
   9 -12  48   17.00   10.40
  11 -10 -48    4.60    7.70
 -10  -1 -48    2.20    6.00
  10   1  48    6.30    6.30
   1 -11  48    6.50   10.00
 -10   2 -48    3.90    6.00
   8 -10 -48   -0.60    8.00
  -2  -8  48   -0.80    7.60
  10  -2  48    8.90    7.40
 -10   5 -48    4.40    7.40
   5 -10 -48    7.40    8.40
  -5  -5  48    6.90    7.60
  10  -5  48   23.90    8.00
   2 -10 -48   -9.20    6.40
  10  -8  48   -4.00    5.10
  -1 -10 -48    2.80    8.10
 -11   1  48    4.60    8.30
  10 -11  48   14.40    9.60
 -11   1 -48    2.90    6.40
  10 -11 -48   -2.00    6.10
  -1 -10  48    7.60   11.20
  11  -1  48   -1.90    5.10
   7 -11 -48   28.50   11.30
 -11   4 -48   16.80    8.30
  11  -4  48   17.20    6.80
  -4  -7  48   12.10    9.70
   4 -11 -48   -0.70    7.40
  11  -7  48   17.10    9.00
  11  -7  48   21.00    8.30
  -7  -4  48   22.20    9.80
   1 -11 -48    3.60    9.10
  11 -10  48   11.50    8.00
 -10  -1  48   11.00    7.10
   0 -12  48   54.59   21.50
   9 -12 -48   12.00   10.10
  -3  -9  48   22.00   11.80
   6 -12 -48   56.99   14.50
  12  -6  48   47.80   10.50
  -6  -6  48   40.00   13.00
   3 -12 -48   12.30    8.40
  -9  -3  48    2.50    7.50
  12  -9  48   13.50    8.60
   0 -12 -48   40.80   14.40
 -12   0  48   26.90    8.90
  12 -12  48   16.40   10.00
   8 -13 -48   14.70    9.10
  13  -5  48    7.90    5.00
  -5  -8  48   26.90   11.70
   5 -13 -48   14.60   11.00
  -8  -5  48   41.60   12.80
  13  -8  48   39.70    9.90
   0   1 -49   -3.00    4.60
   1  -1 -49   15.00    6.60
  -1   0 -49   -7.60    3.60
  -1   1  49    7.10    4.70
   0  -1  49   -1.80    3.50
   1   0  49    5.10    4.80
  -1   3 -49   -0.30    4.90
  -2  -1 -49    1.40    5.60
   3  -2 -49   -4.40    3.90
   1  -3  49    2.50    5.50
  -3   2  49   -0.80    4.30
   2   1  49   -3.70    3.90
   0  -2 -49    2.70    5.00
  -2   2 -49    0.70    5.10
   2   0 -49    4.40    6.50
  -2   0  49    0.40    4.00
   2  -2  49    3.90    4.30
   0   2  49    4.40    4.90
  -3  -2 -49  360.86   21.30
   5  -3 -49  353.56   21.20
  -2   5 -49  334.77   23.80
   3   2  49  336.07   20.70
  -5   3  49  348.57   20.80
   1   2 -49   -8.00    4.30
  -3   1 -49    4.90    5.50
   2  -3 -49    0.40    5.50
   3  -1  49   -5.70    3.00
  -2   3  49    3.50    5.40
  -1  -2  49   -0.30    4.40
  -1  -3 -49   35.90    9.10
   4  -1 -49   24.90    8.60
  -3   4 -49   44.80   11.20
   3  -4  49   32.20    8.20
   1   3  49   40.30    9.50
  -4   1  49   24.20    7.70
   7  -4 -49   95.49   13.10
  -4  -3 -49   74.49   13.10
  -7   4  49  104.89   22.40
   4  -4 -49   -5.70    4.70
   0   4 -49   11.80    7.40
  -4   0 -49    3.00    5.40
   4   0  49   -0.90    4.50
  -4   4  49    7.10    5.90
   3   1 -49   51.39   11.70
   1  -4 -49   12.60    6.30
  -4   3 -49   18.10    8.60
  -3  -1  49   35.80    8.90
   4  -3  49   32.40    8.40
   6  -2 -49    1.60    5.50
  -4   6 -49   -1.60    6.20
  -2  -4 -49    6.00    6.30
  -6   2  49    2.50    5.70
   9  -5 -49   21.60    9.00
  -5  -4 -49   20.00    8.80
   4  -9  49   25.60   11.20
  -1   6 -49  143.39   17.80
  -5  -1 -49  107.59   12.80
   6  -5 -49  128.19   14.10
   5   1  49  102.49   12.80
   2   3 -49  357.96   23.70
   3  -5 -49  380.06   22.70
  -5   2 -49  357.26   21.50
   5  -2  49  360.06   20.20
   0  -5 -49    4.70    6.70
  -5   5 -49    1.10    6.60
   5   0 -49    8.70    6.40
  -5   0  49   -3.40    4.50
  -3  -5 -49   -4.70    5.40
   8  -3 -49    3.00    6.00
  -8   3  49    5.20    5.70
  -6  -5 -49   -5.10    5.40
  11  -6 -49    0.60    6.10
   5 -11  49   -1.40    8.50
   8  -6 -49   -1.50    5.20
  -6  -2 -49   -9.00    5.30
   5  -6 -49  111.79   14.30
   1   5 -49  146.99   17.50
  -6   1 -49  108.49   12.70
   6  -1  49  114.19   12.40
   2  -6 -49   -7.80    4.60
   4   2 -49    2.70    6.50
  -6   4 -49   -6.30    5.70
   6  -4  49    8.20    5.90
  -1  -6 -49   42.80   11.60
   7  -1 -49   30.50   10.00
  -7   1  49   10.20    6.80
  10  -4 -49    7.60    6.70
  -4  -6 -49   -0.10    6.00
   6 -10  49    0.40    7.10
  -7  -6 -49    7.10    9.20
  13  -7 -49    4.60    6.80
   6 -13  49   -4.30    9.60
  -7  -3 -49   13.00    7.30
  10  -7 -49   -3.10    5.70
   3 -10  49   -1.60    6.20
   7  -7 -49   -0.20    5.20
  -7   0 -49    7.50    6.90
   7   0  49    1.50    6.20
   3   4 -49   87.79   14.50
  -7   3 -49   79.79   11.90
   4  -7 -49   53.59   12.50
   7  -3  49  112.99   12.30
   6   1 -49   30.20   10.90
  -7   6 -49   29.40   11.50
   1  -7 -49   28.10    9.70
   9  -2 -49    3.30    6.70
  -2  -7 -49    3.50    6.70
   7  -9  49    4.00    8.40
  -9   2  49   -0.10    6.80
  -5  -7 -49   -1.30    6.50
  12  -5 -49   -2.20    5.40
 -12   5  49   -4.10    6.70
   7 -12  49    6.00    8.50
  12  -8 -49    1.40    6.40
  -8  -4 -49    8.20    7.60
   4 -12  49    1.00    9.30
  -8  -1 -49    0.70    6.60
   9  -8 -49   -1.60    6.50
   1  -9  49  -10.90    7.20
   8   1  49   -4.90    5.60
   6  -8 -49    7.90    6.90
  -8   2 -49   -4.80    4.20
   8  -2  49    3.20    4.80
  -8   5 -49   -0.90    5.90
   5   3 -49   -9.60    5.00
   3  -8 -49   -2.40    6.30
   8  -5  49    2.30    5.30
   8   0 -49    1.50    6.80
   0  -8 -49   13.00   10.30
  -3  -8 -49   28.50   10.40
  11  -3 -49    1.30    7.20
   8 -11  49   14.50   10.20
 -11   3  49    4.30    6.60
  11  -9 -49    1.50    6.80
  -9  -2 -49    4.60    6.90
   2 -11  49   -6.60    6.80
  -9   1 -49   -8.70    5.20
   8  -9 -49    0.40    6.30
   9  -1  49   -0.40    5.20
  -1  -8  49   -9.90    7.60
  -9   4 -49   29.80    9.20
   5  -9 -49   28.00   10.90
   9  -4  49   24.00    8.60
   7   2 -49   26.00    9.90
   2  -9 -49   -1.50    6.60
  -1  -9 -49    9.80    8.60
  10  -1 -49   17.50    8.30
   9 -10  49    1.00    7.30
  13  -4 -49    9.20    7.50
  -4  -9 -49   -5.80    7.10
   9 -13  49   -4.50    6.70
 -10  -3 -49    3.10    7.20
  13 -10 -49   -0.70    6.60
   3 -13  49   11.90   19.80
 -10   0 -49   -0.40    5.60
  10 -10 -49   -3.10    8.20
  10   0  49   -3.20    5.10
   0 -10  49   -5.30    9.10
   7 -10 -49   19.30    9.00
 -10   3 -49    0.50    6.40
  -3  -7  49   -1.60    8.10
  10  -3  49    5.50    6.10
   4 -10 -49   -0.70    7.60
  10  -6  49    1.10    5.30
   1 -10 -49    0.40    7.50
  10  -9  49   -6.40    5.60
  -2 -10 -49   -4.00    6.60
  10 -12  49    1.60    8.70
 -11  -1 -49    7.30    6.40
  12 -11 -49    6.70    7.40
   1 -12  49   -7.00    8.50
   9 -11 -49   -1.10    7.20
 -11   2 -49   10.50    6.50
  -2  -9  49   -4.70    6.00
  11  -2  49    2.00    5.60
   6 -11 -49    0.70    7.20
  -5  -6  49   -5.80    8.40
  11  -5  49    7.30    6.60
   3 -11 -49   17.50   10.40
  -8  -3  49   14.40    9.10
  11  -8  49   17.00    8.70
   0 -11 -49    2.80    8.50
  11 -11  49    2.20    7.70
  11 -12 -49   -2.00    7.40
 -12   1 -49   -1.30    4.90
  -1 -11  49   10.40   11.90
   8 -12 -49   14.90   10.20
  -4  -8  49    8.70   10.30
   5 -12 -49   -9.20    7.10
  -7  -5  49    0.00   11.60
  12  -7  49    4.50    6.70
  12  -7  49    2.10    5.50
   2 -12 -49    1.90    8.80
  12 -10  49    0.10    7.10
 -10  -2  49    4.20    7.20
  10 -13 -49   -7.50    7.40
  -3 -10  49   -8.00    8.60
   7 -13 -49    5.00    9.00
  -6  -7  49    3.20    8.50
   4 -13 -49   -9.90    7.30
  -9  -4  49    0.70    9.80
  13  -9  49    1.60    6.20
   0  -1 -50  909.71   33.90
   1   0 -50  869.61   33.80
  -1   1 -50  856.91   33.80
   1  -1  50  869.51   32.90
  -1   0  50  814.02   31.90
   0   1  50  878.31   33.10
   0   2 -50  218.08   17.70
   2  -2 -50  197.78   16.40
  -2   0 -50  207.08   16.50
  -2   2  50  234.88   16.90
   0  -2  50  266.67   17.90
   2   0  50  228.98   16.50
  -1  -2 -50  171.88   15.30
   3  -1 -50  171.48   15.30
  -2   3 -50  152.38   15.50
  -3   1  50  180.28   15.00
   1   2  50  170.88   14.90
   2  -3  50  170.18   14.90
  -1   4 -50  227.68   19.30
  -3  -1 -50  219.58   17.00
   4  -3 -50  219.78   17.30
  -4   3  50  228.68   17.00
   3   1  50  193.18   15.90
  -3   2 -50  170.38   15.70
   1  -3 -50  162.18   15.00
   2   1 -50  173.58   15.90
   3  -2  50  180.88   15.00
  -1   3  50  172.58   15.10
  -2  -1  50  164.88   14.50
  -2  -3 -50   15.10    8.00
  -3   5 -50    1.10    6.70
   5  -2 -50   17.50    7.40
  -5   2  50    7.90    6.30
   6  -4 -50  307.17   20.20
  -2   6 -50  282.67   23.10
  -4  -2 -50  270.37   19.10
   1   3 -50  200.18   18.40
   3  -4 -50  206.28   16.90
  -4   1 -50  220.48   16.90
   4  -1  50  210.08   15.90
  -4   4 -50   24.80    9.30
   4   0 -50   29.70    9.00
   0  -4 -50   45.90    9.90
  -4   0  50   43.20    9.70
   4  -4  50   17.70    7.50
  -3  -4 -50   50.29   11.10
   7  -3 -50   57.29   12.40
  -7   3  50   73.49   14.90
  -5  -3 -50   61.39   13.10
   8  -5 -50   49.00   11.20
   5  -5 -50    8.10    6.50
  -5   0 -50    1.10    6.60
   0   5 -50    7.20    6.50
   5   0  50    4.60    5.30
  -5   3 -50    2.60    6.40
   2  -5 -50   14.70    8.00
   3   2 -50   18.00    9.20
   5  -3  50   21.60    7.90
   6  -1 -50  166.58   16.10
  -5   6 -50  182.48   18.60
  -1  -5 -50  171.28   16.90
  -6   1  50  192.78   16.10
   9  -4 -50   47.90   10.60
  -4  -5 -50   41.20   11.10
   5  -9  50   47.20   14.20
  -6  -4 -50   26.80   10.00
  10  -6 -50   34.20   10.80
   4 -10  50   26.20   12.20
   7  -6 -50  198.48   17.40
  -6  -1 -50  175.68   16.50
   6   1  50  194.38   17.30
   2   4 -50  280.77   22.60
   4  -6 -50  296.87   21.10
  -6   2 -50  287.57   19.60
   6  -2  50  276.07   18.20
   1  -6 -50  184.48   17.70
   5   1 -50  130.89   15.90
  -6   5 -50  196.88   18.30
   8  -2 -50  260.27   19.90
  -2  -6 -50  261.47   21.00
  11  -5 -50   59.59   11.40
  -5  -6 -50   88.29   17.50
   6 -11  50   68.19   15.60
  -7  -5 -50   19.50    9.40
  12  -7 -50   19.10    8.70
   5 -12  50   33.50   14.80
   9  -7 -50   36.90   10.30
  -7  -2 -50   65.29   13.00
   2  -9  50   30.50   12.80
  -7   1 -50  167.88   15.60
   6  -7 -50  221.78   18.70
   7  -1  50  171.18   15.20
   3  -7 -50   54.89   12.00
  -7   4 -50   58.59   12.90
   4   3 -50   23.00    9.40
   7  -4  50   33.00    9.10
   7   0 -50  404.86   25.00
   0  -7 -50  379.76   25.50
  10  -3 -50   60.89   12.50
  -3  -7 -50   54.39   16.60
   7 -10  50   53.99   13.90
  13  -6 -50   21.40    8.30
  -6  -7 -50   11.60    8.20
   7 -13  50   -6.80    9.60
  11  -8 -50   77.19   14.40
  -8  -3 -50   74.19   13.50
   3 -11  50   90.69   20.00
  -8   0 -50  438.16   23.40
   8  -8 -50  412.36   25.80
   0  -8  50  382.06   30.90
   8   0  50  412.46   23.20
  -8   3 -50   35.20   10.30
   5  -8 -50   38.70   11.30
   8  -3  50   31.60    8.60
   2  -8 -50  260.47   22.50
   6   2 -50  305.67   22.90
  -8   6 -50  252.37   20.80
   9  -1 -50   24.50    9.50
  -1  -8 -50   37.20   12.20
   8  -9  50   41.70   12.70
  12  -4 -50   33.00   10.10
  -4  -8 -50   35.60   12.00
   8 -12  50   22.60   13.10
 -12   4  50   24.40    9.80
  13  -9 -50    4.80    7.60
  -9  -4 -50   11.70    8.80
   4 -13  50   10.40   11.80
  10  -9 -50   43.20   11.60
  -9  -1 -50   14.60    8.00
   1 -10  50   38.10   14.10
  -9   2 -50   42.40   10.90
   7  -9 -50   36.80   11.70
  -2  -7  50   39.40   17.30
   9  -2  50   33.40    9.20
  -9   5 -50   62.39   13.10
   9  -5  50   44.80    9.60
   1  -9 -50   25.90   11.70
   8   1 -50   36.20   11.50
  11  -2 -50    2.80    6.40
  -2  -9 -50   25.30   10.70
   9 -11  50   17.80   10.10
 -10  -2 -50    9.60    8.10
  12 -10 -50    3.30    8.00
   2 -12  50    8.00   12.40
   9 -10 -50   26.10   10.30
 -10   1 -50   33.70    9.90
  -1  -9  50   29.30   13.90
  10  -1  50   33.60    9.10
 -10   4 -50   47.70   11.70
   6 -10 -50   25.90    9.80
  10  -4  50   35.80    9.20
  -4  -6  50   42.70   13.40
   3 -10 -50   84.09   16.40
   0 -10 -50   64.89   15.50
  10 -10  50   70.39   15.40
  -3 -10 -50    2.50    9.40
  10 -13  50    8.80   10.00
 -11   0 -50   99.99   13.20
  11 -11 -50   93.39   16.60
   0 -11  50  133.29   25.00
 -11   3 -50   83.69   12.20
   8 -11 -50  100.19   16.20
  -3  -8  50   82.69   18.00
   5 -11 -50   58.59   14.30
  -6  -5  50   72.29   15.80
  11  -6  50   27.20    8.30
   2 -11 -50   18.10   11.00
  11  -9  50   20.90    9.70
  -1 -11 -50   34.60   11.60
  11 -12  50   23.00   10.60
 -12   1  50   26.50    9.30
  10 -12 -50   14.50    9.60
 -12   2 -50   12.90    7.30
  -2 -10  50    2.60   10.70
   7 -12 -50   41.50   14.20
  -5  -7  50   25.50   12.70
   4 -12 -50   41.00   13.50
  12  -8  50   18.50    8.50
  -8  -4  50   30.40   11.50
   1 -12 -50   27.00   12.80
  12 -11  50   10.90    8.90
 -11  -1  50   19.70   10.00
   9 -13 -50    7.50    9.70
  -4  -9  50   -3.40    9.50
   6 -13 -50   14.70   11.20
  13  -7  50   16.30    6.90
  -7  -6  50   24.80   13.40
   3 -13 -50   -0.10   11.10
  13 -10  50   12.40    8.90
 -10  -3  50   19.20   10.50
   0   0 -51   -1.60    4.60
   0   0  51    3.70    4.80
  -1  -1 -51   35.70    9.50
  -1   2 -51   79.39   12.10
   2  -1 -51   48.20   10.60
  -2   1  51   55.39   10.10
   1   1  51   62.69   10.30
   1  -2  51   51.69   10.80
   1  -2 -51   69.79   11.20
  -2   1 -51   72.99   11.30
   1   1 -51   39.10   10.60
  -1   2  51   48.10    9.60
  -1  -1  51   54.49   11.10
   2  -1  51   68.09   10.20
   4  -2 -51   13.40    7.20
  -2  -2 -51   24.50    8.00
  -2   4 -51   20.70    9.30
  -4   2  51   21.00    8.20
   2   2  51   23.90    9.50
   3  -3 -51   -3.80    4.60
   0   3 -51   -7.80    4.60
  -3   0 -51    3.60    5.90
   3   0  51   -0.70    4.10
  -3   3  51   -3.40    4.70
   3   0 -51   -8.10    5.00
   0  -3 -51  -10.10    4.00
  -3   3 -51   -1.30    5.80
  -3   0  51   -1.00    4.50
   3  -3  51    5.40    5.50
  -3   6 -51  242.48   21.20
  -3  -3 -51  176.28   16.40
   6  -3 -51  200.08   17.00
   5  -4 -51    6.80    6.00
  -1   5 -51   25.70    9.80
  -4  -1 -51    4.40    6.20
   4   1  51    6.60    6.00
   2   2 -51   24.90    8.80
   2  -4 -51   44.80   10.60
  -4   2 -51   13.90    7.70
   4  -2  51   12.40    6.50
   5  -1 -51   -0.30    5.90
  -4   5 -51    8.70    8.30
  -1  -4 -51    0.20    5.80
  -5   1  51   -1.00    5.40
   8  -4 -51    2.20    6.70
  -4  -4 -51    2.10    5.60
   7  -5 -51  176.78   16.40
  -5  -2 -51  178.38   16.40
  -5   1 -51    7.50    7.20
   4  -5 -51    4.20    6.00
   1   4 -51   -1.50    6.10
   5  -1  51   -2.00    4.30
   1  -5 -51   17.10    7.90
  -5   4 -51   -0.30    6.80
   4   1 -51   10.50    8.10
   5  -4  51    7.70    7.20
  -2  -5 -51  179.08   17.30
   7  -2 -51  159.58   15.90
  10  -5 -51    9.60    6.60
  -5  -5 -51   19.10    9.10
   5 -10  51   -1.00    7.50
  -6  -3 -51    1.00    5.90
   9  -6 -51   11.90    8.20
   3  -9  51    1.90    8.30
  -6   0 -51   -1.90    5.80
   6  -6 -51   -9.00    4.90
   6   0  51    1.70    5.60
  -6   3 -51  182.38   16.50
   3  -6 -51  207.78   18.10
   3   3 -51  162.08   17.80
   6  -3  51  190.08   15.60
   0  -6 -51   12.70    7.60
  -6   6 -51   -3.40    5.90
   6   0 -51    1.00    6.40
   9  -3 -51    4.40    5.90
  -3  -6 -51    4.90    7.30
   6  -9  51   -3.70    6.70
  12  -6 -51   10.70    7.10
  -6  -6 -51   12.30    8.70
   6 -12  51    5.20   10.90
  11  -7 -51   21.00    8.90
  -7  -4 -51   24.60   10.20
   4 -11  51   16.30   13.10
  -7  -1 -51   -0.30    5.90
   8  -7 -51   -3.60    5.90
   5  -7 -51  139.69   16.00
   2   5 -51  188.68   20.70
  -7   2 -51  162.98   15.70
   7  -2  51  165.38   15.00
   2  -7 -51  207.38   19.40
   5   2 -51  175.48   17.90
  -7   5 -51  165.78   17.30
  -1  -7 -51    2.00    6.50
   8  -1 -51    5.70    7.00
  11  -4 -51    2.00    6.30
  -4  -7 -51    5.40    8.40
   7 -11  51    6.60   10.00
  13  -8 -51   -0.90    6.40
  -8  -5 -51   -2.40    7.50
   5 -13  51    6.00   12.40
  -8  -2 -51   -8.00    5.80
  10  -8 -51    3.80    7.30
   2 -10  51    4.10    8.80
  -8   1 -51    0.30    6.40
   7  -8 -51   -4.20    6.40
   8  -1  51    1.00    5.20
   4   4 -51   10.30    9.70
  -8   4 -51    3.10    6.10
   4  -8 -51    1.00    7.10
   8  -4  51   -2.80    4.60
   1  -8 -51   -6.40    7.40
   7   1 -51    7.80    7.50
  10  -2 -51    1.50    6.90
  -2  -8 -51   -7.30    6.10
   8 -10  51    1.70    8.60
  -5  -8 -51   -5.50    6.90
  13  -5 -51    5.20    7.80
   8 -13  51   -2.80    8.80
  12  -9 -51    0.30    6.60
  -9  -3 -51    1.40    6.60
   3 -12  51   13.30   12.60
  -9   0 -51    9.10    7.30
   9  -9 -51    2.00    7.00
   0  -9  51   -8.00    5.50
   9   0  51   -8.40    4.60
   6  -9 -51   11.80    8.40
  -9   3 -51    0.70    6.50
   9  -3  51    8.30    6.50
   3  -9 -51   -5.40    6.00
  -9   6 -51    6.20    8.20
   9   0 -51   -5.70    7.10
   0  -9 -51  -10.00    6.20
   9  -9  51   -2.80    5.80
  12  -3 -51    3.50    6.80
  -3  -9 -51    5.60    9.00
   9 -12  51   -8.20    7.00
 -10  -1 -51    2.40    6.30
  11 -10 -51   -3.10    6.50
   1 -11  51    5.50   11.10
 -10   2 -51   -0.70    5.90
   8 -10 -51   -2.80    5.90
  -2  -8  51    0.10    7.30
  10  -2  51    6.00    6.30
   5 -10 -51   21.40   10.10
 -10   5 -51   -1.90    6.10
  10  -5  51    1.50    5.00
   2 -10 -51   -7.00    6.50
  10  -8  51    8.80    7.70
  -1 -10 -51    3.70    8.70
  10 -11  51    1.50    7.30
 -11   1 -51    1.10    6.20
  10 -11 -51    7.50    7.80
  -1 -10  51   14.10   11.80
   7 -11 -51    6.40    8.40
 -11   4 -51   20.40    8.20
  -4  -7  51   -1.10    8.70
  11  -4  51   16.70    7.20
   4 -11 -51    7.30    9.30
  -7  -4  51   -3.60    6.30
   1 -11 -51   17.20   10.60
  11 -10  51   -0.60    6.40
   9 -12 -51    7.00    8.40
  -3  -9  51    3.40    8.20
   6 -12 -51   -1.10    6.80
  -6  -6  51   -4.50    6.30
   3 -12 -51    4.70    9.30
  12  -9  51   -1.00    5.70
  -9  -3  51    3.40    8.00
   8 -13 -51   -3.10    7.30
  -5  -8  51   -6.20    8.70
  13  -5  51    0.30    5.30
   5 -13 -51    9.90   11.00
  -8  -5  51    3.20    9.30
  13  -8  51    0.40    5.90
   0   1 -52  205.28   17.10
  -1   0 -52  180.68   16.00
   1  -1 -52  186.88   16.30
   0  -1  52  169.48   15.00
  -1   1  52  177.08   15.10
   1   0  52  192.78   15.40
  -1   3 -52   44.90   10.90
   3  -2 -52   87.19   12.60
  -2  -1 -52  102.09   12.80
   2   1  52   67.69   11.00
  -3   2  52   87.39   14.80
   2   0 -52  259.77   19.10
   0  -2 -52  288.47   19.30
  -2   2 -52  270.27   19.40
   2  -2  52  286.27   19.00
   0   2  52  274.77   22.60
  -2   0  52  293.07   19.00
   5  -3 -52  585.44   28.30
  -3  -2 -52  551.94   27.30
  -2   5 -52  571.94   31.30
   2  -3 -52   85.99   12.10
   1   2 -52   84.09   13.40
  -3   1 -52   70.89   11.70
   3  -1  52   68.89   10.60
  -3   4 -52   34.00   10.30
   4  -1 -52   43.60   10.40
  -1  -3 -52   20.60    8.20
  -4   1  52   34.50   12.20
  -4  -3 -52    5.90    6.70
   7  -4 -52   23.50    8.90
  -4   0 -52   35.00    9.50
   0   4 -52   41.10   11.10
   4  -4 -52   34.10    9.40
   4   0  52   17.60    7.20
   1  -4 -52   43.70   11.20
  -4   3 -52   54.99   12.10
   3   1 -52   49.00   10.80
   4  -3  52   39.50    9.80
   6  -2 -52    8.80    7.00
  -4   6 -52    8.50    8.50
  -2  -4 -52   15.00    8.60
  -5  -4 -52   24.70   10.10
   9  -5 -52   27.20    9.40
   4  -9  52   10.40    9.00
  -5  -1 -52  248.68   18.80
   6  -5 -52  225.88   18.50
  -1   6 -52  269.47   23.30
   2   3 -52  541.95   29.80
  -5   2 -52  533.95   27.00
   3  -5 -52  527.95   27.90
   5  -2  52  542.75   25.50
   5   0 -52  375.86   23.40
  -5   5 -52  337.47   23.50
   0  -5 -52  296.07   21.40
  -3  -5 -52  136.19   15.90
   8  -3 -52  102.09   14.20
  11  -6 -52    3.80    6.70
  -6  -5 -52   16.50    8.70
   5 -11  52   31.50   14.00
  -6  -2 -52   55.79   12.30
   8  -6 -52   60.09   12.20
   5  -6 -52  248.18   19.90
   1   5 -52  273.87   22.80
  -6   1 -52  259.47   18.80
   6  -1  52  241.58   17.50
  -6   4 -52   34.90   10.60
   4   2 -52   36.00   10.20
   2  -6 -52   18.70    8.30
  -1  -6 -52  217.58   19.50
   7  -1 -52  195.18   18.10
  -4  -6 -52   49.20   13.10
  10  -4 -52   23.90    8.60
   6 -10  52   39.00   13.60
  13  -7 -52   56.09   11.90
  -7  -6 -52   39.30   11.90
   6 -13  52   89.99   22.70
  10  -7 -52   31.70   11.00
  -7  -3 -52    4.40    7.10
   3 -10  52   30.90   12.50
  -7   0 -52  150.38   15.20
   7  -7 -52  118.59   15.40
   3   4 -52   15.30    9.80
   4  -7 -52   28.20    9.50
  -7   3 -52   14.90    8.80
   7  -3  52   -2.90    4.90
   1  -7 -52  224.08   20.40
  -7   6 -52  233.98   20.90
   6   1 -52  229.58   20.50
   9  -2 -52   80.29   14.30
   7  -9  52   73.39   15.90
  12  -5 -52   35.20   10.70
  -5  -7 -52   39.40   11.70
   7 -12  52   32.30   13.10
  -8  -4 -52   22.80    9.70
  12  -8 -52   16.90    8.90
   4 -12  52    9.60   11.00
   9  -8 -52   40.80   11.00
  -8  -1 -52   49.40   10.80
   1  -9  52   30.80   13.50
   6  -8 -52   44.60   11.00
  -8   2 -52   88.09   14.30
   8  -2  52   72.89   12.40
   3  -8 -52  132.59   17.10
   5   3 -52  102.79   16.60
  -8   5 -52  116.19   15.40
   0  -8 -52   18.30    9.10
   8   0 -52   -1.50    7.40
  11  -3 -52    4.70    7.00
  -3  -8 -52   -2.20    6.70
   8 -11  52    2.90    8.30
  -9  -2 -52    8.60    7.40
  11  -9 -52   16.10    9.50
   2 -11  52    7.30    9.70
   8  -9 -52   46.40   13.30
  -9   1 -52   46.70   11.10
   9  -1  52   59.79   12.00
  -1  -8  52   34.60   12.10
  -9   4 -52   25.20    9.30
   5  -9 -52   26.90   11.60
   9  -4  52   28.60    8.40
   2  -9 -52  133.09   18.00
   7   2 -52   78.79   15.20
  -1  -9 -52   13.50    9.50
  10  -1 -52   26.60    9.50
   9 -10  52   14.00    9.20
  -4  -9 -52   39.70   12.40
  13  -4 -52   38.60   10.90
   9 -13  52   36.20   13.30
 -10   0 -52   10.90    7.00
  10 -10 -52    7.80    8.30
   0 -10  52   11.60   10.80
 -10   3 -52   22.20    9.00
   7 -10 -52   16.20   10.00
  -3  -7  52   24.00   12.90
  10  -3  52   15.60    7.20
   4 -10 -52   20.00   10.00
   1 -10 -52    1.00    9.00
  10  -9  52    9.50    7.20
  -2 -10 -52    9.60    9.50
  10 -12  52   11.30    9.70
 -11  -1 -52   31.60    9.60
  12 -11 -52    8.30    8.00
   1 -12  52   26.00   25.60
   9 -11 -52   16.90    9.40
 -11   2 -52   10.80    7.40
  11  -2  52   17.20    8.10
  -2  -9  52    1.20    7.80
   6 -11 -52   -1.10    7.60
  11  -5  52   12.10    7.70
  -5  -6  52   14.50    9.80
   3 -11 -52   -5.00    7.10
  11  -8  52   19.00    8.90
   0 -11 -52    1.70   10.30
  11 -11  52   20.20   11.10
 -12   1 -52   -2.70    5.70
  11 -12 -52    7.60    8.70
  -1 -11  52    5.50   11.80
   8 -12 -52   -2.90    6.80
  -4  -8  52   18.80   12.60
   5 -12 -52   29.20   11.90
  12  -7  52   37.70   10.40
  -7  -5  52   43.30   13.50
   2 -12 -52    7.90   10.10
  12 -10  52    5.50    7.60
 -10  -2  52    8.90    8.80
   7 -13 -52   52.29   15.70
  13  -6  52   73.09   10.80
  -6  -7  52   82.49   18.90
   4 -13 -52   45.20   25.10
  13  -9  52   33.10   10.50
  -9  -4  52   58.39   14.40
  -1   1 -53    6.00    6.40
   1   0 -53   -1.80    4.80
   0  -1 -53   -8.50    4.50
   1  -1  53   -0.90    4.30
   0   1  53    2.60    5.30
  -1   0  53    4.70    6.00
  -2   0 -53   -0.90    6.00
   2  -2 -53   -1.20    5.10
   0   2 -53    1.20    5.90
   2   0  53    2.40    4.90
  -2   3 -53   54.39   12.60
   3  -1 -53   64.89   12.20
  -1  -2 -53   48.30   10.50
   4  -3 -53   25.30    8.90
  -1   4 -53   15.90    8.90
  -3  -1 -53   10.70    7.40
   1  -3 -53   74.79   11.90
  -3   2 -53   41.30   10.60
   2   1 -53   59.59   11.80
   3  -2  53   72.19   11.40
   5  -2 -53  251.97   19.10
  -3   5 -53  288.97   22.60
  -2  -3 -53  275.37   20.00
  -2   6 -53    3.50    8.40
   6  -4 -53   10.40    6.80
  -4  -2 -53    1.30    5.90
   3  -4 -53   18.10    8.50
   1   3 -53    8.60    7.50
  -4   1 -53   11.30    7.50
   4  -1  53    9.60    6.60
   0  -4 -53   -1.10    5.90
  -4   4 -53    5.40    7.70
   4   0 -53   -1.70    5.40
  -3  -4 -53    1.60    6.20
   7  -3 -53   -1.30    6.90
  -5  -3 -53    2.30    6.40
   8  -5 -53   -1.20    5.50
   0   5 -53   -1.70    6.50
   5  -5 -53   -2.90    5.20
  -5   0 -53    6.60    7.00
   3   2 -53  281.57   21.70
  -5   3 -53  278.47   20.40
   2  -5 -53  224.08   19.10
   6  -1 -53  114.29   14.40
  -1  -5 -53  114.69   15.10
  -5   6 -53  123.59   16.90
  -4  -5 -53   15.00    9.10
   9  -4 -53   28.90    9.40
   5  -9  53    9.20    9.60
  10  -6 -53   14.80    7.60
  -6  -4 -53   10.10    8.40
   4 -10  53   17.60   13.40
   7  -6 -53   20.60    8.40
  -6  -1 -53    9.20    6.60
   2   4 -53   10.10    7.90
   4  -6 -53   11.80    8.20
  -6   2 -53   17.90    8.40
   6  -2  53    0.40    4.90
   5   1 -53  100.99   14.90
  -6   5 -53  121.69   15.60
   1  -6 -53  110.19   15.30
  -2  -6 -53   41.40   11.10
   8  -2 -53   53.69   11.90
  11  -5 -53    9.30    6.20
  -5  -6 -53    0.20    7.60
   6 -11  53    2.80    7.50
  -7  -5 -53   -0.30    7.80
  12  -7 -53    3.70    7.50
   5 -12  53    8.30   10.30
   9  -7 -53   -1.20    5.60
  -7  -2 -53    6.00    7.20
   2  -9  53    7.50    9.80
  -7   1 -53   12.20    7.80
   6  -7 -53   18.00    9.10
   7  -1  53   18.10    9.00
   4   3 -53    6.70    8.30
   3  -7 -53   -0.10    6.40
  -7   4 -53    7.80    7.60
   0  -7 -53   -5.40    6.00
   7   0 -53   -9.90    5.80
  10  -3 -53    8.00    7.10
  -3  -7 -53    3.00    7.40
   7 -10  53    3.70    8.80
  -6  -7 -53   -0.60    7.50
  13  -6 -53    3.90    6.40
   7 -13  53    7.90   11.40
  -8  -3 -53    4.20    6.60
  11  -8 -53   -2.50    6.30
   3 -11  53   13.40   10.00
  -8   0 -53   -1.90    5.90
   8  -8 -53   -6.80    5.50
   0  -8  53   -9.20    7.50
  -8   3 -53  -10.80    5.40
   5  -8 -53    9.00    7.00
   8  -3  53    8.10    5.90
   2  -8 -53   55.49   20.30
   6   2 -53   35.50   11.60
  -8   6 -53   53.09   14.30
   9  -1 -53    7.70    7.70
  -1  -8 -53  -12.70    6.20
   8  -9  53   14.20    9.20
  -4  -8 -53   -2.00    6.90
  12  -4 -53    3.60    6.70
   8 -12  53    1.50    8.50
  -9  -1 -53    0.20    5.30
  10  -9 -53    3.00   11.20
   1 -10  53    0.80    8.20
   7  -9 -53    6.90   11.80
  -9   2 -53    7.40    7.40
  -2  -7  53    1.70    8.10
   9  -2  53    7.00    6.20
  -9   5 -53   31.30   11.50
   4  -9 -53   24.50   11.10
   8   1 -53    8.60    8.30
   1  -9 -53   13.60    9.20
  11  -2 -53   -3.60    6.40
  -2  -9 -53    7.70    9.60
   9 -11  53    8.80    9.00
  12 -10 -53   12.20    8.30
 -10  -2 -53    3.30    7.80
   2 -12  53    0.60   11.00
 -10   1 -53   -2.40    5.60
   9 -10 -53   -0.30    6.90
  10  -1  53    0.70    6.30
  -1  -9  53   14.90   10.80
   6 -10 -53   11.00    8.70
 -10   4 -53   30.80   10.10
  -4  -6  53   14.40   10.10
  10  -4  53   12.00    7.40
   3 -10 -53   -0.10    8.00
   0 -10 -53  -14.30    5.80
  10 -10  53   -4.90    6.20
  11 -11 -53   -0.10    9.00
 -11   0 -53    1.60    6.50
   0 -11  53    6.00   10.90
 -11   3 -53   -2.40    6.40
   8 -11 -53    2.30    8.00
  11  -3  53    8.30    7.00
  -3  -8  53    5.10    9.40
   5 -11 -53   -3.60    6.50
  -6  -5  53   -2.90    7.70
   2 -11 -53    2.30    7.90
  11  -9  53    0.90    5.30
 -12   2 -53   10.40    7.00
  10 -12 -53   -3.50    7.20
  -2 -10  53    5.50   10.30
   7 -12 -53   -5.10    7.30
  -5  -7  53    5.00    8.80
   4 -12 -53    8.50    8.70
  -8  -4  53    0.60    7.30
  12  -8  53    3.10    6.20
   6 -13 -53   15.50   10.70
  -7  -6  53   11.80   10.70
  13  -7  53   11.40    6.70
   0   0 -54 1152.38   40.90
  -1  -1 -54  481.15   25.20
  -1   2 -54  464.95   25.90
   2  -1 -54  484.55   25.70
   1  -2 -54  493.55   26.00
  -2   1 -54  494.85   26.10
   1   1 -54  542.45   27.80
  -2   4 -54  312.17   23.00
   4  -2 -54  311.27   21.30
  -2  -2 -54  303.37   20.60
   0   3 -54    9.90    7.80
  -3   0 -54   -4.00    4.30
   3  -3 -54    1.60    6.20
   3   0 -54    6.60    7.10
  -3   3 -54   -1.40    5.40
   0  -3 -54    2.40    5.50
  -3   6 -54   68.19   15.00
  -3  -3 -54   68.79   12.70
   6  -3 -54   69.99   13.20
  -1   5 -54  124.39   17.00
   5  -4 -54   93.99   13.00
  -4  -1 -54  120.69   14.30
   2  -4 -54  320.77   22.00
  -4   2 -54  322.87   21.60
   2   2 -54  314.27   22.70
  -1  -4 -54   46.90   11.20
  -4   5 -54   64.39   13.60
   5  -1 -54   96.89   13.90
  -4  -4 -54   21.70    9.00
   8  -4 -54   45.30   10.60
  -5  -2 -54   96.29   13.50
   7  -5 -54  116.79   15.00
   1   4 -54  112.89   16.10
  -5   1 -54  116.99   13.80
   4  -5 -54  124.99   15.10
   1  -5 -54   84.99   13.60
   4   1 -54  105.99   14.50
  -5   4 -54   78.29   14.60
   7  -2 -54  248.58   19.80
  -5   7 -54  276.07   24.10
  -2  -5 -54  240.88   20.60
  -5  -5 -54   15.50    8.20
  10  -5 -54   17.90    7.70
   5 -10  54   36.80   12.30
   9  -6 -54   24.00    9.80
  -6  -3 -54   30.60   10.20
   3  -9  54    4.50    8.70
  -6   0 -54  195.58   16.90
   6  -6 -54  182.88   17.80
   0   6 -54  222.38   22.20
   3  -6 -54   57.89   12.30
  -6   3 -54   65.89   13.10
   3   3 -54   53.99   12.90
   0  -6 -54  394.76   25.50
  -6   6 -54  399.96   27.00
   6   0 -54  442.96   26.80
  -3  -6 -54   57.99   12.50
   9  -3 -54   62.89   12.70
  12  -6 -54    7.40    6.70
  -6  -6 -54    3.10    7.80
   6 -12  54   16.30   12.10
  -7  -4 -54   55.89   13.20
  11  -7 -54   33.80   10.00
   4 -11  54   23.80   13.30
  -7  -1 -54  152.98   16.30
   8  -7 -54  194.08   18.20
   2   5 -54  113.59   17.40
   5  -7 -54  106.99   15.30
  -7   2 -54   97.89   14.00
  -7   5 -54  274.57   21.40
   2  -7 -54  230.78   20.70
   5   2 -54  221.88   20.80
   8  -1 -54  215.98   19.50
  11  -4 -54   45.30   11.70
  -4  -7 -54   58.19   13.60
   7 -11  54   60.09   16.60
  13  -8 -54   57.09   13.40
  -8  -5 -54   39.60   12.00
   5 -13  54   54.09   24.30
  -8  -2 -54   80.09   14.90
  10  -8 -54   91.59   14.20
   2 -10  54  100.49   19.90
   7  -8 -54  153.28   17.40
  -8   1 -54  198.38   17.50
  -8   4 -54   28.00   10.00
   4  -8 -54   31.00   11.60
   4   4 -54   39.50   13.40
   1  -8 -54  197.38   20.50
   7   1 -54  168.08   19.10
  -2  -8 -54   48.80   13.60
  10  -2 -54   37.50   11.70
   8 -10  54   57.69   15.30
  -5  -8 -54    2.70    8.00
  13  -5 -54   11.60    8.30
   8 -13  54   16.70   11.30
  -9  -3 -54    6.20    7.50
   3 -12  54   -8.80    7.10
   9  -9 -54   -2.70    7.80
  -9   0 -54    6.60    7.00
   0  -9  54    1.90    9.40
  -9   3 -54   17.30    9.40
   6  -9 -54   26.50   10.40
   3  -9 -54   96.19   15.90
  -9   6 -54   86.89   17.20
   0  -9 -54    6.40    9.20
   9   0 -54   -9.90    6.30
   9  -9  54   -3.80    5.70
  -3  -9 -54   14.20    9.20
  12  -3 -54   -2.00    7.30
   9 -12  54    3.80    9.20
 -10  -1 -54   43.60   10.80
  11 -10 -54   37.80   11.50
   1 -11  54   48.00   17.60
 -10   2 -54  111.09   14.50
   8 -10 -54   96.69   15.80
  10  -2  54   75.29   13.80
  -2  -8  54   92.09   18.60
 -10   5 -54   18.00    8.30
   5 -10 -54   22.90   11.30
   2 -10 -54   51.69   14.40
  -1 -10 -54   53.79   15.50
  10 -11  54   42.60   14.60
 -11   1 -54   52.99   11.70
  10 -11 -54   39.60   13.30
  -1 -10  54   61.09   17.60
   7 -11 -54   40.00   12.60
 -11   4 -54   47.70   11.70
  11  -4  54   23.80    8.30
  -4  -7  54   36.00   13.00
   4 -11 -54   20.30   11.40
   1 -11 -54   43.50   14.90
  11 -10  54   35.70   11.90
   9 -12 -54   -2.90    7.20
 -12   3 -54   -0.10    6.20
  -3  -9  54   -1.70    8.50
   6 -12 -54   12.20   10.40
  -6  -6  54   35.30   13.40
   3 -12 -54   25.60   11.50
  -9  -3  54   55.49   23.30
  12  -9  54    4.10    6.30
   8 -13 -54   26.50   12.30
  -5  -8  54   62.49   17.20
   5 -13 -54   16.40   22.20
  13  -8  54   16.40    7.70
  -8  -5  54   17.90   12.10
   0   1 -55   -9.60    3.80
  -1   0 -55    3.60    5.80
   1  -1 -55   -5.90    4.60
   3  -2 -55   19.20    8.20
  -1   3 -55   24.20    9.80
  -2  -1 -55   27.70    9.70
   0  -2 -55    4.40    6.50
  -2   2 -55   -1.30    5.70
   2   0 -55   -3.00    4.60
  -3  -2 -55    4.90    6.30
   5  -3 -55   -2.80    4.40
  -2   5 -55   -3.50    7.20
  -3   1 -55   36.90   10.30
   1   2 -55    7.50    7.90
   2  -3 -55    6.10    6.90
  -3   4 -55   26.40   10.50
  -1  -3 -55   18.40    7.80
   4  -1 -55   14.10    7.60
   7  -4 -55   26.10    9.40
  -4  -3 -55   18.00    8.80
  -4   0 -55   -4.80    5.10
   0   4 -55    1.90    7.30
   4  -4 -55   -5.40    4.90
   1  -4 -55   20.60    9.50
  -4   3 -55   27.60    9.90
   3   1 -55   23.90    9.80
  -4   6 -55    5.00    8.50
  -2  -4 -55   11.90    7.80
   6  -2 -55    5.70    6.70
   9  -5 -55   17.70    8.70
  -5  -4 -55   14.70    9.10
  -5  -1 -55  -10.00    5.00
   6  -5 -55   12.80    7.20
  -1   6 -55    5.40    8.30
  -5   2 -55   -1.70    5.80
   2   3 -55   -0.80    6.80
   3  -5 -55    3.80    5.90
   5   0 -55  -10.80    5.90
   0  -5 -55    4.60    7.60
  -5   5 -55    2.80    7.10
   8  -3 -55    1.90    6.80
  -3  -5 -55    1.20    6.50
  -6  -5 -55   -0.80    9.50
  11  -6 -55   -7.80    4.80
   5 -11  55    8.70   10.00
  -6  -2 -55    1.30    6.30
   8  -6 -55    0.50    7.20
   1   5 -55    4.10    8.00
  -6   1 -55    1.00    5.80
   5  -6 -55   -5.70    5.40
  -6   4 -55    1.50    6.50
   2  -6 -55   -7.10    4.80
   4   2 -55  -14.20    5.30
   7  -1 -55    0.70    6.80
  -1  -6 -55    6.40    8.60
  -6   7 -55    3.10    9.20
  10  -4 -55    2.50    6.80
  -4  -6 -55    1.00    6.70
   6 -10  55   -3.80    7.00
  13  -7 -55    9.80    7.60
  -7  -6 -55   15.20   10.00
   6 -13  55    5.50   12.60
  10  -7 -55    8.40    7.60
  -7  -3 -55   -3.40    6.40
   3 -10  55    4.60   10.50
   7  -7 -55   -9.50    5.70
  -7   0 -55    3.10    6.30
   3   4 -55   10.00    9.00
  -7   3 -55   20.60    9.10
   4  -7 -55   19.80    8.90
  -7   6 -55   -6.30    6.40
   1  -7 -55    6.40    7.10
   6   1 -55    5.80    6.80
   9  -2 -55   -1.80    6.40
  -2  -7 -55    0.70    6.30
  12  -5 -55   -0.50    6.20
  -5  -7 -55    0.70    7.90
   7 -12  55    9.30   10.20
  -8  -4 -55    2.20    7.80
  12  -8 -55   12.10    8.20
   4 -12  55   -0.50   10.40
  -8  -1 -55   -9.00    5.10
   9  -8 -55   -6.70    5.10
   1  -9  55   -7.40    7.80
  -8   2 -55    4.90    7.10
   6  -8 -55   -2.10    7.50
   5   3 -55  -13.90    5.50
  -8   5 -55   10.40    8.20
   3  -8 -55   -4.60    8.00
   0  -8 -55    0.70    6.40
   8   0 -55   -1.60    6.80
  11  -3 -55    8.50    8.20
  -3  -8 -55    7.80    9.10
   8 -11  55    8.20    8.60
  -9  -2 -55    7.70    7.20
  11  -9 -55   -0.80    6.70
   2 -11  55    0.30    7.20
  -9   1 -55    1.60    7.00
   8  -9 -55    7.50    8.70
  -1  -8  55    1.80    9.50
  -9   4 -55    5.70    7.20
   5  -9 -55   13.00    9.10
   2  -9 -55   -2.40    6.40
   7   2 -55  -11.30    6.50
  -1  -9 -55   -0.40    7.70
  10  -1 -55   -2.30    6.70
   9 -10  55   -6.60    5.40
  10 -10 -55   10.10    7.80
 -10   0 -55   -4.90    5.90
   0 -10  55   12.30   11.30
 -10   3 -55    7.10    7.70
   7 -10 -55   12.30   10.20
  -3  -7  55   10.20   11.50
   4 -10 -55   -3.90    6.40
   1 -10 -55    5.40    9.30
  10  -9  55   -1.90    6.10
  -2 -10 -55   18.30   10.40
  10 -12  55    7.20    8.90
   9 -11 -55    3.40    7.60
 -11   2 -55    7.00    6.20
  -2  -9  55    7.40   10.70
 -11   5 -55   -6.60    6.50
   6 -11 -55    2.20    8.10
  -5  -6  55   -5.30    8.00
   3 -11 -55    2.60    8.50
  11  -8  55    6.50    7.30
   0 -11 -55   -6.60    8.50
  11 -11  55    6.50    9.30
   8 -12 -55    4.30    8.30
  -4  -8  55    0.00   10.80
   5 -12 -55   -9.10    7.30
  -7  -5  55    2.70    9.00
  12  -7  55    4.90    7.00
   2 -12 -55    1.80   12.10
  12 -10  55   13.10    9.40
 -10  -2  55   14.70   10.00
   7 -13 -55   -4.40    7.30
  -6  -7  55   -3.80    9.70
  13  -6  55    4.20    6.50
   1   0 -56  676.03   31.20
   0  -1 -56  692.83   31.40
  -1   1 -56  624.14   30.50
  -2   0 -56  124.29   14.50
   0   2 -56  129.29   15.60
   2  -2 -56  126.99   14.70
  -2   3 -56  139.19   16.60
  -1  -2 -56  177.28   16.40
   3  -1 -56  172.08   16.70
  -3  -1 -56   51.89   11.60
   4  -3 -56   42.70   11.00
  -1   4 -56   59.09   12.50
   2   1 -56  139.59   15.90
   1  -3 -56  162.98   15.90
  -3   2 -56  137.19   15.80
   5  -2 -56  190.68   17.60
  -2  -3 -56  157.98   16.70
  -3   5 -56  154.68   18.50
  -4  -2 -56  103.19   13.90
  -2   6 -56   91.49   17.20
   6  -4 -56   97.19   14.00
   3  -4 -56   39.60   10.80
  -4   1 -56   60.89   11.90
   1   3 -56   75.69   15.00
   4   0 -56   11.50    7.40
   0  -4 -56   17.20    8.60
  -4   4 -56   19.50    9.80
   7  -3 -56   47.80   12.00
  -3  -4 -56   16.20    9.30
  -4   7 -56   33.30   13.00
  -5  -3 -56   34.50   11.20
   8  -5 -56   44.60   11.10
   0   5 -56  146.49   18.60
   5  -5 -56   89.89   13.90
  -5   0 -56  115.79   14.40
   3   2 -56  148.59   17.50
  -5   3 -56  169.28   17.20
   2  -5 -56  170.48   17.40
  -5   6 -56  220.78   21.60
   6  -1 -56  260.27   20.60
  -1  -5 -56  259.47   21.00
   9  -4 -56    2.30    6.00
  -4  -5 -56    8.70    7.40
  10  -6 -56   39.10   11.10
  -6  -4 -56   58.19   13.40
   4 -10  56   63.89   16.10
  -6  -1 -56  296.97   21.60
   7  -6 -56  309.97   22.30
   2   4 -56  106.69   19.10
   4  -6 -56   78.99   15.00
  -6   2 -56   79.29   13.10
   5   1 -56  244.68   21.40
  -6   5 -56  267.87   21.80
   1  -6 -56  267.37   21.80
   8  -2 -56  180.28   18.20
  -2  -6 -56  202.28   19.60
  -5  -6 -56   -2.50    6.90
  11  -5 -56   13.20    7.90
   6 -11  56   11.40   11.40
  12  -7 -56   46.10   11.80
  -7  -5 -56   43.20   12.80
   5 -12  56   81.39   20.00
  -7  -2 -56   84.69   14.00
   9  -7 -56  118.09   15.50
   2  -9  56  105.49   19.90
   6  -7 -56  275.47   22.10
  -7   1 -56  300.57   21.40
   3  -7 -56   24.40   10.30
   4   3 -56   38.00   13.40
  -7   4 -56   22.10   10.20
   7   0 -56   76.29   15.30
   0  -7 -56   73.19   22.80
  -7   7 -56   77.49   16.90
  10  -3 -56   29.30    9.80
  -3  -7 -56   35.40   12.70
   7 -10  56   39.80   13.70
  11  -8 -56   -0.40    6.20
  -8  -3 -56   -6.60    5.90
   3 -11  56   26.70   14.20
  -8   0 -56    0.40    6.70
   8  -8 -56    5.10    7.80
   5  -8 -56   31.50   14.60
  -8   3 -56   34.60   10.70
   6   2 -56  152.98   18.70
  -8   6 -56  128.39   17.60
   2  -8 -56  153.18   18.70
  -1  -8 -56   42.90   13.20
   9  -1 -56   13.40    9.20
  12  -4 -56   14.80    8.90
  -4  -8 -56   14.10    9.50
   8 -12  56   15.50   11.20
  -9  -1 -56   32.20   10.20
  10  -9 -56   28.50   10.60
   1 -10  56   19.40   12.40
   7  -9 -56  106.29   17.60
  -9   2 -56  113.79   15.00
   4  -9 -56   33.10   11.60
  -9   5 -56   17.40    9.00
   1  -9 -56   46.10   14.00
   8   1 -56   46.00   13.00
  -2  -9 -56   38.20   14.10
  11  -2 -56   32.30   10.80
   9 -11  56   28.80   12.10
 -10  -2 -56   21.80    9.50
  12 -10 -56   25.00   10.70
   2 -12  56   31.10   24.90
 -10   1 -56   47.10   11.90
   9 -10 -56   26.90   11.20
  -1  -9  56   42.10   15.10
   6 -10 -56   46.90   13.90
 -10   4 -56   34.80   10.90
   3 -10 -56   30.90   11.80
   0 -10 -56    6.30    9.20
  10 -10  56   -6.70    5.30
  11 -11 -56    3.40    7.20
 -11   0 -56   -2.30    6.00
   0 -11  56   22.50   14.50
   8 -11 -56    5.10    9.00
 -11   3 -56   -1.40    6.50
  -3  -8  56    1.60    9.00
   5 -11 -56    2.60    7.70
  -6  -5  56    0.90    7.90
   2 -11 -56   41.20   14.60
  11  -9  56   47.20   13.00
 -12   2 -56   25.90    9.40
  10 -12 -56   13.30   10.70
  -2 -10  56   49.00   18.00
   7 -12 -56   32.30   12.10
  -5  -7  56   22.70   11.60
   4 -12 -56   10.30   11.50
  12  -8  56   17.00    8.70
  -8  -4  56   29.60   12.10
   0   0 -57    1.60    6.10
   2  -1 -57    2.70    6.40
  -1  -1 -57   -6.60    5.90
  -1   2 -57   -3.10    6.30
   1   1 -57    2.10    5.90
  -2   1 -57    2.30    5.80
   1  -2 -57    0.40    6.60
   4  -2 -57   38.00   10.50
  -2  -2 -57   30.90    9.60
  -2   4 -57   30.60   10.00
   3  -3 -57    6.60    7.10
  -3   0 -57    4.60    6.40
   0   3 -57    3.20    7.10
  -3   3 -57   -3.30    5.50
   0  -3 -57    0.90    6.40
   3   0 -57   -1.20    5.80
  -3  -3 -57   54.59   12.40
   6  -3 -57   35.30   10.30
  -3   6 -57   26.40   11.80
  -4  -1 -57   16.00    8.40
  -1   5 -57   -1.90    6.20
   5  -4 -57   16.10    8.50
   2  -4 -57   40.20   10.80
  -4   2 -57   63.79   13.00
   2   2 -57   17.90   10.20
  -1  -4 -57   98.49   14.80
   5  -1 -57   78.69   14.50
  -4   5 -57   91.09   14.90
   8  -4 -57   13.50    8.00
  -4  -4 -57    8.10    7.50
  -5  -2 -57    1.70    6.50
   7  -5 -57   -9.20    5.50
   4  -5 -57    3.80    6.80
  -5   1 -57    7.30    7.00
   1   4 -57   17.30    9.30
  -5   4 -57   90.99   14.60
   4   1 -57   88.49   14.30
   1  -5 -57   84.69   13.80
   7  -2 -57  144.29   16.50
  -5   7 -57  110.29   17.90
  -2  -5 -57  140.19   16.90
  -5  -5 -57   -4.50    9.70
  10  -5 -57   19.50    7.80
   5 -10  57   -4.20    6.30
   9  -6 -57   -2.20    6.70
  -6  -3 -57    1.40    6.40
   3  -9  57  -10.20    6.80
  -6   0 -57   13.10    7.60
   6  -6 -57   -3.70    5.90
   0   6 -57   -4.70    7.90
   3  -6 -57   36.10   10.80
   3   3 -57   53.59   13.40
  -6   3 -57   57.39   13.10
  -6   6 -57  -10.40    5.90
   6   0 -57    5.70    6.70
   0  -6 -57   -4.50    6.30
  -3  -6 -57   -2.60    6.90
   9  -3 -57   -3.30    5.80
  12  -6 -57    0.80    6.70
  -6  -6 -57   10.50    9.90
   6 -12  57   28.10   14.70
  11  -7 -57    7.70    7.90
  -7  -4 -57    9.20   10.40
   4 -11  57    7.30   11.40
  -7  -1 -57   23.00    9.50
   8  -7 -57   31.10   10.40
   5  -7 -57   15.20    8.80
  -7   2 -57    0.00    6.40
   2   5 -57    5.40    7.90
   2  -7 -57   97.39   15.40
  -7   5 -57  162.28   18.00
   5   2 -57  142.59   18.10
  -1  -7 -57   10.50    8.90
   8  -1 -57   -7.10    5.50
  11  -4 -57  -10.40    5.90
  -4  -7 -57   -9.50    5.50
   7 -11  57    0.60   10.10
  -8  -2 -57   -7.00    5.90
  10  -8 -57   -9.60    9.70
   2 -10  57   -0.80    8.00
  -8   1 -57   27.90   10.40
   7  -8 -57   21.30   16.20
  -8   4 -57   11.80    7.90
   4  -8 -57   -0.30    7.30
   4   4 -57   -1.10    8.20
   1  -8 -57   -1.00    7.60
   7   1 -57  -10.40    6.30
  10  -2 -57    5.80    8.40
  -2  -8 -57    2.30    8.10
   8 -10  57   -4.40    7.80
  -9  -3 -57    8.70    7.80
  12  -9 -57   -3.90    5.50
   3 -12  57    3.00    9.20
   9  -9 -57   -2.50    6.80
  -9   0 -57    8.80    7.80
   0  -9  57   14.00   10.40
  -9   3 -57    1.50    5.90
   6  -9 -57    1.60    8.00
  -9   6 -57   -3.90    7.10
   3  -9 -57   -5.00    6.10
   6   3 -57   -3.50    7.30
   0  -9 -57    6.90    8.50
   9   0 -57   -5.60    6.50
   9  -9  57   -2.90    5.90
  -3  -9 -57   -9.40    6.30
  12  -3 -57   13.00    9.20
   9 -12  57    0.60    8.20
 -10  -1 -57    2.70    6.80
  11 -10 -57   -3.80    7.10
   1 -11  57    6.30   10.00
   8 -10 -57   -6.50    6.90
 -10   2 -57    5.20    7.10
  -2  -8  57   -1.20    6.40
   5 -10 -57    5.80    8.40
 -10   5 -57   -1.00    7.40
   2 -10 -57   11.10    9.10
  -1 -10 -57   15.20   10.70
  10 -11  57    9.70    9.10
 -11   1 -57    7.50    7.50
  10 -11 -57   -9.00    6.70
  -1 -10  57    4.90   10.70
 -11   4 -57    1.90    6.90
   7 -11 -57   -6.60    6.50
  -4  -7  57    0.80    8.60
   4 -11 -57   -1.40    7.30
   1 -11 -57   -2.70    7.50
  11 -10  57    2.60    7.60
   9 -12 -57   -5.20    6.90
 -12   3 -57    1.70    6.90
  -3  -9  57    1.40    8.20
   6 -12 -57   -3.70    8.90
  -6  -6  57   11.50   10.30
   3 -12 -57    0.50   10.20
  -9  -3  57    9.20    8.60
  12  -9  57    5.40    7.00
  -1   0 -58  548.75   28.20
   1  -1 -58  517.15   27.80
   0   1 -58  531.45   28.60
  -2  -1 -58   54.79   11.40
   3  -2 -58   42.10   10.20
  -1   3 -58   41.90   12.20
   2   0 -58  113.69   14.60
   0  -2 -58   88.79   13.50
  -2   2 -58   73.09   14.10
  -3  -2 -58    6.70    6.80
   5  -3 -58   25.00    9.20
  -2   5 -58   18.20    9.80
   2  -3 -58   52.69   11.30
   1   2 -58   64.79   13.70
  -3   1 -58   41.10   11.10
  -3   4 -58   90.19   16.30
  -1  -3 -58  119.29   15.30
   4  -1 -58   66.09   13.10
   7  -4 -58   50.69   12.50
  -3   7 -58   86.59   18.80
  -4  -3 -58   65.19   13.30
   4  -4 -58   31.90   10.20
  -4   0 -58   42.70   11.00
   0   4 -58   27.80   11.90
   3   1 -58  106.69   15.00
   1  -4 -58  115.59   15.10
  -4   3 -58  105.39   15.20
  -4   6 -58  171.38   19.90
   6  -2 -58  221.28   19.30
  -2  -4 -58  192.38   18.80
   9  -5 -58   10.20    7.70
  -5  -4 -58    0.60    6.60
   6  -5 -58  115.59   14.90
  -1   6 -58  123.19   18.30
  -5  -1 -58  120.59   15.10
   2   3 -58    7.90    8.60
   3  -5 -58    4.90    7.00
  -5   2 -58   18.30    8.30
  -5   5 -58   -8.10    5.70
   0  -5 -58    5.20    7.20
   5   0 -58   15.30    9.30
   8  -3 -58   48.60   11.90
  -3  -5 -58   16.80    9.50
  11  -6 -58   20.60    9.10
  -6  -5 -58   11.20    8.00
   5 -11  58   25.10   12.40
  -6  -2 -58  155.28   16.90
   8  -6 -58  114.09   15.70
   5  -6 -58  121.39   16.10
   1   5 -58  120.09   18.00
  -6   1 -58  125.59   15.30
  -6   4 -58  181.08   18.80
   4   2 -58  191.48   19.90
   2  -6 -58  205.68   20.00
   7  -1 -58  244.18   21.00
  -1  -6 -58  290.17   23.30
  -6   7 -58  230.28   23.20
  10  -4 -58   -1.50    6.20
  -4  -6 -58   -1.30    7.80
   6 -10  58  -11.50    6.50
  10  -7 -58   36.40   10.50
  -7  -3 -58   36.10   10.40
   3 -10  58   48.80   15.80
  -7   0 -58  149.69   16.50
   7  -7 -58  181.58   18.70
   3   4 -58   57.59   13.90
  -7   3 -58   75.39   14.10
   4  -7 -58   62.79   13.30
   1  -7 -58  253.17   24.90
  -7   6 -58  294.57   23.50
   6   1 -58  208.38   21.20
  -2  -7 -58   73.69   16.20
   9  -2 -58   67.79   14.30
  12  -5 -58   29.20   10.70
  -5  -7 -58   17.50    9.60
   7 -12  58    1.20    9.40
  -8  -4 -58   18.50    9.00
  12  -8 -58   15.00    9.00
   4 -12  58   12.10   12.80
   9  -8 -58    8.50    8.30
  -8  -1 -58   12.20    8.20
   1  -9  58   24.50   12.50
   6  -8 -58  131.79   17.20
  -8   2 -58  123.09   15.50
   3  -8 -58   11.30    9.30
   5   3 -58    8.00    8.50
  -8   5 -58   17.70    9.40
   8   0 -58   22.30   10.20
   0  -8 -58   29.70   12.30
  -3  -8 -58   10.80    9.10
  11  -3 -58   24.60   10.10
   8 -11  58   42.70   16.00
  11  -9 -58   11.10    8.20
  -9  -2 -58   14.40    8.60
   2 -11  58   -0.30   10.70
  -9   1 -58   18.50    9.90
   8  -9 -58    2.60    8.30
  -1  -8  58   43.10   14.60
  -9   4 -58    8.30    7.50
   5  -9 -58   -5.40    7.10
   7   2 -58   75.79   16.80
   2  -9 -58   91.79   17.40
  10  -1 -58    2.00    8.20
  -1  -9 -58   24.50   10.90
   9 -10  58   26.00   12.70
 -10   0 -58   64.59   14.20
  10 -10 -58   65.39   15.20
   0 -10  58   40.40   15.30
   7 -10 -58   33.50   11.40
 -10   3 -58   50.39   12.40
  -3  -7  58   33.50   12.60
   4 -10 -58   13.80   11.00
 -10   6 -58   13.40    8.70
   1 -10 -58   17.30   10.60
  10  -9  58   -6.80    6.20
   9 -11 -58    0.60    9.10
 -11   2 -58   -1.50    7.50
  -2  -9  58    2.00    8.90
 -11   5 -58    9.30    8.20
   6 -11 -58   11.10    9.00
  -5  -6  58   22.70   13.40
   3 -11 -58    8.80    9.70
 -12   4 -58    5.20    8.00
   8 -12 -58   10.60   10.60
  -4  -8  58    0.00    9.30
   5 -12 -58   23.40   12.20
  -7  -5  58   42.60   15.50
  -1   1 -59   -3.30    7.10
   0  -1 -59    0.70    6.20
   1   0 -59    0.30    6.10
  -2   0 -59  -11.90    4.80
   2  -2 -59   -2.90    6.30
   0   2 -59   -9.80    6.00
   3  -1 -59   31.90   10.00
  -1  -2 -59   45.90   11.50
  -2   3 -59   57.49   13.30
  -3  -1 -59    2.70    6.70
   4  -3 -59    6.60    6.10
  -1   4 -59   12.20    9.00
   1  -3 -59   26.60    9.50
   2   1 -59   30.90    9.70
  -3   2 -59   30.60   10.60
  -3   5 -59  327.57   25.30
   5  -2 -59  309.27   22.30
  -2  -3 -59  326.67   23.10
  -4  -2 -59    5.40    7.60
  -2   6 -59   14.50   10.70
   6  -4 -59   10.00    7.10
   3  -4 -59   14.90    8.60
   1   3 -59   -0.90    8.50
  -4   1 -59    4.80    6.50
   4   0 -59   -3.10    7.10
   0  -4 -59   -2.40    5.40
  -4   4 -59    4.40    7.90
  -4   7 -59   -6.00    7.00
   7  -3 -59   25.00    9.70
  -3  -4 -59    5.30    7.40
  -5  -3 -59    3.40    7.00
   8  -5 -59    0.60    6.80
  -5   0 -59    3.60    6.10
   5  -5 -59   -6.20    4.60
   0   5 -59   -8.40    5.90
  -5   3 -59  346.77   23.70
   2  -5 -59  331.37   23.70
   3   2 -59  309.97   24.30
  -5   6 -59  168.68   19.50
   6  -1 -59  232.38   20.10
  -1  -5 -59  165.78   18.50
   9  -4 -59   24.20    9.00
  -4  -5 -59    7.50   12.60
  10  -6 -59    1.90    7.70
  -6  -4 -59   10.10   12.40
   4 -10  59    0.60    8.00
   7  -6 -59    3.70    6.90
  -6  -1 -59    4.50    7.40
   2   4 -59   -2.60    6.60
   4  -6 -59    3.10    7.00
  -6   2 -59   13.40    7.30
   5   1 -59  171.78   19.00
   1  -6 -59  165.68   18.30
  -6   5 -59  213.38   20.40
  -2  -6 -59   -6.10    7.20
   8  -2 -59    6.20    7.60
  11  -5 -59    1.80    6.90
  -5  -6 -59   16.50   10.30
   6 -11  59   13.60   10.10
  -7  -5 -59   11.30    9.00
  12  -7 -59    1.90    7.10
   5 -12  59    0.80   10.40
  -7  -2 -59    0.30    6.90
   9  -7 -59    9.40    8.50
   2  -9  59   11.70    9.70
  -7   1 -59   -8.10    5.40
   6  -7 -59  -11.10    5.70
   3  -7 -59   -5.10    8.00
   4   3 -59    0.90    8.00
  -7   4 -59   17.80   10.20
  -7   7 -59    3.20    7.50
   0  -7 -59   -6.30    7.10
   7   0 -59   -7.60    5.70
  10  -3 -59    8.00    8.10
  -3  -7 -59    2.30    7.90
   7 -10  59    5.40    8.10
  11  -8 -59   14.50    9.00
  -8  -3 -59   10.00    8.60
   3 -11  59   -9.90    8.10
  -8   0 -59    8.50    7.50
   8  -8 -59    7.20    7.10
   5  -8 -59   14.60    9.50
  -8   3 -59   19.50    9.10
   2  -8 -59    0.20    6.70
  -8   6 -59   -2.40    7.50
   6   2 -59    6.50    8.20
  -1  -8 -59  -10.10    6.20
   9  -1 -59   -4.80    6.80
  -4  -8 -59   12.70    9.00
  12  -4 -59    5.60    8.00
   8 -12  59   -3.40    9.00
  10  -9 -59   14.50    9.60
  -9  -1 -59    0.20    7.10
   1 -10  59   -5.80    8.00
   7  -9 -59   19.30    9.70
  -9   2 -59    4.20    7.40
  -9   5 -59   34.70   11.00
   4  -9 -59   34.60   12.40
   1  -9 -59   -0.70    7.60
   8   1 -59   12.10   10.30
  -2  -9 -59   13.40    9.20
  11  -2 -59   27.30   11.80
   9 -11  59    6.70    8.80
   9 -10 -59    2.10    7.70
 -10   1 -59   -3.50    6.90
  -1  -9  59   27.90   12.20
 -10   4 -59    7.40    7.90
   6 -10 -59   -8.50    5.20
   3 -10 -59   12.40   10.70
   0 -10 -59   10.30    9.60
  10 -10  59    0.70    7.20
 -11   3 -59    1.60    7.20
   8 -11 -59   -2.60    8.30
  -3  -8  59    4.70    8.90
   5 -11 -59    5.20    9.40
  -6  -5  59    2.20    8.80
   2 -11 -59   17.40   11.10
  11  -9  59   20.80   11.30
   7 -12 -59   18.90   11.00
  -5  -7  59    0.90    9.70
   4 -12 -59    4.60   10.50
  12  -8  59    0.90    6.00
  -8  -4  59   -5.70    8.10
   0   0 -60 1002.30   40.10
   2  -1 -60  155.78   17.00
  -1   2 -60  130.29   16.30
  -1  -1 -60  143.99   16.40
   1   1 -60  141.89   16.60
  -2   1 -60  146.19   16.70
   1  -2 -60  140.89   16.30
  -2   4 -60   49.00   13.50
  -2  -2 -60   60.19   12.80
   4  -2 -60   50.89   11.40
   3  -3 -60  111.59   15.20
  -3   0 -60   75.29   14.40
   0   3 -60  104.19   15.70
   3   0 -60  128.29   16.10
   0  -3 -60  148.89   16.30
  -3   3 -60  126.99   16.50
  -3  -3 -60   81.89   15.20
   6  -3 -60  112.99   15.30
  -4  -1 -60   31.40   10.00
   5  -4 -60   37.10   11.60
  -1   5 -60   33.20   13.00
   2  -4 -60   35.90   10.10
  -4   2 -60   26.70    9.60
   2   2 -60   36.20   11.00
  -1  -4 -60   58.99   13.30
   5  -1 -60   41.50   12.20
  -4   5 -60   43.80   13.30
   8  -4 -60   -6.30    5.70
  -4  -4 -60    4.30    7.80
  -5  -2 -60  270.77   21.40
   7  -5 -60  219.38   20.00
   4  -5 -60   34.20   10.60
  -5   1 -60   48.10   12.50
   1   4 -60   31.80   12.00
   4   1 -60   43.80   11.90
  -5   4 -60   64.29   14.20
   1  -5 -60   55.39   13.10
   7  -2 -60  109.29   15.50
  -2  -5 -60  100.19   16.10
  -5   7 -60  109.39   18.20
  -5  -5 -60    3.40    7.70
  10  -5 -60   26.60    9.20
   5 -10  60   14.70   12.40
   9  -6 -60  151.88   17.80
  -6  -3 -60  133.29   16.50
   6  -6 -60  174.28   18.20
   0   6 -60  220.68   45.60
  -6   0 -60  191.78   18.20
   3   3 -60  121.29   17.50
  -6   3 -60  106.69   17.30
   3  -6 -60  128.39   16.50
   6   0 -60  130.49   17.30
  -6   6 -60  105.89   17.40
   0  -6 -60  115.69   23.50
  -3  -6 -60   57.29   14.40
   9  -3 -60   11.00    8.60
  -6  -6 -60   49.10   14.00
  12  -6 -60   43.70   12.20
   6 -12  60   45.90   18.00
  -7  -4 -60   12.00    8.80
   4 -11  60    1.80   10.40
   8  -7 -60   42.10   12.60
  -7  -1 -60   54.89   13.30
   2   5 -60  250.37   30.80
   5  -7 -60  252.97   27.10
  -7   2 -60  286.37   22.00
   5   2 -60  105.89   17.00
  -7   5 -60  103.09   16.00
   2  -7 -60   92.29   16.80
  -1  -7 -60   69.59   15.00
   8  -1 -60  106.79   16.30
  11  -4 -60   43.60   12.20
  -4  -7 -60   21.90   11.00
   7 -11  60   19.60   11.20
  10  -8 -60    1.80    6.70
  -8  -2 -60    3.50    7.90
   2 -10  60   -0.60   10.20
   7  -8 -60   47.20   13.70
  -8   1 -60   61.19   13.80
   4   4 -60   -4.50   11.70
   4  -8 -60    2.00    7.70
  -8   4 -60  -10.80    6.20
   1  -8 -60   56.79   15.20
   7   1 -60  110.89   17.30
  -8   7 -60   93.89   18.30
  10  -2 -60   13.60    9.40
  -2  -8 -60   40.10   12.50
   8 -10  60   56.69   16.20
  -9   0 -60  130.19   16.70
   9  -9 -60  123.09   17.40
   0  -9  60  102.79   22.00
  -9   3 -60  151.58   17.30
   6  -9 -60  158.78   19.60
  -9   6 -60   79.29   16.70
   3  -9 -60   45.70   13.90
   0  -9 -60   72.39   17.00
   9   0 -60   65.39   15.70
  11 -10 -60    0.80    7.60
 -10  -1 -60   17.40    8.50
   1 -11  60  -11.20    9.40
   8 -10 -60    3.80    8.90
 -10   2 -60   14.90    8.10
  -2  -8  60   -9.10    7.90
 -10   5 -60   12.80    9.40
   5 -10 -60   23.20   11.80
   2 -10 -60   16.50   11.30
  11  -1 -60   21.90   10.40
  -1 -10 -60   21.00   12.20
  10 -11  60    2.50    8.30
  10 -11 -60    5.10    8.90
 -11   1 -60   11.40    8.50
  -1 -10  60   -7.40   11.30
 -11   4 -60   11.00    9.00
   7 -11 -60   30.20   12.60
  -4  -7  60   25.30   13.10
   4 -11 -60   20.50   11.80
   1 -11 -60   12.20   10.40
  11 -10  60   21.80   11.00
   6 -12 -60   54.39   16.10
  -6  -6  60   23.70   11.80
   0   1 -61    3.20    7.30
  -1   0 -61    2.30    6.70
   1  -1 -61   -3.20    6.30
  -1   3 -61   -0.60    7.70
   3  -2 -61    7.70    7.10
  -2  -1 -61   11.10    8.00
   2   0 -61    3.80    7.90
   0  -2 -61    7.20    7.40
  -2   2 -61    7.00    6.30
  -2   5 -61   43.90   13.10
   5  -3 -61   85.99   13.90
  -3  -2 -61   73.09   14.00
   1   2 -61   10.70    8.50
   2  -3 -61    9.00    7.40
  -3   1 -61   15.80    9.10
  -3   4 -61   77.29   14.80
   4  -1 -61   89.09   14.30
  -1  -3 -61   59.19   12.10
   7  -4 -61    3.90    6.80
  -4  -3 -61    1.50    7.10
  -3   7 -61   -7.40    7.30
   4  -4 -61    1.20    6.70
  -4   0 -61    3.30    7.00
   0   4 -61   -6.00    6.40
   3   1 -61  104.29   15.60
   1  -4 -61   76.59   13.70
  -4   3 -61   72.99   14.70
   6  -2 -61   13.10    7.40
  -2  -4 -61   10.60    7.90
  -4   6 -61   -2.70    6.70
   9  -5 -61    6.20    7.80
  -5  -1 -61    1.80    7.10
  -1   6 -61   -8.60    7.00
   6  -5 -61    0.00    6.50
  -5   2 -61   69.29   13.90
   2   3 -61   47.10   13.10
   3  -5 -61   71.29   13.90
   5   0 -61   -2.00    7.10
  -5   5 -61    5.50    8.60
   0  -5 -61   11.80    8.90
   8  -3 -61   12.90    8.30
  -3  -5 -61   16.50    9.80
  -6  -5 -61    5.50    8.30
  11  -6 -61    4.50    6.50
   5 -11  61    0.20    8.50
   8  -6 -61   -1.40    6.40
  -6  -2 -61    9.10    9.00
  -6   1 -61    4.40    6.60
   5  -6 -61   -4.90    6.10
   1   5 -61   -3.40    6.70
   4   2 -61    0.70    7.60
   2  -6 -61   -4.00    7.00
  -6   4 -61    8.70    8.30
  -6   7 -61   49.90   14.50
  -1  -6 -61   36.10   11.20
   7  -1 -61   43.70   12.50
  -4  -6 -61   -5.50    8.30
  10  -4 -61    9.00    8.50
   6 -10  61    7.70    9.60
  -7  -3 -61   -2.10    6.50
  10  -7 -61   -4.70    6.40
   3 -10  61    0.10    9.30
  -7   0 -61   -3.40    6.40
   7  -7 -61   -2.60   12.20
  -7   3 -61   -8.90    6.70
   3   4 -61    1.80    8.60
   4  -7 -61   -2.00    7.00
  -7   6 -61   43.00   13.60
   1  -7 -61   36.70   11.70
   6   1 -61   56.59   13.90
   9  -2 -61   11.90    9.50
  -2  -7 -61   -9.00    5.90
  12  -5 -61   -0.30    6.30
  -5  -7 -61    9.00    9.10
   7 -12  61   19.30   13.10
   4 -12  61    3.30   14.90
  -8  -1 -61    7.30    7.60
   9  -8 -61   12.60    8.20
   1  -9  61   -1.80    8.20
   6  -8 -61   14.20    9.50
  -8   2 -61    3.40    7.70
  -8   5 -61   21.30   10.50
   3  -8 -61   11.70    8.70
   5   3 -61   20.00   10.80
   0  -8 -61   -2.80    7.30
   8   0 -61    1.50    8.20
  -3  -8 -61   12.90   10.50
  11  -3 -61    7.50    8.40
   8 -11  61   21.30   12.40
  11  -9 -61    3.10    7.70
  -9  -2 -61    8.60    9.20
   2 -11  61   -7.50    9.80
  -9   1 -61  -15.90    5.30
   8  -9 -61    3.30    7.30
  -1  -8  61   14.70   10.60
   5  -9 -61    7.50    7.70
  -9   4 -61    4.90    6.90
   2  -9 -61    3.70    8.60
  10  -1 -61   -6.40    6.80
  -1  -9 -61    9.00    8.60
   9 -10  61   -4.30    6.20
 -10   0 -61   -3.40    6.90
  10 -10 -61    2.80    7.40
   0 -10  61   10.40   11.70
   7 -10 -61    4.70    8.80
 -10   3 -61    0.70    6.40
  -3  -7  61    1.90    7.90
 -10   6 -61    0.90    7.90
   4 -10 -61   -6.70    5.90
   1 -10 -61    6.80    9.00
  10  -9  61   -5.20    6.00
   9 -11 -61    6.10    9.00
 -11   2 -61    7.60    8.60
  -2  -9  61   18.50   13.60
 -11   5 -61    9.00    8.80
   6 -11 -61   12.60   10.30
  -5  -6  61    3.40   10.20
   3 -11 -61   11.60   10.10
  -4  -8  61  -10.20    8.40
   5 -12 -61    1.50   12.40
  -7  -5  61   -6.30    8.00
  -1   1 -62  131.09   16.30
   0  -1 -62  138.89   16.30
   1   0 -62  171.78   17.60
   2  -2 -62   22.40    9.20
  -2   0 -62   38.00   10.80
   0   2 -62   40.70   12.70
  -2   3 -62   15.10   10.00
  -1  -2 -62   15.70    9.00
   3  -1 -62    4.90    7.20
   4  -3 -62   47.70   12.50
  -1   4 -62   47.50   13.10
  -3  -1 -62   50.49   12.50
   2   1 -62    4.90    8.20
   1  -3 -62   -0.80    7.00
  -3   2 -62   -0.40    6.80
  -3   5 -62   48.00   14.50
   5  -2 -62   43.90   10.80
  -2  -3 -62   39.40   11.50
  -4  -2 -62   99.39   15.00
  -2   6 -62   97.69   20.60
   6  -4 -62  110.29   15.50
   3  -4 -62   30.90    9.80
   1   3 -62   46.50   13.80
  -4   1 -62   60.89   13.50
   4   0 -62  346.97   24.50
   0  -4 -62  299.17   23.00
  -4   4 -62  343.77   25.70
  -4   7 -62   21.80   12.40
  -3  -4 -62   35.20   12.00
   7  -3 -62   24.50    9.90
  -5  -3 -62  130.69   16.70
   8  -5 -62  121.39   16.40
   5  -5 -62   23.20    9.40
   0   5 -62   20.40   11.60
  -5   0 -62    6.80    7.60
  -5   3 -62   33.20   11.30
   2  -5 -62   19.20   10.00
   3   2 -62   28.60   11.70
  -5   6 -62   51.59   14.90
  -1  -5 -62   49.60   13.40
   6  -1 -62   44.00   11.60
  -4  -5 -62   -4.40    6.60
   9  -4 -62    8.40    8.20
  -6  -4 -62    9.20    8.10
  10  -6 -62    6.90   11.00
   4 -10  62   -2.50    9.20
   7  -6 -62   94.79   15.20
  -6  -1 -62   90.49   14.90
  -6   2 -62   94.69   14.90
   4  -6 -62  109.99   16.30
   2   4 -62  107.79   19.70
  -6   5 -62   34.50   10.80
   1  -6 -62   65.39   20.30
   5   1 -62   35.80   12.50
  -2  -6 -62   67.99   14.70
   8  -2 -62   32.10   11.00
  11  -5 -62   63.29   13.90
  -5  -6 -62   53.69   13.90
   6 -11  62   22.00   11.90
  12  -7 -62   -5.70    5.90
  -7  -5 -62    5.50    8.10
   5 -12  62  -10.80   16.00
  -7  -2 -62   30.00   11.00
   9  -7 -62   14.20    9.90
   2  -9  62   14.10   12.20
  -7   1 -62   95.29   16.20
   6  -7 -62  101.19   15.80
   1   6 -62   87.29   18.00
  -7   4 -62   44.50   13.80
   4   3 -62   22.30   10.80
   3  -7 -62   31.50   11.70
  -7   7 -62  110.19   18.20
   0  -7 -62  111.29   17.40
   7   0 -62  102.99   16.80
  -3  -7 -62   48.50   14.10
  10  -3 -62    6.50    9.20
   7 -10  62   12.70   11.00
  -8  -3 -62   21.20    9.80
  11  -8 -62   18.60    9.50
   3 -11  62    6.50   10.00
   8  -8 -62   82.49   15.70
  -8   0 -62  119.29   16.20
  -8   3 -62  136.09   17.20
   5  -8 -62  139.99   18.40
   3   5 -62   88.19   18.60
   2  -8 -62   59.79   15.00
  -8   6 -62   75.99   18.00
   6   2 -62   70.09   16.50
   9  -1 -62   28.20   11.00
  -1  -8 -62   27.80   11.60
  10  -9 -62   -0.60    7.30
  -9  -1 -62    2.50    7.00
   1 -10  62   -0.20   10.10
   7  -9 -62   15.20   10.00
  -9   2 -62   36.10   11.50
  -9   5 -62   -2.70    7.10
   4  -9 -62   -3.00    7.70
   1  -9 -62   25.70   11.20
  11  -2 -62   24.40   12.70
  -2  -9 -62   19.40   10.10
   9 -11  62   -0.60    8.70
   9 -10 -62    8.70    9.70
 -10   1 -62   -2.50    7.20
  -1  -9  62   13.20   11.10
 -10   4 -62   -0.90    6.70
   6 -10 -62   -0.50    7.90
   3 -10 -62   21.80   11.20
   0 -10 -62    0.20    9.30
  10   0 -62   26.60   13.00
  10 -10  62   34.70   13.40
   8 -11 -62   51.39   14.70
 -11   3 -62   20.00   10.60
  -3  -8  62   44.00   16.00
   5 -11 -62   58.99   16.00
   2 -11 -62    2.60    8.70
  11  -9  62    7.90    9.20
   7 -12 -62  -10.90    6.90
  -5  -7  62   -8.80    7.90
   0   0 -63   -0.40    6.40
   2  -1 -63   25.40    9.80
  -1  -1 -63   21.10   10.00
  -1   2 -63   31.80   10.50
  -2   1 -63   10.70    8.90
   1   1 -63   21.20    9.50
   1  -2 -63   15.50    8.60
  -2   4 -63  154.68   19.10
   4  -2 -63  110.19   15.70
  -2  -2 -63  164.58   18.00
   3  -3 -63    0.90    6.80
   0   3 -63    4.10    7.80
  -3   0 -63    2.20    6.70
   3   0 -63    6.00    7.40
   0  -3 -63   -4.60    6.00
  -3   3 -63   -9.20    5.80
  -3  -3 -63   29.20   11.20
  -3   6 -63   27.10   11.60
   6  -3 -63   32.40   11.30
  -1   5 -63    8.10    9.60
  -4  -1 -63    9.80    8.50
   5  -4 -63    6.60    7.10
  -4   2 -63  177.28   18.40
   2  -4 -63  161.98   17.60
   2   2 -63  169.78   19.40
  -4   5 -63   10.20    9.90
   5  -1 -63    1.70    5.70
  -1  -4 -63    7.50    8.00
   8  -4 -63   44.50   12.40
  -4  -4 -63   15.50   14.10
  -2   7 -63    2.60    8.10
  -5  -2 -63    0.80    6.90
   7  -5 -63    2.40    7.90
   4  -5 -63   18.60    9.10
  -5   1 -63   33.50   10.80
   1   4 -63   -5.40    8.50
   1  -5 -63    8.30    8.60
   4   1 -63   -7.30    5.40
  -5   4 -63   -7.80    6.10
  -2  -5 -63   17.40   11.00
  -5   7 -63    1.30    8.00
   7  -2 -63    1.00    6.70
  10  -5 -63    2.60    7.90
  -5  -5 -63    8.60    8.80
   5 -10  63   -5.40    7.50
  -6  -3 -63   21.60   15.70
   9  -6 -63   27.40   17.00
   6  -6 -63   11.10    9.50
  -6   0 -63    8.30    8.70
   0   6 -63   -5.40    8.30
  -6   3 -63   20.50    9.90
   3   3 -63   36.40   12.40
   6   0 -63    8.80    7.90
   0  -6 -63   -5.50    7.70
  -6   6 -63   -4.70    6.90
  -3  -6 -63   -1.30    7.60
   9  -3 -63    2.20    8.10
  11  -7 -63    9.60    8.70
  -7  -4 -63    6.50    9.00
   4 -11  63   -2.60    9.10
   8  -7 -63    0.00    6.30
  -7  -1 -63    3.10    7.60
   5  -7 -63   13.90    9.70
  -7   2 -63   -6.40    5.70
   2   5 -63    4.90    9.10
   5   2 -63   18.30   10.90
  -7   5 -63    6.20    8.00
   2  -7 -63    5.30    9.60
   8  -1 -63   14.40   10.00
  -1  -7 -63   13.80    9.30
  -4  -7 -63    5.30    8.50
  11  -4 -63   10.30    9.70
   7 -11  63   -1.10    9.30
  -8  -2 -63    4.50    8.40
  10  -8 -63   -2.50    7.20
   2 -10  63   -1.40    8.60
   7  -8 -63    5.50    8.40
  -8   1 -63    2.30    8.00
   4   4 -63   21.20   11.00
  -8   4 -63   26.80   11.30
   4  -8 -63   32.00   12.10
   7   1 -63   18.90   11.50
   1  -8 -63    7.10    9.60
  -8   7 -63   13.40   10.50
  10  -2 -63   18.30   10.60
  -2  -8 -63   15.20   11.00
   8 -10  63   14.40   12.00
   9  -9 -63    0.30    7.50
  -9   0 -63   -1.40    7.80
   0  -9  63   -2.10    8.70
  -9   3 -63   31.70   11.00
   6  -9 -63   11.00    9.10
   3  -9 -63   -0.20    7.60
  -9   6 -63    3.10    9.10
   6   3 -63   -4.90    7.70
   9   0 -63    1.70   13.30
   0  -9 -63   -9.80    6.80
 -10   2 -63    4.20    7.70
   8 -10 -63   -0.30    9.30
  -2  -8  63   -7.50    9.20
 -10   5 -63  -13.80    6.20
   5 -10 -63    5.30    8.40
   2 -10 -63   -9.10    5.80
   7 -11 -63   -3.80    7.10
 -11   4 -63   -1.30    7.40
  -4  -7  63  -10.10    9.20
   4 -11 -63    3.70    9.50
   0   1 -64  542.35   30.60
  -1   0 -64  464.15   28.10
   1  -1 -64  529.45   29.40
  -1   3 -64   74.69   15.10
   3  -2 -64   80.29   15.30
  -2  -1 -64   77.99   15.10
   2   0 -64   59.69   13.70
   0  -2 -64   60.19   12.70
  -2   2 -64   49.10   12.70
  -2   5 -64  127.19   18.20
  -3  -2 -64  118.89   16.20
   5  -3 -64  123.69   16.00
  -3   1 -64   86.99   16.50
   2  -3 -64   90.39   14.40
   1   2 -64   67.89   15.20
  -3   4 -64  212.28   21.30
  -1  -3 -64  210.78   19.80
   4  -1 -64  188.98   19.00
  -4  -3 -64   34.50   10.60
   7  -4 -64   49.40   12.40
  -3   7 -64   63.29   15.90
  -4   0 -64   73.39   14.20
   0   4 -64   82.99   16.60
   4  -4 -64   79.89   14.80
   1  -4 -64  201.18   19.70
  -4   3 -64  183.78   19.60
   3   1 -64  208.58   20.70
  -4   6 -64   27.30   12.40
  -2  -4 -64   14.10    8.20
   6  -2 -64    4.90    7.90
   9  -5 -64   26.40   15.80
  -5  -4 -64   21.70   10.70
   6  -5 -64   48.40   12.30
  -1   6 -64   93.19   19.10
  -5  -1 -64   84.39   15.30
   2   3 -64   99.79   17.90
   3  -5 -64  113.09   16.30
  -5   2 -64  115.69   15.90
  -5   5 -64  370.66   27.40
   0  -5 -64  339.57   39.50
   5   0 -64  368.86   26.50
   8  -3 -64   60.29   13.40
  -3  -5 -64   78.69   15.80
  11  -6 -64   15.20    8.50
  -6  -5 -64   14.60   10.70
   5 -11  64   39.80   15.40
   8  -6 -64  140.09   17.90
  -6  -2 -64  137.79   17.60
  -6   1 -64  105.69   17.90
   5  -6 -64   44.70   19.00
   1   5 -64   85.99   18.10
   2  -6 -64   28.80   11.10
  -6   4 -64   27.00   11.50
   4   2 -64    7.80    9.50
  -1  -6 -64   62.59   16.20
  -6   7 -64   43.10   14.90
   7  -1 -64   64.09   15.20
  10  -4 -64   53.09   14.40
  -4  -6 -64   81.99   17.40
   6 -10  64   79.69   18.60
  -7  -3 -64   10.00    9.60
  10  -7 -64   15.80   10.10
   3 -10  64   33.80   15.90
  -7   0 -64   63.49   13.80
   7  -7 -64   60.99   14.50
  -7   3 -64   49.10   12.50
   4  -7 -64   64.89   14.90
   3   4 -64   58.49   15.20
   6   1 -64   32.00   13.00
  -7   6 -64   55.89   14.60
   1  -7 -64   24.30   10.40
   9  -2 -64   35.50   12.40
  -2  -7 -64   37.20   12.90
   9  -8 -64   84.69   16.10
  -8  -1 -64   71.09   14.70
   1  -9  64  110.39   22.00
   6  -8 -64  139.69   18.90
  -8   2 -64  178.08   19.00
   3  -8 -64   84.29   16.70
   5   3 -64   79.79   17.70
  -8   5 -64   93.69   17.40
   0  -8 -64  185.48   21.00
  11  -3 -64   22.40   20.00
  -3  -8 -64   -1.20    9.00
   8 -11  64   13.90   11.90
  11  -9 -64   15.50   10.20
  -9  -2 -64   17.70   10.80
   2 -11  64   15.30   16.50
  -9   1 -64   70.09   15.60
   8  -9 -64   74.99   16.10
  -1  -8  64   66.69   17.30
   5  -9 -64   42.00   13.60
  -9   4 -64   30.90   11.70
   7   2 -64   16.90   11.50
   2  -9 -64   27.70   12.10
  10  -1 -64   28.20   11.50
  -1  -9 -64   47.90   14.50
   9 -10  64   42.00   14.20
  10 -10 -64    3.60    7.70
 -10   0 -64   -4.50    7.30
   0 -10  64   10.50   11.60
 -10   3 -64   26.50   11.60
   7 -10 -64    6.90    8.80
 -10   6 -64   81.09   18.40
   4 -10 -64   55.09   14.50
   9   1 -64   66.59   16.80
   1 -10 -64   25.40   11.70
  10  -9  64   44.90   12.50
   9 -11 -64    3.80   10.60
 -11   2 -64    3.80    9.10
  -2  -9  64   10.90   10.80
 -11   5 -64   35.40   12.60
   6 -11 -64   44.10   13.90
  -5  -6  64   29.00   11.30
   3 -11 -64   21.10   12.00
   1   0 -65   12.10    8.90
   0  -1 -65    2.00    7.80
  -1   1 -65   12.30    8.30
   0   2 -65    1.10    7.70
   2  -2 -65    0.60    6.00
  -2   0 -65  -13.70    4.70
  -1  -2 -65   66.39   14.20
  -2   3 -65  129.39   17.40
   3  -1 -65  150.68   17.50
  -1   4 -65   13.50    9.10
  -3  -1 -65    7.40    8.90
   4  -3 -65   19.60    9.90
   1  -3 -65  132.89   16.50
  -3   2 -65  113.99   16.30
   2   1 -65  111.59   16.50
   5  -2 -65   23.70    9.70
  -2  -3 -65   21.20    9.10
  -3   5 -65   18.20   10.60
   6  -4 -65   78.69   15.80
  -2   6 -65   76.19   17.20
  -4  -2 -65   62.79   14.10
   3  -4 -65    9.00    7.60
   1   3 -65    0.30    9.30
  -4   1 -65   13.40    8.60
   0  -4 -65   14.40    8.00
  -4   4 -65   -0.10    7.60
   4   0 -65    4.40    7.10
   7  -3 -65   11.10    9.10
  -3  -4 -65    3.70    7.90
  -4   7 -65    2.20    8.00
  -5  -3 -65  124.79   27.20
  -5   0 -65   -4.10    6.20
   5  -5 -65   -3.30    6.50
   0   5 -65   -8.30    6.60
   3   2 -65   20.80   10.40
   2  -5 -65   24.70   11.20
  -5   3 -65   17.50    9.70
  -5   6 -65    9.10   13.00
   6  -1 -65   10.00    8.30
  -1  -5 -65   10.90    8.50
   9  -4 -65   -8.90    8.80
  -4  -5 -65    0.60    7.60
  -6  -4 -65    7.50    8.70
  10  -6 -65   -1.40    7.70
   4 -10  65    4.00    8.80
   7  -6 -65    2.50    7.10
  -6  -1 -65  -11.70    6.80
   4  -6 -65   53.09   12.60
  -6   2 -65   46.00   12.80
   2   4 -65   71.19   17.50
   1  -6 -65   13.90    9.20
  -6   5 -65   32.80   12.00
   5   1 -65   39.70   12.70
   8  -2 -65   44.60   12.40
  -2  -6 -65   17.00   10.60
  -5  -6 -65   10.00   10.50
  11  -5 -65   17.00   10.00
   6 -11  65   -0.30    9.60
   9  -7 -65    0.80    6.60
   6  -7 -65    6.50    8.00
   1   6 -65    2.40    9.30
  -7   1 -65    9.40    7.90
   4   3 -65   20.80   11.50
  -7   4 -65   20.80   10.60
   3  -7 -65   12.90    9.40
  -7   7 -65    6.90   10.10
   0  -7 -65   -3.10    7.20
   7   0 -65  -12.50    7.00
  10  -3 -65    7.70   12.70
  -3  -7 -65   18.70   11.20
   7 -10  65    4.80    8.70
  -8  -3 -65    4.20    9.50
  11  -8 -65   10.00    9.50
   3 -11  65    3.80   12.10
  -8   0 -65    6.60    8.40
   8  -8 -65   -1.30    7.80
   5  -8 -65  110.09   19.40
   3   5 -65  102.39   20.80
  -8   3 -65   98.59   18.30
  -8   6 -65   16.70   11.10
   6   2 -65   37.20   13.80
   2  -8 -65   22.80   11.90
  -1  -8 -65   -0.10    8.00
   9  -1 -65    3.20    8.90
  10  -9 -65    0.90    7.60
  -9  -1 -65    0.50    9.60
   1 -10  65    7.20    9.80
  -9   2 -65   17.20   10.90
   7  -9 -65    9.40    8.90
  -9   5 -65    6.80    9.30
   5   4 -65   11.40   11.00
   4  -9 -65    3.40    8.70
   8   1 -65  -11.20    6.80
   1  -9 -65   -3.30    7.40
 -10   1 -65    9.20    8.50
   9 -10 -65    5.20    9.00
  -1  -9  65    9.40   10.30
   6 -10 -65    8.10   10.30
 -10   4 -65    9.60    9.60
   3 -10 -65   -3.60    8.00
   0 -10 -65    0.00    9.50
  10   0 -65   -3.40    8.20
  10 -10  65    8.90    9.20
   8 -11 -65   21.80   11.50
 -11   3 -65   -4.00    6.60
  -3  -8  65    5.20   10.20
   5 -11 -65   18.10   10.80
   0   0 -66  423.86   26.80
   2  -1 -66   24.90   10.40
  -1  -1 -66   30.10   10.40
  -1   2 -66   40.50   13.10
  -2   1 -66   25.50   11.00
   1   1 -66   35.70   11.60
   1  -2 -66   12.50    8.30
  -2   4 -66  110.89   17.70
  -2  -2 -66   83.09   15.70
   4  -2 -66   99.39   15.50
   3  -3 -66  123.89   16.70
  -3   0 -66  139.09   17.00
   0   3 -66  153.58   19.30
   3   0 -66  105.79   15.80
  -3   3 -66  103.69   18.80
   0  -3 -66   77.89   15.30
   6  -3 -66   11.20    8.70
  -3   6 -66   12.60   10.00
  -3  -3 -66   14.10    9.90
  -4  -1 -66  121.59   16.00
  -1   5 -66  127.99   19.80
   5  -4 -66  129.29   17.30
   2   2 -66  108.59   18.70
   2  -4 -66   63.99   13.90
  -4   2 -66   69.29   15.20
  -1  -4 -66  232.98   28.60
   5  -1 -66  200.68   20.30
  -4   5 -66  201.48   21.80
  -4  -4 -66   69.79   15.00
  -2   7 -66   84.69   19.20
  -5  -2 -66   84.19   16.20
   7  -5 -66   46.80   13.40
   1   4 -66  104.19   23.70
  -5   1 -66  127.09   16.70
   4  -5 -66  123.49   30.10
  -5   4 -66  215.38   21.60
   1  -5 -66  247.48   22.50
   4   1 -66  199.78   21.30
   7  -2 -66   22.70    9.80
  -5   7 -66   30.00   12.40
  -2  -5 -66   -1.00    7.10
  -5  -5 -66   58.79   15.50
  10  -5 -66   54.59   14.30
   5 -10  66   38.50   16.00
   9  -6 -66   -3.00    7.20
  -6  -3 -66   -1.10    7.20
   0   6 -66    7.30   10.50
  -6   0 -66    2.40    7.70
   6  -6 -66    8.70    7.90
   3   3 -66   -2.40    8.50
  -6   3 -66   27.10   10.90
   3  -6 -66   15.60   11.60
   0  -6 -66   18.50   10.80
   6   0 -66   12.70    9.30
  -6   6 -66   15.10   16.00
   9  -3 -66    3.40    8.10
  -3  -6 -66   24.60   10.50
  -7  -4 -66   54.19   13.60
  11  -7 -66   22.80   11.00
   4 -11  66   28.30   14.60
  -7  -1 -66  111.19   16.50
   8  -7 -66  122.59   17.40
   5  -7 -66   87.19   17.20
   2   5 -66   53.99   15.50
  -7   2 -66   79.99   15.10
  -7   5 -66   26.00   11.80
   5   2 -66    6.80    8.60
   2  -7 -66   24.20   11.40
  -1  -7 -66   46.70   14.30
   8  -1 -66   51.79   17.50
  11  -4 -66   -7.60    7.80
  -4  -7 -66    1.90    7.60
   7 -11  66   11.90   12.30
  -8  -2 -66   25.40    9.90
  10  -8 -66   18.70    9.80
   2 -10  66    3.90   12.30
   7  -8 -66  110.59   17.20
  -8   1 -66  110.59   18.60
  -8   4 -66   66.79   15.60
   4  -8 -66   81.79   17.00
   4   4 -66   71.99   19.20
   7   1 -66   50.79   15.30
  -8   7 -66   20.70   10.70
   1  -8 -66   54.39   15.10
  10  -2 -66   52.89   14.50
  -2  -8 -66    9.60   10.00
   8 -10  66   43.80   16.90
  -9   0 -66    6.70    9.00
   9  -9 -66    0.90    8.30
   0  -9  66   12.80   11.30
   6  -9 -66   12.70   10.10
  -9   3 -66   -4.50    6.70
   6   3 -66   -6.30    7.10
   3  -9 -66   23.00   11.10
  -9   6 -66    8.40   11.40
   0  -9 -66   22.20   11.90
   9   0 -66   19.80   11.50
   8 -10 -66   12.90   10.00
 -10   2 -66   13.50    9.80
  -2  -8  66   19.90   12.40
   5 -10 -66   49.20   14.70
 -10   5 -66   38.40   12.90
   2 -10 -66   23.80   11.30
   7 -11 -66   45.70   13.70
 -11   4 -66   36.70   13.20
  -4  -7  66   52.99   17.40
   4 -11 -66   -0.80   11.30
   0   1 -67   -4.10    6.00
   1  -1 -67   -4.40    6.80
  -1   0 -67   16.40    8.70
   3  -2 -67   25.20   10.70
  -1   3 -67   47.50   14.70
  -2  -1 -67   25.80   10.70
  -2   2 -67    5.00    8.30
   0  -2 -67   -8.80    6.00
   2   0 -67    1.20    8.00
  -2   5 -67    7.20    9.20
   5  -3 -67   -0.90    6.70
  -3  -2 -67    8.70    7.90
  -3   1 -67   34.20   10.80
   2  -3 -67   50.29   13.30
   1   2 -67   35.80   12.30
   4  -1 -67   18.30   10.20
  -1  -3 -67   10.20    8.00
  -3   4 -67   16.70   11.10
  -3   7 -67    2.30    8.00
  -4  -3 -67   15.60   10.00
   7  -4 -67   19.30   16.10
   4  -4 -67    3.80    7.40
  -4   0 -67   -0.30    6.00
   0   4 -67  -11.30   11.00
   1  -4 -67   31.90   10.20
  -4   3 -67   22.70   10.70
   3   1 -67   33.60   11.50
  -2  -4 -67   10.30    8.70
  -4   6 -67    5.10    9.90
   6  -2 -67   12.50    8.90
   9  -5 -67   25.20   10.70
  -5  -4 -67   -2.80    7.80
  -5  -1 -67   -2.40    7.50
   6  -5 -67    7.40    7.90
  -1   6 -67   19.10   11.50
   2   3 -67   31.60   19.80
   3  -5 -67    8.10    8.70
  -5   2 -67   -4.10    6.80
   5   0 -67   -1.70    8.00
  -5   5 -67    2.80    9.70
   0  -5 -67    2.50    7.60
  -3  -5 -67    9.50    9.00
   8  -3 -67   -0.20    9.50
  11  -6 -67    3.60    7.50
  -6  -5 -67   13.00   10.20
   5 -11  67   -2.20    8.70
   8  -6 -67   11.30    8.40
  -6  -2 -67    7.30    7.70
  -6   1 -67   20.70   10.80
   5  -6 -67    5.40    7.70
   1   5 -67   15.00   10.20
  -6   4 -67    2.10    8.50
   4   2 -67    4.10    9.60
   2  -6 -67   39.50   11.80
  -6   7 -67    7.50   10.40
  -1  -6 -67    6.10    8.20
  -4  -6 -67    9.70   10.20
  10  -4 -67   16.20    9.20
   6 -10  67    8.20   11.60
  10  -7 -67   -0.20    6.90
  -7  -3 -67   10.20    9.40
   3 -10  67   14.20   13.10
  -7   0 -67   -0.50    6.70
   7  -7 -67   -0.10    6.90
   3   4 -67    3.00    9.70
  -7   3 -67   -6.40    6.70
   4  -7 -67   -4.00    6.70
   1  -7 -67   -6.80    6.70
  -7   6 -67    4.40    8.70
   6   1 -67   -8.70    7.10
  -2  -7 -67    5.20    9.80
   9  -2 -67    9.60    9.40
   9  -8 -67    2.10    7.60
  -8  -1 -67    4.90    9.90
   1  -9  67   19.00   12.00
  -8   2 -67    7.30    9.30
   6  -8 -67    4.10    8.60
   5   3 -67   -2.60    8.20
   3  -8 -67    7.80   10.40
  -8   5 -67    3.80    7.40
   0  -8 -67   -2.60    8.30
   8   0 -67   -4.50    7.60
  -9   1 -67   -2.00    7.50
   8  -9 -67    0.70    8.80
  -9   4 -67   12.00    9.90
   5  -9 -67   12.80   10.20
   2  -9 -67    8.30    9.20
   7   2 -67   16.10   11.20
  10  -1 -67   -3.80    8.90
  -1  -9 -67   14.40    9.90
   9 -10  67    5.20    9.40
   7 -10 -67   -1.50    9.10
 -10   3 -67   10.40    9.30
   4 -10 -67    1.00    8.60
   1 -10 -67   -0.90    8.50
   9   1 -67    2.20    9.50
 -11   5 -67    5.10    8.50
   6 -11 -67   13.90   13.10
  -5  -6  67  -15.90    6.90
   0  -1 -68  173.68   18.80
  -1   1 -68  173.98   19.30
   1   0 -68  145.39   18.50
   0   2 -68  195.78   20.20
  -2   0 -68  208.48   20.40
   2  -2 -68  161.38   18.60
  -1  -2 -68  107.99   16.30
   3  -1 -68  101.89   16.00
  -2   3 -68   97.29   17.70
   4  -3 -68  158.28   18.00
  -3  -1 -68  131.59   16.90
  -1   4 -68  116.69   29.70
   1  -3 -68   90.19   16.90
   2   1 -68  100.19   16.20
  -3   2 -68  109.39   16.60
   5  -2 -68  144.09   17.40
  -3   5 -68  109.19   18.00
   6  -4 -68   46.70   13.30
  -2   6 -68   42.60   14.50
  -4  -2 -68   64.09   19.70
   3  -4 -68  125.69   31.80
  -4   1 -68  155.18   18.00
  -4   4 -68  266.97   24.30
   4   0 -68  276.67   23.60
   0  -4 -68  303.57   24.70
  -3  -4 -68   43.40   14.10
   7  -3 -68   45.50   13.70
  -4   7 -68   26.20   13.30
  -5  -3 -68    5.60    9.00
   8  -5 -68    1.00    7.40
   5  -5 -68   70.39   15.70
   0   5 -68   80.39   18.70
  -5   0 -68   52.59   13.40
   3   2 -68  107.19   24.70
   2  -5 -68  142.49   18.20
  -5   3 -68  117.19   20.60
  -1  -5 -68   40.10   12.80
  -5   6 -68   55.79   16.40
  -4  -5 -68  155.58   20.30
   9  -4 -68  170.88   19.40
  -6  -4 -68   48.10   13.70
  10  -6 -68   54.69   13.70
   4 -10  68   20.30   12.60
   7  -6 -68   56.89   13.70
  -6  -1 -68   89.99   23.00
   2   4 -68   71.39   16.80
  -6   2 -68   99.19   18.30
   4  -6 -68   50.69   13.40
   1  -6 -68   42.20   12.80
   5   1 -68   62.79   15.10
  -2  -6 -68   33.30   12.60
   8  -2 -68   20.80   10.90
  -5  -6 -68   14.00   10.40
  11  -5 -68    2.70    7.70
   6 -11  68   17.70   11.70
   9  -7 -68   74.39   16.40
  -7  -2 -68   77.49   16.30
   1   6 -68  121.59   23.20
  -7   1 -68   53.09   13.50
   6  -7 -68   55.09   14.00
   4   3 -68   39.50   14.30
  -7   4 -68   51.49   14.40
   3  -7 -68   30.20   11.80
   7   0 -68   54.69   14.30
  -7   7 -68   20.90   12.50
   0  -7 -68   64.49   16.80
  10  -3 -68   27.50   11.80
  -3  -7 -68   30.60   13.50
   7 -10  68   24.00   12.50
  -8   0 -68    2.00   14.20
   8  -8 -68   -0.20    7.80
   5  -8 -68   -3.60    8.70
   3   5 -68    7.80   10.70
  -8   3 -68    7.60    9.60
   6   2 -68    8.60    9.10
  -8   6 -68   30.30   12.00
   2  -8 -68   13.60   10.60
  -1  -8 -68  128.09   20.00
   9  -1 -68  101.89   18.70
  10  -9 -68   19.90   11.20
  -9  -1 -68   36.50   12.10
   1 -10  68   11.90   21.10
  -9   2 -68   62.79   14.90
   7  -9 -68  107.89   17.90
   4  -9 -68  181.78   22.30
  -9   5 -68  149.88   32.70
   5   4 -68  202.98   24.80
   1  -9 -68   93.19   19.30
   8   1 -68   78.79   17.60
 -10   1 -68   17.40   11.20
   9 -10 -68   35.50   12.90
  -1  -9  68   32.80   17.60
   6 -10 -68   34.00   12.40
 -10   4 -68   36.30   12.60
   3 -10 -68   25.80   12.60
   0   0 -69    3.20    7.50
  -1  -1 -69  143.89   17.90
   2  -1 -69  182.18   19.40
  -1   2 -69  138.69   18.70
   1   1 -69  128.59   17.90
  -2   1 -69  183.38   19.90
   1  -2 -69  165.88   18.50
   4  -2 -69    4.00    7.40
  -2   4 -69    8.80   10.30
  -2  -2 -69    1.10    8.70
  -3   0 -69   -1.40    7.40
   3  -3 -69   -4.50    7.90
   3   0 -69    4.10    8.70
   0  -3 -69  -13.80    6.50
  -3   3 -69   -3.80    7.40
  -3   6 -69   19.60   10.80
   6  -3 -69   17.90   10.40
  -3  -3 -69   18.80    9.80
   5  -4 -69    3.50    6.90
  -1   5 -69   26.40   13.60
  -4  -1 -69    1.60    7.20
   2  -4 -69   12.70    8.50
  -4   2 -69    4.00    7.50
   2   2 -69   -9.20   11.50
  -4   5 -69   50.49   15.30
  -1  -4 -69   42.30   11.50
  -4  -4 -69    7.90    8.00
   8  -4 -69    5.80    7.90
  -5  -2 -69   21.90   10.80
  -2   7 -69   41.60   16.50
   7  -5 -69   17.70   10.30
   4  -5 -69   -1.00    7.50
   1   4 -69    1.90    8.10
  -5   1 -69   -3.30    6.40
   4   1 -69   37.70   12.90
   1  -5 -69   34.20   11.50
  -5   4 -69   38.40   14.90
  -2  -5 -69   -7.60    6.40
  -5   7 -69   14.80   11.70
   7  -2 -69    2.40    7.60
  10  -5 -69    9.30    8.80
  -5  -5 -69   22.70   11.20
   5 -10  69   30.30   14.40
  -6  -3 -69    5.60    7.60
   9  -6 -69    2.70    8.90
   0   6 -69   -6.70    6.80
  -6   0 -69   10.30    8.70
   6  -6 -69    0.70    7.20
   3  -6 -69   23.70   10.80
  -6   3 -69   37.00   12.90
   3   3 -69   31.00   11.70
   6   0 -69   -0.60    7.70
   0  -6 -69    0.90    8.10
  -6   6 -69   12.50   10.70
  -3  -6 -69   10.90    8.80
   9  -3 -69   -1.10    7.80
   8  -7 -69    3.00    7.10
  -7  -1 -69   -2.30    6.40
   2   5 -69   12.60   11.40
  -7   2 -69    8.70    9.40
   5  -7 -69   24.10   11.40
  -7   5 -69   -3.80    7.60
   5   2 -69    5.20    8.90
   2  -7 -69   -8.80    6.30
  -1  -7 -69  -12.30    6.40
   8  -1 -69    9.80    9.20
  10  -8 -69   -8.20    6.40
  -8  -2 -69    2.60    8.50
   2 -10  69   22.60   15.00
   7  -8 -69    1.70    7.00
  -8   1 -69    0.80    9.00
   4   4 -69    2.20    8.50
  -8   4 -69   -3.20    7.50
   4  -8 -69   -4.50    8.10
   7   1 -69   -7.70    7.70
   1  -8 -69   -1.00    7.90
  -8   7 -69   11.90   10.90
  -2  -8 -69    6.90   10.50
  10  -2 -69   15.80   11.20
   8 -10  69   -7.00    7.20
  -9   0 -69    5.30    8.70
   9  -9 -69    3.50    8.50
   0  -9  69   -9.30    9.20
   6  -9 -69   11.60    9.50
  -9   3 -69   -1.80    7.70
   6   3 -69   -2.40    9.90
   3  -9 -69  -11.80    7.10
  -9   6 -69  -20.10    6.90
   0  -9 -69   10.40   10.90
   9   0 -69   -2.90    8.80
   8 -10 -69    2.10    8.60
 -10   2 -69    7.70   11.30
  -2  -8  69    2.20   11.80
   5 -10 -69   18.40   11.70
 -10   5 -69   -1.80    8.30
   8   2 -69   -0.50    9.50
   2 -10 -69   -8.90    9.30
  -1   0 -70   30.70   11.40
   0   1 -70   23.40   10.70
   1  -1 -70    5.40    9.10
  -1   3 -70  161.48   32.20
   3  -2 -70  153.28   23.40
  -2  -1 -70  155.98   18.90
  -2   2 -70   16.40   10.40
   2   0 -70    3.30    7.70
   0  -2 -70    5.40    8.30
   5  -3 -70   57.09   13.80
  -3  -2 -70   42.10   12.70
  -2   5 -70   37.20   13.00
   2  -3 -70  114.79   26.40
  -3   1 -70  138.89   18.40
   1   2 -70  130.29   30.10
  -3   4 -70  185.98   21.90
  -1  -3 -70  112.19   17.20
  -4  -3 -70    2.40    8.40
   7  -4 -70   21.90   10.70
  -3   7 -70   21.20   13.50
   4  -4 -70  104.29   16.30
   0   4 -70  110.49   21.10
  -4   0 -70  120.09   17.10
  -4   3 -70  152.68   20.50
   3   1 -70  175.48   21.90
   1  -4 -70  139.09   18.40
  -4   6 -70  114.09   20.50
  -2  -4 -70  103.89   16.90
   6  -2 -70   74.09   15.60
  -5  -4 -70   95.19   17.60
   9  -5 -70   67.59   14.90
  -1   6 -70   94.99   20.50
   6  -5 -70   52.89   13.60
  -5  -1 -70   52.19   14.10
   3  -5 -70   25.00   10.40
   2   3 -70   15.70   11.40
  -5   2 -70   41.60   12.10
   0  -5 -70   10.60    9.10
  -5   5 -70    3.10   10.30
   5   0 -70   -4.40    7.20
  -3  -5 -70   19.00   11.20
   8  -3 -70   -1.50    7.70
  -6  -2 -70   -1.30    7.80
   8  -6 -70   32.90   12.10
   1   5 -70   46.50   15.60
  -6   1 -70   92.19   18.50
   5  -6 -70   58.59   13.80
  -6   4 -70   94.49   25.60
   4   2 -70  112.29   20.60
   2  -6 -70  109.89   17.50
  -6   7 -70   10.00   10.50
  -1  -6 -70    1.00    8.20
   7  -1 -70   39.20   13.80
  10  -4 -70   28.40   11.50
  -4  -6 -70    2.00    7.90
   6 -10  70   65.59   19.20
  10  -7 -70   28.10   12.40
  -7  -3 -70    1.90    9.30
   3 -10  70    9.00   10.50
   7  -7 -70   21.90   11.80
  -7   0 -70   33.60   12.50
   4  -7 -70   19.70   10.40
   3   4 -70   30.80   14.40
  -7   3 -70   33.80   17.20
  -7   6 -70   -2.20   10.10
   1  -7 -70   17.20   10.50
   6   1 -70   14.80   10.70
  -2  -7 -70   41.40   13.80
   9  -2 -70   51.79   15.30
  -8  -1 -70    6.60    9.50
   9  -8 -70   10.20    9.90
   1  -9  70    6.20   11.70
   6  -8 -70   11.60    9.50
  -8   5 -70   11.40    9.60
   3  -8 -70    7.10    8.50
   5   3 -70   30.80   13.20
   0  -8 -70   26.90   11.90
   8   0 -70   32.20   13.20
  -9   1 -70   10.20    9.20
   8  -9 -70   13.30   10.70
  -9   4 -70   57.99   17.50
   5  -9 -70   90.99   18.20
  -9   7 -70   37.80   14.80
   7   2 -70   50.59   15.30
   2  -9 -70   33.80   12.50
 -10   3 -70   16.40   16.80
   7 -10 -70   19.60   12.30
 -10   6 -70   43.30   15.60
   4 -10 -70   12.20   10.90
   0  -1 -71   -3.80    8.20
   1   0 -71    4.10    9.90
  -1   1 -71    6.20    8.20
  -2   0 -71    0.70    8.20
   0   2 -71   14.80   14.10
   2  -2 -71    6.80   12.30
   3  -1 -71   40.90   16.10
  -2   3 -71   29.60   11.50
  -1  -2 -71   33.60   12.20
   4  -3 -71    3.80    7.60
  -3  -1 -71    6.00   11.60
  -1   4 -71   -8.30    6.80
   1  -3 -71   48.80   13.20
  -3   2 -71   61.89   18.80
   2   1 -71   25.90   11.60
   5  -2 -71    9.10   10.20
  -3   5 -71   30.30   13.30
  -2  -3 -71   17.30    9.90
   6  -4 -71   21.30   11.30
  -4  -2 -71   16.00   10.10
  -2   6 -71   20.00   12.20
   3  -4 -71    2.00    7.90
   1   3 -71   -0.70    8.50
  -4   1 -71    5.30    9.70
  -4   4 -71   -7.00    7.00
   0  -4 -71   10.10    9.30
   4   0 -71   15.40   10.20
  -3  -4 -71    1.90    7.40
  -4   7 -71   -1.30    9.90
   7  -3 -71    7.90    8.90
  -5  -3 -71    3.60    8.70
   8  -5 -71   20.00   11.00
   5  -5 -71   -4.50    7.60
  -5   0 -71    5.30   11.20
   0   5 -71    2.70    9.80
  -5   3 -71   20.30   20.30
   3   2 -71   19.20   10.10
   2  -5 -71    9.60    9.10
  -1  -5 -71   -7.60    7.30
  -5   6 -71    2.10    9.80
   6  -1 -71    8.30    9.30
   9  -4 -71   35.70   12.60
  -4  -5 -71   42.00   13.10
  10  -6 -71   13.40    9.90
  -6  -4 -71   22.20   11.00
   4 -10  71   46.90   17.20
  -6  -1 -71   21.80   10.40
   7  -6 -71   -1.80    6.50
   4  -6 -71   35.90   11.90
   2   4 -71    9.10   10.40
  -6   5 -71   -1.20    8.60
   1  -6 -71   -3.90    6.30
   5   1 -71    0.10    8.40
  -2  -6 -71   17.30   11.40
   8  -2 -71   14.50   10.10
   9  -7 -71   -3.50    7.50
  -7  -2 -71    3.50    8.10
  -7   1 -71    5.60    8.40
   6  -7 -71   19.30   11.20
   1   6 -71   10.10   11.10
  -7   4 -71    5.70    8.50
   4   3 -71   -5.70    8.30
   3  -7 -71    3.70    8.30
   7   0 -71   -5.00    7.30
   0  -7 -71   18.40   11.70
  -7   7 -71  -10.00    8.20
  -3  -7 -71  -12.60    6.90
  10  -3 -71   -1.60    8.20
   7 -10  71   11.60   12.00
   8  -8 -71    2.30    7.80
  -8   0 -71    4.70    8.90
   3   5 -71   16.50   12.50
   5  -8 -71   15.70   10.30
  -8   3 -71   20.10   10.70
  -8   6 -71   26.50   12.40
   6   2 -71   12.30   10.20
   2  -8 -71   19.50   12.50
   9  -1 -71    5.90    9.80
  -1  -8 -71    1.00    8.70
  -9   2 -71   18.70   10.40
   7  -9 -71   10.70    9.60
   4  -9 -71   48.90   13.90
   5   4 -71   40.70   15.30
  -9   5 -71   28.80   12.70
   8   1 -71    0.60    9.50
   1  -9 -71   -0.20    8.70
   6 -10 -71   32.80   14.60
 -10   4 -71   12.10   10.90
   3 -10 -71   -6.10   15.30
   0   0 -72   11.40   15.60
  -1  -1 -72   81.39   18.10
  -1   2 -72   73.79   16.60
   2  -1 -72  107.09   17.20
   1  -2 -72   85.29   16.60
   1   1 -72   93.99   17.80
  -2   4 -72   75.69   17.40
   4  -2 -72   84.49   16.70
  -2  -2 -72  104.49   16.60
   3  -3 -72  207.48   21.40
   0   3 -72  180.28   21.60
  -3   0 -72  183.38   24.90
   3   0 -72   70.09   15.80
   0  -3 -72   74.89   15.90
  -3   3 -72   64.19   14.80
  -3  -3 -72  101.09   16.70
   6  -3 -72  111.89   17.40
  -3   6 -72   90.99   20.10
   5  -4 -72   66.69   15.20
  -4  -1 -72   46.40   13.40
  -1   5 -72  102.59   20.70
   2   2 -72  106.59   20.40
  -4   2 -72  105.89   23.30
   2  -4 -72  102.39   16.90
  -4   5 -72   81.59   17.90
   5  -1 -72  111.89   17.50
  -1  -4 -72   55.59   14.50
  -4  -4 -72   23.30   10.00
   8  -4 -72   11.30    9.60
  -2   7 -72    0.50    8.70
   7  -5 -72   -2.50    7.70
  -5  -2 -72   -1.90    8.40
   1   4 -72   45.00   13.90
  -5   1 -72   55.79   14.50
   4  -5 -72   33.20   12.30
   1  -5 -72   71.09   15.90
  -5   4 -72   77.09   17.70
   4   1 -72   61.89   15.50
  -5   7 -72   16.60   12.10
   7  -2 -72   21.70   11.00
  -2  -5 -72   28.50   11.50
  -5  -5 -72    9.30   11.30
  10  -5 -72   12.80    9.80
   5 -10  72   17.80   12.90
   9  -6 -72  118.39   18.50
  -6  -3 -72  123.69   18.30
  -6   0 -72  102.99   16.90
   6  -6 -72   67.79   14.60
   0   6 -72   75.09   19.30
   3   3 -72   70.59   17.70
  -6   3 -72   87.99   17.00
   3  -6 -72  110.59   19.30
   0  -6 -72   46.10   14.40
   6   0 -72   36.70   13.70
  -6   6 -72    9.90   11.80
  -3  -6 -72   66.59   16.20
   9  -3 -72   82.39   16.80
   8  -7 -72    4.40    8.40
  -7  -1 -72   48.60   14.10
   5  -7 -72   19.30   10.30
  -7   2 -72   39.60   14.40
   2   5 -72    5.90   10.60
   5   2 -72    3.90    8.70
   2  -7 -72    6.90    8.60
  -7   5 -72   15.70   10.30
  -1  -7 -72   27.40   12.80
   8  -1 -72   28.80   12.40
  -8   1 -72    5.50    9.30
   7  -8 -72    1.10    7.70
   4  -8 -72   35.70   12.70
  -8   4 -72   52.29   16.10
   4   4 -72   43.00   14.50
   1  -8 -72   33.20   13.90
  -8   7 -72   29.20   13.50
   7   1 -72   35.20   13.20
  -9   3 -72   76.19   17.70
   6  -9 -72   88.29   18.70
   3  -9 -72   90.29   18.70
   6   3 -72   86.39   19.70
  -9   6 -72   95.79   20.30
 -10   5 -72   -0.80    9.50
   5 -10 -72   -3.30    8.30
   1  -1 -73    5.60    9.00
  -1   0 -73    2.30    8.00
   0   1 -73   -5.70    7.90
  -1   3 -73   66.99   16.00
   3  -2 -73   83.79   16.60
  -2  -1 -73   77.09   15.90
   0  -2 -73   -1.50    8.00
   2   0 -73   -6.10    6.80
  -2   2 -73    3.20    7.50
  -3  -2 -73   -1.00    6.90
   5  -3 -73    3.30    8.50
  -2   5 -73   -1.30    8.30
  -3   1 -73   63.29   16.60
   2  -3 -73   50.49   14.30
   1   2 -73   78.19   16.70
  -3   4 -73    4.40    9.10
   4  -1 -73    4.30    8.40
  -1  -3 -73   16.50    9.70
  -4  -3 -73   -4.70    6.50
  -3   7 -73    5.20    9.80
   7  -4 -73   -6.80    6.20
   0   4 -73    3.80    8.80
   4  -4 -73    5.90    8.30
  -4   0 -73   -8.70    6.90
   3   1 -73    9.90    9.00
  -4   3 -73   -3.90    6.50
   1  -4 -73   -8.10    6.90
  -4   6 -73   15.80   11.30
  -2  -4 -73    0.20    7.30
   6  -2 -73   -3.20    6.80
  -5  -4 -73   38.30   12.40
   9  -5 -73    5.70    8.00
   6  -5 -73    1.00    8.70
  -5  -1 -73    8.00   10.00
  -1   6 -73   10.50   11.30
   3  -5 -73    1.50    7.20
   2   3 -73   -4.30    7.70
  -5   2 -73    5.50    9.50
   0  -5 -73    4.10    8.50
  -5   5 -73   17.00   11.50
   5   0 -73   13.20   10.00
   8  -3 -73   -1.80    7.60
  -3  -5 -73   10.40   10.20
  -6  -2 -73   -0.30    8.70
   8  -6 -73    4.20    8.60
  -6   1 -73   15.00   10.90
   1   5 -73   29.60   13.90
   5  -6 -73   15.20    9.70
  -6   4 -73   17.50    9.90
   4   2 -73    7.70    9.20
   2  -6 -73    6.00    9.60
   7  -1 -73    8.80    9.90
  -6   7 -73   12.00   10.10
  -1  -6 -73    6.10    8.20
   6 -10  73    4.20    8.60
  -7   0 -73   -0.80    7.10
   7  -7 -73   -6.10    6.00
   3   4 -73   -2.20    8.00
  -7   3 -73    7.80    9.60
   4  -7 -73    9.50    9.00
   6   1 -73    3.30    9.20
   1  -7 -73    3.60    8.60
  -7   6 -73   -2.60    8.30
   9  -2 -73    1.80    9.30
  -2  -7 -73    3.50   10.40
  -8  -1 -73   18.40   10.80
   9  -8 -73   10.70    9.10
  -8   2 -73    9.40   10.40
   6  -8 -73   -7.10    8.20
   5   3 -73  -13.60    6.90
  -8   5 -73   -3.80    7.50
   3  -8 -73    3.00    8.40
   0  -8 -73    9.30   10.50
   8   0 -73    3.50   10.70
   8  -9 -73   10.00    9.90
  -9   1 -73    2.10    8.40
  -9   4 -73   21.10   11.40
   5  -9 -73   30.40   12.90
   2  -9 -73   13.10   11.60
  -9   7 -73   -2.10    8.70
   7   2 -73    0.80    9.10
   1   0 -74  -15.90    5.80
   0  -1 -74    2.30    8.70
  -1   1 -74    0.20    7.20
  -2   0 -74  249.08   22.90
   2  -2 -74  209.38   21.70
   0   2 -74  238.48   23.90
   3  -1 -74   69.99   15.90
  -1  -2 -74   44.90   12.90
  -2   3 -74   52.99   14.80
  -3  -1 -74  104.79   16.70
   4  -3 -74  109.39   17.30
  -1   4 -74   58.79   15.40
   1  -3 -74   55.39   14.50
   2   1 -74   64.99   15.20
  -3   2 -74   64.39   15.80
   5  -2 -74  128.89   18.10
  -2  -3 -74  133.59   18.20
  -3   5 -74  129.99   20.20
  -2   6 -74    9.70   10.10
  -4  -2 -74    2.40    8.10
   6  -4 -74    6.70    9.40
   1   3 -74   80.59   18.70
   3  -4 -74   80.39   17.30
  -4   1 -74  103.79   16.80
   0  -4 -74   33.80   12.00
  -4   4 -74   42.40   13.40
   4   0 -74   77.69   16.50
   7  -3 -74   19.30   10.60
  -3  -4 -74   19.80   11.00
  -4   7 -74   37.10   14.80
   8  -5 -74  156.98   20.50
  -5  -3 -74  167.58   20.90
   5  -5 -74  158.68   19.80
  -5   0 -74  213.78   21.90
   0   5 -74  208.58   24.70
   2  -5 -74  164.88   20.40
   3   2 -74  153.58   20.80
  -5   3 -74  156.58   20.20
   6  -1 -74   16.90   10.30
  -1  -5 -74   14.00    9.90
  -5   6 -74   -5.40    7.60
  -4  -5 -74   11.10    9.90
   9  -4 -74   14.00   10.60
   7  -6 -74   21.80   11.50
  -6  -1 -74    4.00    7.80
   2   4 -74   16.00   12.50
  -6   2 -74   14.30   10.30
   4  -6 -74   -1.40    7.20
  -6   5 -74    0.60    7.90
   5   1 -74   35.50   14.30
   1  -6 -74   18.50   10.90
  -2  -6 -74   49.70   14.90
   8  -2 -74   73.69   16.60
   9  -7 -74   23.90   12.00
  -7  -2 -74   32.40   12.40
  -7   1 -74   17.90   10.10
   1   6 -74   -9.40    8.80
   6  -7 -74   15.00   10.70
  -7   4 -74   35.50   12.50
   4   3 -74   36.10   13.90
   3  -7 -74   52.89   15.30
   7   0 -74   -5.30    7.90
  -7   7 -74    4.00   10.20
   0  -7 -74   22.70   11.40
  -8   0 -74   26.00   12.20
   8  -8 -74   33.00   12.40
   5  -8 -74   99.89   19.50
  -8   3 -74  150.88   20.60
   3   5 -74  151.08   23.20
   6   2 -74   49.99   15.60
   2  -8 -74  102.29   20.60
  -8   6 -74   98.99   21.20
  -9   2 -74   28.50   12.20
   7  -9 -74   27.50   12.50
   5   4 -74    2.60   10.70
   4  -9 -74   20.80   13.40
  -9   5 -74   10.00   10.40
   0   0 -75   -1.70    6.80
   2  -1 -75   -1.40    7.10
  -1  -1 -75   -6.90    7.20
  -1   2 -75   -8.60    7.80
  -2   1 -75    3.00    8.10
   1  -2 -75   -3.10    7.60
   1   1 -75    4.20    9.10
  -2  -2 -75   35.30   12.80
  -2   4 -75   11.50   11.30
   4  -2 -75   24.80   11.20
  -3   0 -75    0.00    7.10
   0   3 -75   -6.10    6.70
   3  -3 -75  -11.30    5.90
   3   0 -75   -9.40    6.60
   0  -3 -75   -7.30    5.80
  -3   3 -75   -8.70    6.70
  -3  -3 -75   -7.80    6.40
  -3   6 -75    2.60    9.40
   6  -3 -75    0.60    8.30
  -4  -1 -75   30.50   11.10
  -1   5 -75   28.20   12.80
   5  -4 -75   10.60    9.90
  -4   2 -75   40.30   14.00
   2  -4 -75   11.30    9.00
   2   2 -75   30.30   12.00
  -1  -4 -75   -0.30    8.30
   5  -1 -75    1.40    8.30
  -4   5 -75   21.10   12.60
   8  -4 -75   -2.00    7.40
  -4  -4 -75    3.30    9.50
   7  -5 -75   45.40   14.30
  -5  -2 -75   15.90   11.30
  -2   7 -75   23.80   12.70
   1   4 -75    4.70    8.70
  -5   1 -75    6.00    9.70
   4  -5 -75   11.80    9.50
   4   1 -75   15.20   10.70
  -5   4 -75   -2.20    8.90
   1  -5 -75    8.80    9.60
  -2  -5 -75    8.10    9.20
  -5   7 -75   12.00   11.00
   7  -2 -75   27.80   11.50
  -6  -3 -75   26.90   12.90
   9  -6 -75   -4.60    6.30
   0   6 -75    6.20   11.60
   6  -6 -75   -6.40    6.80
  -6   0 -75   -0.70    8.50
   3  -6 -75    5.50    9.60
   3   3 -75    0.50    9.40
  -6   3 -75   -7.10    7.80
   6   0 -75    7.90   10.00
   0  -6 -75    0.80    7.40
  -6   6 -75   -8.10    8.50
   9  -3 -75    0.60    7.90
  -3  -6 -75    7.30   10.50
   8  -7 -75    5.30    9.60
  -7  -1 -75   12.50   10.00
   2   5 -75   17.10   12.50
  -7   2 -75   34.90   13.20
   5  -7 -75    6.70    8.00
   2  -7 -75   16.60   10.70
  -7   5 -75    4.20    9.30
   5   2 -75   12.60   11.20
   8  -1 -75   -1.40    8.30
  -1  -7 -75    5.70    9.70
  -8   1 -75   -2.80    8.30
   7  -8 -75    0.80    8.30
  -8   4 -75   -6.90    7.10
   4   4 -75   11.60   11.10
   4  -8 -75    4.00    9.00
  -8   7 -75    9.80   10.50
   7   1 -75   -6.20    7.80
   1  -8 -75    4.80   10.10
  -9   3 -75   19.70   11.20
   6  -9 -75   -5.10    7.20
   6   3 -75   26.80   13.70
   3  -9 -75   23.10   12.60
  -9   6 -75   -4.50    9.10
  -1   0 -76   -3.80    7.80
   1  -1 -76    5.90    9.00
   0   1 -76    2.20    7.10
  -1   3 -76   96.09   19.20
   3  -2 -76  125.69   18.40
  -2  -1 -76  123.99   18.20
   0  -2 -76   52.39   14.00
  -2   2 -76   29.40   12.50
   2   0 -76   20.60   11.00
  -3  -2 -76   72.59   16.60
  -2   5 -76   72.69   17.80
   5  -3 -76   70.19   15.30
   1   2 -76  155.08   20.30
   2  -3 -76  129.39   18.70
  -3   1 -76  110.29   20.30
  -1  -3 -76   33.20   12.90
  -3   4 -76   26.70   13.30
   4  -1 -76   32.60   12.20
  -4  -3 -76   49.10   14.40
   7  -4 -76   54.19   14.80
  -3   7 -76   47.90   18.40
   0   4 -76  122.09   19.90
   4  -4 -76  179.88   21.10
  -4   0 -76  161.08   20.10
  -4   3 -76   46.90   15.00
   1  -4 -76   66.89   16.40
   3   1 -76   25.80   11.60
  -2  -4 -76   53.59   15.10
  -4   6 -76   15.10   11.20
   6  -2 -76   40.40   13.90
   9  -5 -76   -2.00    7.70
  -5  -4 -76    3.90    9.30
  -1   6 -76    0.90   10.30
   6  -5 -76   19.50   10.70
  -5  -1 -76   11.80    9.50
  -5   2 -76   72.99   17.80
   3  -5 -76   54.99   15.10
   2   3 -76   47.70   16.30
  -5   5 -76   63.29   16.90
   5   0 -76   39.30   13.10
   0  -5 -76   49.70   14.80
  -3  -5 -76   55.89   15.30
   8  -3 -76   50.79   13.80
  -6  -2 -76   12.30   11.00
   8  -6 -76   38.70   12.50
   5  -6 -76   16.90   11.10
  -6   1 -76    1.50    7.20
   1   5 -76    3.80   10.00
   2  -6 -76   27.20   11.50
  -6   4 -76   62.99   17.10
   4   2 -76   43.70   14.90
   7  -1 -76    3.60    8.50
  -6   7 -76    5.20   11.60
  -1  -6 -76    9.30   11.00
  -7   0 -76   -4.10    9.50
   7  -7 -76   13.40   11.10
   4  -7 -76   89.19   18.20
   3   4 -76   57.79   17.50
  -7   3 -76   59.09   16.20
   1  -7 -76   11.30   11.40
  -7   6 -76    5.10   10.90
   6   1 -76    5.90   10.10
   6  -8 -76   26.50   12.80
  -8   2 -76   39.60   14.00
   3  -8 -76   63.69   16.70
  -8   5 -76   41.90   13.90
   5   3 -76   48.60   15.00
   0  -8 -76    5.40   11.60
   8   0 -76   13.60   11.50
   5  -9 -76   -1.20    9.50
  -9   4 -76   12.90   11.80
  -1   1 -77   17.00    9.70
   1   0 -77    1.50    8.40
   0  -1 -77   -9.80    6.50
   0   2 -77   -3.20    6.70
  -2   0 -77   -3.50    7.00
   2  -2 -77    5.60    9.20
  -1  -2 -77   10.80   10.40
   3  -1 -77   -8.00    6.70
  -2   3 -77   -5.40    7.40
   4  -3 -77   11.40   10.60
  -1   4 -77   -6.10    7.80
  -3  -1 -77    6.40    9.70
  -3   2 -77    1.20    8.70
   1  -3 -77    2.40    8.40
   2   1 -77   -3.70    7.50
   5  -2 -77    2.80    8.30
  -2  -3 -77    8.80    9.80
  -3   5 -77   -7.70    7.60
  -2   6 -77    2.90    9.50
   6  -4 -77    2.80    9.70
  -4  -2 -77    0.60    7.30
  -4   1 -77   15.30   11.40
   3  -4 -77   -7.10    6.80
   1   3 -77   14.10   11.50
  -4   4 -77   -1.90    7.60
   0  -4 -77   -4.00    8.10
   4   0 -77    6.10    8.90
  -4   7 -77   -1.00    9.70
  -3  -4 -77   -0.90    9.10
   7  -3 -77   15.00    9.40
  -5  -3 -77    4.30    9.30
   8  -5 -77   30.20   12.70
   0   5 -77  -11.30    6.50
  -5   0 -77   -0.60    7.70
   5  -5 -77   -9.10    6.60
   2  -5 -77   -4.00    6.90
  -5   3 -77   -6.10    7.80
   3   2 -77   -4.20    9.40
  -5   6 -77   17.10   12.70
  -1  -5 -77    9.00    8.50
   6  -1 -77   -7.80    7.30
   9  -4 -77   -1.00    7.70
  -4  -5 -77   15.80   11.20
   7  -6 -77  -12.80    7.60
  -1   7 -77  -14.00    8.40
  -6  -1 -77   13.30   10.10
  -6   2 -77   10.60   11.10
   2   4 -77   -3.30    9.20
   4  -6 -77   -5.40    7.20
  -6   5 -77   -1.50    8.60
   5   1 -77  -11.40    6.30
   1  -6 -77   10.80    9.90
  -2  -6 -77    4.30    9.10
   8  -2 -77   13.30   11.30
   1   6 -77    7.80   12.60
  -7   1 -77   -5.70    8.30
   6  -7 -77    4.50    8.80
   3  -7 -77    7.80    9.20
   4   3 -77   -0.50   10.20
  -7   4 -77   15.40   12.70
   7   0 -77   13.30   10.40
   0  -7 -77    3.40    9.10
  -7   7 -77   -5.90   10.30
   3   5 -77   21.40   14.80
  -8   3 -77    2.10    9.40
   5  -8 -77   18.00   11.20
  -8   6 -77    9.40   10.70
   6   2 -77   -1.00    9.80
   2  -8 -77    1.90    9.80
  -9   5 -77    3.60    9.80
   5   4 -77   -7.60    8.30
   0   0 -78    5.70    9.10
  -1  -1 -78  110.69   20.00
  -1   2 -78  105.29   21.30
   2  -1 -78   93.19   18.50
   1  -2 -78  104.59   19.00
  -2   1 -78   89.79   18.00
   1   1 -78  104.79   19.90
  -2   4 -78   90.89   20.00
   4  -2 -78  120.39   18.40
  -2  -2 -78   77.49   17.00
   0   3 -78  209.08   23.90
   3  -3 -78  171.28   21.10
  -3   0 -78  224.88   23.10
   3   0 -78    6.60   10.60
  -3   3 -78   20.30   11.10
   0  -3 -78   34.70   12.10
  -3  -3 -78   83.69   17.50
   6  -3 -78   63.19   15.80
  -3   6 -78   61.49   17.30
   5  -4 -78   51.49   14.80
  -4  -1 -78   57.19   15.30
  -1   5 -78   46.80   15.00
   2   2 -78  150.18   21.20
   2  -4 -78   87.69   17.70
  -4   2 -78  107.99   19.80
   5  -1 -78   62.29   16.40
  -1  -4 -78   36.10   12.50
  -4   5 -78   35.90   14.20
  -4  -4 -78   72.09   18.30
   8  -4 -78   71.19   16.40
   7  -5 -78   47.20   14.30
  -5  -2 -78   43.80   14.70
  -2   7 -78   62.19   18.60
   1   4 -78   46.50   16.50
   4  -5 -78   70.79   17.40
  -5   1 -78   58.99   14.60
   1  -5 -78   43.90   14.90
  -5   4 -78   56.29   15.30
   4   1 -78   28.40   12.40
   7  -2 -78   71.79   16.70
  -5   7 -78   22.30   13.60
  -2  -5 -78   53.89   16.50
   6  -6 -78    5.60    9.20
  -6   0 -78   21.40   11.70
   0   6 -78   13.30   12.90
   3  -6 -78   12.80   10.70
  -6   3 -78   55.29   15.60
   3   3 -78   96.39   20.80
  -6   6 -78   -5.50    8.50
   0  -6 -78    4.30    9.90
   6   0 -78    6.90    9.90
   8  -7 -78    1.30    8.90
  -7  -1 -78    8.70    9.80
  -7   2 -78   46.10   14.50
   5  -7 -78   30.30   13.20
   2   5 -78   45.20   16.10
   2  -7 -78   66.19   16.70
   5   2 -78   58.09   17.30
  -7   5 -78   38.20   14.80
  -1  -7 -78   20.10   12.40
   8  -1 -78   24.60   13.70
   7  -8 -78   11.40    9.80
  -8   1 -78    3.70    9.50
   4  -8 -78   21.90   11.40
  -8   4 -78   39.10   14.30
   4   4 -78   25.20   14.30
  -8   7 -78   39.90   16.50
   1  -8 -78   45.30   25.20
   7   1 -78   48.40   16.10
   0   1 -79   -8.60    6.40
   1  -1 -79   -1.70    8.40
  -1   0 -79   -8.70    7.20
   3  -2 -79   -9.20    7.20
  -2  -1 -79    0.40    7.10
  -1   3 -79   -0.20    7.40
   0  -2 -79   -2.50    7.60
  -2   2 -79   -3.50    8.20
   2   0 -79    8.30    9.40
   5  -3 -79  -13.20    6.00
  -3  -2 -79    6.60   10.30
  -2   5 -79   -1.00    8.60
   1   2 -79   -0.20    9.20
   2  -3 -79  -12.20    6.50
  -3   1 -79   -4.10    7.70
  -3   4 -79   -0.10   11.20
  -1  -3 -79   20.40   11.20
   4  -1 -79   18.50   10.60
  -4  -3 -79   -0.70    8.40
   7  -4 -79    1.30    8.70
  -3   7 -79   10.20   12.70
   4  -4 -79   11.10   10.50
   0   4 -79   -0.30   10.40
  -4   0 -79   -3.70    8.50
  -4   3 -79   -9.30    7.50
   1  -4 -79    3.20    8.10
   3   1 -79    5.00    8.10
  -4   6 -79   -4.90    7.60
  -2  -4 -79    1.60    8.90
   6  -2 -79    2.50    8.70
   6  -5 -79    1.00    9.20
  -5  -1 -79    7.40   10.60
  -1   6 -79   -8.80    9.80
   3  -5 -79   -1.00    8.10
   2   3 -79   16.10   10.70
  -5   2 -79    3.10   10.40
  -5   5 -79   22.60   12.20
   0  -5 -79    1.30    7.90
   5   0 -79   -2.90    8.50
  -3  -5 -79   14.10   10.60
   8  -3 -79    1.80    8.60
   8  -6 -79   -3.20    8.70
  -6  -2 -79    4.80    9.90
  -6   1 -79    1.60    9.80
   1   5 -79    1.30   10.10
   5  -6 -79    4.60    9.30
   4   2 -79   -1.60    9.70
   2  -6 -79   -9.30    8.20
  -6   4 -79    1.30    7.90
   7  -1 -79   -6.90    7.20
  -6   7 -79   -0.80    9.80
  -1  -6 -79    2.40    8.60
   7  -7 -79    0.10    8.90
  -7   0 -79   -7.00    8.40
   3   4 -79   11.50   11.60
   4  -7 -79    1.30    7.90
  -7   3 -79    1.10    9.20
  -7   6 -79    4.90   11.50
   6   1 -79   13.50   11.10
   1  -7 -79    5.40   10.00
   6  -8 -79   18.80   11.30
  -8   2 -79   11.50   10.40
   5   3 -79   10.20   11.10
  -8   5 -79    5.00   11.10
   3  -8 -79    0.20    8.70
   0  -1 -80   17.50   10.10
   1   0 -80    9.90    9.40
  -1   1 -80   -0.10    7.80
   2  -2 -80   75.59   16.50
  -2   0 -80   50.79   14.50
   0   2 -80   39.00   13.40
  -2   3 -80   49.30   15.90
  -1  -2 -80   47.30   14.90
   3  -1 -80   66.09   16.30
  -1   4 -80   92.19   20.40
  -3  -1 -80  111.49   18.40
   4  -3 -80  111.99   18.40
  -3   2 -80   43.10   13.20
   2   1 -80   46.80   14.20
   1  -3 -80   54.59   15.00
  -2  -3 -80   21.90   11.90
   5  -2 -80   27.90   11.60
  -3   5 -80   22.70   13.70
  -4  -2 -80   61.99   16.20
   6  -4 -80  121.49   19.40
  -2   6 -80  103.89   23.30
  -4   1 -80  121.89   19.50
   1   3 -80  128.69   21.20
   3  -4 -80  102.99   19.80
   4   0 -80   18.80   10.80
   0  -4 -80   16.10   10.20
  -4   4 -80   26.50   12.50
   7  -3 -80   86.69   18.30
  -3  -4 -80   91.89   18.50
  -4   7 -80   95.59   22.70
  -5  -3 -80    1.80   10.50
   8  -5 -80   -4.90    6.90
  -5   0 -80   -1.90    7.80
   5  -5 -80   13.40   10.70
   0   5 -80    8.90   10.60
   2  -5 -80   23.90   11.90
   3   2 -80   24.20   13.00
  -5   3 -80   12.30   11.50
  -5   6 -80   42.40   15.80
  -1  -5 -80   52.99   14.50
   6  -1 -80   21.50   12.40
  -1   7 -80   47.70   17.90
   7  -6 -80   34.60   14.90
  -6  -1 -80   44.50   14.90
  -6   2 -80   91.89   19.70
   4  -6 -80   83.79   19.00
   2   4 -80   82.29   20.40
  -6   5 -80   11.60   10.90
   1  -6 -80    2.00    9.50
   5   1 -80   27.00   12.50
  -7   1 -80   36.30   13.90
   6  -7 -80   28.70   12.30
   1   6 -80   49.60   18.10
   4   3 -80   93.39   20.90
   3  -7 -80   71.89   17.40
  -7   4 -80   84.09   20.20
   0  -7 -80   17.40   13.10
  -7   7 -80   -2.10    9.30
   7   0 -80   -6.20    8.80
   3   5 -80  -10.70    8.10
   5  -8 -80   13.70   11.20
  -8   3 -80   14.60   11.70
   0   0 -81   -3.10    7.30
  -1  -1 -81    5.10    9.40
  -1   2 -81   12.50   10.70
   2  -1 -81    6.50    9.30
   1   1 -81   -2.40    7.90
   1  -2 -81   -2.80    7.30
  -2   1 -81    6.10    9.50
  -2  -2 -81   22.40   10.90
  -2   4 -81   12.40   12.30
   4  -2 -81   19.00   10.90
   3  -3 -81   -3.90    8.10
  -3   0 -81   -6.50    8.00
   0   3 -81   -2.40    8.90
   3   0 -81    5.80    8.70
  -3   3 -81   15.60   12.10
   0  -3 -81    6.20   10.00
  -3  -3 -81   -1.00    9.80
   6  -3 -81   -3.90    8.00
  -3   6 -81    7.50   11.20
   5  -4 -81    7.70    9.80
  -4  -1 -81    6.00    9.50
  -1   5 -81   32.90   14.40
   2   2 -81    1.10    8.60
  -4   2 -81    1.90   10.00
   2  -4 -81    5.00    8.90
   5  -1 -81   -8.00    7.50
  -4   5 -81    9.30   11.80
  -1  -4 -81   12.10   11.00
  -2   7 -81   11.20   13.90
   7  -5 -81  -10.80    6.60
  -5  -2 -81    8.90   10.50
  -5   1 -81    4.80    8.90
   4  -5 -81    2.40    8.50
   1   4 -81   -0.60    9.90
   4   1 -81   -0.70    9.10
  -5   4 -81   -4.30    7.60
   1  -5 -81    2.70    9.40
  -2  -5 -81    3.20    8.80
  -5   7 -81   -4.40    9.60
   7  -2 -81    7.90   10.10
   6  -6 -81    8.80   10.00
  -6   0 -81    2.20   10.70
   0   6 -81   -3.20    8.90
   3  -6 -81    1.70    9.20
   3   3 -81   -0.70    9.30
  -6   3 -81   10.70   11.60
   0  -6 -81    5.50   10.30
  -6   6 -81    0.30   10.00
   6   0 -81   -5.10    6.90
   2   5 -81    1.60   10.00
   5  -7 -81   12.10   11.50
  -7   2 -81   -3.40    8.50
   2  -7 -81    4.60   10.10
  -7   5 -81    6.30   10.10
   5   2 -81   25.60   14.90
   1  -1 -82   50.69   15.20
   0   1 -82   35.80   13.50
  -1   0 -82   65.19   15.90
  -2  -1 -82  148.99   20.80
  -1   3 -82  154.58   22.20
   3  -2 -82  160.38   20.80
  -2   2 -82  138.39   21.00
   2   0 -82  109.79   20.50
   0  -2 -82  156.88   20.80
  -3  -2 -82   87.19   18.90
  -2   5 -82  156.68   23.30
   5  -3 -82   85.09   18.50
   1   2 -82  142.69   21.50
   2  -3 -82  155.68   21.00
  -3   1 -82   81.79   18.30
   4  -1 -82   31.40   13.60
  -1  -3 -82   30.80   12.50
  -3   4 -82   35.90   14.90
  -4  -3 -82   55.09   15.10
   7  -4 -82   22.10   11.30
  -3   7 -82   20.80   13.90
  -4   0 -82  -10.30    7.90
   4  -4 -82    1.80    9.40
   0   4 -82   22.30   13.50
  -4   3 -82   29.70   13.40
   3   1 -82   22.80   12.10
   1  -4 -82   33.10   12.80
  -4   6 -82   77.79   19.60
  -2  -4 -82   85.19   18.40
   6  -2 -82   17.70   11.30
  -1   6 -82   64.69   18.50
  -5  -1 -82   70.19   16.60
   6  -5 -82   62.19   16.10
   2   3 -82  116.49   21.90
   3  -5 -82   74.69   17.80
  -5   2 -82  102.89   20.50
   5   0 -82   28.20   13.40
   0  -5 -82   46.70   15.20
  -5   5 -82   40.80   15.70
  -6   1 -82   30.80   13.90
   1   5 -82   61.79   18.70
   5  -6 -82   49.50   15.30
   4   2 -82   71.39   18.80
  -6   4 -82   83.99   20.10
   2  -6 -82   93.39   19.60
  -6   7 -82   51.59   17.30
   7  -1 -82   20.40   12.50
  -1  -6 -82   37.80   13.40
   3   4 -82   20.30   13.50
  -7   3 -82   36.90   13.90
   4  -7 -82   57.89   16.50
  -7   6 -82   21.30   13.10
   6   1 -82    8.70   12.00
   1  -7 -82   30.70   20.70
   0  -1 -83    8.50    9.60
   1   0 -83    4.20    9.50
  -1   1 -83   17.80   11.30
   0   2 -83   10.00    9.90
  -2   0 -83    1.70    9.30
   2  -2 -83   -7.40    6.80
  -1  -2 -83    2.80    9.70
   3  -1 -83   -5.10    9.00
  -2   3 -83   -1.80    7.90
  -1   4 -83    4.80   11.00
  -3  -1 -83   -1.10    8.60
   4  -3 -83   -3.60    8.30
  -3   2 -83  -12.50    7.40
   1  -3 -83    5.40    9.10
   2   1 -83   -3.70    8.70
   5  -2 -83   -7.50    7.30
  -3   5 -83   12.30   11.60
  -2  -3 -83   -9.10    8.40
   6  -4 -83   -9.70    6.60
  -4  -2 -83    7.30    9.60
  -2   6 -83   -8.30    9.30
  -4   1 -83   -5.40    8.00
   1   3 -83  -12.80    6.90
   3  -4 -83    4.10    9.90
   0  -4 -83    3.90   10.40
   4   0 -83   10.40    9.50
  -4   4 -83    2.10   11.40
   7  -3 -83   -5.00    6.60
  -4   7 -83   -1.00   10.40
  -3  -4 -83   -0.90    8.40
   0   5 -83   13.80   11.20
   5  -5 -83    1.70    9.00
  -5   0 -83   11.70   11.90
   2  -5 -83   -5.70    7.40
  -5   3 -83   -5.10    8.10
   3   2 -83    9.10   10.50
   6  -1 -83    1.90    7.70
  -5   6 -83   -6.00    8.80
  -1  -5 -83    7.30   11.10
  -6   2 -83    8.20   12.10
   2   4 -83   -3.70    9.90
   4  -6 -83   -2.50    7.80
   1  -6 -83   12.00   12.10
  -6   5 -83   -5.20   10.40
   5   1 -83   -3.30    8.00
   3  -7 -83    0.10   15.90
  -7   4 -83    8.00   11.10
   4   3 -83    1.40   10.50
   0   0 -84   28.00   12.90
   2  -1 -84   31.90   12.90
  -1  -1 -84   45.80   14.00
  -1   2 -84   29.90   14.00
   1  -2 -84   43.70   13.70
  -2   1 -84   40.10   14.80
   1   1 -84   25.80   12.90
   4  -2 -84   44.10   16.00
  -2   4 -84   32.70   14.70
  -2  -2 -84   66.69   16.70
  -3   0 -84   56.79   16.30
   0   3 -84   39.30   15.10
   3  -3 -84   21.40   11.40
   0  -3 -84   57.19   16.40
   3   0 -84   36.60   14.50
  -3   3 -84   25.40   13.60
  -3   6 -84   64.19   19.80
  -3  -3 -84   66.59   17.30
   6  -3 -84   27.30   13.00
   5  -4 -84   17.80   11.00
  -1   5 -84   52.69   17.40
  -4  -1 -84   24.10   13.30
   2   2 -84   52.69   16.90
  -4   2 -84   33.30   14.00
   2  -4 -84   31.70   13.10
   5  -1 -84   26.90   13.90
  -1  -4 -84   15.20   11.90
  -4   5 -84   21.40   13.60
  -5   1 -84   28.70   13.40
   1   4 -84   95.29   22.00
   4  -5 -84   20.30   11.90
   1  -5 -84   22.90   11.30
  -5   4 -84   25.80   13.50
   4   1 -84   32.90   14.90
   6  -6 -84   61.79   17.00
   0   6 -84   23.00   22.40
  -6   0 -84   51.79   16.10
   3  -6 -84   79.49   18.80
   3   3 -84   66.29   18.60
  -6   3 -84   57.19   17.80
   0  -6 -84   61.09   25.10
  -6   6 -84   59.69   18.40
   6   0 -84   64.99   17.60
   0   1 -85   -2.60    8.60
  -1   0 -85   -8.90    6.80
   1  -1 -85    3.60   10.00
   3  -2 -85   -7.40    7.50
  -2  -1 -85    9.60   10.10
  -1   3 -85   15.40   11.20
   0  -2 -85    3.30    8.60
  -2   2 -85   19.80   12.70
   2   0 -85   -5.90    7.30
  -3  -2 -85    3.00    9.10
   5  -3 -85   15.60   12.00
  -2   5 -85    0.70   13.10
   1   2 -85    9.90   10.50
  -3   1 -85    8.00   10.40
   2  -3 -85   21.10   12.10
   4  -1 -85   16.20   12.40
  -1  -3 -85  -12.80    7.80
  -3   4 -85   -1.70    8.60
   0   4 -85   -8.50    8.40
  -4   0 -85   -0.40    8.40
   4  -4 -85    5.80    9.30
  -4   3 -85    6.50   12.20
   3   1 -85   22.90   14.10
   1  -4 -85   10.20   10.50
   6  -2 -85   16.30   11.70
  -4   6 -85   42.00   16.90
  -2  -4 -85   -1.20    9.70
  -5  -1 -85   -2.10    8.80
   6  -5 -85    6.50   11.20
  -1   6 -85    1.70   18.20
   2   3 -85   -2.60   10.10
  -5   2 -85    2.90   11.10
   3  -5 -85   -5.40    7.30
   0  -5 -85    4.00    9.80
  -5   5 -85   -6.60    9.90
   5   0 -85  -11.70    7.60
  -6   1 -85    0.30   11.70
   1   5 -85    2.40   14.80
   5  -6 -85   12.90   10.30
   2  -6 -85   44.00   18.90
  -6   4 -85   21.30   13.50
   4   2 -85    2.50   12.00
   1   0 -86   44.10   13.80
   0  -1 -86   42.10   15.10
  -1   1 -86   54.89   15.50
   2  -2 -86   46.20   15.00
   0   2 -86   52.19   16.30
  -2   0 -86   42.70   14.20
  -1  -2 -86   53.99   15.20
  -2   3 -86   40.80   14.40
   3  -1 -86   68.59   16.90
   4  -3 -86   21.50   12.50
  -1   4 -86   26.50   13.00
  -3  -1 -86   24.30   13.40
   1  -3 -86   45.50   14.10
   2   1 -86   72.69   18.50
  -3   2 -86   38.00   15.10
  -3   5 -86   80.89   20.50
   5  -2 -86   65.79   17.60
  -2  -3 -86   40.30   13.40
  -4  -2 -86   -0.10    8.40
  -2   6 -86    1.20   22.30
   6  -4 -86    5.20   10.30
  -4   1 -86   19.60   13.20
   3  -4 -86   15.80   11.70
   1   3 -86   47.90   15.80
   0  -4 -86   36.20   15.10
  -4   4 -86   16.90   11.50
   4   0 -86   45.90   16.90
   5  -5 -86   69.69   17.30
   0   5 -86  123.29   31.50
  -5   0 -86  139.39   21.80
  -5   3 -86   78.89   19.50
   2  -5 -86   71.19   17.30
   3   2 -86   56.19   19.00
   2   4 -86   38.40   22.20
  -6   2 -86   14.70   11.10
   4  -6 -86   13.20   18.00
   0   0 -87    8.90   11.00
  -1   2 -87   38.80   13.10
  -1  -1 -87    4.00   10.60
   2  -1 -87   -7.90    7.50
   1  -2 -87  -13.00    6.50
   1   1 -87   -6.50    8.10
  -2   1 -87   13.70   11.40
   4  -2 -87  -16.00    7.20
  -2  -2 -87    2.40    8.30
  -2   4 -87   -2.00    9.90
   3  -3 -87   -9.10    7.60
  -3   0 -87    8.40   10.70
   0   3 -87  -12.30    6.30
  -3   3 -87  -11.20    8.20
   3   0 -87  -11.50    8.30
   0  -3 -87    8.60   10.60
  -1   5 -87   -1.80   12.60
   5  -4 -87   -0.10    9.30
  -4  -1 -87    6.90   10.50
   2   2 -87   -5.60    9.60
   2  -4 -87    9.50   10.60
  -4   2 -87   -2.90    9.90
  -4   5 -87    2.10   10.40
   5  -1 -87   -0.80    9.70
  -1  -4 -87    8.80   11.20
   1   4 -87   -1.60   11.40
   4  -5 -87  -12.00    7.50
  -5   1 -87   -7.30    9.00
  -5   4 -87   10.20   11.90
   1  -5 -87   -2.70   10.70
   4   1 -87   16.40   13.00
   1  -1 -88   14.60   10.70
  -1   0 -88   19.60   12.50
   0   1 -88   46.80   15.10
  -2  -1 -88   21.20   13.50
  -1   3 -88   23.00   13.70
   3  -2 -88   -6.30    9.50
   0  -2 -88   36.50   14.60
   2   0 -88   32.20   13.80
  -2   2 -88   30.80   15.70
   5  -3 -88   -0.40   10.10
  -3  -2 -88   15.20   12.30
  -2   5 -88   -7.50   12.50
  -3   1 -88    4.50    9.40
   1   2 -88   11.90   12.30
   2  -3 -88   35.40   14.60
   4  -1 -88   46.60   15.20
  -3   4 -88   51.89   17.20
  -1  -3 -88   45.40   13.60
   4  -4 -88   95.09   19.50
   0   4 -88   89.79   23.00
  -4   0 -88   83.59   19.00
  -4   3 -88   41.40   13.80
   3   1 -88   53.49   16.20
   1  -4 -88   51.79   15.30
   3  -5 -88   21.50   25.10
   2   3 -88    5.90   14.60
  -5   2 -88   21.80   13.20
   0  -1 -89   -2.10    9.50
  -1   1 -89   -4.90    7.80
   1   0 -89   -2.50    8.60
  -2   0 -89   -5.60    8.70
   2  -2 -89   -4.70    9.80
   0   2 -89   -9.20    7.50
  -2   3 -89    3.70   10.30
   3  -1 -89   16.60   12.50
  -1  -2 -89   -3.90    8.30
   4  -3 -89  -10.10    7.30
  -3  -1 -89   -2.10   10.00
  -1   4 -89    6.00   14.00
  -3   2 -89    3.10    9.20
   1  -3 -89  -13.50    8.40
   2   1 -89    2.10    9.00
   3  -4 -89   -7.20    8.00
   1   3 -89   -6.50    9.30
  -4   1 -89    0.30   11.20
   4   0 -89    8.50   10.50
  -4   4 -89   19.60   12.80
   0   0 -90   20.60   12.20
  -1   2 -90   36.20   15.00
  -1  -1 -90    8.70   11.30
   2  -1 -90   29.40   13.10
   1  -2 -90   44.50   14.70
   1   1 -90   42.80   15.70
  -2   1 -90    3.90    9.50
  -2  -2 -90   31.30   14.40
   4  -2 -90   64.29   19.80
   0   3 -90   36.70   22.40
  -3   0 -90   29.50   14.40
   3  -3 -90   11.60   12.70
   0  -3 -90   45.40   17.10
  -3   3 -90   58.09   17.50
   3   0 -90   38.00   14.50
   2  -4 -90   24.60   23.30
  -4   2 -90   47.60   17.40
   2   2 -90    5.20   20.50
   1  -1 -91    3.80   10.60
   0   1 -91   32.20   14.10
  -1   0 -91    4.20    9.50
   3  -2 -91  -11.50    9.80
  -2  -1 -91   -9.70    8.20
   2   0 -91   20.40   14.00
  -2   2 -91   30.10   12.30
   0  -2 -91   -3.50   10.50
  -3   1 -91  -13.20    7.80
   0  -1 -92   50.59   18.50
   1   0 -92   22.00   17.20
  -1   1 -92   52.39   19.60
   0   2 -92    9.90   16.50
   2  -2 -92   39.50   20.10
  -2   0 -92    9.40   13.40
   0   0 -93  -13.90    9.90
   0   0   0    0.00    0.00

_computing_structure_solution     'SHELXT 2018/2 (Sheldrick, 2018)'
;
_shelx_hkl_checksum   91703

