 
data_Er-K_auto_a
 
_audit_creation_method            'SHELXL-2018/3'
_shelx_SHELXL_version_number      '2018/3'
_chemical_name_systematic         ?
_chemical_name_common             ?
_chemical_melting_point           ?
_chemical_formula_moiety          ?
_chemical_formula_sum
 'C H Eu N O' 
_chemical_formula_weight          194.99

loop_
 _atom_type_symbol
 _atom_type_description
 _atom_type_scat_dispersion_real
 _atom_type_scat_dispersion_imag
 _atom_type_scat_source
 'C'  'C'   0.0033   0.0016
 'International Tables Vol C Tables 4.2.6.8 and 6.1.1.4'
 'H'  'H'   0.0000   0.0000
 'International Tables Vol C Tables 4.2.6.8 and 6.1.1.4'
 'N'  'N'   0.0061   0.0033
 'International Tables Vol C Tables 4.2.6.8 and 6.1.1.4'
 'O'  'O'   0.0106   0.0060
 'International Tables Vol C Tables 4.2.6.8 and 6.1.1.4'
 'Eu'  'Eu'  -0.1578   3.6682
 'International Tables Vol C Tables 4.2.6.8 and 6.1.1.4'
 
_space_group_crystal_system       triclinic
_space_group_IT_number            2
_space_group_name_H-M_alt         'P -1'
_space_group_name_Hall            '-P 1'
 
_shelx_space_group_comment
;
The symmetry employed for this shelxl refinement is uniquely defined
by the following loop, which should always be used as a source of
symmetry information in preference to the above space-group names.
They are only intended as comments.
;
 
loop_
 _space_group_symop_operation_xyz
 'x, y, z'
 '-x, -y, -z'
 
_cell_length_a                    11.19790(10)
_cell_length_b                    14.5130(2)
_cell_length_c                    16.6733(2)
_cell_angle_alpha                 86.6850(10)
_cell_angle_beta                  70.8550(10)
_cell_angle_gamma                 76.5100(10)
_cell_volume                      2488.66(5)
_cell_formula_units_Z             35
_cell_measurement_temperature     291(2)
_cell_measurement_reflns_used     ?
_cell_measurement_theta_min       ?
_cell_measurement_theta_max       ?
 
_exptl_crystal_description        ?
_exptl_crystal_colour             ?
_exptl_crystal_density_meas       ?
_exptl_crystal_density_method     ?
_exptl_crystal_density_diffrn     4.554          
_exptl_crystal_F_000              2975
_exptl_transmission_factor_min    ?
_exptl_transmission_factor_max    ?
_exptl_crystal_size_max           ?
_exptl_crystal_size_mid           ?
_exptl_crystal_size_min           ?
_exptl_absorpt_coefficient_mu     21.749
_shelx_estimated_absorpt_T_min    ?
_shelx_estimated_absorpt_T_max    ?
_exptl_absorpt_correction_type    ?
_exptl_absorpt_correction_T_min   ?
_exptl_absorpt_correction_T_max   ?
_exptl_absorpt_process_details    ?
_exptl_absorpt_special_details    ?
_diffrn_ambient_temperature       291(2)
_diffrn_radiation_wavelength      0.71073
_diffrn_radiation_type            MoK\a
_diffrn_source                    ?
_diffrn_measurement_device_type   ?
_diffrn_measurement_method        ?
_diffrn_detector_area_resol_mean  ?
_diffrn_reflns_number             23036
_diffrn_reflns_av_unetI/netI      0.0363
_diffrn_reflns_av_R_equivalents   0.0208
_diffrn_reflns_limit_h_min        -15
_diffrn_reflns_limit_h_max        14
_diffrn_reflns_limit_k_min        -18
_diffrn_reflns_limit_k_max        19
_diffrn_reflns_limit_l_min        -22
_diffrn_reflns_limit_l_max        21
_diffrn_reflns_theta_min          1.957
_diffrn_reflns_theta_max          29.223
_diffrn_reflns_theta_full         25.242
_diffrn_measured_fraction_theta_max   0.816
_diffrn_measured_fraction_theta_full  1.000
_diffrn_reflns_Laue_measured_fraction_max    0.816
_diffrn_reflns_Laue_measured_fraction_full   1.000
_diffrn_reflns_point_group_measured_fraction_max   0.816
_diffrn_reflns_point_group_measured_fraction_full  1.000
_reflns_number_total              11012
_reflns_number_gt                 9191
_reflns_threshold_expression      'I > 2\s(I)'
_reflns_Friedel_coverage          0.000
_reflns_Friedel_fraction_max      .
_reflns_Friedel_fraction_full     .
 
_reflns_special_details
;
 Reflections were merged by SHELXL according to the crystal
 class for the calculation of statistics and refinement.
 
 _reflns_Friedel_fraction is defined as the number of unique
 Friedel pairs measured divided by the number that would be
 possible theoretically, ignoring centric projections and
 systematic absences.
;
 
_computing_data_collection        ?
_computing_cell_refinement        ?
_computing_data_reduction         ?
_computing_structure_solution     'SHELXT 2018/2 (Sheldrick, 2018)'
_computing_structure_refinement 'SHELXL-2018/3 (Sheldrick, 2018)'
_computing_molecular_graphics     ?
_computing_publication_material   ?
_refine_special_details           ?
_refine_ls_structure_factor_coef  Fsqd
_refine_ls_matrix_type            full
_refine_ls_weighting_scheme       calc
_refine_ls_weighting_details
'w=1/[\s^2^(Fo^2^)+(0.1000P)^2^] where P=(Fo^2^+2Fc^2^)/3'
_atom_sites_solution_primary      ?
_atom_sites_solution_secondary    ?
_atom_sites_solution_hydrogens    geom
_refine_ls_hydrogen_treatment     mixed
_refine_ls_extinction_method      none
_refine_ls_extinction_coef        .
_refine_ls_number_reflns          11012
_refine_ls_number_parameters      787
_refine_ls_number_restraints      0
_refine_ls_R_factor_all           0.0416
_refine_ls_R_factor_gt            0.0312
_refine_ls_wR_factor_ref          0.1157
_refine_ls_wR_factor_gt           0.0990
_refine_ls_goodness_of_fit_ref    0.851
_refine_ls_restrained_S_all       0.851
_refine_ls_shift/su_max           2.551
_refine_ls_shift/su_mean          0.044
 
loop_
 _atom_site_label
 _atom_site_type_symbol
 _atom_site_fract_x
 _atom_site_fract_y
 _atom_site_fract_z
 _atom_site_U_iso_or_equiv
 _atom_site_adp_type
 _atom_site_occupancy
 _atom_site_site_symmetry_order  
 _atom_site_calc_flag
 _atom_site_refinement_flags_posn
 _atom_site_refinement_flags_adp
 _atom_site_refinement_flags_occupancy
 _atom_site_disorder_assembly
 _atom_site_disorder_group
Eu01 Eu 0.70576(2) 0.31987(2) 0.43301(2) 0.02470(7) Uani 1 1 d . . . . .
Eu02 Eu 0.86156(2) -0.11753(2) 0.43946(2) 0.02495(7) Uani 1 1 d . . . . .
O1 O 0.8994(3) 0.3395(3) 0.4620(3) 0.0489(9) Uani 1 1 d . . . . .
H1A H 0.937(6) 0.321(5) 0.442(5) 0.073 Uiso 1 1 calc R U . . .
O003 O 0.9102(3) 0.02193(18) 0.38046(18) 0.0339(6) Uani 1 1 d . . . . .
O004 O 0.8666(3) 0.17911(17) 0.38958(17) 0.0307(6) Uani 1 1 d . . . . .
O005 O 0.8131(3) -0.0474(2) -0.41588(19) 0.0387(7) Uani 1 1 d . . . . .
O6 O 0.2631(3) 0.6452(2) 0.9129(2) 0.0527(9) Uani 1 1 d . . . . .
O006 O 0.8747(3) -0.20176(19) -0.42808(17) 0.0337(6) Uani 1 1 d . . . . .
O7 O 0.7466(4) 0.1701(2) -0.0768(2) 0.0565(9) Uani 1 1 d . . . . .
O8 O 0.6598(3) 0.2471(2) 0.57284(19) 0.0445(7) Uani 1 1 d . . . . .
O008 O 0.7442(3) -0.1098(2) 0.3375(2) 0.0445(8) Uani 1 1 d . . . . .
H008 H 0.772(4) -0.159(4) 0.308(3) 0.067 Uiso 1 1 calc R U . . .
O9 O 0.5922(3) 0.1909(2) 0.41543(19) 0.0398(7) Uani 1 1 d . . . . .
O10 O 1.3032(3) 0.5139(2) -0.4118(2) 0.0532(9) Uani 1 1 d . . . . .
N1 N 0.9765(4) 0.0540(2) 0.1202(2) 0.0380(8) Uani 1 1 d . . . . .
O00B O 1.0759(3) -0.1157(2) 0.4427(2) 0.0444(8) Uani 1 1 d . . . . .
H00B H 1.094(3) -0.078(4) 0.422(4) 0.067 Uiso 1 1 calc R U . . .
O00C O 0.0110(3) 0.80720(19) 1.29477(18) 0.0401(7) Uani 1 1 d . . . . .
O00D O 0.6490(3) 0.2847(2) 0.3102(2) 0.0435(7) Uani 1 1 d . . . . .
O00E O 1.1742(3) 0.6032(2) -0.30233(19) 0.0504(8) Uani 1 1 d . . . . .
O00F O 0.6810(3) -0.1995(3) 0.5054(4) 0.0506(10) Uani 1 1 d . . . . .
H00F H 0.693(3) -0.221(6) 0.507(7) 0.076 Uiso 1 1 calc R U . . .
O00G O -0.0309(3) 0.71499(19) 1.40399(18) 0.0441(7) Uani 1 1 d . . . . .
O00H O 1.0821(3) 0.4164(2) 0.06978(19) 0.0415(7) Uani 1 1 d . . . . .
O00I O 0.6337(4) 0.4005(2) 0.5778(2) 0.0543(9) Uani 1 1 d . . . . .
N00J N 0.2302(3) 0.5456(2) 1.1675(2) 0.0336(7) Uani 1 1 d . . . . .
O00L O 0.6535(3) 0.0053(2) 0.4792(3) 0.0520(10) Uani 1 1 d . . . . .
H00L H 0.660(2) 0.033(5) 0.466(5) 0.078 Uiso 1 1 calc R U . . .
O2 O 0.4768(3) 0.3863(3) 0.4719(3) 0.0635(14) Uani 1 1 d . . . . .
H2A H 0.459(3) 0.405(6) 0.431(6) 0.095 Uiso 1 1 calc R U . . .
C00M C 0.8972(3) 0.1019(2) 0.3482(2) 0.0212(7) Uani 1 1 d . . . . .
N00N N 1.1605(3) 0.3335(2) -0.1883(2) 0.0345(8) Uani 1 1 d . . . . .
N00O N 0.9728(3) 0.1484(2) 0.1228(2) 0.0295(7) Uani 1 1 d . . . . .
N2 N 1.1158(4) 0.4118(2) -0.0176(2) 0.0399(8) Uani 1 1 d . . . . .
N3 N 1.0379(3) 0.3392(2) 0.1084(2) 0.0367(8) Uani 1 1 d . . . . .
N4 N 1.2248(4) 0.2810(2) -0.2608(2) 0.0410(9) Uani 1 1 d . . . . .
N5 N 0.7485(4) 0.0925(3) -0.1212(2) 0.0458(9) Uani 1 1 d . . . . .
N6 N 0.7007(4) 0.1583(3) 0.0100(2) 0.0490(10) Uani 1 1 d . . . . .
N7 N 0.7260(3) -0.1025(2) -0.1531(2) 0.0353(8) Uani 1 1 d . . . . .
N8 N 0.7307(4) -0.1969(3) -0.1579(2) 0.0480(10) Uani 1 1 d . . . . .
N9 N 0.5355(5) 0.2642(3) 0.8417(3) 0.0681(14) Uani 1 1 d . . . . .
N10 N 0.4929(3) 0.3613(2) 0.8430(2) 0.0351(7) Uani 1 1 d . . . . .
N11 N 0.2181(4) 0.4907(3) 1.2376(3) 0.0555(11) Uani 1 1 d . . . . .
N12 N 0.2340(4) 0.6373(3) 0.9995(2) 0.0429(9) Uani 1 1 d . . . . .
N13 N 0.3413(4) 0.5631(3) 0.8696(2) 0.0436(9) Uani 1 1 d . . . . .
N14 N 0.5964(3) 0.0654(2) 0.1747(2) 0.0349(7) Uani 1 1 d . . . . .
N15 N 0.5305(4) 0.0215(3) 0.2441(2) 0.0413(8) Uani 1 1 d . . . . .
C1 C 1.1508(4) 0.4275(3) -0.2031(3) 0.0381(9) Uani 1 1 d . . . . .
H1 H 1.109521 0.476667 -0.163204 0.046 Uiso 1 1 calc R U . . .
C00V C 0.8305(4) -0.1276(3) -0.3828(2) 0.0302(8) Uani 1 1 d . . . . .
C00X C 0.9239(3) 0.1055(2) 0.2554(2) 0.0262(8) Uani 1 1 d . . . . .
C00Z C 1.2305(4) 0.5229(3) -0.3349(3) 0.0337(9) Uani 1 1 d . . . . .
C2 C 0.9413(3) 0.1813(3) 0.2037(2) 0.0277(8) Uani 1 1 d . . . . .
H2 H 0.933269 0.243028 0.220448 0.033 Uiso 1 1 calc R U . . .
C012 C 0.6271(4) 0.3253(3) 0.6145(3) 0.0351(9) Uani 1 1 d . . . . .
C014 C 0.5185(4) 0.3965(3) 0.7645(3) 0.0343(9) Uani 1 1 d . . . . .
H014 H 0.497508 0.459896 0.750729 0.041 Uiso 1 1 calc R U . . .
C016 C 0.3000(4) 0.5017(3) 1.0865(2) 0.0300(8) Uani 1 1 d . . . . .
C019 C 1.2125(4) 0.4363(3) -0.2870(3) 0.0336(9) Uani 1 1 d . . . . .
C01B C 0.7919(4) -0.1355(3) -0.2896(3) 0.0331(9) Uani 1 1 d . . . . .
C01D C 0.2947(4) 0.5503(3) 1.0106(3) 0.0308(8) Uani 1 1 d . . . . .
C01F C 0.5853(4) 0.1484(3) 0.2830(3) 0.0330(9) Uani 1 1 d . . . . .
C01I C 0.1090(4) 0.6430(3) 1.2729(3) 0.0354(9) Uani 1 1 d . . . . .
C01J C 0.6085(4) 0.2125(3) 0.3388(3) 0.0348(9) Uani 1 1 d . . . . .
C01K C 0.5810(4) 0.3221(3) 0.7085(3) 0.0385(10) Uani 1 1 d . . . . .
C01L C 0.1665(4) 0.6373(3) 1.1871(3) 0.0330(9) Uani 1 1 d . . . . .
H01L H 0.162891 0.686730 1.149236 0.040 Uiso 1 1 calc R U . . .
C01M C 0.4323(4) 0.4079(3) 0.9227(2) 0.0306(8) Uani 1 1 d . . . . .
C01N C 1.2570(4) 0.3428(3) -0.3197(3) 0.0406(10) Uani 1 1 d . . . . .
H01N H 1.303779 0.326799 -0.376314 0.049 Uiso 1 1 calc R U . . .
C01O C 0.0263(4) 0.7273(3) 1.3260(2) 0.0316(8) Uani 1 1 d . . . . .
C01P C 1.0131(4) 0.1958(3) 0.0463(2) 0.0286(8) Uani 1 1 d . . . . .
C01Q C 1.0926(4) 0.3315(3) -0.0328(2) 0.0298(8) Uani 1 1 d . . . . .
C01R C 0.9480(4) 0.0291(3) 0.2001(2) 0.0358(9) Uani 1 1 d . . . . .
H01R H 0.944165 -0.032394 0.218078 0.043 Uiso 1 1 calc R U . . .
C01S C 0.3609(4) 0.5041(3) 0.9288(2) 0.0315(8) Uani 1 1 d . . . . .
C01T C 1.0439(4) 0.2861(3) 0.0457(2) 0.0296(8) Uani 1 1 d . . . . .
C01U C 1.1099(4) 0.2884(3) -0.1112(3) 0.0328(8) Uani 1 1 d . . . . .
C01W C 1.0316(4) 0.1572(3) -0.0309(3) 0.0353(9) Uani 1 1 d . . . . .
H01W H 1.012413 0.098503 -0.032814 0.042 Uiso 1 1 calc R U . . .
C01X C 0.7608(4) -0.0633(3) -0.2311(3) 0.0348(9) Uani 1 1 d . . . . .
H01X H 0.763165 -0.000144 -0.242565 0.042 Uiso 1 1 calc R U . . .
C01Y C 0.1462(5) 0.5502(3) 1.3009(3) 0.0550(13) Uani 1 1 d . . . . .
H01Y H 0.122547 0.533083 1.357607 0.066 Uiso 1 1 calc R U . . .
C020 C 0.6917(4) -0.0600(3) -0.0723(3) 0.0327(9) Uani 1 1 d . . . . .
C021 C 1.0786(4) 0.2031(3) -0.1078(3) 0.0379(9) Uani 1 1 d . . . . .
H021 H 1.088603 0.173664 -0.158393 0.046 Uiso 1 1 calc R U . . .
C022 C 0.6300(4) 0.1411(3) 0.1967(3) 0.0397(10) Uani 1 1 d . . . . .
H022 H 0.675390 0.181091 0.159768 0.048 Uiso 1 1 calc R U . . .
C023 C 0.6281(4) 0.0235(3) 0.0937(3) 0.0353(9) Uani 1 1 d . . . . .
C024 C 0.6766(4) 0.0739(3) 0.0190(3) 0.0365(9) Uani 1 1 d . . . . .
C026 C 0.4356(4) 0.3654(3) 0.9961(3) 0.0364(9) Uani 1 1 d . . . . .
H026 H 0.482481 0.303093 0.993583 0.044 Uiso 1 1 calc R U . . .
C027 C 0.7067(4) 0.0332(3) -0.0634(3) 0.0341(9) Uani 1 1 d . . . . .
C028 C 0.3710(4) 0.4107(3) 1.0777(3) 0.0332(9) Uani 1 1 d . . . . .
H028 H 0.377604 0.377244 1.125882 0.040 Uiso 1 1 calc R U . . .
C029 C 0.5253(4) 0.0720(3) 0.3087(3) 0.0420(10) Uani 1 1 d . . . . .
H029 H 0.486041 0.058644 0.365144 0.050 Uiso 1 1 calc R U . . .
O3 O 0.5231(4) 0.1141(3) 0.6231(3) 0.0683(11) Uani 1 1 d . . . . .
O4 O 0.1236(5) 0.4418(3) 0.5064(3) 0.0918(14) Uani 1 1 d . . . . .
O5 O 0.3290(5) 0.3555(4) 0.3727(4) 0.1045(17) Uani 1 1 d . . . . .
C02B C 0.6452(4) -0.1063(3) 0.0009(3) 0.0381(9) Uani 1 1 d . . . . .
H02B H 0.633485 -0.167097 -0.002521 0.046 Uiso 1 1 calc R U . . .
C02C C 0.6141(4) -0.0640(3) 0.0829(3) 0.0385(9) Uani 1 1 d . . . . .
H02C H 0.582855 -0.098621 0.130755 0.046 Uiso 1 1 calc R U . . .
C02D C 0.7723(5) -0.2157(3) -0.2405(3) 0.0489(12) Uani 1 1 d . . . . .
H02D H 0.786987 -0.275768 -0.263519 0.059 Uiso 1 1 calc R U . . .
C02E C 0.5899(6) 0.2439(3) 0.7599(3) 0.0665(17) Uani 1 1 d . . . . .
H02E H 0.630475 0.182648 0.738616 0.080 Uiso 1 1 calc R U . . .
 
loop_
 _atom_site_aniso_label
 _atom_site_aniso_U_11
 _atom_site_aniso_U_22
 _atom_site_aniso_U_33
 _atom_site_aniso_U_23
 _atom_site_aniso_U_13
 _atom_site_aniso_U_12
Eu01 0.03296(12) 0.01667(10) 0.02120(11) -0.00205(8) -0.00530(8) -0.00382(8)
Eu02 0.03199(12) 0.01908(11) 0.02251(12) -0.00082(8) -0.00767(8) -0.00475(8)
O1 0.0472(19) 0.045(2) 0.058(2) -0.0067(17) -0.0224(19) -0.0082(17)
O003 0.0495(16) 0.0228(13) 0.0308(15) 0.0063(12) -0.0149(13) -0.0096(12)
O004 0.0390(14) 0.0207(12) 0.0281(14) -0.0050(11) -0.0082(12) -0.0012(11)
O005 0.0548(17) 0.0322(15) 0.0313(16) -0.0003(13) -0.0149(14) -0.0123(13)
O6 0.075(2) 0.0364(17) 0.0318(17) -0.0003(14) -0.0144(16) 0.0112(16)
O006 0.0433(15) 0.0306(14) 0.0267(14) -0.0024(12) -0.0104(12) -0.0078(12)
O7 0.093(3) 0.0443(18) 0.0364(19) 0.0025(15) -0.0175(18) -0.0302(18)
O8 0.068(2) 0.0337(15) 0.0247(15) -0.0027(13) -0.0050(14) -0.0118(15)
O008 0.0536(18) 0.0376(16) 0.049(2) -0.0075(15) -0.0277(16) -0.0054(14)
O9 0.0508(17) 0.0398(16) 0.0304(16) -0.0053(13) -0.0152(13) -0.0092(13)
O10 0.072(2) 0.0229(14) 0.0347(18) 0.0025(13) 0.0150(15) -0.0014(14)
N1 0.062(2) 0.0266(16) 0.0239(17) -0.0003(14) -0.0077(16) -0.0166(16)
O00B 0.0407(16) 0.0307(16) 0.066(2) 0.0088(15) -0.0247(16) -0.0084(13)
O00C 0.0536(17) 0.0292(14) 0.0308(16) -0.0003(12) -0.0099(14) -0.0013(13)
O00D 0.0567(18) 0.0442(17) 0.0352(17) 0.0019(14) -0.0178(15) -0.0182(15)
O00E 0.078(2) 0.0281(15) 0.0333(17) -0.0041(13) 0.0018(16) -0.0166(15)
O00F 0.0463(17) 0.049(2) 0.061(2) 0.013(2) -0.0191(17) -0.0193(16)
O00G 0.0625(19) 0.0273(14) 0.0269(16) -0.0049(12) 0.0029(14) -0.0040(14)
O00H 0.0622(19) 0.0362(16) 0.0297(16) 0.0007(13) -0.0124(14) -0.0217(15)
O00I 0.090(3) 0.0334(17) 0.0257(16) -0.0019(14) -0.0036(17) -0.0088(17)
N00J 0.0447(18) 0.0253(16) 0.0216(17) -0.0059(14) -0.0023(14) -0.0012(14)
O00L 0.0435(17) 0.039(2) 0.063(3) 0.0037(18) -0.0081(16) -0.0020(14)
O2 0.0422(17) 0.056(3) 0.082(4) -0.032(2) -0.0111(19) 0.0046(16)
C00M 0.0214(15) 0.0195(16) 0.0223(17) 0.0011(14) -0.0075(13) -0.0033(13)
N00N 0.0495(19) 0.0253(16) 0.0270(17) -0.0004(14) -0.0075(15) -0.0121(15)
N00O 0.0386(17) 0.0229(15) 0.0258(17) 0.0017(13) -0.0091(14) -0.0069(13)
N2 0.056(2) 0.0343(18) 0.0322(19) 0.0003(16) -0.0113(17) -0.0191(17)
N3 0.049(2) 0.0295(17) 0.0320(19) 0.0015(15) -0.0084(16) -0.0174(16)
N4 0.059(2) 0.0284(17) 0.0296(19) -0.0010(15) -0.0046(17) -0.0131(16)
N5 0.062(2) 0.0342(19) 0.038(2) -0.0054(17) -0.0124(19) -0.0096(18)
N6 0.072(3) 0.045(2) 0.031(2) 0.0028(17) -0.0127(19) -0.020(2)
N7 0.0444(19) 0.0328(18) 0.0270(18) -0.0036(15) -0.0114(15) -0.0046(15)
N8 0.083(3) 0.0349(19) 0.0270(19) -0.0022(16) -0.0161(19) -0.0169(19)
N9 0.128(4) 0.034(2) 0.025(2) -0.0049(17) -0.017(2) 0.004(2)
N10 0.0475(19) 0.0328(18) 0.0203(16) -0.0028(14) -0.0061(15) -0.0061(15)
N11 0.079(3) 0.033(2) 0.034(2) -0.0024(17) -0.002(2) 0.0040(19)
N12 0.057(2) 0.0368(19) 0.029(2) -0.0011(16) -0.0113(17) -0.0011(17)
N13 0.055(2) 0.0351(19) 0.031(2) -0.0041(16) -0.0099(17) 0.0036(17)
N14 0.0384(17) 0.0397(19) 0.0274(18) -0.0028(15) -0.0086(14) -0.0126(15)
N15 0.053(2) 0.043(2) 0.0270(18) -0.0025(16) -0.0048(16) -0.0215(17)
C1 0.051(2) 0.028(2) 0.031(2) -0.0008(17) -0.0056(19) -0.0113(18)
C00V 0.0316(18) 0.035(2) 0.0260(19) 0.0003(17) -0.0090(16) -0.0118(16)
C00X 0.0299(17) 0.0225(17) 0.0228(18) -0.0009(15) -0.0049(15) -0.0043(14)
C00Z 0.043(2) 0.028(2) 0.029(2) 0.0048(17) -0.0078(17) -0.0111(17)
C2 0.0327(18) 0.0243(18) 0.0252(19) 0.0012(15) -0.0078(15) -0.0072(15)
C012 0.041(2) 0.038(2) 0.0196(19) -0.0012(18) -0.0047(17) -0.0043(18)
C014 0.041(2) 0.033(2) 0.027(2) -0.0029(17) -0.0094(17) -0.0077(17)
C016 0.0348(19) 0.0301(19) 0.0241(19) -0.0062(16) -0.0057(16) -0.0091(16)
C019 0.044(2) 0.0289(19) 0.029(2) -0.0008(17) -0.0101(18) -0.0121(17)
C01B 0.039(2) 0.037(2) 0.027(2) -0.0007(17) -0.0151(17) -0.0090(17)
C01D 0.0344(19) 0.0258(18) 0.030(2) -0.0058(16) -0.0073(16) -0.0064(16)
C01F 0.0303(18) 0.035(2) 0.034(2) -0.0056(18) -0.0105(17) -0.0059(17)
C01I 0.049(2) 0.0263(19) 0.030(2) -0.0019(17) -0.0118(18) -0.0072(18)
C01J 0.0279(18) 0.038(2) 0.034(2) -0.0051(18) -0.0095(17) 0.0021(17)
C01K 0.047(2) 0.038(2) 0.025(2) -0.0023(18) -0.0079(18) -0.0047(19)
C01L 0.042(2) 0.0234(18) 0.028(2) -0.0045(16) -0.0054(17) -0.0033(16)
C01M 0.0339(19) 0.0300(19) 0.0245(19) -0.0055(16) -0.0069(16) -0.0028(16)
C01N 0.060(3) 0.027(2) 0.029(2) -0.0012(17) -0.003(2) -0.0165(19)
C01O 0.0370(19) 0.0279(19) 0.028(2) -0.0078(17) -0.0085(17) -0.0038(16)
C01P 0.0361(19) 0.0239(18) 0.0249(19) 0.0012(15) -0.0095(16) -0.0058(16)
C01Q 0.0329(18) 0.0266(18) 0.030(2) 0.0019(16) -0.0084(16) -0.0094(16)
C01R 0.052(2) 0.0270(19) 0.025(2) -0.0005(16) -0.0064(18) -0.0124(18)
C01S 0.038(2) 0.0317(19) 0.025(2) -0.0012(17) -0.0097(16) -0.0096(16)
C01T 0.0336(18) 0.0288(19) 0.027(2) -0.0009(16) -0.0104(16) -0.0071(16)
C01U 0.044(2) 0.0285(19) 0.029(2) 0.0018(17) -0.0116(17) -0.0135(17)
C01W 0.051(2) 0.0276(19) 0.032(2) 0.0034(17) -0.0140(19) -0.0166(18)
C01X 0.039(2) 0.034(2) 0.030(2) -0.0062(18) -0.0104(17) -0.0056(18)
C01Y 0.083(3) 0.034(2) 0.024(2) 0.0015(19) -0.003(2) 0.012(2)
C020 0.0351(19) 0.032(2) 0.031(2) -0.0089(17) -0.0128(17) -0.0025(16)
C021 0.056(2) 0.033(2) 0.027(2) -0.0030(17) -0.0125(19) -0.0138(19)
C022 0.044(2) 0.047(2) 0.030(2) -0.006(2) -0.0109(19) -0.015(2)
C023 0.037(2) 0.041(2) 0.028(2) -0.0038(18) -0.0099(17) -0.0090(18)
C024 0.043(2) 0.029(2) 0.042(2) -0.0038(18) -0.0202(19) -0.0080(18)
C026 0.042(2) 0.031(2) 0.030(2) -0.0042(18) -0.0066(18) -0.0024(18)
C027 0.035(2) 0.037(2) 0.029(2) -0.0009(18) -0.0099(17) -0.0070(17)
C028 0.042(2) 0.033(2) 0.0215(19) 0.0009(17) -0.0067(17) -0.0074(18)
C029 0.051(2) 0.046(2) 0.027(2) -0.0009(19) -0.0077(19) -0.015(2)
O3 0.070(2) 0.067(2) 0.066(3) -0.007(2) -0.011(2) -0.028(2)
O4 0.127(4) 0.092(3) 0.069(3) 0.012(3) -0.031(3) -0.051(3)
O5 0.107(4) 0.083(3) 0.138(5) 0.004(3) -0.066(4) -0.014(3)
C02B 0.044(2) 0.040(2) 0.031(2) -0.0069(19) -0.0119(19) -0.0095(19)
C02C 0.046(2) 0.041(2) 0.029(2) -0.0005(18) -0.0119(18) -0.0116(19)
C02D 0.080(3) 0.038(2) 0.028(2) -0.005(2) -0.016(2) -0.014(2)
C02E 0.117(5) 0.033(2) 0.028(3) -0.006(2) -0.015(3) 0.012(3)
 
_geom_special_details
;
 All esds (except the esd in the dihedral angle between two l.s. planes)
 are estimated using the full covariance matrix.  The cell esds are taken
 into account individually in the estimation of esds in distances, angles
 and torsion angles; correlations between esds in cell parameters are only
 used when they are defined by crystal symmetry.  An approximate (isotropic)
 treatment of cell esds is used for estimating esds involving l.s. planes.
;
 
loop_
 _geom_bond_atom_site_label_1
 _geom_bond_atom_site_label_2
 _geom_bond_distance
 _geom_bond_site_symmetry_2
 _geom_bond_publ_flag
Eu01 O004 2.354(2) . ?
Eu01 O10 2.402(3) 2_765 ?
Eu01 O2 2.399(3) . ?
Eu01 O00D 2.446(3) . ?
Eu01 O8 2.449(3) . ?
Eu01 O1 2.451(3) . ?
Eu01 O00E 2.510(3) 2_765 ?
Eu01 O00I 2.542(3) . ?
Eu01 O9 2.574(3) . ?
Eu01 C00Z 2.820(4) 2_765 ?
Eu01 C012 2.861(4) . ?
Eu01 C01J 2.876(4) . ?
Eu02 O003 2.301(3) . ?
Eu02 O00B 2.425(3) . ?
Eu02 O008 2.450(3) . ?
Eu02 O00G 2.458(3) 1_644 ?
Eu02 O006 2.492(3) 1_556 ?
Eu02 O00F 2.494(3) . ?
Eu02 O00L 2.496(3) . ?
Eu02 O005 2.513(3) 1_556 ?
Eu02 O00C 2.572(3) 1_644 ?
Eu02 C00V 2.867(4) 1_556 ?
Eu02 C01O 2.884(4) 1_644 ?
O003 C00M 1.249(4) . ?
O004 C00M 1.266(4) . ?
O005 C00V 1.259(5) . ?
O6 N12 1.376(5) . ?
O6 N13 1.381(4) . ?
O006 C00V 1.254(5) . ?
O7 N5 1.376(5) . ?
O7 N6 1.382(5) . ?
O8 C012 1.279(5) . ?
O9 C01J 1.261(5) . ?
O10 C00Z 1.268(5) . ?
N1 C01R 1.314(5) . ?
N1 N00O 1.364(4) . ?
O00C C01O 1.241(5) . ?
O00D C01J 1.246(5) . ?
O00E C00Z 1.247(5) . ?
O00G C01O 1.271(5) . ?
O00H N3 1.372(4) . ?
O00H N2 1.381(4) . ?
O00I C012 1.226(5) . ?
N00J C01L 1.358(5) . ?
N00J N11 1.363(5) . ?
N00J C016 1.420(5) . ?
C00M C00X 1.477(5) . ?
N00N C1 1.358(5) . ?
N00N N4 1.356(5) . ?
N00N C01U 1.414(5) . ?
N00O C2 1.361(5) . ?
N00O C01P 1.403(5) . ?
N2 C01Q 1.308(5) . ?
N3 C01T 1.308(5) . ?
N4 C01N 1.311(5) . ?
N5 C027 1.298(6) . ?
N6 C024 1.303(5) . ?
N7 N8 1.365(5) . ?
N7 C01X 1.361(5) . ?
N7 C020 1.410(5) . ?
N8 C02D 1.323(6) . ?
N9 C02E 1.317(6) . ?
N9 N10 1.377(5) . ?
N10 C014 1.343(5) . ?
N10 C01M 1.408(5) . ?
N11 C01Y 1.315(6) . ?
N12 C01D 1.322(5) . ?
N13 C01S 1.308(5) . ?
N14 C022 1.346(5) . ?
N14 N15 1.367(5) . ?
N14 C023 1.414(5) . ?
N15 C029 1.315(5) . ?
C1 C019 1.355(6) . ?
C00V C01B 1.477(5) . ?
C00X C2 1.368(5) . ?
C00X C01R 1.402(5) . ?
C00Z C019 1.468(5) . ?
C012 C01K 1.483(5) . ?
C014 C01K 1.364(6) . ?
C016 C028 1.361(5) . ?
C016 C01D 1.423(6) . ?
C019 C01N 1.406(5) . ?
C01B C01X 1.377(5) . ?
C01B C02D 1.402(6) . ?
C01D C01S 1.439(5) . ?
C01F C022 1.361(6) . ?
C01F C029 1.403(6) . ?
C01F C01J 1.474(6) . ?
C01I C01L 1.362(6) . ?
C01I C01Y 1.414(6) . ?
C01I C01O 1.482(5) . ?
C01K C02E 1.388(7) . ?
C01M C026 1.345(6) . ?
C01M C01S 1.429(5) . ?
C01P C01W 1.368(5) . ?
C01P C01T 1.430(5) . ?
C01Q C01U 1.417(5) . ?
C01Q C01T 1.430(6) . ?
C01U C021 1.357(5) . ?
C01W C021 1.409(6) . ?
C020 C02B 1.366(6) . ?
C020 C027 1.423(5) . ?
C023 C02C 1.344(6) . ?
C023 C024 1.421(6) . ?
C024 C027 1.430(6) . ?
C026 C028 1.429(5) . ?
C02B C02C 1.432(6) . ?
 
loop_
 _geom_angle_atom_site_label_1
 _geom_angle_atom_site_label_2
 _geom_angle_atom_site_label_3
 _geom_angle
 _geom_angle_site_symmetry_1
 _geom_angle_site_symmetry_3
 _geom_angle_publ_flag
O004 Eu01 O10 135.56(10) . 2_765 ?
O004 Eu01 O2 143.77(12) . . ?
O10 Eu01 O2 77.64(14) 2_765 . ?
O004 Eu01 O00D 83.26(10) . . ?
O10 Eu01 O00D 99.08(12) 2_765 . ?
O2 Eu01 O00D 75.94(13) . . ?
O004 Eu01 O8 83.89(10) . . ?
O10 Eu01 O8 123.61(10) 2_765 . ?
O2 Eu01 O8 86.60(14) . . ?
O00D Eu01 O8 129.04(10) . . ?
O004 Eu01 O1 72.25(10) . . ?
O10 Eu01 O1 77.14(14) 2_765 . ?
O2 Eu01 O1 140.89(13) . . ?
O00D Eu01 O1 137.48(12) . . ?
O8 Eu01 O1 83.04(14) . . ?
O004 Eu01 O00E 88.55(10) . 2_765 ?
O10 Eu01 O00E 52.74(9) 2_765 2_765 ?
O2 Eu01 O00E 110.53(13) . 2_765 ?
O00D Eu01 O00E 69.07(11) . 2_765 ?
O8 Eu01 O00E 158.95(12) . 2_765 ?
O1 Eu01 O00E 75.95(14) . 2_765 ?
O004 Eu01 O00I 125.02(11) . . ?
O10 Eu01 O00I 71.89(11) 2_765 . ?
O2 Eu01 O00I 72.25(14) . . ?
O00D Eu01 O00I 148.09(12) . . ?
O8 Eu01 O00I 51.76(10) . . ?
O1 Eu01 O00I 71.75(12) . . ?
O00E Eu01 O00I 120.44(10) 2_765 . ?
O004 Eu01 O9 72.65(9) . . ?
O10 Eu01 O9 140.98(12) 2_765 . ?
O2 Eu01 O9 71.18(12) . . ?
O00D Eu01 O9 51.27(10) . . ?
O8 Eu01 O9 77.83(10) . . ?
O1 Eu01 O9 141.43(12) . . ?
O00E Eu01 O9 118.52(10) 2_765 . ?
O00I Eu01 O9 118.05(11) . . ?
O004 Eu01 C00Z 113.16(11) . 2_765 ?
O10 Eu01 C00Z 26.60(11) 2_765 2_765 ?
O2 Eu01 C00Z 93.18(13) . 2_765 ?
O00D Eu01 C00Z 82.14(11) . 2_765 ?
O8 Eu01 C00Z 147.27(11) . 2_765 ?
O1 Eu01 C00Z 76.63(14) . 2_765 ?
O00E Eu01 C00Z 26.24(10) 2_765 2_765 ?
O00I Eu01 C00Z 97.07(11) . 2_765 ?
O9 Eu01 C00Z 132.85(11) . 2_765 ?
O004 Eu01 C012 105.94(11) . . ?
O10 Eu01 C012 97.24(11) 2_765 . ?
O2 Eu01 C012 77.44(14) . . ?
O00D Eu01 C012 144.82(11) . . ?
O8 Eu01 C012 26.43(11) . . ?
O1 Eu01 C012 76.64(13) . . ?
O00E Eu01 C012 143.14(11) 2_765 . ?
O00I Eu01 C012 25.35(10) . . ?
O9 Eu01 C012 98.25(11) . . ?
C00Z Eu01 C012 122.05(12) 2_765 . ?
O004 Eu01 C01J 74.54(10) . . ?
O10 Eu01 C01J 122.21(13) 2_765 . ?
O2 Eu01 C01J 73.99(13) . . ?
O00D Eu01 C01J 25.46(11) . . ?
O8 Eu01 C01J 103.80(12) . . ?
O1 Eu01 C01J 145.12(11) . . ?
O00E Eu01 C01J 92.98(11) 2_765 . ?
O00I Eu01 C01J 138.91(12) . . ?
O9 Eu01 C01J 26.00(11) . . ?
C00Z Eu01 C01J 107.57(12) 2_765 . ?
C012 Eu01 C01J 123.31(12) . . ?
O003 Eu02 O00B 72.41(10) . . ?
O003 Eu02 O008 85.00(10) . . ?
O00B Eu02 O008 140.01(12) . . ?
O003 Eu02 O00G 132.86(10) . 1_644 ?
O00B Eu02 O00G 80.47(11) . 1_644 ?
O008 Eu02 O00G 92.41(11) . 1_644 ?
O003 Eu02 O006 133.92(9) . 1_556 ?
O00B Eu02 O006 75.66(11) . 1_556 ?
O008 Eu02 O006 138.95(10) . 1_556 ?
O00G Eu02 O006 71.04(9) 1_644 1_556 ?
O003 Eu02 O00F 144.12(11) . . ?
O00B Eu02 O00F 140.64(14) . . ?
O008 Eu02 O00F 73.42(16) . . ?
O00G Eu02 O00F 77.48(13) 1_644 . ?
O006 Eu02 O00F 66.51(15) 1_556 . ?
O003 Eu02 O00L 73.20(10) . . ?
O00B Eu02 O00L 131.82(13) . . ?
O008 Eu02 O00L 67.23(15) . . ?
O00G Eu02 O00L 147.07(12) 1_644 . ?
O006 Eu02 O00L 106.88(13) 1_556 . ?
O00F Eu02 O00L 72.11(12) . . ?
O003 Eu02 O005 89.07(10) . 1_556 ?
O00B Eu02 O005 77.52(12) . 1_556 ?
O008 Eu02 O005 135.88(10) . 1_556 ?
O00G Eu02 O005 122.02(10) 1_644 1_556 ?
O006 Eu02 O005 51.76(9) 1_556 1_556 ?
O00F Eu02 O005 87.12(17) . 1_556 ?
O00L Eu02 O005 69.21(15) . 1_556 ?
O003 Eu02 O00C 84.82(9) . 1_644 ?
O00B Eu02 O00C 77.24(11) . 1_644 ?
O008 Eu02 O00C 68.03(10) . 1_644 ?
O00G Eu02 O00C 51.45(9) 1_644 1_644 ?
O006 Eu02 O00C 119.27(9) 1_556 1_644 ?
O00F Eu02 O00C 111.82(16) . 1_644 ?
O00L Eu02 O00C 131.31(14) . 1_644 ?
O005 Eu02 O00C 154.71(10) 1_556 1_644 ?
O003 Eu02 C00V 113.09(10) . 1_556 ?
O00B Eu02 C00V 76.97(12) . 1_556 ?
O008 Eu02 C00V 143.00(11) . 1_556 ?
O00G Eu02 C00V 96.79(11) 1_644 1_556 ?
O006 Eu02 C00V 25.87(10) 1_556 1_556 ?
O00F Eu02 C00V 73.79(17) . 1_556 ?
O00L Eu02 C00V 86.72(14) . 1_556 ?
O005 Eu02 C00V 26.02(10) 1_556 1_556 ?
O00C Eu02 C00V 141.91(10) 1_644 1_556 ?
O003 Eu02 C01O 108.74(11) . 1_644 ?
O00B Eu02 C01O 77.21(11) . 1_644 ?
O008 Eu02 C01O 79.60(11) . 1_644 ?
O00G Eu02 C01O 25.98(10) 1_644 1_644 ?
O006 Eu02 C01O 95.33(10) 1_556 1_644 ?
O00F Eu02 C01O 95.39(14) . 1_644 ?
O00L Eu02 C01O 146.60(15) . 1_644 ?
O005 Eu02 C01O 142.66(11) 1_556 1_644 ?
O00C Eu02 C01O 25.47(10) 1_644 1_644 ?
C00V Eu02 C01O 120.20(11) 1_556 1_644 ?
C00M O003 Eu02 160.1(2) . . ?
C00M O004 Eu01 144.0(2) . . ?
C00V O005 Eu02 92.9(2) . 1_554 ?
N12 O6 N13 112.5(3) . . ?
C00V O006 Eu02 94.0(2) . 1_554 ?
N5 O7 N6 111.8(3) . . ?
C012 O8 Eu01 95.1(2) . . ?
C01J O9 Eu01 90.5(2) . . ?
C00Z O10 Eu01 95.4(2) . 2_765 ?
C01R N1 N00O 104.2(3) . . ?
C01O O00C Eu02 91.5(2) . 1_466 ?
C01J O00D Eu01 97.0(3) . . ?
C00Z O00E Eu01 90.9(2) . 2_765 ?
C01O O00G Eu02 96.1(2) . 1_466 ?
N3 O00H N2 112.7(3) . . ?
C012 O00I Eu01 92.1(2) . . ?
C01L N00J N11 112.3(3) . . ?
C01L N00J C016 129.1(3) . . ?
N11 N00J C016 118.5(3) . . ?
O003 C00M O004 124.1(3) . . ?
O003 C00M C00X 117.2(3) . . ?
O004 C00M C00X 118.6(3) . . ?
C1 N00N N4 111.4(3) . . ?
C1 N00N C01U 128.7(3) . . ?
N4 N00N C01U 119.8(3) . . ?
N1 N00O C2 111.9(3) . . ?
N1 N00O C01P 119.1(3) . . ?
C2 N00O C01P 128.6(3) . . ?
C01Q N2 O00H 104.2(3) . . ?
C01T N3 O00H 104.6(3) . . ?
C01N N4 N00N 104.8(3) . . ?
C027 N5 O7 104.9(3) . . ?
C024 N6 O7 105.0(3) . . ?
N8 N7 C01X 112.3(3) . . ?
N8 N7 C020 118.6(3) . . ?
C01X N7 C020 129.1(3) . . ?
C02D N8 N7 103.8(4) . . ?
C02E N9 N10 102.6(4) . . ?
C014 N10 N9 112.0(3) . . ?
C014 N10 C01M 130.3(3) . . ?
N9 N10 C01M 117.8(3) . . ?
C01Y N11 N00J 104.0(4) . . ?
C01D N12 O6 104.8(3) . . ?
C01S N13 O6 104.9(3) . . ?
C022 N14 N15 111.8(3) . . ?
C022 N14 C023 129.7(4) . . ?
N15 N14 C023 118.2(3) . . ?
C029 N15 N14 103.8(3) . . ?
N00N C1 C019 107.1(3) . . ?
O005 C00V O006 120.8(4) . . ?
O005 C00V C01B 120.0(4) . . ?
O006 C00V C01B 119.1(4) . . ?
O005 C00V Eu02 61.1(2) . 1_554 ?
O006 C00V Eu02 60.1(2) . 1_554 ?
C01B C00V Eu02 170.0(3) . 1_554 ?
C2 C00X C01R 104.9(3) . . ?
C2 C00X C00M 128.0(3) . . ?
C01R C00X C00M 126.9(3) . . ?
O00E C00Z O10 120.5(4) . . ?
O00E C00Z C019 121.6(4) . . ?
O10 C00Z C019 117.9(3) . . ?
O00E C00Z Eu01 62.9(2) . 2_765 ?
O10 C00Z Eu01 58.0(2) . 2_765 ?
C019 C00Z Eu01 173.7(3) . 2_765 ?
N00O C2 C00X 106.5(3) . . ?
O00I C012 O8 121.0(4) . . ?
O00I C012 C01K 121.0(4) . . ?
O8 C012 C01K 118.0(4) . . ?
O00I C012 Eu01 62.6(2) . . ?
O8 C012 Eu01 58.5(2) . . ?
C01K C012 Eu01 175.6(3) . . ?
N10 C014 C01K 107.4(4) . . ?
C028 C016 C01D 117.0(3) . . ?
C028 C016 N00J 121.9(4) . . ?
C01D C016 N00J 121.1(3) . . ?
C1 C019 C01N 104.7(4) . . ?
C1 C019 C00Z 128.7(4) . . ?
C01N C019 C00Z 126.6(4) . . ?
C01X C01B C02D 104.5(4) . . ?
C01X C01B C00V 127.0(4) . . ?
C02D C01B C00V 128.4(4) . . ?
N12 C01D C016 130.5(4) . . ?
N12 C01D C01S 108.6(4) . . ?
C016 C01D C01S 120.9(3) . . ?
C022 C01F C029 104.3(4) . . ?
C022 C01F C01J 128.9(4) . . ?
C029 C01F C01J 126.4(4) . . ?
C01L C01I C01Y 104.6(3) . . ?
C01L C01I C01O 128.1(4) . . ?
C01Y C01I C01O 127.3(4) . . ?
O9 C01J O00D 120.4(4) . . ?
O9 C01J C01F 118.8(4) . . ?
O00D C01J C01F 120.7(4) . . ?
O9 C01J Eu01 63.5(2) . . ?
O00D C01J Eu01 57.6(2) . . ?
C01F C01J Eu01 168.9(3) . . ?
C014 C01K C02E 104.0(4) . . ?
C014 C01K C012 127.5(4) . . ?
C02E C01K C012 128.5(4) . . ?
N00J C01L C01I 106.7(4) . . ?
C026 C01M N10 123.0(4) . . ?
C026 C01M C01S 116.7(3) . . ?
N10 C01M C01S 120.3(4) . . ?
N4 C01N C019 112.0(4) . . ?
O00C C01O O00G 121.0(3) . . ?
O00C C01O C01I 121.1(4) . . ?
O00G C01O C01I 117.9(4) . . ?
O00C C01O Eu02 63.1(2) . 1_466 ?
O00G C01O Eu02 57.93(18) . 1_466 ?
C01I C01O Eu02 175.9(3) . 1_466 ?
C01W C01P N00O 122.7(3) . . ?
C01W C01P C01T 116.6(4) . . ?
N00O C01P C01T 120.6(3) . . ?
N2 C01Q C01U 129.8(4) . . ?
N2 C01Q C01T 109.3(3) . . ?
C01U C01Q C01T 120.8(3) . . ?
N1 C01R C00X 112.5(3) . . ?
N13 C01S C01D 109.3(3) . . ?
N13 C01S C01M 130.6(4) . . ?
C01D C01S C01M 120.1(4) . . ?
N3 C01T C01P 130.5(4) . . ?
N3 C01T C01Q 109.2(3) . . ?
C01P C01T C01Q 120.3(3) . . ?
C021 C01U N00N 123.0(4) . . ?
C021 C01U C01Q 116.9(4) . . ?
N00N C01U C01Q 120.0(3) . . ?
C01P C01W C021 122.4(4) . . ?
C01B C01X N7 106.5(4) . . ?
N11 C01Y C01I 112.3(4) . . ?
C02B C020 N7 122.1(4) . . ?
C02B C020 C027 116.7(4) . . ?
N7 C020 C027 121.3(4) . . ?
C01U C021 C01W 122.9(4) . . ?
N14 C022 C01F 107.4(4) . . ?
C02C C023 N14 122.9(4) . . ?
C02C C023 C024 116.8(4) . . ?
N14 C023 C024 120.3(4) . . ?
N6 C024 C023 130.3(4) . . ?
N6 C024 C027 108.7(4) . . ?
C023 C024 C027 121.0(4) . . ?
C01M C026 C028 123.7(4) . . ?
N5 C027 C020 129.7(4) . . ?
N5 C027 C024 109.6(4) . . ?
C020 C027 C024 120.6(4) . . ?
C016 C028 C026 121.5(4) . . ?
N15 C029 C01F 112.6(4) . . ?
C020 C02B C02C 122.0(4) . . ?
C023 C02C C02B 123.0(4) . . ?
N8 C02D C01B 112.8(4) . . ?
N9 C02E C01K 113.9(4) . . ?
 
_refine_diff_density_max    1.316
_refine_diff_density_min   -0.855
_refine_diff_density_rms    0.100

_shelx_res_file
;
TITL Er-K_auto_a.res in P-1
    Er-K_auto_a.res
    created by SHELXL-2018/3 at 15:47:50 on 21-Sep-2022
REM Old TITL Er-K_auto in P-1
REM SHELXT solution in P-1: R1 0.099, Rweak 0.003, Alpha 0.068
REM <I/s>   0.000 for    0 systematic absences,  Orientation as input
REM Formula found by SHELXT:  C64 N6 O14 Eu2
CELL  0.71073  11.1979  14.5130  16.6733   86.685   70.855   76.510
ZERR   35.000   0.0001   0.0002   0.0002    0.001    0.001    0.001
LATT  1
SFAC C H N O EU
UNIT 35.00 35.00 35.00 35.00 35.00
ACTA
TEMP 18
L.S. 10
BOND
LIST 6
FMAP 2
PLAN 20
WGHT    0.100000
FVAR       0.23387
EU01  5    0.705762    0.319869    0.433006    11.00000    0.03296    0.01667 =
         0.02120   -0.00205   -0.00530   -0.00382
EU02  5    0.861561   -0.117529    0.439462    11.00000    0.03199    0.01908 =
         0.02251   -0.00082   -0.00767   -0.00475
O1    4    0.899360    0.339537    0.462018    11.00000    0.04724    0.04515 =
         0.05820   -0.00670   -0.02237   -0.00823
AFIX 148
H1A   2    0.937107    0.320978    0.442112    11.00000   -1.50000
AFIX   0
O003  4    0.910220    0.021934    0.380459    11.00000    0.04946    0.02283 =
         0.03077    0.00632   -0.01487   -0.00964
O004  4    0.866573    0.179110    0.389577    11.00000    0.03897    0.02069 =
         0.02807   -0.00496   -0.00821   -0.00118
O005  4    0.813053   -0.047443   -0.415876    11.00000    0.05482    0.03221 =
         0.03131   -0.00033   -0.01493   -0.01228
O6    4    0.263119    0.645191    0.912927    11.00000    0.07533    0.03643 =
         0.03179   -0.00029   -0.01445    0.01122
O006  4    0.874701   -0.201765   -0.428077    11.00000    0.04332    0.03058 =
         0.02673   -0.00241   -0.01045   -0.00780
O7    4    0.746648    0.170063   -0.076775    11.00000    0.09350    0.04432 =
         0.03640    0.00252   -0.01753   -0.03019
O8    4    0.659834    0.247057    0.572842    11.00000    0.06805    0.03365 =
         0.02474   -0.00269   -0.00495   -0.01182
O008  4    0.744239   -0.109838    0.337504    11.00000    0.05363    0.03764 =
         0.04909   -0.00754   -0.02769   -0.00544
AFIX 148
H008  2    0.771958   -0.158873    0.308226    11.00000   -1.50000
AFIX   0
O9    4    0.592150    0.190938    0.415428    11.00000    0.05083    0.03982 =
         0.03036   -0.00525   -0.01519   -0.00924
O10   4    1.303166    0.513889   -0.411843    11.00000    0.07240    0.02294 =
         0.03466    0.00255    0.01504   -0.00136
N1    3    0.976457    0.053958    0.120227    11.00000    0.06228    0.02656 =
         0.02392   -0.00032   -0.00768   -0.01660
O00B  4    1.075867   -0.115653    0.442700    11.00000    0.04075    0.03066 =
         0.06636    0.00880   -0.02467   -0.00838
AFIX 148
H00B  2    1.094376   -0.078378    0.422229    11.00000   -1.50000
AFIX   0
O00C  4    0.010963    0.807203    1.294774    11.00000    0.05358    0.02915 =
         0.03077   -0.00032   -0.00991   -0.00132
O00D  4    0.649020    0.284664    0.310204    11.00000    0.05673    0.04425 =
         0.03520    0.00194   -0.01783   -0.01817
O00E  4    1.174158    0.603156   -0.302330    11.00000    0.07772    0.02815 =
         0.03328   -0.00414    0.00179   -0.01661
O00F  4    0.681017   -0.199451    0.505378    11.00000    0.04627    0.04925 =
         0.06060    0.01303   -0.01912   -0.01934
AFIX 148
H00F  2    0.692622   -0.221278    0.506776    11.00000   -1.50000
AFIX   0
O00G  4   -0.030878    0.714991    1.403988    11.00000    0.06250    0.02732 =
         0.02693   -0.00485    0.00287   -0.00398
O00H  4    1.082103    0.416420    0.069779    11.00000    0.06219    0.03622 =
         0.02975    0.00066   -0.01239   -0.02170
O00I  4    0.633668    0.400501    0.577832    11.00000    0.09002    0.03341 =
         0.02571   -0.00190   -0.00364   -0.00880
N00J  3    0.230162    0.545552    1.167482    11.00000    0.04475    0.02527 =
         0.02160   -0.00586   -0.00230   -0.00120
O00L  4    0.653511    0.005317    0.479238    11.00000    0.04348    0.03867 =
         0.06286    0.00367   -0.00807   -0.00204
AFIX 148
H00L  2    0.660491    0.032756    0.466452    11.00000   -1.50000
AFIX   0
O2    4    0.476768    0.386271    0.471894    11.00000    0.04224    0.05558 =
         0.08187   -0.03216   -0.01108    0.00462
AFIX 148
H2A   2    0.458774    0.404524    0.431094    11.00000   -1.50000
AFIX   0
C00M  1    0.897218    0.101943    0.348166    11.00000    0.02137    0.01947 =
         0.02233    0.00113   -0.00754   -0.00330
N00N  3    1.160452    0.333520   -0.188349    11.00000    0.04945    0.02530 =
         0.02696   -0.00037   -0.00749   -0.01210
N00O  3    0.972830    0.148394    0.122809    11.00000    0.03864    0.02286 =
         0.02581    0.00166   -0.00906   -0.00687
N2    3    1.115827    0.411800   -0.017584    11.00000    0.05562    0.03427 =
         0.03218    0.00032   -0.01125   -0.01909
N3    3    1.037883    0.339163    0.108393    11.00000    0.04940    0.02948 =
         0.03201    0.00145   -0.00844   -0.01741
N4    3    1.224761    0.280957   -0.260752    11.00000    0.05930    0.02845 =
         0.02958   -0.00098   -0.00465   -0.01311
N5    3    0.748505    0.092472   -0.121209    11.00000    0.06213    0.03418 =
         0.03811   -0.00539   -0.01240   -0.00957
N6    3    0.700656    0.158274    0.009984    11.00000    0.07168    0.04471 =
         0.03099    0.00276   -0.01270   -0.01997
N7    3    0.725966   -0.102510   -0.153093    11.00000    0.04440    0.03278 =
         0.02695   -0.00358   -0.01138   -0.00459
N8    3    0.730688   -0.196917   -0.157904    11.00000    0.08307    0.03487 =
         0.02700   -0.00218   -0.01615   -0.01692
N9    3    0.535546    0.264201    0.841713    11.00000    0.12835    0.03360 =
         0.02504   -0.00494   -0.01663    0.00416
N10   3    0.492886    0.361305    0.843037    11.00000    0.04747    0.03279 =
         0.02026   -0.00280   -0.00608   -0.00612
N11   3    0.218103    0.490713    1.237640    11.00000    0.07874    0.03270 =
         0.03413   -0.00243   -0.00162    0.00399
N12   3    0.233990    0.637284    0.999488    11.00000    0.05653    0.03677 =
         0.02883   -0.00113   -0.01126   -0.00109
N13   3    0.341279    0.563069    0.869643    11.00000    0.05456    0.03508 =
         0.03140   -0.00406   -0.00993    0.00362
N14   3    0.596447    0.065448    0.174665    11.00000    0.03844    0.03971 =
         0.02739   -0.00281   -0.00858   -0.01262
N15   3    0.530509    0.021458    0.244136    11.00000    0.05340    0.04310 =
         0.02703   -0.00254   -0.00482   -0.02145
C1    1    1.150784    0.427525   -0.203141    11.00000    0.05073    0.02798 =
         0.03125   -0.00083   -0.00557   -0.01132
AFIX  43
H1    2    1.109521    0.476667   -0.163204    11.00000   -1.20000
AFIX   0
C00V  1    0.830504   -0.127626   -0.382842    11.00000    0.03156    0.03508 =
         0.02596    0.00031   -0.00899   -0.01185
C00X  1    0.923893    0.105477    0.255368    11.00000    0.02991    0.02250 =
         0.02276   -0.00094   -0.00488   -0.00434
C00Z  1    1.230451    0.522900   -0.334947    11.00000    0.04256    0.02797 =
         0.02889    0.00479   -0.00784   -0.01113
C2    1    0.941333    0.181250    0.203673    11.00000    0.03273    0.02434 =
         0.02521    0.00124   -0.00777   -0.00724
AFIX  43
H2    2    0.933269    0.243028    0.220448    11.00000   -1.20000
AFIX   0
C012  1    0.627051    0.325259    0.614499    11.00000    0.04145    0.03795 =
         0.01960   -0.00120   -0.00469   -0.00425
C014  1    0.518521    0.396477    0.764467    11.00000    0.04127    0.03327 =
         0.02701   -0.00291   -0.00936   -0.00772
AFIX  43
H014  2    0.497508    0.459896    0.750729    11.00000   -1.20000
AFIX   0
C016  1    0.299958    0.501669    1.086465    11.00000    0.03480    0.03013 =
         0.02407   -0.00623   -0.00571   -0.00912
C019  1    1.212535    0.436305   -0.287005    11.00000    0.04388    0.02894 =
         0.02877   -0.00080   -0.01006   -0.01209
C01B  1    0.791872   -0.135465   -0.289561    11.00000    0.03904    0.03675 =
         0.02718   -0.00070   -0.01508   -0.00901
C01D  1    0.294708    0.550267    1.010640    11.00000    0.03439    0.02578 =
         0.03041   -0.00579   -0.00731   -0.00639
C01F  1    0.585343    0.148386    0.282998    11.00000    0.03027    0.03486 =
         0.03387   -0.00562   -0.01045   -0.00589
C01I  1    0.108995    0.642997    1.272918    11.00000    0.04878    0.02629 =
         0.02992   -0.00195   -0.01177   -0.00720
C01J  1    0.608523    0.212526    0.338837    11.00000    0.02786    0.03839 =
         0.03352   -0.00506   -0.00946    0.00212
C01K  1    0.581015    0.322145    0.708520    11.00000    0.04737    0.03783 =
         0.02516   -0.00226   -0.00790   -0.00467
C01L  1    0.166507    0.637327    1.187088    11.00000    0.04190    0.02341 =
         0.02761   -0.00446   -0.00540   -0.00332
AFIX  43
H01L  2    0.162891    0.686730    1.149236    11.00000   -1.20000
AFIX   0
C01M  1    0.432340    0.407879    0.922731    11.00000    0.03395    0.02999 =
         0.02446   -0.00551   -0.00688   -0.00275
C01N  1    1.257019    0.342823   -0.319653    11.00000    0.06025    0.02697 =
         0.02939   -0.00120   -0.00286   -0.01648
AFIX  43
H01N  2    1.303779    0.326799   -0.376314    11.00000   -1.20000
AFIX   0
C01O  1    0.026313    0.727329    1.325976    11.00000    0.03698    0.02792 =
         0.02754   -0.00781   -0.00854   -0.00384
C01P  1    1.013058    0.195808    0.046325    11.00000    0.03607    0.02389 =
         0.02494    0.00120   -0.00950   -0.00578
C01Q  1    1.092597    0.331456   -0.032823    11.00000    0.03289    0.02663 =
         0.02971    0.00189   -0.00843   -0.00942
C01R  1    0.947954    0.029051    0.200149    11.00000    0.05221    0.02704 =
         0.02532   -0.00048   -0.00643   -0.01245
AFIX  43
H01R  2    0.944165   -0.032394    0.218078    11.00000   -1.20000
AFIX   0
C01S  1    0.360919    0.504104    0.928800    11.00000    0.03804    0.03168 =
         0.02536   -0.00122   -0.00968   -0.00956
C01T  1    1.043905    0.286147    0.045745    11.00000    0.03357    0.02882 =
         0.02718   -0.00091   -0.01040   -0.00710
C01U  1    1.109938    0.288442   -0.111206    11.00000    0.04353    0.02848 =
         0.02877    0.00178   -0.01157   -0.01349
C01W  1    1.031558    0.157183   -0.030928    11.00000    0.05053    0.02755 =
         0.03195    0.00344   -0.01403   -0.01656
AFIX  43
H01W  2    1.012413    0.098503   -0.032814    11.00000   -1.20000
AFIX   0
C01X  1    0.760805   -0.063286   -0.231060    11.00000    0.03945    0.03389 =
         0.02991   -0.00620   -0.01043   -0.00557
AFIX  43
H01X  2    0.763165   -0.000144   -0.242565    11.00000   -1.20000
AFIX   0
C01Y  1    0.146220    0.550160    1.300897    11.00000    0.08262    0.03396 =
         0.02413    0.00146   -0.00269    0.01199
AFIX  43
H01Y  2    0.122547    0.533083    1.357607    11.00000   -1.20000
AFIX   0
C020  1    0.691659   -0.059952   -0.072349    11.00000    0.03512    0.03216 =
         0.03087   -0.00889   -0.01278   -0.00247
C021  1    1.078600    0.203131   -0.107783    11.00000    0.05590    0.03309 =
         0.02657   -0.00302   -0.01245   -0.01385
AFIX  43
H021  2    1.088603    0.173664   -0.158393    11.00000   -1.20000
AFIX   0
C022  1    0.630016    0.141126    0.196712    11.00000    0.04377    0.04737 =
         0.03046   -0.00574   -0.01092   -0.01525
AFIX  43
H022  2    0.675390    0.181091    0.159768    11.00000   -1.20000
AFIX   0
C023  1    0.628083    0.023501    0.093721    11.00000    0.03683    0.04128 =
         0.02802   -0.00377   -0.00994   -0.00903
C024  1    0.676584    0.073948    0.018985    11.00000    0.04318    0.02913 =
         0.04241   -0.00377   -0.02021   -0.00796
C026  1    0.435553    0.365447    0.996090    11.00000    0.04206    0.03136 =
         0.02966   -0.00420   -0.00663   -0.00243
AFIX  43
H026  2    0.482481    0.303093    0.993583    11.00000   -1.20000
AFIX   0
C027  1    0.706711    0.033180   -0.063364    11.00000    0.03526    0.03727 =
         0.02886   -0.00090   -0.00995   -0.00697
C028  1    0.370970    0.410710    1.077665    11.00000    0.04156    0.03308 =
         0.02154    0.00091   -0.00670   -0.00735
AFIX  43
H028  2    0.377604    0.377244    1.125882    11.00000   -1.20000
AFIX   0
C029  1    0.525279    0.072038    0.308665    11.00000    0.05119    0.04587 =
         0.02738   -0.00092   -0.00772   -0.01473
AFIX  43
H029  2    0.486041    0.058644    0.365144    11.00000   -1.20000
AFIX   0
O3    4    0.523066    0.114109    0.623065    11.00000    0.07017    0.06710 =
         0.06642   -0.00733   -0.01054   -0.02783
O4    4    0.123617    0.441753    0.506411    11.00000    0.12657    0.09189 =
         0.06904    0.01233   -0.03112   -0.05133
O5    4    0.328955    0.355539    0.372749    11.00000    0.10728    0.08323 =
         0.13823    0.00398   -0.06575   -0.01364
C02B  1    0.645234   -0.106272    0.000930    11.00000    0.04407    0.03984 =
         0.03106   -0.00692   -0.01191   -0.00948
AFIX  43
H02B  2    0.633485   -0.167097   -0.002521    11.00000   -1.20000
AFIX   0
C02C  1    0.614128   -0.063995    0.082871    11.00000    0.04631    0.04078 =
         0.02929   -0.00046   -0.01193   -0.01165
AFIX  43
H02C  2    0.582855   -0.098621    0.130755    11.00000   -1.20000
AFIX   0
C02D  1    0.772292   -0.215702   -0.240480    11.00000    0.08024    0.03834 =
         0.02842   -0.00535   -0.01631   -0.01442
AFIX  43
H02D  2    0.786987   -0.275768   -0.263519    11.00000   -1.20000
AFIX   0
C02E  1    0.589871    0.243878    0.759950    11.00000    0.11743    0.03339 =
         0.02764   -0.00595   -0.01464    0.01217
AFIX  43
H02E  2    0.630475    0.182648    0.738616    11.00000   -1.20000
AFIX   0
HKLF 4




REM  Er-K_auto_a.res in P-1
REM wR2 = 0.1157, GooF = S = 0.851, Restrained GooF = 0.851 for all data
REM R1 = 0.0312 for 9191 Fo > 4sig(Fo) and 0.0416 for all 11012 data
REM 787 parameters refined using 0 restraints

END

WGHT      0.0332      2.5098

REM Highest difference peak  1.316,  deepest hole -0.855,  1-sigma level  0.100
Q1    1   0.5456  0.0966  0.3947  11.00000  0.05    0.72
Q2    1   0.9077 -0.1695  0.4627  11.00000  0.05    0.72
Q3    1   0.7659  0.2777  0.3920  11.00000  0.05    0.70
Q4    1   0.6179  0.1263  0.1375  11.00000  0.05    0.70
Q5    1   0.4069  0.3766  0.3108  11.00000  0.05    0.67
Q6    1   0.2736  0.5215  1.3089  11.00000  0.05    0.65
Q7    1   1.4460  0.2425 -0.4251  11.00000  0.05    0.61
Q8    1   0.6482  0.0338  0.5299  11.00000  0.05    0.60
Q9    1   0.4230  0.0896  0.3182  11.00000  0.05    0.59
Q10   1   0.6410  0.3089  0.4340  11.00000  0.05    0.58
Q11   1   0.9266 -0.1670  0.3997  11.00000  0.05    0.57
Q12   1   0.6099  0.2209  0.1339  11.00000  0.05    0.52
Q13   1   0.2064  0.3983  0.4546  11.00000  0.05    0.52
Q14   1   0.2021  0.3920  0.4790  11.00000  0.05    0.52
Q15   1   1.0972 -0.1399  0.4785  11.00000  0.05    0.52
Q16   1   0.5736  0.1562  0.3575  11.00000  0.05    0.51
Q17   1   0.5974 -0.1556  0.0876  11.00000  0.05    0.51
Q18   1   0.0120  0.4474  0.4485  11.00000  0.05    0.50
Q19   1   0.3331  0.5159  0.9673  11.00000  0.05    0.50
Q20   1   0.7072  0.3389  0.3847  11.00000  0.05    0.49
;
_shelx_res_checksum   76153

_shelx_hkl_file
;
   0   0  -2 2272.96   14.36
   0   0   2 2261.19   14.40
   0   0  -3   84.18    3.44
   0   0   3   88.31    3.51
   0   0  -4   31.71    2.50
   0   0   4   35.11    2.64
   0   0  -5  419.36    9.66
   0   0   5  422.09    9.89
   0   0  -6 1867.30   22.38
   0   0   6 1890.47   22.85
   0   0  -7 2692.13   28.84
   0   0  -8 1691.21   24.30
   0   0  -9  963.04   19.47
   0   0 -10   71.16    5.64
   0   0 -11   73.02    5.98
   0   0 -12  160.01    9.23
   0   0 -13   46.19    5.23
   0   0 -13   41.96    4.34
   0   0 -14  451.89   16.70
   0   0 -14  407.04   13.58
   0   0 -15  450.46   17.23
   0   0 -15  433.52   14.51
   0   0 -16  475.54   18.32
   0   0 -16  470.33   15.68
   0   0 -17  154.94   10.89
   0   0 -18   64.06    7.55
   0   0 -19   25.65    5.38
   0   0 -20   -3.37    2.24
   0   1 -21   12.62    3.80
   0   1 -20    4.57    2.58
   0   1 -19    2.56    2.36
   0   1 -18    1.24    1.92
   0   1 -17   -1.75    1.93
   0   1 -16    5.54    2.70
   0   1 -15    2.66    1.60
   0   1 -15    3.30    1.97
   0   1 -14   29.98    4.50
   0   1 -13   14.79    3.15
   0   1 -12   87.17    7.09
   0   1 -11    0.47    1.21
   0   1 -10   11.30    2.43
   0  -1  10   11.19    2.55
   0   1  -9   11.11    2.03
   0  -1   9   10.57    2.20
   0   1  -8    1.20    1.17
   0  -1   8    3.82    1.50
   0   1  -7    0.47    0.97
   0  -1   7    3.08    1.38
   0   1  -6   32.47    3.19
   0  -1   6   34.91    3.43
   0   1  -5  166.26    6.45
   0  -1   5  160.74    6.47
   0  -1   4  256.70    7.35
   0   1  -4  250.19    7.18
   0  -1   3   65.13    3.30
   0   1  -3   65.15    3.30
   0   1  -2   16.87    1.50
   0  -1   2   16.99    1.45
   0   1   1  278.03    4.16
   0  -1  -2  112.40    3.46
   0  -1  -3  460.26    5.46
   0  -1  -4    1.85    0.86
   0  -1  -5   10.27    1.55
   0  -1  -6   39.09    3.16
   0  -1  -7   20.16    2.58
   0  -1  -8    4.93    1.66
   0  -1  -9  159.88    7.74
   0  -1 -10  253.64   10.28
   0  -1 -10  248.55    8.39
   0  -1 -11   64.06    5.50
   0  -1 -11   67.96    4.66
   0  -1 -12   46.22    4.95
   0  -1 -12   42.30    3.87
   0  -1 -13    2.07    1.38
   0  -1 -13    2.84    1.45
   0  -1 -14    6.40    2.23
   0  -1 -14    7.11    2.06
   0  -1 -15   44.51    5.47
   0  -1 -15   31.48    3.84
   0  -1 -16   96.35    8.14
   0  -1 -16  113.55    7.42
   0  -1 -17  119.60    9.31
   0  -1 -18   87.58    8.32
   0  -1 -19   25.07    4.88
   0  -1 -20   18.20    4.30
   0   2 -21  125.30   11.41
   0   2 -20  132.76   11.48
   0   2 -19  190.88   13.36
   0   2 -18   59.95    7.36
   0   2 -17    0.22    2.23
   0   2 -16    8.67    3.02
   0   2 -15  298.88   14.69
   0   2 -14  332.35   15.05
   0   2 -13 1144.85   26.76
   0   2 -12  529.83   17.63
   0  -2  12  541.28   18.57
   0   2 -11  921.66   22.19
   0  -2  11  996.18   24.18
   0   2 -10  216.37   10.34
   0  -2  10  219.04   10.87
   0   2  -9   45.47    4.65
   0  -2   9   51.14    5.10
   0   2  -8 1041.00   20.55
   0  -2   8 1082.46   21.75
   0  -2   7 1358.88   22.76
   0   2  -7 1320.00   21.88
   0   2  -6 2106.35   25.88
   0  -2   6 2173.69   26.89
   0   2  -5 2763.06   27.56
   0  -2   5 2780.60   28.03
   0   2  -4  640.69   12.20
   0  -2   4  650.57   12.31
   0  -2   3 4283.44   28.47
   0   2  -3 4136.79   28.07
   0  -2   2  931.44    9.81
   0   2  -2  924.96   11.63
   0  -2   2  923.18   11.62
   0  -2   1 1750.85   11.67
   0   2  -1 1834.81   11.88
   0  -2   1 1777.20   13.90
   0   2  -1 1814.09   13.94
   0  -2   0  135.02    3.46
   0   2   0  131.58    3.43
   0  -2   0  132.94    3.31
   0   2   0  133.45    3.32
   0  -2  -1   67.11    2.57
   0   2   1   70.21    2.66
   0  -2  -1   68.92    2.23
   0  -2  -2 1489.78   13.58
   0   2   2 1421.49   13.34
   0  -2  -3 3871.06   25.10
   0   2   3 3703.74   24.87
   0  -2  -3 3744.15   13.46
   0   2   3 3803.39   13.49
   0  -2  -4  423.78    9.44
   0  -2  -4  398.23    5.35
   0  -2  -5  912.75   15.63
   0  -2  -5  923.62    9.50
   0  -2  -6  929.33   10.86
   0  -2  -7  176.13    5.25
   0  -2  -7  174.08    6.87
   0  -2  -8   66.21    4.60
   0  -2  -8   53.67    3.20
   0  -2  -9  398.32    9.29
   0  -2  -9  429.71   12.32
   0  -2 -10  579.52   15.23
   0  -2 -10  532.23   11.47
   0  -2 -11  578.34   15.92
   0  -2 -11  554.93   12.41
   0  -2 -12  467.66   14.98
   0  -2 -12  418.29   11.37
   0  -2 -13  162.95    9.25
   0  -2 -13  167.77    7.62
   0  -2 -14  120.47    8.35
   0  -2 -14  129.38    7.08
   0  -2 -15    2.87    1.69
   0  -2 -15   -0.22    1.19
   0  -2 -16   28.15    5.64
   0  -2 -16   24.59    4.09
   0  -2 -16   23.48    3.58
   0  -2 -17  143.52   12.18
   0  -2 -17  117.43    9.12
   0  -2 -18  226.01   15.85
   0  -2 -18  205.64   12.42
   0  -2 -19   45.33    7.63
   0  -2 -19   48.35    6.31
   0   3 -21   -0.10    2.01
   0   3 -20    7.85    3.27
   0   3 -19    0.64    2.14
   0   3 -18   19.67    4.63
   0   3 -17   13.19    3.93
   0   3 -16   11.47    3.48
   0   3 -15    2.88    1.71
   0   3 -14   65.69    6.86
   0   3 -13   97.85    8.14
   0   3 -12  174.50   10.44
   0  -3  12  184.95   11.30
   0   3 -11  254.19   12.08
   0  -3  11  255.88   12.67
   0   3 -10  154.22    9.03
   0  -3  10  158.78    9.53
   0   3  -9   97.77    6.91
   0  -3   9  103.42    7.38
   0   3  -8   45.48    4.59
   0  -3   8   47.20    4.74
   0   3  -7  196.27    8.80
   0  -3   7  201.41    9.14
   0  -3   6    1.40    0.40
   0   3  -6    1.66    1.15
   0  -3   6    0.52    1.24
   0  -3   5  434.42   11.61
   0   3  -5  430.63   11.44
   0  -3   4  726.12   13.90
   0   3  -4  716.89   13.63
   0   3  -3  660.62    6.12
   0  -3   3  669.41   10.29
   0  -3   3  648.41   12.04
   0   3  -3  659.90   12.12
   0  -3   2  890.33   10.66
   0   3  -2  888.55   10.75
   0  -3   2  910.41   12.89
   0   3  -2  891.58   12.75
   0   3  -1    7.44    1.02
   0   3  -1    5.30    0.97
   0  -3   1    5.83    1.05
   0   3  -1    4.57    0.95
   0   3   0   55.27    2.63
   0  -3   0   56.25    2.68
   0  -3   0   56.72    2.79
   0   3   0   54.33    2.74
   0  -3  -1  124.34    3.74
   0   3   1  129.71    3.77
   0   3   1  132.61    4.34
   0  -3  -1  118.68    4.10
   0   3   2  260.19    4.06
   0   3   2  260.63    6.42
   0  -3  -2  263.01    6.48
   0  -3  -2  266.54    5.31
   0   3   3  232.70    6.69
   0  -3  -3  253.63    6.95
   0   3   3  242.65    3.66
   0   3   4  825.47   13.78
   0  -3  -4  814.99   13.58
   0  -3  -4  806.54    7.14
   0   3   4  815.74    7.09
   0  -3  -5  805.35   14.81
   0  -3  -5  806.10    8.06
   0  -3  -6  302.10    9.88
   0  -3  -6  288.84    5.52
   0  -3  -7  556.63   14.61
   0  -3  -7  552.38    8.53
   0  -3  -8   49.49    4.76
   0  -3  -8   53.23    2.94
   0  -3  -8   49.44    3.93
   0  -3  -9    1.24    1.26
   0  -3  -9    3.72    1.33
   0  -3  -9    3.20    0.90
   0  -3 -10  245.87   11.66
   0  -3 -10  252.67    9.91
   0  -3 -10  240.33    7.30
   0  -3 -11  180.61   10.54
   0  -3 -11  175.56    8.69
   0  -3 -11  173.83    6.61
   0  -3 -12  448.66   17.56
   0  -3 -12  451.16   14.53
   0  -3 -12  440.94   11.16
   0  -3 -13  369.89   16.47
   0  -3 -13  353.25   13.42
   0  -3 -13  334.17   10.24
   0  -3 -14  111.07    9.60
   0  -3 -14  108.80    7.75
   0  -3 -14  115.21    6.34
   0  -3 -15   69.55    7.92
   0  -3 -15   68.04    6.49
   0  -3 -15   70.60    5.22
   0  -3 -16   25.12    4.94
   0  -3 -16   23.83    4.00
   0  -3 -17   -2.30    3.53
   0  -3 -17    1.79    1.31
   0  -3 -18  101.41   10.66
   0  -3 -18   85.04    7.82
   0  -3 -19  167.87   11.38
   0   4 -20   17.11    4.12
   0   4 -19  137.88   11.81
   0   4 -18  186.18   13.37
   0   4 -17  361.03   17.95
   0   4 -16  392.50   18.16
   0   4 -15  109.83    9.38
   0   4 -14    7.25    2.61
   0   4 -13    4.07    2.27
   0   4 -12  346.58   15.05
   0   4 -11  717.03   20.91
   0  -4  11  743.63   22.11
   0  -4  10  404.58    6.21
   0   4 -10  404.76   15.09
   0  -4  10  409.03   15.78
   0  -4   9  905.30    8.18
   0   4  -9  946.67   22.13
   0  -4   9  967.45   23.03
   0  -4   8  416.03   14.37
   0   4  -8  378.71   13.31
   0  -4   7  607.94   16.36
   0   4  -7  581.14   15.70
   0   4  -6   77.37    5.54
   0  -4   6   91.37    6.02
   0   4  -5  103.45    5.95
   0  -4   5  111.95    6.26
   0  -4   4  219.51    6.81
   0   4  -4  209.66    3.89
   0   4  -4  223.05    8.08
   0  -4   4  209.16    7.98
   0  -4   3  123.64    4.69
   0   4  -3  129.10    5.80
   0  -4   3  117.95    5.57
   0   4  -2 1270.81   14.14
   0  -4   2 1239.64   16.70
   0   4  -2 1245.78   16.51
   0   4  -2 1246.57   15.92
   0   4  -1  479.58    8.29
   0   4  -1  469.81    9.41
   0  -4   1  462.19    9.34
   0   4  -1  468.15    9.29
   0  -4   1  461.30    9.46
   0  -4   0 2655.87   21.87
   0   4   0 2697.88   21.97
   0  -4   0 2683.01   21.23
   0   4   0 2695.82   20.94
   0   4   1   87.13    4.02
   0  -4  -1   92.63    4.17
   0   4   1   92.23    3.74
   0  -4  -1   95.78    3.86
   0  -4  -2  350.57    8.39
   0   4   2  352.49    8.35
   0  -4  -2  346.30    7.10
   0  -4  -3  107.27    4.93
   0   4   3  108.98    4.99
   0   4   3  102.11    2.85
   0   4   4  135.50    5.93
   0  -4  -4  137.07    5.98
   0   4   4  141.02    3.17
   0  -4  -5  960.94   16.79
   0   4   5  980.21   17.02
   0  -4  -5  941.89    8.58
   0   4   5  955.79    8.47
   0  -4  -6  221.37    8.65
   0  -4  -6  216.46    4.42
   0  -4  -7 1191.05   21.38
   0  -4  -7 1143.46   11.22
   0  -4  -8  367.04   12.74
   0  -4  -8  351.07    6.90
   0  -4  -9  117.23    7.70
   0  -4  -9  113.89    4.33
   0  -4 -10    3.52    1.66
   0  -4 -10    3.57    0.87
   0  -4 -10    5.04    1.64
   0  -4 -11   67.11    6.51
   0  -4 -11   57.26    4.98
   0  -4 -11   65.30    3.85
   0  -4 -12   38.09    5.28
   0  -4 -12   43.26    3.32
   0  -4 -12   37.57    4.25
   0  -4 -13   70.52    7.30
   0  -4 -13   52.24    5.20
   0  -4 -13   66.74    4.32
   0  -4 -14  436.32   18.99
   0  -4 -14  449.69   15.62
   0  -4 -14  434.44   11.51
   0  -4 -15   35.14    6.04
   0  -4 -15   31.53    4.34
   0  -4 -16   16.10    3.39
   0  -4 -16   23.28    5.34
   0  -4 -17    5.02    2.04
   0  -4 -17    3.65    2.88
   0  -4 -18    4.30    1.80
   0  -4 -18    8.77    3.31
   0   5 -20   -1.17    2.64
   0   5 -19    5.14    2.63
   0   5 -18   30.25    5.84
   0   5 -17   99.37    9.83
   0   5 -16   97.67    9.37
   0   5 -15   75.44    8.05
   0   5 -14   49.90    6.37
   0   5 -13  102.38    8.73
   0   5 -12    8.84    2.64
   0   5 -11   69.43    6.90
   0  -5  10  444.24   16.84
   0   5 -10  419.29   15.90
   0   5  -9  601.19   18.22
   0  -5   9  611.20   18.96
   0  -5   8  577.55   17.58
   0   5  -8  567.65   16.93
   0  -5   7  753.30   19.02
   0   5  -7  734.17   18.38
   0  -5   6  728.50   15.03
   0  -5   6  768.74   18.18
   0   5  -6  742.60   17.50
   0  -5   5  263.02    8.42
   0   5  -5  272.86    4.80
   0  -5   5  270.88   10.29
   0   5  -5  277.91   10.12
   0   5  -4  283.07    5.65
   0  -5   4  265.94    7.91
   0   5  -4  291.44    9.79
   0  -5   4  265.54    9.61
   0  -5   3    3.08    1.05
   0   5  -3    1.29    0.89
   0   5  -3    3.31    1.54
   0  -5   3    1.85    1.12
   0   5  -2  155.10    5.52
   0  -5   2  149.70    6.39
   0   5  -2  153.99    6.32
   0   5  -2  145.19    6.00
   0   5  -1 1233.12   16.67
   0  -5   1 1213.30   17.04
   0  -5   1 1255.10   17.11
   0   5  -1 1267.50   17.15
   0   5   0 1049.53   14.70
   0  -5   0 1035.14   14.93
   0   5   0 1046.62   15.38
   0  -5   0 1023.21   15.26
   0  -5  -1 1115.06   14.73
   0   5   1 1113.54   14.53
   0   5   1 1097.24   15.85
   0  -5  -1 1103.99   15.90
   0  -5  -2  356.21    8.17
   0   5   2  343.16    9.13
   0  -5  -2  351.97    9.26
   0   5   3   49.02    2.34
   0  -5  -3   45.88    3.50
   0   5   3   44.72    3.50
   0  -5  -3   45.22    2.92
   0  -5  -4   55.54    4.08
   0   5   4   56.89    4.08
   0  -5  -4   59.29    3.35
   0   5   4   62.47    2.41
   0  -5  -5  177.64    7.64
   0   5   5  179.17    7.67
   0   5   5  172.03    3.82
   0  -5  -6  164.50    7.79
   0   5   6  171.43    7.93
   0   5   6  171.76    3.85
   0  -5  -7 1512.92   24.67
   0  -5  -7 1494.80   12.15
   0  -5  -8  863.82   19.81
   0  -5  -8  817.42    9.61
   0  -5  -9  914.96   21.58
   0  -5  -9  905.72   10.99
   0  -5 -10  455.27   16.13
   0  -5 -10  461.97    8.50
   0  -5 -11   45.61    5.53
   0  -5 -11   45.86    4.43
   0  -5 -11   43.91    2.84
   0  -5 -12    0.01    1.37
   0  -5 -12    1.60    1.20
   0  -5 -12    0.53    0.65
   0  -5 -13  117.02    9.46
   0  -5 -13  106.84    7.31
   0  -5 -13  112.49    5.11
   0  -5 -14  139.00   10.83
   0  -5 -14  128.68    8.35
   0  -5 -14  135.86    5.95
   0  -5 -15  403.19   19.18
   0  -5 -15  397.91   15.13
   0  -5 -16  337.15   18.19
   0  -5 -16  365.40   14.93
   0  -5 -17  257.43   16.73
   0  -5 -17  231.21   12.26
   0  -5 -18  199.73   15.23
   0   6 -19   22.79    4.90
   0   6 -18   -2.46    2.95
   0   6 -17   33.58    5.68
   0   6 -16   34.11    5.81
   0   6 -15  118.75   10.30
   0   6 -14  132.41   10.59
   0   6 -13   94.25    8.63
   0   6 -12   37.26    5.26
   0   6 -11   -0.43    1.55
   0   6 -10   35.32    4.97
   0  -6  10   29.75    4.92
   0  -6   9    6.60    1.95
   0   6  -9    8.35    2.40
   0  -6   9    5.96    1.85
   0  -6   8  141.15    7.71
   0  -6   8  130.96    8.67
   0   6  -8  130.67    8.46
   0  -6   7  140.75    7.24
   0  -6   7  125.05    8.15
   0   6  -7  139.32    8.36
   0  -6   6  348.58   10.70
   0  -6   6  336.00   12.68
   0   6  -6  326.71   12.11
   0   6  -5  444.56    7.41
   0  -6   5  445.15   11.38
   0  -6   5  440.82   13.84
   0   6  -5  435.13   13.33
   0  -6   4  487.97   11.24
   0  -6   4  497.98   13.96
   0   6  -4  495.10   13.50
   0   6  -3  405.34    9.89
   0  -6   3  391.26   11.76
   0   6  -3  384.07   11.23
   0   6  -3  413.67   11.31
   0   6  -2    7.22    1.41
   0  -6   2    8.28    1.80
   0   6  -2    7.78    1.73
   0   6  -2    8.13    1.59
   0  -6   1    9.88    1.78
   0   6  -1   12.81    1.98
   0   6  -1   11.20    1.81
   0  -6   1   10.99    1.95
   0   6   0  405.30   10.01
   0  -6   0  414.47   10.44
   0   6   0  406.95   10.55
   0  -6   0  398.14   10.50
   0  -6  -1  971.43   15.31
   0   6   1  974.39   15.03
   0  -6  -1  958.91   16.28
   0   6   1  982.12   16.44
   0  -6  -2  781.36   13.43
   0  -6  -2  761.66   14.84
   0   6   2  784.50   14.98
   0   6   3  620.55    9.36
   0  -6  -3  596.72   13.48
   0   6   3  632.87   13.87
   0  -6  -3  618.54   11.74
   0  -6  -4  247.96    9.05
   0   6   4  245.13    8.98
   0  -6  -4  248.87    7.45
   0   6   4  249.05    5.48
   0  -6  -5   -0.73    1.49
   0   6   5    0.42    1.39
   0  -6  -5    0.11    0.82
   0   6   5    1.67    0.53
   0   6   6   35.15    3.68
   0  -6  -6   31.60    3.62
   0   6   6   29.18    1.67
   0  -6  -7    2.30    1.12
   0   6   7    3.11    0.60
   0  -6  -8    8.19    2.12
   0  -6  -9    6.60    2.14
   0  -6  -9    4.52    0.83
   0  -6 -10   -0.75    1.63
   0  -6 -10    0.26    0.49
   0  -6 -11   46.57    5.61
   0  -6 -11   43.95    2.52
   0  -6 -12   23.02    4.15
   0  -6 -12   26.77    2.39
   0  -6 -12   28.04    3.66
   0  -6 -13   18.27    4.21
   0  -6 -13   22.59    1.99
   0  -6 -13   23.08    3.54
   0  -6 -14    6.16    2.77
   0  -6 -14   10.33    2.42
   0  -6 -15    1.08    1.91
   0  -6 -15   -0.61    1.46
   0  -6 -16    0.90    2.82
   0  -6 -16   -1.45    1.30
   0  -6 -17    2.35    2.05
   0  -6 -17    6.77    2.48
   0  -6 -18    5.25    3.73
   0   7 -18   84.35    9.58
   0   7 -17    7.50    3.37
   0   7 -16    3.95    2.36
   0   7 -15   47.99    6.88
   0   7 -14  141.49   11.16
   0   7 -13  326.96   16.44
   0   7 -12  263.17   14.31
   0   7 -11  544.19   19.94
   0  -7  10  658.52   18.81
   0   7 -10  626.64   20.54
   0  -7   9   87.61    6.55
   0   7  -9   84.59    7.42
   0  -7   9   98.72    8.15
   0  -7   8   45.32    4.54
   0  -7   8   43.10    5.23
   0   7  -8   43.24    5.03
   0  -7   7  109.73    6.55
   0  -7   7  109.59    7.93
   0   7  -7  112.41    7.79
   0   7  -6  567.01    8.68
   0  -7   6  581.20   14.24
   0   7  -6  557.52   16.50
   0  -7   6  590.81   17.57
   0  -7   5 1186.95   19.42
   0   7  -5 1199.05   14.21
   0  -7   5 1166.25   23.66
   0   7  -5 1170.77   22.85
   0  -7   4 2522.05   33.21
   0   7  -4 2492.24   31.77
   0   7  -4 2483.89   30.62
   0   7  -3 2513.90   26.29
   0  -7   3 2458.01   31.36
   0   7  -3 2376.78   29.60
   0   7  -3 2417.18   29.17
   0   7  -2  857.58   14.87
   0   7  -2  841.23   16.81
   0  -7   2  833.64   17.59
   0   7  -2  843.19   17.00
   0  -7   1  121.42    6.36
   0   7  -1  129.66    6.39
   0   7  -1  125.57    6.43
   0  -7   1  138.26    6.79
   0   7   0   14.54    2.15
   0  -7   0   22.24    2.73
   0   7   0   14.23    2.16
   0  -7   0   19.12    2.59
   0  -7  -1 1256.10   19.08
   0   7   1 1248.57   18.48
   0   7   1 1271.15   20.28
   0  -7  -1 1257.85   20.20
   0  -7  -2 1639.64   21.31
   0   7   2 1634.80   23.53
   0  -7  -2 1576.24   22.94
   0  -7  -3 2289.43   24.80
   0  -7  -3 2355.34   28.62
   0   7   3 2380.17   28.89
   0   7   4 3251.12   22.32
   0  -7  -4 3276.93   34.95
   0   7   4 3380.87   35.40
   0  -7  -4 3291.55   29.48
   0   7   5 1128.87   21.23
   0  -7  -5 1140.39   21.29
   0  -7  -5 1127.83   17.23
   0   7   5 1119.67   12.01
   0   7   6  209.79    9.62
   0  -7  -6  200.67    9.36
   0  -7  -6  204.20    7.46
   0   7   6  200.34    4.75
   0   7   7   50.66    4.96
   0  -7  -7   52.27    5.08
   0   7   7   53.52    2.30
   0  -7  -8   46.43    5.02
   0  -7  -9  228.45   11.43
   0  -7 -10 1099.87   26.09
   0  -7 -11  894.48   24.64
   0  -7 -12 1054.25   27.96
   0  -7 -12 1037.14   21.76
   0  -7 -13  201.25   12.83
   0  -7 -13  205.49   10.15
   0  -7 -14   29.83    5.49
   0  -7 -14   30.00    4.25
   0  -7 -15    6.55    3.58
   0  -7 -15    5.32    1.78
   0  -7 -16   69.11    6.60
   0  -7 -16   63.55    8.22
   0  -7 -17  192.93   14.72
   0   8 -17    9.83    4.57
   0   8 -16   11.04    3.83
   0   8 -15    3.47    2.32
   0   8 -14   -1.26    2.45
   0   8 -13    2.53    1.75
   0   8 -12   -0.65    2.79
   0   8 -11  288.97   15.02
   0   8 -10  177.24   11.40
   0  -8   9   22.85    3.56
   0   8  -9   21.61    3.99
   0  -8   8   25.20    3.50
   0   8  -8   18.20    3.57
   0  -8   7    7.56    1.93
   0   8  -7    5.56    2.04
   0  -8   7    5.41    1.71
   0   8  -6    2.76    0.85
   0  -8   6    1.08    1.31
   0  -8   6    3.02    1.58
   0   8  -6    2.44    1.25
   0   8  -5   20.17    2.15
   0   8  -5   11.12    2.45
   0  -8   5   14.80    2.93
   0   8  -5   19.63    3.05
   0   8  -4   51.95    4.22
   0  -8   4   55.06    5.35
   0   8  -4   48.53    4.78
   0   8  -4   44.70    4.38
   0   8  -3   24.42    2.87
   0  -8   3   25.69    3.52
   0   8  -3   20.64    3.00
   0   8  -3   19.56    2.95
   0   8  -2    0.00    0.74
   0  -8   2   -1.10    1.27
   0   8  -2   -1.19    1.52
   0   8  -2   -0.67    1.04
   0   8  -1    5.75    1.50
   0  -8   1    6.43    1.51
   0  -8   1    5.97    1.79
   0   8  -1    7.33    1.76
   0  -8   0   20.47    2.76
   0   8   0   24.62    2.95
   0  -8   0   27.71    3.35
   0   8   0   25.90    3.19
   0   8   1  118.71    6.18
   0  -8  -1  112.10    6.24
   0   8   1  115.26    6.59
   0  -8  -1  110.38    6.55
   0  -8  -2    8.89    1.90
   0   8   2   10.71    2.14
   0  -8  -2    5.45    1.69
   0  -8  -3   17.17    2.30
   0   8   3   18.86    2.86
   0  -8  -3   18.58    2.83
   0   8   4    4.98    1.09
   0  -8  -4    5.76    1.56
   0   8   4    6.86    1.97
   0  -8  -4    4.18    1.42
   0   8   5   11.16    1.36
   0   8   5    9.64    2.22
   0  -8  -5   11.69    2.50
   0  -8  -5   10.36    1.84
   0  -8  -6   43.13    4.73
   0   8   6   36.49    4.35
   0  -8  -6   35.56    3.43
   0   8   6   39.68    2.37
   0   8   7   68.66    6.00
   0  -8  -7   67.20    5.86
   0  -8  -7   71.22    4.84
   0   8   7   72.01    2.88
   0  -8  -8   11.87    2.80
   0  -8  -8   13.20    2.16
   0   8   8   13.09    1.13
   0  -8  -9   48.33    5.49
   0  -8 -10   12.85    2.98
   0  -8 -11    0.65    2.01
   0  -8 -12    5.57    2.62
   0  -8 -13  121.49   10.13
   0  -8 -13  138.66    8.36
   0  -8 -14   32.17    5.69
   0  -8 -14   43.66    4.93
   0  -8 -15   61.43    8.29
   0  -8 -15   55.91    5.84
   0  -8 -16   -0.90    3.06
   0  -8 -17    6.28    3.74
   0   9 -17  275.63   17.79
   0   9 -16  250.43   16.52
   0   9 -15  175.40   13.63
   0   9 -14   21.95    4.79
   0   9 -13   -1.56    2.92
   0   9 -12  116.55   10.22
   0   9 -11  868.14   26.78
   0   9 -10  758.57   24.20
   0  -9   9  705.55   19.29
   0   9  -9  644.73   21.45
   0  -9   8  605.44   17.12
   0   9  -8  601.74   20.02
   0  -9   7   71.34    5.70
   0   9  -7   82.59    3.83
   0   9  -7   84.06    7.34
   0   9  -6    1.73    0.85
   0  -9   6   -0.84    1.91
   0   9  -6    1.63    1.40
   0   9  -6   -1.00    1.45
   0   9  -5   39.86    3.21
   0  -9   5   47.00    5.24
   0   9  -5   35.92    4.49
   0   9  -5   44.30    4.74
   0   9  -4  439.84   12.80
   0   9  -4  433.30   14.55
   0  -9   4  462.01   15.85
   0   9  -4  440.13   14.51
   0   9  -3  899.68   17.71
   0  -9   3  914.08   21.43
   0   9  -3  878.02   20.02
   0   9  -3  900.98   20.32
   0   9  -2  874.57   17.15
   0   9  -2  869.28   19.30
   0  -9   2  868.34   20.30
   0   9  -2  865.23   19.48
   0   9  -1 1690.96   23.60
   0   9  -1 1618.63   25.56
   0  -9   1 1642.55   27.00
   0   9  -1 1625.64   26.52
   0  -9   1 1641.95   26.57
   0  -9   0  704.96   17.23
   0   9   0  706.83   16.37
   0  -9   0  693.05   17.24
   0   9   0  692.62   17.25
   0  -9  -1  769.23   17.53
   0   9   1  750.50   16.50
   0   9   1  773.30   18.22
   0  -9  -1  747.63   17.87
   0  -9  -2   40.14    4.03
   0   9   2   51.91    4.82
   0  -9  -2   47.09    4.64
   0  -9  -3   14.78    2.41
   0  -9  -3   11.33    2.38
   0   9   3   11.80    2.55
   0   9   4  450.24   10.05
   0   9   4  445.95   14.53
   0  -9  -4  438.05   14.30
   0  -9  -4  445.29   12.59
   0  -9  -5  654.83   17.89
   0   9   5  717.83   18.80
   0  -9  -5  657.55   15.29
   0   9   5  677.83   11.34
   0   9   6  335.64   13.26
   0  -9  -6  315.05   12.80
   0  -9  -6  301.97   10.40
   0   9   6  310.95    7.09
   0  -9  -7 1376.64   27.54
   0   9   7 1379.49   27.92
   0  -9  -7 1357.93   21.97
   0   9   7 1364.75   13.49
   0  -9  -8  131.77    8.88
   0  -9  -8  137.22    7.09
   0   9   8  131.15    3.63
   0  -9  -9  232.56   12.33
   0  -9  -9  229.11    9.29
   0  -9 -10   31.73    4.79
   0  -9 -10   29.36    3.49
   0  -9 -11  132.59   10.09
   0  -9 -11  125.00    7.25
   0  -9 -12   57.12    6.98
   0  -9 -13  310.40   16.54
   0  -9 -14  311.15   17.31
   0  -9 -14  330.40   13.46
   0  -9 -15  267.24   16.68
   0  -9 -16  123.96   11.73
   0  10 -16    1.11    2.06
   0  10 -15   -2.97    3.45
   0  10 -14    4.69    2.75
   0  10 -13    1.23    2.96
   0  10 -12    4.13    2.56
   0  10 -11   28.12    5.28
   0  10 -10   71.35    7.69
   0  10  -9   38.33    5.51
   0  10  -8   68.49    7.06
   0  10  -7    5.04    1.29
   0  10  -7    4.33    1.75
   0  10  -6  219.15    7.65
   0  10  -6  202.53   11.24
   0  10  -5    0.47    1.28
   0  10  -5    2.95    1.70
   0  10  -4    2.13    1.38
   0 -10   4    2.27    1.46
   0  10  -4    3.97    1.86
   0  10  -4    5.92    1.83
   0  10  -3   -0.47    0.92
   0 -10   3   -1.24    1.27
   0  10  -3   -1.28    1.59
   0  10  -3   -1.03    1.04
   0  10  -2  217.40    9.04
   0  10  -2  212.88   10.11
   0 -10   2  232.85   11.16
   0  10  -2  230.84   10.71
   0  10  -1  292.43   10.47
   0  10  -1  288.93   11.42
   0 -10   1  298.23   12.28
   0  10  -1  335.22   12.81
   0 -10   0  296.82   11.84
   0  10   0  266.14   10.70
   0  10   0  286.62   11.92
   0 -10   0  264.18   11.33
   0  10   1  425.14   13.20
   0 -10  -1  419.42   13.73
   0 -10  -1  433.07   14.55
   0  10   1  451.18   14.82
   0 -10  -2   52.98    4.97
   0 -10  -2   47.37    4.92
   0  10   2   41.33    4.58
   0 -10  -3    8.32    1.98
   0  10   3   10.34    2.17
   0 -10  -3   11.01    2.54
   0  10   4    0.20    0.76
   0 -10  -4    0.83    1.16
   0  10   4    0.31    1.02
   0 -10  -4    0.55    1.41
   0  10   5   20.02    2.18
   0 -10  -5   19.61    3.33
   0  10   5   20.46    3.51
   0 -10  -5   18.04    2.79
   0 -10  -6  103.46    7.70
   0 -10  -6  107.26    6.66
   0  10   6  101.39    4.44
   0 -10  -7  235.50   12.01
   0 -10  -7  230.86    9.64
   0  10   7  228.42    6.01
   0 -10  -8  170.14   10.49
   0 -10  -8  168.00    8.34
   0  10   8  164.37    4.35
   0 -10  -9  138.70    7.57
   0 -10  -9  128.88    9.54
   0 -10 -10   87.51    6.19
   0 -10 -10   92.26    8.34
   0 -10 -11   17.93    3.01
   0 -10 -11   18.54    3.87
   0 -10 -12   -0.60    2.03
   0 -10 -13   26.25    5.05
   0 -10 -14   79.52    9.08
   0 -10 -15  119.75   11.38
   0  11 -15  238.62   16.64
   0  11 -14  304.53   18.33
   0  11 -13  285.72   17.35
   0  11 -12  165.45   13.06
   0  11 -11   37.47    6.07
   0  11 -10   -1.61    2.00
   0  11  -9   97.32    9.01
   0  11  -8  471.66    9.82
   0  11  -8  453.48   18.69
   0  11  -7  167.16    6.66
   0  11  -7  167.95   11.05
   0  11  -6 1409.94   20.93
   0  11  -6 1345.67   29.99
   0  11  -5  380.49   15.43
   0  11  -4  282.59   11.33
   0  11  -4  262.04   12.49
   0  11  -3  119.22    7.20
   0  11  -3  126.44    8.47
   0 -11   3  134.36    9.20
   0  11  -3  128.51    8.53
   0  11  -2   43.34    4.30
   0  11  -2   43.38    4.81
   0 -11   2   48.94    5.47
   0  11  -2   32.49    4.26
   0  11  -1  243.76   10.06
   0  11  -1  248.52   11.15
   0 -11   1  231.59   11.46
   0  11  -1  245.79   11.62
   0 -11   0  230.81   11.13
   0  11   0  222.17   10.36
   0 -11   0  233.65   11.28
   0  11   0  216.23   10.88
   0  11   1  352.02   12.76
   0 -11  -1  378.76   13.95
   0  11   1  356.95   13.98
   0 -11  -1  348.42   13.72
   0 -11  -2  438.76   14.71
   0 -11  -2  423.45   15.28
   0  11   2  463.28   16.07
   0 -11  -3  507.63   15.59
   0  11   3  525.90   17.25
   0 -11  -3  530.56   17.22
   0  11   4  157.53    6.80
   0 -11  -4  154.09    8.44
   0 -11  -4  145.40    9.30
   0  11   5   17.52    2.19
   0 -11  -5   19.34    3.56
   0 -11  -5   18.53    2.83
   0 -11  -6   85.11    7.40
   0 -11  -6   88.44    6.32
   0  11   6   84.66    4.31
   0 -11  -7   87.07    7.66
   0 -11  -7   90.90    6.35
   0  11   7   86.16    3.95
   0 -11  -8  239.75   12.96
   0 -11  -8  249.70   10.65
   0  11   8  265.62    5.91
   0 -11  -9  315.86   12.00
   0 -11  -9  320.05   15.37
   0 -11 -10  259.31   10.98
   0 -11 -10  248.61   14.03
   0 -11 -11   80.95    8.28
   0 -11 -12  108.68   10.08
   0 -11 -13   11.83    4.01
   0 -11 -14   29.06    5.59
   0 -11 -15   23.26    5.22
   0  12 -14   14.14    4.53
   0  12 -13   96.91   10.51
   0  12 -12   72.93    8.77
   0  12 -11   67.96    8.24
   0  12 -10   57.61    7.25
   0  12  -9   25.84    4.90
   0  12  -8    2.05    1.05
   0  12  -8    1.30    2.33
   0  12  -7  217.37    8.15
   0  12  -7  218.70   12.98
   0  12  -6  221.28    8.90
   0  12  -6  205.11   12.22
   0  12  -5  200.57   11.70
   0  12  -4  242.99   11.03
   0  12  -4  232.12   12.27
   0  12  -3  121.37    7.67
   0  12  -3   93.99    7.58
   0  12  -2  167.67    8.87
   0  12  -2  154.55    9.54
   0  12  -1   15.52    2.85
   0  12  -1   13.64    2.88
   0 -12   0   10.64    2.26
   0  12   0   15.88    3.13
   0 -12   0   13.90    3.05
   0 -12  -1  408.00   15.31
   0  12   1  402.53   14.36
   0 -12  -1  396.20   15.42
   0 -12  -2  244.13   11.71
   0 -12  -2  246.53   12.29
   0 -12  -3  220.99   10.94
   0 -12  -3  240.88   12.25
   0  12   4  256.47    9.20
   0 -12  -4  230.26   10.93
   0 -12  -4  251.77   12.66
   0  12   5  193.99    7.55
   0 -12  -5  186.44   11.09
   0 -12  -5  194.36    9.97
   0 -12  -6  327.23   14.95
   0 -12  -6  306.11   12.42
   0  12   6  310.46    8.81
   0 -12  -7   11.47    3.06
   0 -12  -7   12.29    2.70
   0  12   7    8.04    1.45
   0 -12  -8   22.97    4.47
   0 -12  -8   26.43    3.84
   0  12   8   24.48    1.93
   0 -12  -9  171.10   11.77
   0 -12 -10  272.53   15.20
   0 -12 -11  207.93   13.79
   0 -12 -12  247.86   15.53
   0 -12 -13  104.14   10.35
   0 -12 -14   34.01    6.33
   0  13 -13   17.52    4.92
   0  13 -12  103.08   11.48
   0  13 -11  148.81   12.60
   0  13 -10   79.27    8.94
   0  13  -9   79.46    8.72
   0  13  -8   61.67    4.25
   0  13  -8   52.12    6.88
   0  13  -7    2.26    1.23
   0  13  -7    3.11    1.80
   0  13  -6    3.42    1.48
   0  13  -6    1.35    1.68
   0  13  -5   59.96    6.70
   0  13  -4  116.11    7.99
   0  13  -4  111.65    8.95
   0  13  -3  159.53    9.16
   0  13  -3  144.40    9.83
   0  13  -2  221.04   10.72
   0  13  -2  230.16   12.14
   0  13  -1  129.49    8.14
   0  13  -1  134.72    9.08
   0  13   0  242.56   11.20
   0  13   0  237.26   11.81
   0 -13  -1    0.83    1.61
   0 -13  -2   42.93    5.49
   0  13   3   56.50    4.91
   0 -13  -3   61.25    6.20
   0 -13  -3   50.62    5.96
   0  13   4  272.62   10.06
   0 -13  -4  275.94   13.92
   0 -13  -4  255.03   12.18
   0 -13  -5   94.48    8.31
   0 -13  -5   83.41    6.94
   0  13   5   91.80    5.49
   0 -13  -6  157.20   10.90
   0 -13  -6  170.98    9.82
   0  13   6  179.89    7.13
   0 -13  -7    8.50    2.89
   0 -13  -7   10.86    2.83
   0  13   7    8.30    1.49
   0 -13  -8   23.92    4.67
   0 -13  -9    1.98    1.85
   0 -13 -10    2.42    2.30
   0 -13 -11   13.26    4.21
   0 -13 -12   65.29    8.26
   0 -13 -13   12.13    4.20
   0  14 -11   66.64    8.60
   0  14 -10  232.47   15.70
   0  14  -9  188.15   13.78
   0  14  -8  198.06   13.82
   0  14  -7  135.14    7.37
   0  14  -7  115.60   10.36
   0  14  -6   32.61    3.93
   0  14  -6   31.30    5.31
   0  14  -5   13.05    2.79
   0  14  -5   11.00    3.24
   0  14  -4   46.02    5.31
   0  14  -4   54.26    6.47
   0  14  -3  147.88    9.23
   0  14  -3  137.78   10.16
   0  14  -2  450.89   15.97
   0  14  -2  428.97   17.31
   0  14  -1  596.08   18.31
   0  14  -1  574.66   19.56
   0  14   0  270.54   12.39
   0  14   0  264.01   13.14
   0 -14  -1  356.08   16.18
   0 -14  -2   13.89    3.51
   0 -14  -3   -1.29    1.79
   0  14   3   -1.86    1.65
   0 -14  -4  134.76   10.28
   0  14   4  147.62    7.73
   0 -14  -5  340.61   16.47
   0  14   5  352.16   11.23
   0 -14  -6  404.20   18.16
   0  14   6  386.35   10.97
   0 -14  -7  399.91   18.43
   0 -14  -8  344.90   17.40
   0 -14  -9  150.30   11.87
   0 -14 -10   29.05    5.74
   0 -14 -11   17.12    3.85
   0 -14 -12  100.07   10.40
   0  15 -10    8.59    3.18
   0  15  -9   15.14    4.74
   0  15  -8  105.62   10.41
   0  15  -7   39.42    6.34
   0  15  -6   15.11    2.95
   0  15  -6   13.97    3.98
   0  15  -5    6.38    2.37
   0  15  -5    4.14    2.47
   0  15  -4    4.67    1.74
   0  15  -4    5.92    2.65
   0  15  -3    1.33    1.54
   0  15  -3    3.55    2.11
   0  15  -2    4.95    2.16
   0  15  -2    4.32    2.39
   0  15  -1   16.00    3.32
   0  15  -1   19.96    4.14
   0  15   0   27.34    4.25
   0  15   0   33.42    5.16
   0  15   1   82.02    7.31
   0 -15  -2    7.05    2.53
   0  15   3    3.46    1.55
   0 -15  -3    9.19    3.16
   0  15   4    8.85    2.20
   0 -15  -4   16.63    4.00
   0 -15  -5    0.85    2.25
   0 -15  -6   -1.37    2.72
   0 -15  -7   -1.72    2.75
   0 -15  -8    8.50    3.15
   0 -15  -9   -4.03    3.43
   0 -15 -10    2.97    2.32
   0  16  -8  123.05   11.56
   0  16  -7  280.09   17.02
   0  16  -6  340.80   18.37
   0  16  -5  350.34   14.48
   0  16  -5  324.81   17.38
   0  16  -4  151.90   10.29
   0  16  -4  142.68   11.35
   0  16  -3   16.25    3.49
   0  16  -3   19.46    4.24
   0  16  -2   -0.68    2.12
   0  16  -2    0.10    1.90
   0  16  -1   93.78    7.91
   0  16  -1  101.83    9.13
   0  16   0  138.82    9.73
   0  16   1  375.39   16.00
   0  16   2  366.83   14.50
   0 -16  -2  401.46   19.09
   0  16   3  353.17   13.66
   0 -16  -3  355.31   17.94
   0 -16  -4  197.91   13.47
   0 -16  -5   26.48    5.21
   0 -16  -6   -1.79    3.00
   0 -16  -7   60.58    8.08
   0 -16  -8  164.60   13.10
   0  17  -6   -1.34    1.92
   0  17  -5   14.85    4.60
   0  17  -4    7.47    3.15
   0  17  -3   27.00    4.85
   0  17  -3   26.95    5.28
   0  17  -2    0.92    2.47
   0  17  -2    3.74    2.63
   0  17  -1    7.99    2.90
   0  17   0    0.75    1.66
   0  17   1   12.48    3.35
   0  17   2   22.60    4.28
   0 -17  -3   33.02    6.30
   0 -17  -4   20.06    4.59
   0 -17  -5    9.72    3.27
   0 -17  -6    1.45    2.09
   0  18  -4  174.46   13.40
   0  18  -3  187.66   12.51
   0  18  -3  196.32   14.15
   0  18  -2  183.55   12.15
   0  18  -2  196.09   13.87
   0  18  -1  129.31   10.06
   0  18   0   48.33    6.34
   0  18   1   -0.90    3.12
   0  18   2   29.77    5.10
   0  18   3  108.39    9.49
  -1  18   2  176.82   12.82
  -1  18   1  231.41   14.40
  -1  18   0  195.53   13.18
  -1  18  -1   96.02    9.21
  -1  18  -2   52.53    6.92
  -1  18  -2   44.47    6.77
  -1  18  -3   -0.44    2.91
  -1  18  -3    5.96    2.65
  -1  18  -4   19.49    4.63
  -1  18  -4   24.03    5.16
   1 -17  -4   -1.37    2.07
   1 -17  -3    1.49    2.17
  -1  17   2    0.02    2.25
   1 -17  -2   -1.05    1.89
  -1  17   1    3.37    2.09
  -1  17   0   11.21    3.43
  -1  17  -1   32.42    5.31
  -1  17  -2   14.04    4.04
  -1  17  -2    5.53    2.96
  -1  17  -3    6.45    3.15
  -1  17  -3   13.37    4.18
  -1  17  -4   10.57    3.40
  -1  17  -4   13.30    3.71
  -1  17  -5   15.61    4.31
  -1  17  -6   -1.04    1.95
   1 -16  -7  145.95   12.54
   1 -16  -6  195.39   14.22
   1 -16  -5  295.39   17.20
   1 -16  -4  310.90   17.49
   1 -16  -3  151.71   12.24
   1 -16  -2   -2.20    2.60
  -1  16   1   21.68    4.31
  -1  16   0  128.49    9.89
  -1  16  -1   88.83    8.11
  -1  16  -1   85.01    8.22
  -1  16  -2  226.64   13.12
  -1  16  -2  220.09   13.36
  -1  16  -3  270.62   14.28
  -1  16  -3  274.09   15.24
  -1  16  -4  224.93   13.23
  -1  16  -4  196.56   13.15
  -1  16  -5   51.93    6.57
  -1  16  -5   54.11    7.31
  -1  16  -6   21.49    4.76
  -1  16  -7   23.29    5.05
  -1  16  -8   47.75    7.28
   1 -15  -9   28.37    5.72
   1 -15  -8    2.11    1.86
   1 -15  -7    7.71    3.10
   1 -15  -6   52.31    7.25
   1 -15  -5   79.02    8.81
   1 -15  -4  145.64   11.61
  -1  15   3  132.61    7.66
   1 -15  -3  125.81   10.72
   1 -15  -2   45.49    6.47
   1 -15  -1    2.37    2.25
  -1  15   0    3.81    2.06
  -1  15   0    4.49    1.47
  -1  15  -1    6.13    2.55
  -1  15  -1    8.93    3.01
  -1  15  -2   22.62    4.12
  -1  15  -2   29.47    4.90
  -1  15  -3  164.84   10.74
  -1  15  -3  168.74   11.49
  -1  15  -4  160.72   10.74
  -1  15  -4  149.11   11.07
  -1  15  -5  150.58   10.50
  -1  15  -5  159.09   11.77
  -1  15  -6  159.80   12.10
  -1  15  -7  117.92   10.64
  -1  15  -8   -0.71    2.82
  -1  15  -9   12.29    3.78
  -1  15 -10   48.54    7.61
   1 -14 -10  137.55   11.98
   1 -14  -9  144.09   12.05
   1 -14  -8   69.80    8.30
   1 -14  -7   21.18    4.64
   1 -14  -6   12.15    3.80
   1 -14  -5   49.87    6.70
  -1  14   4  112.72    6.40
   1 -14  -4  120.62    9.99
  -1  14   3  147.74    7.73
   1 -14  -3  151.62   11.13
   1 -14  -2  203.81   12.80
   1 -14  -1  104.81    9.19
  -1  14   0  243.04   12.32
  -1  14   0  233.36   12.12
   1 -14   0  253.38   14.22
  -1  14  -1    0.33    1.91
  -1  14  -1    2.76    1.69
  -1  14  -2    4.31    1.78
  -1  14  -2    6.01    2.27
  -1  14  -3   29.47    4.53
  -1  14  -3   23.70    4.23
  -1  14  -4   75.53    7.08
  -1  14  -4   63.51    6.95
  -1  14  -5  149.71   10.04
  -1  14  -5  142.55   10.64
  -1  14  -6   40.17    5.91
  -1  14  -7   40.47    4.13
  -1  14  -7   29.59    5.44
  -1  14  -8   68.29    8.12
  -1  14  -9    4.20    1.95
  -1  14 -10    6.02    2.20
  -1  14 -11    0.05    1.55
   1 -13 -12   16.60    4.81
   1 -13 -11   31.78    5.93
   1 -13 -10  138.22   11.61
   1 -13  -9  159.71   12.23
   1 -13  -8  304.59   16.46
   1 -13  -7  168.60   12.00
   1 -13  -6  346.97   16.82
  -1  13   5   12.84    1.91
   1 -13  -5   12.76    2.60
   1 -13  -5   16.06    3.72
  -1  13   4   11.80    2.07
   1 -13  -4   14.11    2.88
   1 -13  -4   10.77    3.01
   1 -13  -3   73.28    6.60
   1 -13  -3   87.45    8.17
   1 -13  -2  192.82   10.87
   1 -13  -2  193.28   11.99
   1 -13  -1  556.20   18.73
  -1  13   1  571.06   17.54
   1 -13  -1  556.45   20.02
  -1  13   0 1098.04   24.86
   1 -13   0 1087.23   28.18
  -1  13  -1  841.99   21.90
  -1  13  -1  839.74   22.26
  -1  13  -2  197.87   10.71
  -1  13  -2  193.68   10.90
  -1  13  -3    5.82    2.01
  -1  13  -3    5.16    1.82
  -1  13  -4    8.22    2.32
  -1  13  -4    7.69    2.20
  -1  13  -5  165.91   10.10
  -1  13  -5  158.08   10.81
  -1  13  -6  582.88   21.22
  -1  13  -7  388.73   11.97
  -1  13  -7  399.94   18.22
  -1  13  -8  343.55   10.11
  -1  13  -8  338.89   17.25
  -1  13  -9  243.39   15.18
  -1  13 -10   28.02    5.82
  -1  13 -11   -2.16    2.41
  -1  13 -12   13.04    4.32
  -1  13 -13  117.65   11.90
   1 -12 -13   85.81   10.10
   1 -12 -12    8.40    3.05
   1 -12 -11    7.38    3.48
   1 -12 -10   -0.38    2.19
   1 -12  -9   28.23    5.17
   1 -12  -8  171.07   12.05
   1 -12  -7   12.41    3.63
   1 -12  -7   11.51    2.34
   1 -12  -6   64.93    7.11
   1 -12  -6   54.58    5.08
  -1  12   6   55.04    3.11
   1 -12  -5   83.79    7.81
   1 -12  -5   62.63    5.66
  -1  12   5   71.89    4.16
  -1  12   4    3.87    1.13
   1 -12  -4    6.55    1.70
   1 -12  -4    2.72    1.57
   1 -12  -3    0.91    1.53
   1 -12  -3    0.28    1.35
   1 -12  -2   11.50    2.55
   1 -12  -2    7.20    2.27
   1 -12  -1   41.72    4.83
  -1  12   1   44.22    4.69
   1 -12  -1   50.43    5.83
  -1  12   0   11.57    2.74
   1 -12   0   11.53    2.62
   1 -12   0    9.65    2.96
  -1  12  -1   67.80    6.00
  -1  12  -1   74.45    6.44
   1 -12   1   67.50    6.70
  -1  12  -2   23.76    3.75
  -1  12  -2   24.48    3.99
  -1  12  -3    3.11    1.57
  -1  12  -3    4.12    2.09
  -1  12  -4   -0.96    1.37
  -1  12  -4   -0.76    1.58
  -1  12  -5    1.01    1.31
  -1  12  -5    1.43    1.49
  -1  12  -6  183.29   11.51
  -1  12  -7  144.46    6.78
  -1  12  -7  140.47   10.39
  -1  12  -8    6.03    1.30
  -1  12  -8    5.58    1.70
  -1  12  -9   35.43    5.73
  -1  12 -10   24.90    5.13
  -1  12 -11   -0.17    2.39
  -1  12 -12   -0.22    2.62
  -1  12 -13    3.89    2.59
  -1  12 -14    0.40    2.62
   1 -11 -14  202.79   15.07
   1 -11 -13  237.99   15.86
   1 -11 -12  318.80   17.78
   1 -11 -11  115.30   10.45
   1 -11 -10   55.42    7.04
   1 -11  -9    2.38    2.15
   1 -11  -8  100.56    8.82
   1 -11  -8   85.38    5.89
   1 -11  -7  406.61   17.13
   1 -11  -7  378.94   12.39
   1 -11  -6 1144.73   27.85
   1 -11  -6 1121.58   21.51
  -1  11   6 1122.95   12.60
   1 -11  -5  453.69   17.25
   1 -11  -5  449.74   13.90
  -1  11   5  481.19    9.82
  -1  11   4  717.27   13.42
   1 -11  -4  673.13   17.25
   1 -11  -4  712.40   21.23
   1 -11  -3  403.02   13.54
   1 -11  -3  403.43   15.73
   1 -11  -2   20.20    3.29
   1 -11  -2   14.75    3.08
   1 -11  -1   21.76    3.56
  -1  11   1   21.67    3.19
   1 -11  -1   23.96    3.88
   1 -11   0  270.31   11.94
  -1  11   0  282.26   11.44
   1 -11   0  293.76   13.12
  -1  11  -1  474.14   14.95
  -1  11  -1  478.30   15.24
   1 -11   1  477.24   16.47
   1 -11   1  494.52   17.17
  -1  11  -2  445.69   14.55
  -1  11  -2  442.43   15.11
   1 -11   2  448.78   16.36
  -1  11  -3  922.33   21.05
  -1  11  -3  891.87   22.12
   1 -11   3  896.44   23.79
  -1  11  -4  810.50   19.96
  -1  11  -4  751.92   20.90
  -1  11  -5  154.53    9.01
  -1  11  -5  148.01    9.62
  -1  11  -6  111.54    8.72
  -1  11  -7    7.45    1.49
  -1  11  -7   10.66    3.20
  -1  11  -8  108.62    4.73
  -1  11  -8  102.89    8.99
  -1  11  -9  330.18   16.52
  -1  11 -10  558.29   22.14
  -1  11 -11  457.34   20.61
  -1  11 -12  250.10   15.73
  -1  11 -13   65.38    8.37
  -1  11 -14    0.88    2.06
  -1  11 -15   15.04    4.38
   1 -10 -14   -0.44    2.44
   1 -10 -13   -1.58    2.39
   1 -10 -12    3.16    2.24
   1 -10 -11    4.34    2.52
   1 -10 -10    0.85    1.93
   1 -10  -9    8.34    2.96
   1 -10  -9    5.47    1.43
   1 -10  -8   23.57    4.21
   1 -10  -8   26.21    3.22
   1 -10  -7    3.79    1.84
   1 -10  -7    5.44    1.48
   1 -10  -6   13.04    3.17
   1 -10  -6   13.02    2.29
  -1  10   6   17.01    1.42
  -1  10   5   16.03    1.65
   1 -10  -5   17.43    2.61
   1 -10  -5   12.38    2.89
  -1  10   4   23.94    2.36
   1 -10  -4   25.93    3.20
   1 -10  -4   23.68    3.79
   1 -10  -3   33.88    3.77
   1 -10  -3   34.05    4.44
  -1  10   3   41.43    4.94
   1 -10  -2   69.93    5.47
   1 -10  -2   75.58    6.48
  -1  10   2   82.17    6.76
   1 -10  -1    0.10    1.30
  -1  10   1    1.11    1.18
   1 -10  -1    1.67    1.26
  -1  10   0   25.80    3.40
   1 -10   0   27.21    3.59
   1 -10   0   27.76    3.93
  -1  10   0   23.03    3.53
  -1  10  -1   60.42    5.16
   1 -10   1   67.54    5.88
  -1  10  -1   60.51    5.73
   1 -10   1   56.15    5.66
  -1  10  -2  191.71    9.11
   1 -10   2  197.55   10.31
  -1  10  -2  173.11    8.99
  -1  10  -2  206.31   10.56
  -1  10  -3   21.23    3.07
   1 -10   3   25.76    3.86
  -1  10  -3   24.18    3.46
  -1  10  -3   31.16    4.29
  -1  10  -4   81.17    6.10
   1 -10   4   89.66    7.47
  -1  10  -4   79.54    6.56
  -1  10  -4   86.40    7.02
  -1  10  -5    3.24    1.57
   1 -10   5    5.40    2.12
  -1  10  -5    3.44    1.79
  -1  10  -6   69.39    6.59
  -1  10  -7    4.00    1.13
  -1  10  -7    1.12    1.68
  -1  10  -8    3.92    0.91
  -1  10  -8   -2.85    2.14
  -1  10  -9    9.40    2.94
  -1  10 -10   21.03    4.13
  -1  10 -11  103.18    9.61
  -1  10 -12   45.76    6.54
  -1  10 -13   62.96    8.14
  -1  10 -14   22.57    5.46
  -1  10 -15    4.13    1.94
  -1  10 -16    3.03    2.83
   1  -9 -15  162.61   13.42
   1  -9 -14    5.20    2.98
   1  -9 -13   49.71    7.06
   1  -9 -12  226.75   14.27
   1  -9 -12  217.83    9.41
   1  -9 -11  480.21   19.86
   1  -9 -10  813.84   24.84
   1  -9 -10  797.82   16.30
   1  -9  -9  575.82   20.08
   1  -9  -9  569.53   13.61
   1  -9  -8  297.34   13.95
   1  -9  -8  303.84    9.84
   1  -9  -7  159.95    9.96
   1  -9  -7  168.43    7.36
   1  -9  -6    1.83    1.71
   1  -9  -6    1.72    1.04
  -1   9   6    1.98    0.46
  -1   9   5  103.47    7.59
   1  -9  -5  108.63    7.76
   1  -9  -5  106.27    5.84
  -1   9   5  104.97    3.74
  -1   9   4  617.67   10.57
   1  -9  -4  594.84   14.04
  -1   9   4  638.17   18.22
   1  -9  -4  619.42   17.93
   1  -9  -3  986.90   18.49
   1  -9  -3 1001.19   22.42
  -1   9   3 1013.05   22.62
   1  -9  -2  801.72   17.12
  -1   9   2  840.62   20.39
   1  -9  -2  803.82   19.85
  -1   9   1 1447.58   22.24
   1  -9  -1 1395.40   23.15
  -1   9   1 1444.70   26.32
   1  -9  -1 1404.84   25.86
  -1   9   0  243.57    9.45
   1  -9   0  225.85    9.68
  -1   9   0  236.70   10.69
   1  -9   0  233.49   10.55
  -1   9  -1  261.87   10.14
   1  -9   1  266.06   10.84
  -1   9  -1  268.79   11.31
   1  -9   1  256.46   11.03
  -1   9  -2    1.96    1.07
   1  -9   2    2.87    1.26
  -1   9  -2    2.90    1.41
  -1   9  -2    0.85    1.07
  -1   9  -3  267.92   10.29
  -1   9  -3  270.85   11.03
   1  -9   3  283.90   12.15
  -1   9  -3  313.43   12.44
  -1   9  -4  560.90   15.18
   1  -9   4  553.06   17.47
  -1   9  -4  545.67   16.26
  -1   9  -4  541.41   16.66
  -1   9  -5  509.69   14.87
   1  -9   5  514.65   17.58
  -1   9  -5  502.09   16.30
  -1   9  -5  539.65   16.89
  -1   9  -6  864.32   22.24
   1  -9   6  919.79   24.21
  -1   9  -6  891.37   22.07
  -1   9  -7  724.94   11.32
  -1   9  -7  705.72   20.94
  -1   9  -8  619.73    7.92
   1  -9   8  637.31   18.00
  -1   9  -8  589.05   19.84
  -1   9  -9   56.49    6.46
  -1   9 -10    3.17    1.67
  -1   9 -11   90.30    8.79
  -1   9 -12  144.08   11.34
  -1   9 -13  228.58   14.60
  -1   9 -14  200.27   14.10
  -1   9 -15  183.74   13.99
  -1   9 -16   57.03    8.15
  -1   9 -17   10.10    3.85
   1  -8 -16    3.56    2.62
   1  -8 -15    5.57    3.44
   1  -8 -14   11.35    3.63
   1  -8 -13    5.41    3.00
   1  -8 -13    6.22    1.67
   1  -8 -12   21.65    4.46
   1  -8 -12   27.09    3.41
   1  -8 -11   95.50    8.75
   1  -8 -11   85.40    5.38
   1  -8 -10   19.15    3.94
   1  -8 -10   19.40    2.39
   1  -8  -9  128.46    9.27
   1  -8  -9  126.16    6.12
   1  -8  -8   85.90    7.35
   1  -8  -8   76.16    4.66
   1  -8  -7   67.20    6.23
   1  -8  -7   63.50    4.19
  -1   8   6  154.62    9.11
   1  -8  -6  151.74    9.02
   1  -8  -6  149.51    6.41
  -1   8   5   17.16    3.07
   1  -8  -5   16.30    2.93
   1  -8  -5   14.49    2.12
  -1   8   5   16.50    1.32
  -1   8   4   19.22    1.72
   1  -8  -4   17.59    2.30
   1  -8  -4   15.02    3.05
  -1   8   4   17.73    3.02
   1  -8  -3   37.51    3.44
   1  -8  -3   35.72    4.11
  -1   8   3   36.23    4.10
  -1   8   2   90.14    5.02
   1  -8  -2   79.52    4.99
  -1   8   2   95.92    6.51
   1  -8  -2   91.60    6.34
   1  -8  -1  242.01    8.93
  -1   8   1  250.80    8.64
  -1   8   1  252.92   10.31
   1  -8  -1  248.69   10.33
  -1   8   0   43.93    3.77
   1  -8   0   43.58    4.04
   1  -8   0   39.81    4.25
  -1   8   0   40.76    4.19
  -1   8  -1  276.53    9.78
   1  -8   1  278.44   10.43
  -1   8  -1  282.59   10.92
   1  -8   1  267.44   10.68
  -1   8  -2  180.34    7.89
  -1   8  -2  183.89    8.28
   1  -8   2  187.82    8.86
  -1   8  -2  184.86    8.87
  -1   8  -3   15.89    2.45
   1  -8   3   21.41    3.20
  -1   8  -3   19.44    2.92
  -1   8  -3   17.27    2.90
  -1   8  -4    4.64    1.29
  -1   8  -4    5.34    1.66
   1  -8   4    2.12    1.57
  -1   8  -4    1.95    1.25
  -1   8  -5   62.26    5.06
   1  -8   5   58.29    5.77
  -1   8  -5   67.39    5.82
  -1   8  -5   56.09    5.12
   1  -8   6  258.80   12.35
  -1   8  -6  248.29   11.55
  -1   8  -6  244.40   11.04
  -1   8  -7  503.82    8.04
   1  -8   7  507.80   14.92
   1  -8   7  508.19   17.95
  -1   8  -7  510.91   17.24
   1  -8   8  302.71   12.04
  -1   8  -8  299.59   13.72
   1  -8   9  121.66    7.96
  -1   8  -9  114.51    8.93
  -1   8 -10  185.56   11.63
  -1   8 -11    8.23    2.79
  -1   8 -12    0.26    2.33
  -1   8 -13  179.88   12.62
  -1   8 -14  124.39   10.90
  -1   8 -15   80.27    9.21
  -1   8 -16  100.55   10.40
  -1   8 -17   76.60    9.32
   1  -7 -16  239.36   16.33
   1  -7 -15  279.78   17.26
   1  -7 -14  244.76   15.22
   1  -7 -14  250.41   10.69
   1  -7 -13  271.21   15.50
   1  -7 -13  261.50   10.60
   1  -7 -12   96.36    8.97
   1  -7 -12   88.86    6.05
   1  -7 -11   82.69    7.92
   1  -7 -11   74.76    5.26
   1  -7 -10   25.27    4.47
   1  -7  -9  297.70   13.55
   1  -7  -8  582.56   18.28
   1  -7  -8  565.27   12.05
  -1   7   7  566.55   17.44
   1  -7  -7  548.69   17.05
   1  -7  -7  545.01   11.48
  -1   7   6  974.55   21.84
   1  -7  -6  925.92   21.16
   1  -7  -6  922.33   14.68
   1  -7  -5  513.08   15.15
  -1   7   5  525.62   15.35
   1  -7  -5  482.61   10.55
  -1   7   5  491.25    5.65
  -1   7   4  531.31    7.62
   1  -7  -4  533.92   11.17
   1  -7  -4  527.46   14.91
  -1   7   4  566.72   15.47
   1  -7  -3    8.54    1.55
   1  -7  -3    5.46    1.71
  -1   7   3   12.60    2.34
   1  -7  -2   61.57    4.03
  -1   7   2   55.81    3.64
   1  -7  -2   61.18    4.92
  -1   7   2   61.22    4.86
   1  -7  -1  156.62    6.68
  -1   7   1  168.83    6.53
  -1   7   1  167.09    7.86
   1  -7  -1  160.20    7.76
   1  -7   0  752.74   15.16
  -1   7   0  762.49   14.51
  -1   7   0  808.75   17.23
   1  -7   0  798.41   17.04
  -1   7  -1  796.47   15.47
   1  -7   1  816.12   16.54
   1  -7   1  816.18   17.30
  -1   7  -1  817.60   17.33
  -1   7  -2  669.03   14.20
   1  -7   2  660.05   15.59
  -1   7  -2  638.65   14.48
  -1   7  -2  656.91   15.69
  -1   7  -3  307.14    9.82
   1  -7   3  324.61   11.54
  -1   7  -3  306.28   10.60
  -1   7  -3  316.82   11.10
  -1   7  -4  384.62   11.35
   1  -7   4  396.98   13.38
  -1   7  -4  383.51   12.48
  -1   7  -4  385.86   12.55
  -1   7  -5   27.68    3.23
  -1   7  -5   23.21    3.34
   1  -7   5   33.85    4.21
  -1   7  -5   27.46    3.59
   1  -7   6   46.83    4.30
   1  -7   6   39.75    4.77
  -1   7  -6   36.92    4.38
  -1   7  -7  314.64    4.81
   1  -7   7  330.71   11.68
   1  -7   7  333.65   13.94
  -1   7  -7  303.99   12.77
   1  -7   8  201.13    9.53
  -1   7  -8  194.33   10.70
   1  -7   8  214.16   11.75
   1  -7   9  231.06   10.68
   1  -7   9  240.33   12.90
  -1   7  -9  222.80   12.02
   1  -7  10  326.40   13.31
  -1   7 -10  316.08   14.78
  -1   7 -11   75.22    7.55
  -1   7 -12   57.19    6.76
  -1   7 -13   31.52    5.12
  -1   7 -14   49.67    6.78
  -1   7 -15    3.43    2.88
  -1   7 -16   38.57    6.61
  -1   7 -17   64.23    8.25
  -1   7 -18   94.58   10.64
   1  -6 -17    6.67    3.79
   1  -6 -16    6.63    3.20
   1  -6 -15   13.05    3.66
   1  -6 -15    8.34    2.15
   1  -6 -14  102.17   10.03
   1  -6 -14  112.54    7.28
   1  -6 -13  174.97   12.10
   1  -6 -13  187.90    9.08
   1  -6 -12  143.85   10.70
   1  -6 -12  143.74    7.56
   1  -6 -11  109.41    8.82
   1  -6 -11   97.22    5.98
   1  -6 -10  255.19   12.90
   1  -6 -10  260.32    9.22
   1  -6  -9  101.35    7.88
   1  -6  -8    9.71    2.49
  -1   6   7  184.52    9.55
   1  -6  -7  163.54    9.00
  -1   6   6  558.45   15.81
   1  -6  -6  529.37   15.38
   1  -6  -6  528.40   10.30
  -1   6   5  784.29   17.83
   1  -6  -5  738.45   17.37
   1  -6  -5  742.50   11.93
  -1   6   4 1239.46   21.60
   1  -6  -4 1200.85   21.30
   1  -6  -4 1224.78   15.30
  -1   6   4 1217.04    9.32
   1  -6  -3 2145.70   20.44
  -1   6   3 2166.27   27.64
   1  -6  -3 2128.45   27.36
   1  -6  -2  219.81    6.78
  -1   6   2  229.24    6.63
  -1   6   2  218.31    8.56
   1  -6  -2  222.41    8.63
  -1   6   1    2.48    0.96
   1  -6  -1    3.72    1.08
  -1   6   1    3.78    1.30
   1  -6  -1    1.78    0.91
  -1   6   0   24.39    2.47
   1  -6   0   27.19    2.76
  -1   6   0   26.98    3.05
   1  -6   0   26.05    2.93
   1  -6   1  966.96   16.59
  -1   6  -1  986.07   15.91
  -1   6  -1 1033.62   18.05
   1  -6   1 1016.74   17.92
  -1   6  -2 1056.75   16.77
   1  -6   2 1007.25   18.06
  -1   6  -2 1019.03   17.16
  -1   6  -2 1076.93   18.85
  -1   6  -3 1642.05   21.36
  -1   6  -3 1712.46   23.57
   1  -6   3 1711.30   24.84
  -1   6  -3 1643.43   23.61
  -1   6  -4 2757.19   28.62
  -1   6  -4 2649.95   31.16
   1  -6   4 2623.90   32.52
  -1   6  -4 2614.05   30.72
   1  -6   5  942.69   17.30
  -1   6  -5  912.30   19.34
   1  -6   5  949.06   20.60
  -1   6  -6   30.22    1.63
   1  -6   6   35.89    3.64
   1  -6   6   31.91    4.08
  -1   6  -6   35.81    4.19
   1  -6   7    0.49    1.09
  -1   6  -7    0.70    1.41
   1  -6   7   -0.57    1.78
   1  -6   8  213.95    9.56
  -1   6  -8  199.78   10.56
   1  -6   8  199.24   10.95
   1  -6   9  646.54   17.57
   1  -6   9  684.13   21.04
  -1   6  -9  624.79   19.41
   1  -6  10  981.01   22.65
  -1   6 -10  889.63   24.02
  -1   6 -11  849.38   24.32
  -1   6 -12  278.98   14.42
  -1   6 -13  136.46   10.47
  -1   6 -14   -0.19    1.65
  -1   6 -15   -1.52    2.67
  -1   6 -16   62.42    7.81
  -1   6 -17  195.71   14.02
  -1   6 -18  316.01   18.26
  -1   6 -19  171.28   13.84
   1  -5 -17   55.68    8.17
   1  -5 -16   10.97    4.45
   1  -5 -16    5.15    1.65
   1  -5 -15    7.21    2.91
   1  -5 -15    2.18    1.33
   1  -5 -14  110.82   10.11
   1  -5 -14  102.13    7.00
   1  -5 -13   36.06    5.50
   1  -5 -13   39.70    4.25
   1  -5 -13   35.57    2.29
   1  -5 -12  107.11    9.09
   1  -5 -12  105.22    6.47
   1  -5 -12  109.21    3.63
   1  -5 -11  330.02   14.92
   1  -5 -11  312.30   10.69
   1  -5 -11  320.54    5.52
   1  -5 -10  744.51   21.52
   1  -5 -10  667.23    6.64
   1  -5 -10  709.69   15.27
   1  -5  -9  395.88   14.90
   1  -5  -9  400.69   10.79
   1  -5  -8    1.06    1.34
   1  -5  -7    6.78    1.94
  -1   5   6  485.00   14.19
   1  -5  -6  460.74   13.80
   1  -5  -5  242.87    6.23
  -1   5   5  255.30    9.79
   1  -5  -5  249.77    9.69
   1  -5  -4  187.40    5.36
   1  -5  -4  197.29    8.21
  -1   5   4  178.64    7.80
   1  -5  -3  906.25   11.82
   1  -5  -3  925.48   16.92
  -1   5   3  938.48   16.96
   1  -5  -2  776.95   11.26
   1  -5  -2  792.21   15.13
  -1   5   2  769.08   14.85
   1  -5  -1  691.21   11.20
  -1   5   1  710.51   10.91
   1  -5  -1  702.29   13.84
  -1   5   1  706.09   13.87
   1  -5   0   22.79    2.27
  -1   5   0   22.85    2.13
  -1   5   0   19.50    2.33
   1  -5   0   24.72    2.66
   1  -5   1    1.04    0.71
  -1   5  -1    2.52    0.90
   1  -5   1    3.04    1.16
  -1   5  -1    3.33    1.20
  -1   5  -2  216.77    7.07
   1  -5   2  217.80    7.81
  -1   5  -2  220.39    7.45
  -1   5  -2  229.91    8.04
  -1   5  -3  183.09    6.66
   1  -5   3  161.20    7.20
  -1   5  -3  168.27    7.05
  -1   5  -3  169.93    7.05
  -1   5  -4  395.72   10.25
   1  -5   4  386.17   10.06
  -1   5  -4  393.81   11.52
   1  -5   4  384.00   11.82
   1  -5   5  111.85    5.67
   1  -5   5  119.51    7.05
  -1   5  -5  110.72    6.53
   1  -5   6   65.30    4.62
   1  -5   6   64.92    5.55
  -1   5  -6   58.69    5.06
   1  -5   7  142.19    7.22
   1  -5   7  138.32    8.42
  -1   5  -7  147.99    8.41
   1  -5   8    0.84    1.30
  -1   5  -8    2.22    1.20
   1  -5   8    1.75    1.51
   1  -5   9   -0.07    1.53
  -1   5  -9    0.77    1.27
   1  -5   9   -0.44    1.11
  -1   5 -10    9.08    2.71
   1  -5  10   10.06    2.84
  -1   5 -11  348.32   15.21
  -1   5 -12   93.30    8.19
  -1   5 -13   30.35    4.93
  -1   5 -14   14.59    3.75
  -1   5 -15   17.39    4.08
  -1   5 -16    1.43    2.18
  -1   5 -17   15.04    3.94
  -1   5 -18    0.22    3.00
  -1   5 -19   10.07    3.60
  -1   5 -20    5.61    3.24
   1  -4 -18  145.77   13.20
   1  -4 -17  281.02   17.63
   1  -4 -16  192.41   14.03
   1  -4 -16  153.17    9.34
   1  -4 -15  117.47   10.63
   1  -4 -15  110.73    7.69
   1  -4 -14    0.10    2.01
   1  -4 -14    1.84    1.37
   1  -4 -14    1.82    1.01
   1  -4 -13   -1.84    2.73
   1  -4 -13    1.77    1.02
   1  -4 -13    0.31    1.49
   1  -4 -12  234.84   13.04
   1  -4 -12  237.45    9.89
   1  -4 -12  239.67    6.87
   1  -4 -11  974.59   25.38
   1  -4 -11  991.70   19.17
   1  -4 -11  960.95   12.71
   1  -4 -10 1399.02   28.79
   1  -4 -10 1328.12   21.01
   1  -4 -10 1359.97   13.77
   1  -4  -9 1000.14   23.15
   1  -4  -9  952.42   16.77
   1  -4  -9  973.42   10.26
   1  -4  -8  486.82   15.33
   1  -4  -8  474.37    6.02
   1  -4  -8  479.11   11.04
   1  -4  -7   61.39    5.18
   1  -4  -6  175.17    8.19
   1  -4  -5 1217.84   20.30
  -1   4   5 1251.19   20.67
  -1   4   4 1507.41   21.37
   1  -4  -4 1508.31   21.30
   1  -4  -3 1764.53   14.26
  -1   4   3 1837.41   22.13
   1  -4  -3 1827.88   22.25
   1  -4  -2 2032.49   15.55
  -1   4   2 2066.81   22.39
   1  -4  -2 1956.15   21.86
   1  -4  -1 1635.97   15.01
  -1   4   1 1678.34   14.50
   1  -4  -1 1701.62   19.67
  -1   4   1 1656.97   19.51
   1  -4   0  966.67   12.44
  -1   4   0  978.01   11.98
  -1   4   0  960.17   14.47
   1  -4   0  984.20   14.74
  -1   4  -1  487.82    9.35
   1  -4   1  473.55    9.68
  -1   4  -1  485.62   10.40
   1  -4   1  490.57   10.43
  -1   4  -2  103.82    4.53
  -1   4  -2  101.21    4.70
   1  -4   2  102.40    4.96
  -1   4  -2   99.93    4.84
   1  -4   3   39.54    2.92
  -1   4  -3   43.29    3.11
  -1   4  -3   42.05    3.40
   1  -4   3   46.24    3.64
  -1   4  -3   34.66    3.01
   1  -4   4  246.60    7.59
  -1   4  -4  255.61    8.84
   1  -4   4  260.61    9.15
   1  -4   5 1054.58   16.67
   1  -4   5 1059.68   19.81
  -1   4  -5 1063.13   19.32
   1  -4   6  923.03   16.65
   1  -4   6  928.70   19.56
  -1   4  -6  923.10   19.07
   1  -4   7 1413.59   22.05
  -1   4  -7 1432.22   25.05
   1  -4   7 1477.23   26.31
  -1   4  -8  784.38   19.49
   1  -4   8  815.43   20.53
  -1   4  -9   57.34    5.58
   1  -4   9   63.96    6.22
  -1   4 -10   13.33    2.90
   1  -4  10    8.83    2.55
  -1   4 -11  333.98   14.46
   1  -4  11  332.37   14.99
  -1   4 -12  350.17   15.32
  -1   4 -13  524.08   19.38
  -1   4 -14  689.24   22.98
  -1   4 -15  610.76   22.26
  -1   4 -16  179.16   12.65
  -1   4 -17   21.38    4.68
  -1   4 -18    6.65    3.43
  -1   4 -19   24.69    5.46
  -1   4 -20  118.78   11.41
   1  -3 -18   42.22    7.31
   1  -3 -17  110.84   11.05
   1  -3 -17  108.74    8.23
   1  -3 -16   32.92    6.36
   1  -3 -16   30.38    4.35
   1  -3 -15    9.37    3.44
   1  -3 -15    3.31    1.74
   1  -3 -14   15.54    3.89
   1  -3 -14   13.25    2.62
   1  -3 -14   13.16    2.21
   1  -3 -13   47.71    6.33
   1  -3 -13   45.61    4.70
   1  -3 -13   49.19    3.77
   1  -3 -12   17.07    3.66
   1  -3 -12   12.06    2.44
   1  -3 -12    9.02    1.56
   1  -3 -11   19.07    3.82
   1  -3 -11   21.28    2.21
   1  -3 -11   18.57    2.89
   1  -3 -10    2.75    1.82
   1  -3 -10    5.27    1.14
   1  -3 -10    4.66    1.47
   1  -3  -9  115.81    7.85
   1  -3  -9  111.56    5.86
   1  -3  -9  106.91    4.09
   1  -3  -8   36.62    4.26
   1  -3  -8   30.61    2.01
   1  -3  -8   30.42    2.89
   1  -3  -7   44.87    4.40
   1  -3  -7   39.23    1.96
   1  -3  -7   42.04    3.11
   1  -3  -6    6.28    1.56
   1  -3  -6    7.26    1.28
   1  -3  -6    8.88    0.79
   1  -3  -5  112.07    5.95
   1  -3  -4  256.88    8.32
  -1   3   4  245.90    8.17
  -1   3   3    0.82    0.66
   1  -3  -3    1.04    0.92
   1  -3  -2    8.85    0.89
   1  -3  -2    9.95    1.53
  -1   3   2    9.33    1.52
  -1   3   1  390.26    5.76
   1  -3  -1  383.03    5.91
  -1   3   1  372.01    8.34
   1  -3  -1  389.30    8.51
   1  -3   0   32.79    2.04
  -1   3   0   33.89    1.97
   1  -3   0   31.90    2.45
  -1   3   0   33.79    2.48
  -1   3  -1    1.80    0.72
   1  -3   1    0.54    0.55
   1  -3   1    0.94    0.69
  -1   3  -1    1.44    0.73
  -1   3  -2  156.04    5.05
   1  -3   2  158.51    5.66
  -1   3  -2  156.04    5.38
  -1   3  -2  164.28    5.58
  -1   3  -3   90.35    4.12
   1  -3   3   88.91    4.01
   1  -3   3   94.30    4.79
  -1   3  -3   96.98    4.76
   1  -3   4   35.13    2.76
   1  -3   4   32.40    3.10
  -1   3  -4   36.89    3.30
   1  -3   5   16.87    2.15
  -1   3  -5   18.45    2.57
   1  -3   5   16.74    2.39
   1  -3   6  153.84    7.75
  -1   3  -6  160.04    7.76
   1  -3   7  391.75   13.11
  -1   3  -7  393.34   12.76
  -1   3  -8  167.79    8.80
   1  -3   8  157.35    8.81
  -1   3  -9   21.75    3.55
   1  -3   9   20.85    3.53
  -1   3 -10   -0.84    1.53
   1  -3  10    2.89    1.30
  -1   3 -11    4.32    1.86
   1  -3  11    9.21    2.69
  -1   3 -12    3.63    1.68
   1  -3  12    6.84    2.40
  -1   3 -13   25.97    4.36
  -1   3 -14   18.36    3.88
  -1   3 -15   69.05    7.45
  -1   3 -16   45.58    6.21
  -1   3 -17   13.03    3.61
  -1   3 -18    8.58    3.29
  -1   3 -19  -12.37    3.85
  -1   3 -20    5.30    3.31
  -1   3 -21    8.08    3.56
   1  -2 -18   22.14    5.16
   1  -2 -18   40.93    5.63
   1  -2 -17  103.35   10.60
   1  -2 -17   87.77    7.68
   1  -2 -16  153.92   12.56
   1  -2 -16  164.74   10.08
   1  -2 -15  561.54   22.52
   1  -2 -15  552.65   17.79
   1  -2 -15  533.54   14.25
   1  -2 -14 1119.61   30.58
   1  -2 -14 1154.28   24.65
   1  -2 -14 1066.60   19.26
   1  -2 -13  255.19   14.00
   1  -2 -13  242.65   10.89
   1  -2 -13  218.83    8.37
   1  -2 -12  284.02   14.02
   1  -2 -12  307.47   11.72
   1  -2 -12  287.42    9.08
   1  -2 -11  115.89    8.76
   1  -2 -11  134.34    7.38
   1  -2 -11  118.41    5.53
   1  -2 -10   25.99    4.09
   1  -2 -10   36.28    3.67
   1  -2 -10   33.02    2.80
   1  -2  -9  145.22    8.68
   1  -2  -9  180.68    7.67
   1  -2  -9  148.86    5.43
   1  -2  -8  774.58   18.70
   1  -2  -8  743.46   14.46
   1  -2  -8  721.96   10.97
   1  -2  -7 2967.01   34.65
   1  -2  -7 3011.15   26.76
   1  -2  -6 1203.42   20.36
   1  -2  -6 1184.03   15.21
   1  -2  -5 2239.67   25.76
   1  -2  -5 2107.91   18.05
   1  -2  -4  349.94    9.35
   1  -2  -4  342.76    6.20
  -1   2   3    1.43    0.76
   1  -2  -3    1.41    0.97
  -1   2   2   74.41    3.59
   1  -2  -2   78.75    3.72
  -1   2   1 2674.84   19.58
   1  -2  -1 2717.84   19.77
   1  -2   0 1461.49   10.76
  -1   2   0 1459.89   10.20
   1  -2   0 1454.68   13.70
  -1   2   0 1485.59   13.75
  -1   2  -1 5001.33   23.73
   1  -2   1 5021.10   24.74
   1  -2   1 5104.08   25.74
  -1   2  -1 5131.88   25.99
   1  -2   2  718.46    9.60
  -1   2  -2  705.16    9.60
   1  -2   2  667.34   10.57
  -1   2  -2  695.58   10.54
   1  -2   3 1354.79   14.33
   1  -2   3 1359.82   16.93
  -1   2  -3 1352.61   16.71
   1  -2   4  249.62    8.07
  -1   2  -4  242.93    7.87
   1  -2   5   92.93    5.40
  -1   2  -5   94.52    5.34
  -1   2  -6   42.70    3.95
   1  -2   6   39.52    3.90
  -1   2  -7 1153.35   21.02
   1  -2   7 1211.07   22.23
  -1   2  -8 1277.88   23.34
   1  -2   8 1284.53   24.29
  -1   2  -9 1745.37   28.62
   1  -2   9 1787.40   30.11
  -1   2 -10 1152.20   24.33
   1  -2  10 1162.97   25.48
  -1   2 -11  648.32   19.03
   1  -2  11  662.67   20.10
  -1   2 -12   32.29    4.57
  -1   2 -13   11.28    3.07
  -1   2 -14   78.74    7.50
  -1   2 -15  340.89   15.93
  -1   2 -16  342.06   16.47
  -1   2 -17  230.01   13.94
  -1   2 -18  194.70   13.26
  -1   2 -19   60.75    7.97
  -1   2 -20   13.90    4.24
  -1   2 -21    8.24    3.49
   1  -1 -18    7.45    3.63
   1  -1 -18   17.76    3.97
   1  -1 -17    2.27    2.41
   1  -1 -17    1.09    1.86
   1  -1 -16    1.54    2.15
   1  -1 -16    0.14    2.01
   1  -1 -15    3.66    1.82
   1  -1 -15    3.47    1.70
   1  -1 -14   10.23    2.80
   1  -1 -14    9.97    2.28
   1  -1 -13    8.85    2.40
   1  -1 -13    8.75    1.98
   1  -1 -12    2.08    1.22
   1  -1 -11    4.34    1.57
   1  -1 -10    1.57    1.09
   1  -1  -9   99.44    5.86
   1  -1  -8  100.06    5.51
   1  -1  -7   87.95    4.84
   1  -1  -6  539.18   10.81
   1  -1  -5  181.17    5.65
   1  -1  -4   89.44    4.73
   1  -1  -4   95.50    3.56
   1  -1  -3    0.36    0.83
   1  -1  -3    1.17    0.54
   1  -1  -2  120.27    4.16
  -1   1   2  115.39    4.05
   1  -1  -1    2.43    0.65
  -1   1   1    4.76    0.81
   1  -1   0   26.72    1.53
  -1   1   0   23.09    1.43
   1  -1   0   26.16    1.15
  -1   1   0   25.40    1.12
   1  -1   1  252.90    4.72
  -1   1  -1  247.57    4.67
  -1   1  -1  245.45    4.71
   1  -1   1  246.55    4.78
  -1   1  -1  252.52    4.45
  -1   1  -2  540.58    7.42
   1  -1   2  540.53    7.37
  -1   1  -2  527.90    8.51
   1  -1   2  549.71    8.72
  -1   1  -3  679.17   11.11
   1  -1   3  682.20   11.27
   1  -1   4    2.81    1.07
  -1   1  -4    2.95    1.20
  -1   1  -5  129.53    5.97
   1  -1   5  121.94    5.90
  -1   1  -6  182.64    7.66
   1  -1   6  189.97    7.92
  -1   1  -7   72.96    5.18
   1  -1   7   80.12    5.54
  -1   1  -8   24.31    3.37
   1  -1   8   25.14    3.38
  -1   1  -9  513.43   15.17
  -1   1 -10  853.34   20.36
  -1   1 -11   64.62    5.94
  -1   1 -12  189.54   10.45
  -1   1 -13   40.30    5.24
  -1   1 -13   37.33    4.33
  -1   1 -14   -0.27    1.42
  -1   1 -14    1.92    1.26
  -1   1 -15   13.18    3.22
  -1   1 -16   22.72    4.40
  -1   1 -17  118.76    9.88
  -1   1 -18   97.53    9.30
  -1   1 -19   89.25    9.15
  -1   1 -20   42.10    6.76
  -1   1 -21   10.27    3.66
   1   0 -19  153.37   11.23
   1   0 -18  274.36   14.55
   1   0 -17  167.34   11.02
   1   0 -16    2.92    2.03
   1   0 -15   11.78    2.93
   1   0 -15    9.79    2.19
   1   0 -14  130.80    8.79
   1   0 -13   28.17    4.07
   1   0 -12 1835.18   30.20
   1   0 -11  273.05   11.24
   1   0 -10  818.61   18.36
   1   0  -9  576.53   14.58
   1   0  -8   27.96    3.24
  -1   0   8   28.81    3.28
   1   0  -7  204.72    7.65
  -1   0   7  192.36    7.77
   1   0  -6  333.14    9.00
  -1   0   6  331.45    9.28
   1   0  -5  659.97   11.46
  -1   0   5  661.81   11.83
   1   0  -4  766.16   10.87
  -1   0   4  776.70   11.28
  -1   0   3 1530.51   13.45
   1   0  -3 1586.63   13.20
  -1   0   2 2567.48   13.57
   1   0  -2 2597.12   13.26
   1   0  -1  953.27    8.70
   1   0  -1  978.97    6.98
   1   0   0  254.07    3.46
   1   0   1  206.76    3.23
   1   0   1  207.65    3.56
  -1   0  -2 1299.60    8.78
   1   0   2 1301.10    8.83
   1   0   2 1283.75   10.45
  -1   0  -2 1251.14   10.27
  -1   0  -3 1275.47   14.09
  -1   0  -3 1254.24   11.92
  -1   0  -4  840.02   11.02
  -1   0  -4  863.78   13.19
  -1   0  -5  791.12   14.01
  -1   0  -6 1269.67   19.26
  -1   0  -7  815.74   16.54
  -1   0  -8  199.84    8.72
  -1   0  -9   21.61    3.13
  -1   0  -9   23.90    2.82
  -1   0 -10  539.25   15.86
  -1   0 -10  507.52   13.06
  -1   0 -11  148.72    8.71
  -1   0 -11  125.94    6.87
  -1   0 -12  188.31   10.19
  -1   0 -12  184.55    8.61
  -1   0 -13  635.86   19.50
  -1   0 -13  606.23   16.21
  -1   0 -14   10.94    2.81
  -1   0 -14   14.20    2.69
  -1   0 -15   68.03    6.93
  -1   0 -15   58.72    5.48
  -1   0 -16   46.85    5.84
  -1   0 -17   10.04    2.84
  -1   0 -18   31.13    5.33
  -1   0 -19   52.28    7.00
  -1   0 -20   47.64    6.79
  -1   0 -21   27.53    5.52
   1   1 -20   -2.20    2.04
   1   1 -19   21.77    4.44
   1   1 -18   12.69    3.45
   1   1 -17   26.42    4.67
   1   1 -16   41.45    5.54
   1   1 -15    8.91    2.68
   1   1 -14   16.47    3.39
   1   1 -13    9.59    2.55
   1   1 -12  261.89   11.82
   1   1 -11   33.74    4.19
  -1  -1  11   32.91    4.34
   1   1 -10  124.29    7.50
  -1  -1  10  140.66    8.27
   1   1  -9  547.64   14.82
  -1  -1   9  545.55   15.43
   1   1  -8  243.59    9.32
  -1  -1   8  243.17    9.70
   1   1  -7  136.96    6.58
  -1  -1   7  133.58    6.76
  -1  -1   6  233.07    8.18
   1   1  -6  219.93    7.73
   1   1  -5   70.86    4.05
  -1  -1   5   66.55    4.05
  -1  -1   4   12.05    1.64
   1   1  -4   12.13    1.61
  -1  -1   3  109.90    4.04
   1   1  -3  108.21    3.94
   1   1  -2 1964.96   14.26
  -1  -1   2 1963.02   14.39
  -1  -1   1 1242.81    9.70
   1   1  -1 1246.17    9.69
  -1  -1   0  992.86    8.74
   1   1   0 1016.25    8.36
  -1  -1  -1  605.43    6.93
   1   1   1  591.72    6.21
  -1  -1  -2   15.06    1.13
   1   1   2   16.76    1.18
   1   1   3   14.18    1.23
  -1  -1  -3   13.25    1.19
   1   1   4 1358.36   12.94
  -1  -1  -4 1343.65   12.77
  -1  -1  -5 1322.60   14.00
  -1  -1  -6 1971.79   22.91
  -1  -1  -6 1901.64   18.41
  -1  -1  -7 2383.60   22.25
  -1  -1  -7 2496.55   27.88
  -1  -1  -8  736.27   16.22
  -1  -1  -8  683.53   12.80
  -1  -1  -9  300.38   11.00
  -1  -1  -9  282.27    8.74
  -1  -1 -10    0.83    0.74
  -1  -1 -10   -1.59    1.30
  -1  -1 -11   15.65    2.46
  -1  -1 -11   16.39    2.97
  -1  -1 -12  453.00   15.53
  -1  -1 -12  415.45   12.35
  -1  -1 -13  136.32    8.90
  -1  -1 -13  137.92    7.59
  -1  -1 -14  555.09   18.58
  -1  -1 -14  541.63   15.30
  -1  -1 -15  206.32   11.80
  -1  -1 -15  204.21    9.82
  -1  -1 -16  208.27   12.23
  -1  -1 -16  194.34    9.96
  -1  -1 -17   23.17    4.36
  -1  -1 -18   -4.29    2.65
  -1  -1 -19   13.42    3.46
  -1  -1 -20  125.59   10.85
  -1  -1 -21  115.55   10.50
   1   2 -20    2.37    2.75
   1   2 -19   11.49    3.62
   1   2 -18   90.67    8.76
   1   2 -17  161.97   11.36
   1   2 -16  146.33   10.53
   1   2 -15  234.87   12.80
   1   2 -14  240.56   12.53
   1   2 -13   37.17    4.93
  -1  -2  13   37.48    4.99
   1   2 -12    5.03    2.10
  -1  -2  12    7.04    2.46
   1   2 -11    9.26    2.45
  -1  -2  11   11.06    2.75
   1   2 -10  335.31   12.68
  -1  -2  10  353.86   13.72
   1   2  -9  546.43   15.34
  -1  -2   9  557.87   16.21
   1   2  -8  868.53   18.39
  -1  -2   8  871.48   18.99
  -1  -2   7 1894.45   26.28
   1   2  -7 1886.56   25.41
  -1  -2   6 1268.94   19.93
   1   2  -6 1272.65   19.57
   1   2  -5   81.19    4.63
  -1  -2   5   80.05    4.70
  -1  -2   4    7.16    1.37
   1   2  -4    7.47    1.43
   1   2  -3  138.37    4.99
  -1  -2   3  142.84    5.10
  -1  -2   2  928.93    9.50
  -1  -2   2  914.01   11.44
   1   2  -2  907.84   11.38
  -1  -2   1  886.03    9.07
   1   2  -1  877.89    8.98
  -1  -2   1  900.09   10.29
   1   2  -1  915.44   10.32
   1   2   0 2765.31   16.63
  -1  -2   0 2720.32   16.63
   1   2   0 2694.85   16.66
   1   2   0 2715.47   12.15
  -1  -2  -1  497.72    5.17
   1   2   1  498.32    5.19
  -1  -2  -1  498.73    6.62
   1   2   1  503.93    6.62
  -1  -2  -2  844.57    8.38
   1   2   2  859.55    8.53
   1   2   2  836.96    8.43
  -1  -2  -2  848.31    8.52
  -1  -2  -3   66.42    2.95
   1   2   3   63.85    2.50
  -1  -2  -3   60.47    2.43
  -1  -2  -4    4.92    0.86
   1   2   4    3.70    0.74
   1   2   5    8.66    1.21
  -1  -2  -5    6.70    1.06
  -1  -2  -6  230.75    6.09
  -1  -2  -7  371.49    8.34
  -1  -2  -8  773.13   12.89
  -1  -2  -8  816.02   16.55
  -1  -2  -9  397.85   12.37
  -1  -2  -9  373.38    9.54
  -1  -2 -10   74.44    4.54
  -1  -2 -10   78.62    5.88
  -1  -2 -11   36.13    3.38
  -1  -2 -11   37.87    4.31
  -1  -2 -12   48.24    5.15
  -1  -2 -12   39.51    3.69
  -1  -2 -13    6.08    1.90
  -1  -2 -13    3.41    1.35
  -1  -2 -14    3.91    1.43
  -1  -2 -14    8.56    2.45
  -1  -2 -15  218.19   11.97
  -1  -2 -15  215.93    9.80
  -1  -2 -16   58.66    5.37
  -1  -2 -16   54.53    6.25
  -1  -2 -17    3.37    1.86
  -1  -2 -18    9.86    3.06
  -1  -2 -19    0.54    2.28
  -1  -2 -19    2.18    2.37
  -1  -2 -20   -1.18    2.39
  -1  -2 -21   12.10    3.83
   1   3 -20   40.82    6.38
   1   3 -19    2.41    2.39
   1   3 -18   -3.08    2.62
   1   3 -17   31.47    5.28
   1   3 -16   55.08    6.56
   1   3 -15  276.76   14.28
   1   3 -14  787.12   23.29
   1   3 -13   47.62    5.67
   1   3 -12  179.74   10.48
  -1  -3  12  195.34   11.49
   1   3 -11   76.86    6.56
  -1  -3  11   70.73    6.69
  -1  -3  10  126.66    8.44
   1   3 -10  110.06    7.58
  -1  -3   9  273.05   11.71
   1   3  -9  257.44   10.97
  -1  -3   8  905.28   20.03
   1   3  -8  851.85   18.89
  -1  -3   7 1714.45   25.90
   1   3  -7 1670.00   25.05
   1   3  -6 1625.85   23.32
  -1  -3   6 1665.28   23.97
   1   3  -5 1467.15   20.65
  -1  -3   5 1478.57   20.94
  -1  -3   4  648.07    8.81
  -1  -3   4  695.29   13.32
   1   3  -4  675.96   13.04
  -1  -3   3   46.17    2.32
   1   3  -3   45.34    3.23
  -1  -3   3   46.50    3.26
  -1  -3   2  637.84    8.53
   1   3  -2  651.90    8.41
  -1  -3   2  673.64   11.12
   1   3  -2  659.59   10.99
  -1  -3   1 1067.83    8.96
   1   3  -1 1111.48   11.56
  -1  -3   1 1093.68   13.25
   1   3  -1 1102.35   13.18
   1   3   0 1951.04   16.56
  -1  -3   0 1982.11   16.79
  -1  -3   0 1961.55   13.96
   1   3   0 1930.16   13.73
  -1  -3  -1 2805.46   19.43
  -1  -3  -1 2763.45   16.40
   1   3   1 2786.85   16.35
   1   3   2  579.78    8.16
  -1  -3  -2  590.24    8.26
  -1  -3  -2  598.26    7.97
   1   3   2  606.39    7.96
   1   3   3  423.64    7.92
  -1  -3  -3  420.48    7.83
  -1  -3  -3  407.39    6.60
   1   3   3  412.41    6.53
  -1  -3  -4 1261.66   15.46
   1   3   4 1313.30   12.12
  -1  -3  -4 1292.13   12.09
  -1  -3  -5  625.18   12.22
  -1  -3  -5  612.96    8.84
   1   3   5  612.38    8.80
  -1  -3  -6   12.93    2.14
  -1  -3  -6   13.96    1.49
   1   3   6   14.16    1.50
  -1  -3  -7    7.06    1.18
  -1  -3  -8 1380.29   16.46
  -1  -3  -9  815.79   13.60
  -1  -3 -10  750.21   13.87
  -1  -3 -10  781.77   17.96
  -1  -3 -11  377.01   13.25
  -1  -3 -11  367.78   10.25
  -1  -3 -12  147.54    6.87
  -1  -3 -12  144.41    8.61
  -1  -3 -13   61.10    5.86
  -1  -3 -13   63.63    4.82
  -1  -3 -14    7.14    1.78
  -1  -3 -14    5.30    1.94
  -1  -3 -15  307.82   14.12
  -1  -3 -15  297.43   11.11
  -1  -3 -16  372.89   18.52
  -1  -3 -16  350.79   15.51
  -1  -3 -16  351.27   12.55
  -1  -3 -17  538.91   23.27
  -1  -3 -17  498.75   19.12
  -1  -3 -18  417.94   21.08
  -1  -3 -18  366.14   16.87
  -1  -3 -19  131.54   12.36
  -1  -3 -19  127.63   10.42
  -1  -3 -20   55.75    7.40
   1   4 -20   60.99    8.01
   1   4 -19   43.18    6.41
   1   4 -18   -0.10    2.19
   1   4 -17    0.35    2.01
   1   4 -16    5.80    2.98
   1   4 -15   28.82    4.97
   1   4 -14  227.93   13.04
   1   4 -13  125.22    9.44
   1   4 -12  161.49   10.17
  -1  -4  11   50.84    5.79
   1   4 -11   65.22    6.29
  -1  -4  10  201.84   10.94
   1   4 -10  183.68   10.13
   1   4  -9    4.01    1.29
  -1  -4   9    2.37    1.29
   1   4  -8   15.02    2.92
  -1  -4   8    9.17    2.15
  -1  -4   7  130.96    4.43
   1   4  -7  122.45    7.18
  -1  -4   7  132.14    7.56
  -1  -4   6  178.79    4.97
   1   4  -6  186.45    8.34
  -1  -4   6  196.90    8.67
  -1  -4   5  192.98    5.00
  -1  -4   5  197.50    8.16
   1   4  -5  202.00    8.18
  -1  -4   4   43.18    2.40
  -1  -4   4   44.80    3.59
   1   4  -4   45.39    3.69
   1   4  -3    5.42    0.91
  -1  -4   3    6.34    1.15
  -1  -4   3    6.31    1.42
   1   4  -3    4.26    1.34
  -1  -4   2   14.96    1.45
   1   4  -2   14.77    1.55
   1   4  -2   13.53    1.89
  -1  -4   2   16.68    2.04
   1   4  -1    1.66    0.67
   1   4  -1    1.96    1.00
  -1  -4   1    1.48    0.90
   1   4  -1    1.55    0.73
  -1  -4   0    3.71    1.03
   1   4   0    5.37    1.21
  -1  -4   0    6.10    1.11
   1   4   0    5.32    1.06
  -1  -4  -1  349.36    7.78
   1   4   1  347.38    7.72
   1   4   1  355.45    7.06
  -1  -4  -1  355.06    7.05
   1   4   2  153.39    4.52
  -1  -4  -2  148.11    4.79
   1   4   2  141.74    4.70
  -1  -4  -2  148.29    5.04
   1   4   3  107.35    4.40
  -1  -4  -3  110.24    4.48
   1   4   3  108.88    3.65
  -1  -4  -4   56.14    3.46
   1   4   4   60.90    3.64
  -1  -4  -4   52.15    2.61
   1   4   4   56.27    2.64
  -1  -4  -5   55.64    3.80
   1   4   5   55.48    2.72
  -1  -4  -5   55.92    2.76
  -1  -4  -6  224.14    8.16
  -1  -4  -6  223.64    5.70
   1   4   6  212.87    5.51
  -1  -4  -7  104.62    6.07
  -1  -4  -7   97.75    4.01
   1   4   7   98.06    3.97
  -1  -4  -8   13.30    2.47
  -1  -4  -8   14.64    1.73
  -1  -4  -9   24.90    3.48
  -1  -4  -9   22.91    2.20
  -1  -4 -10    7.47    2.27
  -1  -4 -10    7.57    1.35
  -1  -4 -11    0.51    1.61
  -1  -4 -11    2.75    1.43
  -1  -4 -11    3.43    1.05
  -1  -4 -12   67.60    6.73
  -1  -4 -12   80.85    6.41
  -1  -4 -12   79.42    4.86
  -1  -4 -13    6.04    2.29
  -1  -4 -13    7.20    2.39
  -1  -4 -13    7.85    1.82
  -1  -4 -14   -0.96    2.18
  -1  -4 -14    0.52    0.91
  -1  -4 -14    2.17    1.51
  -1  -4 -15   19.74    4.33
  -1  -4 -15   23.41    3.23
  -1  -4 -15   23.95    4.04
  -1  -4 -16    6.91    3.12
  -1  -4 -16    6.89    2.30
  -1  -4 -17   -1.79    3.14
  -1  -4 -17    3.12    2.12
  -1  -4 -18    2.93    2.07
  -1  -4 -18   -3.83    2.86
  -1  -4 -19   17.30    3.94
  -1  -4 -19   18.93    4.85
   1   5 -20  102.10   10.47
   1   5 -19  198.98   14.24
   1   5 -18  126.27   11.18
   1   5 -17  114.95   10.41
   1   5 -16   18.31    4.43
   1   5 -15    1.38    2.26
   1   5 -14    4.64    2.38
  -1  -5  13  174.50    5.74
   1   5 -13  178.92   11.48
  -1  -5  12  375.86    8.22
   1   5 -12  388.70   16.25
  -1  -5  11 1335.97   15.07
  -1  -5  11 1520.16   32.16
   1   5 -11 1418.51   30.00
  -1  -5  10  885.77   11.89
   1   5 -10  977.11   23.94
  -1  -5  10  986.77   24.88
  -1  -5   9  724.00   10.41
   1   5  -9  782.40   20.53
  -1  -5   9  813.78   21.57
  -1  -5   8   36.91    2.33
   1   5  -8   43.96    4.79
  -1  -5   8   35.05    4.41
  -1  -5   7  201.86    5.29
   1   5  -7  226.18   10.14
  -1  -5   7  231.74   10.49
   1   5  -6   42.97    4.36
  -1  -5   6   49.33    4.61
  -1  -5   5 2338.83   29.91
   1   5  -5 2324.40   29.14
   1   5  -4 2973.70   20.67
  -1  -5   4 2934.48   25.32
   1   5  -4 2989.51   31.32
  -1  -5   4 3060.59   32.06
  -1  -5   3 3499.99   25.09
   1   5  -3 3509.96   23.46
  -1  -5   3 3478.04   32.50
   1   5  -3 3472.14   31.88
  -1  -5   2 2795.76   20.63
   1   5  -2 2804.05   22.25
  -1  -5   2 2769.61   27.54
   1   5  -2 2796.39   27.04
   1   5  -1 1067.58   12.10
  -1  -5   1 1073.95   16.35
   1   5  -1 1081.39   16.15
   1   5  -1 1054.40   14.58
   1   5   0  248.98    7.52
  -1  -5   0  257.85    7.66
   1   5   0  254.88    6.95
  -1  -5   0  251.70    6.89
  -1  -5  -1    2.56    1.02
   1   5   1    1.85    0.81
   1   5   1    1.25    0.71
  -1  -5  -1    2.28    0.87
   1   5   2  251.93    6.41
  -1  -5  -2  252.09    7.33
  -1  -5  -2  244.27    6.94
   1   5   2  243.67    6.91
   1   5   3  607.12    9.50
   1   5   3  575.45   11.16
  -1  -5  -3  593.98   11.39
  -1  -5  -3  595.97   11.14
   1   5   4 1049.44   16.02
  -1  -5  -4 1049.72   15.99
   1   5   4 1057.04   12.18
  -1  -5  -5 2609.90   26.84
   1   5   5 2560.03   27.06
  -1  -5  -5 2565.83   19.43
   1   5   5 2573.42   19.05
  -1  -5  -6 2068.46   25.80
  -1  -5  -6 2092.22   17.78
   1   5   6 2162.13   17.71
  -1  -5  -7  447.83   12.76
   1   5   7  456.87    8.43
  -1  -5  -7  442.43    8.46
  -1  -5  -8    4.05    1.38
  -1  -5  -8    2.28    0.77
   1   5   8    2.72    0.86
  -1  -5  -9   37.34    4.25
  -1  -5  -9   36.61    2.70
  -1  -5 -10  223.27   10.90
  -1  -5 -10  214.74    6.87
  -1  -5 -11 1391.54   28.61
  -1  -5 -11 1368.50   18.22
  -1  -5 -12 1683.84   33.06
  -1  -5 -12 1676.12   28.93
  -1  -5 -12 1640.87   20.98
  -1  -5 -13  727.57   22.86
  -1  -5 -13  725.20   14.67
  -1  -5 -13  705.97   19.61
  -1  -5 -14  188.78   12.22
  -1  -5 -14  201.97    8.13
  -1  -5 -14  186.80   10.52
  -1  -5 -15   25.16    4.98
  -1  -5 -15   23.38    2.99
  -1  -5 -15   20.35    3.74
  -1  -5 -16    1.24    2.56
  -1  -5 -16   -0.65    1.90
  -1  -5 -17   92.47    9.97
  -1  -5 -17   80.28    7.60
  -1  -5 -18  164.44   13.50
  -1  -5 -18  127.42    9.88
  -1  -5 -19  120.56   11.99
  -1  -5 -19  123.99   10.01
   1   6 -19   20.97    5.10
   1   6 -18   13.16    3.73
   1   6 -17   33.83    6.00
   1   6 -16   17.23    4.37
   1   6 -15    4.08    2.31
   1   6 -14   -0.54    2.07
   1   6 -13    2.58    2.76
   1   6 -12   47.93    5.94
   1   6 -11   63.93    6.60
   1   6 -10    0.19    1.50
  -1  -6  10    0.12    1.42
   1   6  -9    2.43    1.88
  -1  -6   9   -0.08    1.41
  -1  -6   8    0.48    1.33
   1   6  -8    3.78    1.47
  -1  -6   7    1.71    1.29
   1   6  -7    1.81    1.25
  -1  -6   6    6.73    1.59
  -1  -6   6    9.09    2.35
   1   6  -6    8.48    2.04
  -1  -6   5    1.36    0.72
   1   6  -5    2.13    1.14
  -1  -6   5    1.89    0.96
  -1  -6   4    2.56    0.94
   1   6  -4    1.09    0.68
   1   6  -4    2.01    1.23
  -1  -6   4    1.57    1.14
   1   6  -3   22.07    2.12
  -1  -6   3   20.64    2.13
  -1  -6   3   25.08    3.07
   1   6  -3   20.82    2.77
   1   6  -2    8.65    1.44
   1   6  -2    8.76    1.70
  -1  -6   2    6.77    1.65
   1   6  -2    5.98    1.38
   1   6  -1  108.66    4.32
  -1  -6   1  101.85    5.51
   1   6  -1  104.17    5.53
   1   6  -1  102.49    5.05
  -1  -6   0   39.45    3.39
   1   6   0   33.48    3.11
  -1  -6   0   28.73    2.73
   1   6   0   31.71    2.76
   1   6   1   59.08    3.95
  -1  -6  -1   61.12    4.03
   1   6   1   59.68    3.78
  -1  -6  -1   64.73    3.95
  -1  -6  -2   30.22    2.87
   1   6   2   33.64    2.93
  -1  -6  -2   31.14    2.82
   1   6   3   21.13    2.01
  -1  -6  -3   23.76    2.54
  -1  -6  -3   24.43    2.58
   1   6   3   19.84    2.28
   1   6   4    1.94    0.74
   1   6   4    1.08    0.96
  -1  -6  -4    3.05    1.29
  -1  -6  -4    0.79    0.67
   1   6   5   10.30    1.88
  -1  -6  -5    4.75    1.64
   1   6   5   10.58    1.36
   1   6   6   48.16    4.19
  -1  -6  -6   52.65    4.33
   1   6   6   49.71    2.84
  -1  -6  -7   88.36    5.92
  -1  -6  -7   86.10    3.83
   1   6   7   90.78    3.84
  -1  -6  -8   29.59    3.72
  -1  -6  -8   32.57    2.45
   1   6   8   29.26    2.25
  -1  -6  -9    3.93    1.84
  -1  -6  -9    4.67    1.09
  -1  -6 -10   -1.42    1.48
  -1  -6 -10    0.51    0.64
  -1  -6 -11   32.22    4.52
  -1  -6 -11   28.18    2.56
  -1  -6 -12  133.71    9.48
  -1  -6 -12  127.54    5.60
  -1  -6 -13  117.92    9.33
  -1  -6 -13  102.21    7.49
  -1  -6 -13  105.58    5.35
  -1  -6 -14  159.32   11.36
  -1  -6 -14  152.90    9.54
  -1  -6 -14  138.69    6.33
  -1  -6 -15   49.61    6.63
  -1  -6 -15   66.70    6.62
  -1  -6 -16   53.16    7.38
  -1  -6 -16   59.18    6.35
  -1  -6 -17    6.34    3.62
  -1  -6 -17   11.47    3.51
  -1  -6 -18   -0.67    2.06
  -1  -6 -18   -1.40    1.95
   1   7 -18  111.69   11.09
   1   7 -17  321.83   18.22
   1   7 -16  422.92   20.29
   1   7 -15  206.08   13.82
   1   7 -14  205.99   13.48
   1   7 -13   12.33    3.34
   1   7 -12   10.98    3.23
   1   7 -11  142.94   10.17
   1   7 -10  329.69   14.90
  -1  -7   9  284.95   11.77
   1   7  -9  278.28   13.27
  -1  -7   8 1037.23   21.06
   1   7  -8 1040.26   24.55
  -1  -7   8 1092.06   25.81
  -1  -7   7  966.08   19.22
  -1  -7   7 1016.38   23.82
   1   7  -7  973.40   22.74
  -1  -7   6  267.17    9.43
  -1  -7   6  290.22   12.25
   1   7  -6  267.95   11.53
   1   7  -5  189.23    6.01
  -1  -7   5  185.52    7.38
   1   7  -5  191.92    9.28
  -1  -7   5  193.16    9.60
  -1  -7   4   34.18    3.06
   1   7  -4   33.27    2.71
   1   7  -4   26.52    3.44
  -1  -7   4   35.82    4.00
   1   7  -3   65.72    3.98
   1   7  -3   59.34    4.81
  -1  -7   3   66.36    5.24
   1   7  -3   59.31    4.49
   1   7  -2 1290.15   16.85
  -1  -7   2 1290.77   21.84
   1   7  -2 1273.22   21.18
   1   7  -2 1269.50   19.68
   1   7  -1 2036.25   20.63
  -1  -7   1 2043.26   26.50
   1   7  -1 2026.64   25.89
   1   7  -1 2018.46   24.28
   1   7   0 2981.10   30.30
  -1  -7   0 2981.68   30.95
  -1  -7   0 2970.57   29.04
   1   7   0 2872.33   28.64
  -1  -7  -1  202.31    7.90
   1   7   1  208.98    7.85
  -1  -7  -1  187.15    7.34
   1   7   1  202.48    7.54
  -1  -7  -2 1440.58   20.73
   1   7   2 1425.36   20.27
  -1  -7  -2 1406.45   20.03
   1   7   3  191.62    6.42
  -1  -7  -3  188.91    7.50
  -1  -7  -3  197.32    7.72
   1   7   3  201.37    7.82
   1   7   4  187.16    6.09
   1   7   4  176.63    7.58
  -1  -7  -4  185.40    7.75
  -1  -7  -4  179.18    7.31
  -1  -7  -5  618.32   14.71
   1   7   5  618.52   14.74
  -1  -7  -5  624.62   13.66
   1   7   5  622.57   10.65
   1   7   6  503.27   14.05
  -1  -7  -6  516.89   14.13
   1   7   6  521.03    9.55
  -1  -7  -7  341.93   12.02
   1   7   7  344.72    7.75
  -1  -7  -8  602.69   16.73
   1   7   8  623.12   10.46
  -1  -7  -9  488.21   15.91
  -1  -7  -9  510.45    9.76
   1   7   9  526.69    9.79
  -1  -7 -10  128.54    8.61
  -1  -7 -10  134.94    5.17
  -1  -7 -11   20.01    3.79
  -1  -7 -11   14.43    1.87
  -1  -7 -12   35.66    5.15
  -1  -7 -12   38.27    3.00
  -1  -7 -13    5.75    2.59
  -1  -7 -13    6.51    1.48
  -1  -7 -14  287.97   15.44
  -1  -7 -14  267.94   12.71
  -1  -7 -15  109.83   10.03
  -1  -7 -15  101.98    8.12
  -1  -7 -16   79.90    9.02
  -1  -7 -16   92.80    8.02
  -1  -7 -17  107.60    8.96
  -1  -7 -17  111.98   11.02
  -1  -7 -18   96.78   10.64
   1   8 -17   -9.64    3.62
   1   8 -16   17.72    4.24
   1   8 -15   51.35    7.52
   1   8 -14    3.47    2.27
   1   8 -13   26.37    4.99
   1   8 -12   24.58    4.68
   1   8 -11    0.57    1.70
  -1  -8  10    4.13    1.57
   1   8 -10    0.73    1.55
  -1  -8   9    2.08    1.20
   1   8  -9    2.54    1.62
  -1  -8   8   34.71    4.01
   1   8  -8   36.42    4.85
  -1  -8   7   60.77    4.98
   1   8  -7   58.79    5.88
  -1  -8   7   64.54    6.33
   1   8  -6   19.72    2.06
  -1  -8   6   22.93    3.01
  -1  -8   6   24.50    3.76
   1   8  -6   16.43    3.10
   1   8  -5   62.44    3.81
  -1  -8   5   58.23    4.35
   1   8  -5   69.38    5.96
  -1  -8   5   64.49    5.86
   1   8  -4  220.91    7.48
  -1  -8   4  236.87   10.75
   1   8  -4  224.97   10.12
   1   8  -4  224.03    9.49
   1   8  -3   40.67    3.42
   1   8  -3   42.82    3.54
   1   8  -3   36.85    4.09
  -1  -8   3   43.96    4.56
   1   8  -3   47.84    4.29
   1   8  -2    0.96    0.79
   1   8  -2   -0.05    1.00
  -1  -8   2    0.43    0.96
   1   8  -2    0.04    0.92
   1   8  -1  136.05    5.81
  -1  -8   1  140.62    7.55
   1   8  -1  126.84    6.87
   1   8  -1  131.72    6.75
  -1  -8   0   26.68    3.22
   1   8   0   29.87    3.39
  -1  -8   0   36.44    3.64
   1   8   0   30.39    3.20
   1   8   1  668.44   15.09
  -1  -8  -1  690.92   15.66
   1   8   1  693.10   15.14
  -1  -8  -1  670.03   14.89
  -1  -8  -2   99.74    5.87
  -1  -8  -2   93.47    5.72
   1   8   2   99.29    5.81
   1   8   3  185.58    6.78
  -1  -8  -3  191.46    8.07
  -1  -8  -3  185.76    8.11
   1   8   3  193.51    8.24
   1   8   4  208.60    6.92
  -1  -8  -4  207.18    8.39
   1   8   4  215.11    8.92
  -1  -8  -4  219.55    9.00
   1   8   5    3.20    0.95
   1   8   5    4.71    1.51
  -1  -8  -5    5.29    1.76
  -1  -8  -5    5.14    1.39
   1   8   6    2.13    0.95
  -1  -8  -6    3.54    1.30
  -1  -8  -6    2.50    1.21
   1   8   6    2.37    0.85
  -1  -8  -7  140.20    8.04
   1   8   7  157.44    8.62
  -1  -8  -7  136.32    6.98
   1   8   7  148.02    5.32
  -1  -8  -8  481.95   15.47
   1   8   8  499.67    9.61
  -1  -8  -9  423.58   15.22
   1   8   9  445.72    8.99
  -1  -8 -10  298.05   13.42
  -1  -8 -11   76.26    7.14
  -1  -8 -12   81.54    7.81
  -1  -8 -13   70.82    7.55
  -1  -8 -14   27.56    5.04
  -1  -8 -14   24.12    3.96
  -1  -8 -15   65.39    8.16
  -1  -8 -15   64.62    6.58
  -1  -8 -16  230.58   15.48
  -1  -8 -16  211.81   12.15
  -1  -8 -17  252.88   16.71
   1   9 -17    9.13    3.60
   1   9 -16   12.65    3.59
   1   9 -15   54.11    7.72
   1   9 -14   57.04    7.59
   1   9 -13  349.18   18.09
   1   9 -12  160.83   12.01
   1   9 -11  739.94   24.59
   1   9 -10   75.15    7.82
  -1  -9   9    6.11    2.17
   1   9  -9   12.25    3.17
  -1  -9   8   93.10    6.61
   1   9  -8   84.91    7.60
  -1  -9   7  444.54   13.67
   1   9  -7  418.80   16.18
  -1  -9   6  268.38   10.13
   1   9  -6  261.49    7.90
  -1  -9   6  281.11   13.24
   1   9  -6  271.99   12.56
   1   9  -5 1422.04   19.44
   1   9  -5 1326.80   26.77
  -1  -9   5 1471.69   29.20
   1   9  -5 1337.06   25.19
   1   9  -4  849.29   15.78
   1   9  -4  801.81   20.06
  -1  -9   4  831.67   21.14
   1   9  -4  809.84   18.86
   1   9  -3  824.41   16.08
   1   9  -3  821.46   19.69
  -1  -9   3  884.20   21.21
   1   9  -3  863.33   19.10
   1   9  -2  275.70    9.01
   1   9  -2  291.92   11.39
  -1  -9   2  289.30   11.76
   1   9  -2  295.18   10.97
   1   9  -1   63.19    4.28
  -1  -9   1   65.91    5.52
   1   9  -1   63.05    5.22
   1   9  -1   59.03    4.86
  -1  -9   0   40.07    4.18
   1   9   0   29.78    3.49
   1   9   0   39.36    3.89
  -1  -9   0   39.90    4.01
  -1  -9  -1  434.89   13.39
   1   9   1  434.03   12.94
  -1  -9  -1  435.82   12.86
   1   9   1  423.75   12.70
  -1  -9  -2  330.04   11.48
   1   9   2  354.66   11.78
  -1  -9  -2  358.62   11.84
   1   9   3  282.90    8.93
  -1  -9  -3  279.10   10.40
   1   9   3  288.55   10.77
  -1  -9  -3  287.41   10.71
   1   9   4  128.77    5.84
   1   9   4  137.29    7.59
  -1  -9  -4  141.23    7.70
  -1  -9  -4  133.50    7.22
   1   9   5  543.00   15.47
  -1  -9  -5  531.49   15.34
  -1  -9  -5  540.29   14.35
   1   9   5  545.49   11.43
   1   9   6   39.32    4.40
  -1  -9  -6   29.55    3.78
  -1  -9  -6   29.30    3.45
   1   9   6   35.60    2.85
   1   9   7    4.37    1.61
  -1  -9  -7    6.82    2.04
  -1  -9  -7    5.85    1.55
   1   9   7    4.42    1.03
   1   9   8  100.22    7.50
  -1  -9  -8   77.85    6.55
  -1  -9  -8   89.96    6.07
   1   9   8   82.02    4.08
  -1  -9  -9  225.43   11.50
  -1  -9  -9  228.55    9.83
   1   9   9  228.80    6.55
  -1  -9 -10  132.36    9.23
   1   9  10  137.76    4.96
  -1  -9 -11  187.60   11.44
  -1  -9 -12  415.84   17.70
  -1  -9 -13   52.76    6.70
  -1  -9 -14   -0.96    1.92
  -1  -9 -15    1.01    2.34
  -1  -9 -15    1.33    1.38
  -1  -9 -16   13.78    4.07
  -1  -9 -16   27.22    4.54
  -1  -9 -17   42.23    6.73
   1  10 -16   22.19    5.34
   1  10 -15   -0.39    2.35
   1  10 -14    0.75    2.07
   1  10 -13   53.47    7.54
   1  10 -12  193.16   13.43
   1  10 -11  241.44   14.59
   1  10 -10  433.05   18.86
  -1 -10   9   81.64    6.65
   1  10  -9   72.94    7.53
  -1 -10   8   19.16    3.20
   1  10  -8   14.45    3.60
   1  10  -7    2.24    0.91
  -1 -10   7   -0.51    1.46
   1  10  -7    2.62    2.27
   1  10  -6    6.81    1.49
   1  10  -6    7.60    2.30
   1  10  -6    8.81    2.41
   1  10  -5  271.80    9.18
   1  10  -5  259.50   12.39
   1  10  -5  263.80   11.76
   1  10  -4  503.98   13.05
  -1 -10   4  508.82   17.39
   1  10  -4  479.70   16.30
   1  10  -4  501.30   15.78
   1  10  -3  474.41   12.92
   1  10  -3  441.78   15.13
  -1 -10   3  495.29   16.67
   1  10  -3  468.05   14.94
   1  10  -2  387.00   11.31
  -1 -10   2  389.91   14.48
   1  10  -2  379.57   13.68
   1  10  -2  404.47   13.57
   1  10  -1  237.37    8.70
  -1 -10   1  225.28   10.65
   1  10  -1  217.66   10.15
   1  10  -1  222.28    9.95
   1  10   0   -0.91    1.51
  -1 -10   0    0.15    1.12
   1  10   0    1.16    0.95
  -1 -10   0   -2.05    1.70
   1  10   1    1.78    1.56
  -1 -10  -1    2.49    1.29
  -1 -10  -1    3.27    1.28
   1  10   1    0.27    1.09
  -1 -10  -2  296.50   11.63
   1  10   2  277.85   11.18
  -1 -10  -2  294.34   11.38
   1  10   3  313.25   10.03
  -1 -10  -3  326.99   11.99
   1  10   3  328.13   12.21
  -1 -10  -3  318.53   12.04
   1  10   4  571.58   13.02
  -1 -10  -4  565.51   16.32
   1  10   4  563.09   16.30
  -1 -10  -4  583.03   15.87
  -1 -10  -5  712.80   18.69
   1  10   5  709.48   18.69
  -1 -10  -5  721.83   17.63
   1  10   5  729.67   14.06
   1  10   6  494.37   16.06
  -1 -10  -6  489.96   15.91
  -1 -10  -6  494.96   14.63
   1  10   6  480.01   10.95
  -1 -10  -7  292.51   12.62
   1  10   7  276.31   12.47
  -1 -10  -7  278.77   11.03
   1  10   7  273.51    7.95
  -1 -10  -8   10.73    2.92
  -1 -10  -8   10.28    2.43
   1  10   8   12.52    1.72
  -1 -10  -9   23.62    4.04
  -1 -10  -9   21.94    3.24
   1  10   9   20.88    2.12
  -1 -10 -10   73.80    7.13
  -1 -10 -10   68.63    5.75
   1  10  10   79.73    3.77
  -1 -10 -11  376.45   16.65
  -1 -10 -11  352.79   13.21
  -1 -10 -12  387.21   17.64
  -1 -10 -12  388.86   14.17
  -1 -10 -13  322.90   16.69
  -1 -10 -14  203.65   13.88
  -1 -10 -15   92.84    9.75
  -1 -10 -15   93.81    8.13
  -1 -10 -16   17.03    4.51
   1  11 -15   50.22    8.03
   1  11 -14    6.24    2.87
   1  11 -13   24.44    5.35
   1  11 -12   62.70    7.96
   1  11 -11   91.43    9.34
   1  11 -10  204.50   13.46
   1  11  -9  219.70   13.48
   1  11  -8  105.80    9.07
   1  11  -7   38.46    3.31
   1  11  -7   36.44    5.20
   1  11  -6   22.20    2.81
   1  11  -6   26.94    4.40
   1  11  -5    8.30    1.99
   1  11  -5    9.15    2.37
   1  11  -5   10.08    2.68
   1  11  -4  102.44    6.32
   1  11  -4   90.80    7.42
   1  11  -4  102.36    7.56
   1  11  -3  175.93    8.29
   1  11  -3  177.92   10.12
   1  11  -3  180.82    9.79
   1  11  -2  319.31   10.89
  -1 -11   2  312.25   13.63
   1  11  -2  292.39   12.56
   1  11  -2  317.75   12.79
   1  11  -1   61.04    4.74
  -1 -11   1   54.34    5.58
   1  11  -1   52.62    5.36
   1  11  -1   55.89    5.35
   1  11   0   98.24    5.97
   1  11   0   91.36    6.85
  -1 -11   0   91.24    7.10
   1  11   0   94.34    6.91
  -1 -11  -1    4.53    1.63
   1  11   1    3.16    1.53
   1  11   1    1.98    1.45
  -1 -11  -1    2.77    1.47
  -1 -11  -2  123.64    7.94
  -1 -11  -2  126.11    7.93
   1  11   2  118.91    7.80
   1  11   3   76.06    5.23
  -1 -11  -3   79.84    6.37
   1  11   3   75.09    6.22
  -1 -11  -3   82.31    6.50
   1  11   4   37.59    3.64
  -1 -11  -4   36.13    4.51
   1  11   4   30.22    4.00
  -1 -11  -4   37.35    4.26
   1  11   5   63.35    5.86
  -1 -11  -5   56.97    5.57
  -1 -11  -5   63.57    5.60
   1  11   5   58.67    4.30
   1  11   6   10.67    1.78
  -1 -11  -6   14.42    2.88
  -1 -11  -6    7.83    1.93
  -1 -11  -7  643.65   19.68
  -1 -11  -7  652.55   17.78
   1  11   7  667.39   13.10
  -1 -11  -8   56.89    6.05
  -1 -11  -8   60.58    5.56
   1  11   8   58.31    3.79
  -1 -11  -9   44.26    5.54
  -1 -11  -9   49.95    5.03
   1  11   9   50.02    3.27
  -1 -11 -10   10.43    2.93
  -1 -11 -10    7.10    2.15
   1  11  10    8.79    1.34
  -1 -11 -11    1.01    1.43
  -1 -11 -11   -3.72    2.58
  -1 -11 -12   79.85    8.34
  -1 -11 -13   22.73    5.08
  -1 -11 -14   12.03    3.45
  -1 -11 -15   17.84    4.20
  -1 -11 -16    0.66    3.19
   1  12 -14  130.99   12.27
   1  12 -13   66.41    8.69
   1  12 -12   -3.04    2.71
   1  12 -11   18.67    4.53
   1  12 -10   85.44    8.97
   1  12  -9  205.30   13.43
   1  12  -8  424.15   18.88
   1  12  -7  692.97   14.88
   1  12  -7  659.89   22.74
   1  12  -6  443.97   12.69
   1  12  -6  403.44   17.27
   1  12  -5  125.88    7.14
   1  12  -5  134.25    9.65
   1  12  -4   18.03    3.11
   1  12  -4   14.72    3.36
   1  12  -3   84.68    6.11
   1  12  -3   78.43    7.05
   1  12  -2  219.04    9.58
   1  12  -2  199.26   10.93
   1  12  -2  208.09   10.91
   1  12  -1  719.24   17.02
   1  12  -1  702.71   20.11
   1  12  -1  684.74   19.72
   1  12   0  910.71   19.25
   1  12   0  887.06   22.20
   1  12   0  906.28   22.50
  -1 -12  -1 1144.62   25.90
   1  12   1 1072.63   23.88
  -1 -12  -1 1114.70   24.93
   1  12   1 1124.34   24.95
  -1 -12  -2  351.32   14.12
  -1 -12  -2  354.74   14.00
   1  12   2  365.83   14.30
   1  12   3   66.47    5.18
  -1 -12  -3   68.31    6.27
  -1 -12  -3   57.33    5.72
   1  12   4    2.39    1.34
  -1 -12  -4   -0.91    1.27
  -1 -12  -4    0.38    1.27
   1  12   5   71.65    5.00
  -1 -12  -5   79.29    6.98
  -1 -12  -5   79.60    6.56
  -1 -12  -6  260.77   12.77
  -1 -12  -6  262.58   11.83
   1  12   6  262.91    9.09
  -1 -12  -7  758.81   22.22
  -1 -12  -7  791.55   20.52
   1  12   7  792.10   14.94
  -1 -12  -8  839.22   23.95
  -1 -12  -8  877.54   21.67
   1  12   8  888.28   15.04
  -1 -12  -9  462.36   18.30
  -1 -12  -9  439.16   15.50
   1  12   9  462.31   10.08
  -1 -12 -10  255.37   14.10
  -1 -12 -11    5.95    2.64
  -1 -12 -12   12.12    3.00
  -1 -12 -13  163.66   12.52
  -1 -12 -14  193.46   14.17
  -1 -12 -15  307.47   18.62
   1  13 -12   22.02    5.05
   1  13 -11    6.40    2.88
   1  13 -10   -2.26    3.11
   1  13  -9    6.65    2.49
   1  13  -8    8.80    3.06
   1  13  -7    2.73    0.94
   1  13  -7    8.47    3.38
   1  13  -6  107.65    6.66
   1  13  -6   86.39    8.40
   1  13  -5    1.67    1.04
   1  13  -5   -1.05    1.95
   1  13  -4   47.08    4.87
   1  13  -4   50.95    6.13
   1  13  -3    6.70    2.12
   1  13  -3    3.33    1.94
   1  13  -2    2.46    1.45
   1  13  -2    2.55    1.46
   1  13  -1    0.25    1.03
   1  13  -1    1.69    1.46
   1  13   0    3.41    1.56
   1  13   0    4.32    1.79
  -1 -13  -1  198.48   11.13
  -1 -13  -2   48.51    5.66
  -1 -13  -3    3.45    1.90
   1  13   3    4.80    1.60
  -1 -13  -4   21.98    3.94
   1  13   4   26.97    3.44
  -1 -13  -5    2.20    1.80
   1  13   5    1.22    0.95
  -1 -13  -6   56.07    6.34
   1  13   6   48.90    4.16
  -1 -13  -7   -3.30    2.36
   1  13   7   -0.15    0.91
  -1 -13  -8   36.48    5.37
   1  13   8   36.16    3.17
  -1 -13  -9   -0.14    2.40
  -1 -13 -10    1.94    2.07
  -1 -13 -11   40.14    6.34
  -1 -13 -12   11.09    3.54
  -1 -13 -13   -1.63    2.38
  -1 -13 -14    7.94    2.91
   1  14 -11  178.76   14.20
   1  14 -10   98.46   10.32
   1  14  -9    1.85    2.01
   1  14  -8    5.43    3.19
   1  14  -7  161.84    8.13
   1  14  -7  140.49   11.39
   1  14  -6  317.53   12.05
   1  14  -6  291.44   15.85
   1  14  -5  411.53   14.32
   1  14  -5  382.06   17.71
   1  14  -4  447.75   15.47
   1  14  -4  463.08   18.99
   1  14  -3  175.25    9.59
   1  14  -3  162.71   11.07
   1  14  -2  169.52    9.29
   1  14  -2  147.84   10.42
   1  14  -1   17.46    2.91
   1  14  -1   18.84    3.87
   1  14   0  168.71    9.18
   1  14   0  185.90   11.16
   1  14   1  113.93    7.56
  -1 -14  -2  752.11   22.63
  -1 -14  -3  358.60   15.70
   1  14   3  366.57   13.32
  -1 -14  -4  454.29   17.87
   1  14   4  464.99   14.49
  -1 -14  -5  175.88   11.36
   1  14   5  175.60    8.58
  -1 -14  -6    4.44    2.71
   1  14   6    2.40    1.32
  -1 -14  -7   -0.16    1.61
   1  14   7   -0.21    1.06
  -1 -14  -8   14.56    4.03
  -1 -14  -9  199.85   13.11
  -1 -14 -10  269.63   15.50
  -1 -14 -11  275.66   16.19
  -1 -14 -12  212.58   14.64
  -1 -14 -13   94.20    9.95
   1  15  -9    3.46    2.56
   1  15  -8    2.35    1.98
   1  15  -7   -1.77    3.02
   1  15  -6    0.24    1.16
   1  15  -6    1.06    2.31
   1  15  -5   -0.73    1.49
   1  15  -5   -1.31    2.47
   1  15  -4   44.87    5.17
   1  15  -4   46.72    6.45
   1  15  -3   69.31    6.45
   1  15  -3   59.97    6.27
   1  15  -3   60.37    6.95
   1  15  -2    4.34    2.10
   1  15  -2    1.31    1.64
   1  15  -1   10.40    2.66
   1  15  -1    9.32    3.00
   1  15   0   12.01    2.64
   1  15   1   16.35    3.36
  -1 -15  -2   48.69    6.29
   1  15   2   30.42    4.21
  -1 -15  -3   22.90    4.56
   1  15   3   22.75    3.50
  -1 -15  -4   52.98    6.65
   1  15   4   48.57    4.99
  -1 -15  -5   98.67    8.87
   1  15   5  106.44    7.02
  -1 -15  -6  126.42   10.26
   1  15   6  123.21    7.10
  -1 -15  -7   20.39    4.60
  -1 -15  -8    8.84    3.53
  -1 -15  -9    2.25    2.35
  -1 -15 -10    0.31    2.64
  -1 -15 -11   50.06    7.22
  -1 -15 -12   34.54    6.18
   1  16  -8  168.25   13.73
   1  16  -7   92.89   10.01
   1  16  -6    3.91    2.84
   1  16  -5    6.53    2.02
   1  16  -5    7.34    3.12
   1  16  -4  110.10    8.44
   1  16  -4   95.09    9.45
   1  16  -3  184.56   10.69
   1  16  -3  181.32   11.10
   1  16  -3  169.70   12.38
   1  16  -2  164.64    9.95
   1  16  -2  142.38   11.12
   1  16  -1  267.82   12.75
   1  16  -1  263.35   14.75
   1  16   0  128.64    8.76
   1  16   1  105.54    8.08
   1  16   2    1.58    1.41
   1  16   2    6.29    2.36
   1  16   3   28.93    4.07
  -1 -16  -3   31.15    5.39
   1  16   4   86.73    6.76
  -1 -16  -4   84.96    8.68
  -1 -16  -5  167.90   12.23
  -1 -16  -6  204.53   13.58
  -1 -16  -7  194.65   13.43
  -1 -16  -8  110.01   10.36
  -1 -16  -9   45.33    6.87
  -1 -16 -10    1.23    1.72
   1  17  -6   35.22    6.76
   1  17  -5   39.55    6.42
   1  17  -4   -0.26    2.49
   1  17  -3    2.82    2.31
   1  17  -3    9.15    3.21
   1  17  -2   61.95    6.49
   1  17  -2   50.71    7.23
   1  17  -1  130.48    9.24
   1  17   0  173.03   10.64
   1  17   1  113.31    8.69
   1  17   1  107.39    8.63
   1  17   2   73.62    7.17
   1  17   2   84.54    7.60
   1  17   3   35.22    4.88
   1  17   3   33.02    5.12
  -1 -17  -3   34.91    5.94
  -1 -17  -4   -2.97    2.56
  -1 -17  -5   28.39    5.50
  -1 -17  -6  166.24   12.65
  -1 -17  -7  117.29   10.65
  -1 -17  -8  147.10   12.42
   1  18  -3   13.07    4.16
   1  18  -2   -1.13    2.26
   1  18   0   49.65    5.97
   1  18   1   84.54    7.78
   1  18   1   86.01    8.03
   1  18   2   98.72    8.39
   1  18   3   16.97    3.81
  -1 -18  -4   13.48    3.96
  -1 -18  -5    3.24    2.13
  -1 -18  -6    1.30    2.15
   1  19  -1    2.89    2.37
  -2  18   1   30.79    5.84
  -2  18   0    7.15    3.07
  -2  18  -1   24.28    5.00
  -2  18  -2   47.87    7.00
  -2  18  -2   37.09    6.32
  -2  18  -3   96.92    9.61
  -2  18  -3  102.74   10.08
  -2  18  -4  144.20   11.72
  -2  18  -4  121.18   11.06
  -2  18  -5   84.31    9.23
  -2  17   1   62.40    7.82
  -2  17   0   49.77    6.87
  -2  17  -1   15.85    4.15
  -2  17  -2    6.17    3.14
  -2  17  -2   14.41    4.11
  -2  17  -3   24.56    4.94
  -2  17  -3   31.76    5.55
  -2  17  -4  107.05    9.87
  -2  17  -4   95.78    9.55
  -2  17  -5  128.31   10.84
  -2  17  -5  135.46   11.52
  -2  17  -6  117.32   11.06
   2 -16  -4    3.54    2.70
   2 -16  -3   55.63    7.56
   2 -16  -2  116.46   10.94
  -2  16   1  112.90    9.70
   2 -16  -1  123.12   11.37
  -2  16   0   63.44    7.23
  -2  16  -1   35.73    5.54
  -2  16  -1   45.35    6.06
  -2  16  -2   11.51    3.23
  -2  16  -2   22.45    4.47
  -2  16  -3    1.46    2.45
  -2  16  -3   -1.46    2.13
  -2  16  -4   15.87    3.84
  -2  16  -4   13.06    4.01
  -2  16  -5   38.12    5.94
  -2  16  -5   28.49    5.17
  -2  16  -6   94.63    9.59
  -2  16  -7   39.70    6.43
  -2  16  -8   30.27    5.43
   2 -15  -7  184.86   14.26
   2 -15  -6  231.20   15.59
   2 -15  -5  172.44   13.27
   2 -15  -4   15.28    4.12
   2 -15  -3   13.71    3.97
   2 -15  -2   75.34    8.48
   2 -15  -1  323.02   17.52
  -2  15   0  147.03   10.67
  -2  15   0  155.62   10.12
  -2  15  -1  399.49   17.47
  -2  15  -1  392.23   16.52
  -2  15  -2  185.15   11.87
  -2  15  -2  173.82   11.30
  -2  15  -3  121.60    9.71
  -2  15  -3  120.14    9.55
  -2  15  -4   12.68    3.27
  -2  15  -4   20.39    4.34
  -2  15  -5   14.46    3.62
  -2  15  -5   15.45    3.98
  -2  15  -6   36.96    5.68
  -2  15  -6   36.52    6.05
  -2  15  -7  168.56   12.69
  -2  15  -8  237.69   15.43
  -2  15  -9  172.25   13.50
  -2  15 -10  191.42   14.73
   2 -14  -9    6.17    3.23
   2 -14  -8   14.92    4.36
   2 -14  -7   59.03    7.96
   2 -14  -6    2.35    2.61
   2 -14  -5    3.51    2.04
   2 -14  -4   34.27    6.12
  -2  14   3    4.79    1.60
   2 -14  -3   -0.74    2.88
   2 -14  -2    4.35    2.37
   2 -14  -1    0.01    2.06
  -2  14   0    0.54    1.68
   2 -14   0   -1.70    2.33
  -2  14  -1   10.97    3.20
  -2  14  -1   17.02    3.45
  -2  14  -2   46.40    5.82
  -2  14  -2   40.31    5.23
  -2  14  -3    6.73    2.14
  -2  14  -3    8.18    2.89
  -2  14  -4   -1.51    2.02
  -2  14  -4   -0.08    1.75
  -2  14  -5   46.01    5.71
  -2  14  -5   33.06    5.31
  -2  14  -6    3.30    2.29
  -2  14  -6    6.94    2.95
  -2  14  -7    2.92    2.74
  -2  14  -8    1.14    1.84
  -2  14  -9   -0.72    2.25
  -2  14 -10    1.79    1.99
  -2  14 -11    2.55    2.00
   2 -13 -10  110.18   10.77
   2 -13  -9   42.29    6.58
   2 -13  -8   14.33    4.65
   2 -13  -7  105.20   10.01
   2 -13  -6  216.34   13.91
   2 -13  -5  292.26   15.85
  -2  13   4  355.80    9.80
   2 -13  -4  374.78   17.65
   2 -13  -3  242.79   11.78
   2 -13  -3  260.51   14.54
   2 -13  -2  167.76   10.02
   2 -13  -2  183.66   12.05
   2 -13  -1   87.25    7.43
   2 -13  -1  101.30    8.95
   2 -13   0    4.40    2.36
  -2  13   0    6.67    2.17
   2 -13   0    5.50    2.46
  -2  13  -1   52.10    5.76
  -2  13  -1   58.87    5.85
  -2  13  -2  268.86   13.11
  -2  13  -2  261.74   12.64
  -2  13  -3  341.86   14.79
  -2  13  -3  337.96   14.73
  -2  13  -4  600.72   19.69
  -2  13  -4  573.09   19.73
  -2  13  -5  372.33   15.80
  -2  13  -5  353.32   16.04
  -2  13  -6  148.64   10.15
  -2  13  -6  139.06   10.37
  -2  13  -7  122.55   10.01
  -2  13  -8    5.02    2.85
  -2  13  -9   19.85    4.51
  -2  13 -10  141.33   11.98
  -2  13 -11  162.21   13.04
  -2  13 -12  215.32   15.52
  -2  13 -13  146.01   13.22
   2 -12 -11    0.57    2.00
   2 -12 -10   17.90    4.12
   2 -12  -9    6.76    3.09
   2 -12  -8    2.20    2.30
   2 -12  -7   11.57    3.65
   2 -12  -6   35.05    5.63
   2 -12  -5  117.11    9.66
   2 -12  -5  117.72    7.30
  -2  12   5  106.26    4.10
  -2  12   4    1.61    0.89
   2 -12  -4    4.58    1.94
   2 -12  -4    1.87    1.53
   2 -12  -3   15.14    2.91
   2 -12  -3   15.97    3.66
   2 -12  -2    6.89    2.41
   2 -12  -2    5.23    2.15
  -2  12   1   -0.01    1.32
   2 -12  -1    2.51    1.51
   2 -12  -1   -0.53    1.68
   2 -12   0   85.45    7.15
  -2  12   0   67.58    5.85
   2 -12   0   69.12    7.06
   2 -12   1  143.02    9.53
  -2  12  -1  129.80    8.31
   2 -12   1  142.04   10.10
  -2  12  -2   26.25    3.95
  -2  12  -2   20.66    3.53
   2 -12   2   22.22    3.92
  -2  12  -3   59.48    6.07
  -2  12  -3   58.46    5.86
  -2  12  -4   15.94    3.29
  -2  12  -4   15.51    3.40
  -2  12  -5   51.37    5.71
  -2  12  -5   46.74    5.63
  -2  12  -6  174.08   10.55
  -2  12  -6  149.27   10.43
  -2  12  -7   23.23    4.33
  -2  12  -8   19.67    4.34
  -2  12  -9    5.90    2.83
  -2  12 -10    3.29    2.21
  -2  12 -11    8.62    3.16
  -2  12 -12    7.38    3.45
  -2  12 -13   60.83    8.39
  -2  12 -14   48.40    7.74
   2 -11 -12    3.21    2.03
   2 -11 -11   94.92    9.91
   2 -11 -10  212.97   14.02
   2 -11  -9  254.06   14.94
   2 -11  -8  513.84   20.70
   2 -11  -7  364.99   16.97
   2 -11  -7  331.60   10.78
   2 -11  -6  631.32   21.67
   2 -11  -6  612.43   14.99
  -2  11   5    2.81    0.67
   2 -11  -5    0.78    1.48
   2 -11  -5    1.42    1.37
  -2  11   5    1.28    0.70
  -2  11   4   11.14    1.60
   2 -11  -4    7.95    1.79
   2 -11  -4   12.99    3.16
   2 -11  -3  194.51    9.33
   2 -11  -3  190.40   11.31
   2 -11  -2  432.69   14.25
   2 -11  -2  463.18   17.46
  -2  11   1  754.32   17.72
   2 -11  -1  720.90   18.94
   2 -11  -1  767.70   22.22
  -2  11   0  479.77   14.66
   2 -11   0  459.06   15.74
   2 -11   0  506.37   17.97
  -2  11  -1  839.83   19.92
   2 -11   1  836.64   21.77
   2 -11   1  822.32   23.03
  -2  11  -2  172.58    9.63
   2 -11   2  161.10    9.93
  -2  11  -2  163.99    9.14
  -2  11  -3    0.55    1.26
  -2  11  -3   -0.12    1.28
   2 -11   3    4.11    2.05
  -2  11  -4  100.85    7.54
  -2  11  -4  100.12    7.62
  -2  11  -5  236.97   11.61
  -2  11  -5  222.29   11.74
  -2  11  -6  391.25   15.09
  -2  11  -6  356.08   15.37
  -2  11  -7  342.46   15.66
  -2  11  -8  560.98   20.77
  -2  11  -9  313.53    6.49
  -2  11  -9  304.63   15.91
  -2  11 -10  110.90    9.97
  -2  11 -11   38.47    6.10
  -2  11 -12   46.76    7.02
  -2  11 -13  102.28   10.48
  -2  11 -14  103.39   10.82
  -2  11 -15  152.43   13.51
   2 -10 -13   42.96    7.09
   2 -10 -12   -2.82    3.00
   2 -10 -11   -2.16    3.17
   2 -10 -10    0.38    2.15
   2 -10  -9   27.29    4.96
   2 -10  -8  149.78   10.87
   2 -10  -8  165.05    6.91
   2 -10  -7   78.77    7.64
   2 -10  -7   74.47    4.83
   2 -10  -6  173.61   10.99
   2 -10  -6  161.68    7.19
   2 -10  -5  293.95   13.94
   2 -10  -5  298.02   10.02
  -2  10   5  300.79    5.52
  -2  10   5  297.53    5.33
  -2  10   4   34.17    2.48
   2 -10  -4   38.97    3.79
   2 -10  -4   39.74    5.18
   2 -10  -3   77.35    5.51
   2 -10  -3   73.26    6.79
   2 -10  -2   39.23    4.05
   2 -10  -2   43.59    5.27
  -2  10   1  294.83   10.43
   2 -10  -1  277.46   11.08
   2 -10  -1  289.97   13.03
  -2  10   0  515.21   14.28
   2 -10   0  505.32   15.48
   2 -10   0  516.89   17.31
   2 -10   1   84.73    6.61
  -2  10  -1   83.67    6.07
   2 -10   1   83.68    7.01
  -2  10  -2  292.87   11.91
  -2  10  -2  284.99   11.39
   2 -10   2  297.60   12.88
  -2  10  -3   87.78    6.61
   2 -10   3   78.26    6.87
  -2  10  -3   76.89    6.13
  -2  10  -4  130.02    8.11
   2 -10   4  133.82    9.15
  -2  10  -4  119.90    8.02
  -2  10  -5    0.17    1.44
   2 -10   5    1.45    1.48
  -2  10  -5    1.29    1.58
  -2  10  -6  130.45    8.44
  -2  10  -6  116.14    8.53
  -2  10  -7   65.67    6.75
  -2  10  -8  314.75   15.10
  -2  10  -9  151.28    3.40
  -2  10  -9  167.43   11.47
  -2  10 -10   71.67    7.77
  -2  10 -11  184.15   12.93
  -2  10 -12   14.95    3.73
  -2  10 -13   -1.44    2.90
  -2  10 -14   89.22    9.75
  -2  10 -15   41.66    6.78
  -2  10 -16  219.65   16.12
   2  -9 -14  195.49   14.67
   2  -9 -13  332.90   18.67
   2  -9 -12  185.61   13.46
   2  -9 -11  143.16   11.42
   2  -9 -10    9.06    3.06
   2  -9 -10   12.11    1.95
   2  -9  -9   10.97    3.30
   2  -9  -9   13.46    1.92
   2  -9  -8  108.79    8.96
   2  -9  -8  101.57    5.10
   2  -9  -7  622.29   20.46
   2  -9  -7  581.15   12.26
   2  -9  -6   97.24    7.91
   2  -9  -6  105.15    5.36
   2  -9  -5  673.12   20.16
   2  -9  -5  648.97   13.58
  -2   9   4  514.07    8.43
   2  -9  -4  498.11   12.32
   2  -9  -4  496.06   16.92
   2  -9  -3   54.06    4.28
  -2   9   3   65.99    6.18
   2  -9  -3   51.18    5.41
   2  -9  -2   20.28    2.71
  -2   9   2   18.40    3.20
   2  -9  -2   20.38    3.41
  -2   9   1    6.61    1.50
   2  -9  -1    5.37    1.93
   2  -9  -1    4.83    1.78
  -2   9   1    7.05    1.93
   2  -9   0  381.62   12.70
  -2   9   0  398.88   11.82
   2  -9   0  398.81   14.41
  -2   9   0  398.24   14.45
   2  -9   1  358.55   12.68
  -2   9  -1  363.09   11.70
  -2   9  -1  370.16   14.03
   2  -9   1  373.56   13.89
  -2   9  -2  385.53   13.00
  -2   9  -2  371.18   12.32
   2  -9   2  372.52   13.58
   2  -9   2  372.71   14.00
  -2   9  -2  407.93   14.62
  -2   9  -3  253.86   10.63
  -2   9  -3  276.83   11.10
   2  -9   3  279.41   12.22
  -2   9  -3  288.19   12.40
  -2   9  -4  184.45    9.21
  -2   9  -4  169.05    9.07
   2  -9   4  181.57   10.25
  -2   9  -4  180.95    9.93
  -2   9  -5   46.67    4.80
   2  -9   5   58.05    6.02
  -2   9  -5   54.67    5.47
  -2   9  -5   53.75    5.55
  -2   9  -6  121.89    7.79
   2  -9   6  106.72    8.37
  -2   9  -6  119.84    8.31
  -2   9  -7   53.76    5.92
  -2   9  -8  123.09    9.14
  -2   9  -9  212.44   12.47
  -2   9 -10  109.15    9.29
  -2   9 -11   81.36    8.41
  -2   9 -12  147.25   11.53
  -2   9 -13    2.96    2.03
  -2   9 -14   12.06    4.07
  -2   9 -15   -3.91    3.46
  -2   9 -16   27.25    5.79
  -2   9 -17   43.92    7.15
   2  -8 -15   -1.40    1.71
   2  -8 -14   39.94    6.63
   2  -8 -13  188.91   13.65
   2  -8 -12  131.38   10.97
   2  -8 -11  615.29   22.77
   2  -8 -11  567.83   12.52
   2  -8 -10  414.18   17.93
   2  -8 -10  383.26    9.47
   2  -8 -10  390.83   10.10
   2  -8  -9   43.72    5.75
   2  -8  -9   41.52    3.06
   2  -8  -8    3.15    1.90
   2  -8  -8    0.37    0.76
   2  -8  -7    0.68    1.28
   2  -8  -7    2.70    0.88
   2  -8  -6  366.14   14.66
   2  -8  -6  362.57    9.05
   2  -8  -5  444.48   15.65
  -2   8   5  497.23   16.53
   2  -8  -5  467.34   10.57
  -2   8   4 1081.59   10.48
   2  -8  -4 1084.18   23.84
  -2   8   4 1146.05   24.48
   2  -8  -4 1065.00   16.45
  -2   8   4 1102.97   10.85
   2  -8  -3 1070.26   17.03
   2  -8  -3 1090.65   23.37
  -2   8   3 1149.52   24.07
   2  -8  -2  359.43   10.28
  -2   8   2  377.24    9.79
  -2   8   2  374.53   13.53
   2  -8  -2  365.94   13.28
  -2   8   1  197.02    7.39
   2  -8  -1  185.37    7.74
  -2   8   1  202.06    9.80
   2  -8  -1  173.09    9.08
   2  -8   0   50.19    4.25
  -2   8   0   54.08    4.10
   2  -8   0   50.22    4.92
  -2   8   0   52.44    4.99
   2  -8   1  115.80    6.84
  -2   8  -1  124.23    6.41
   2  -8   1  107.23    7.07
  -2   8  -1  116.98    7.47
  -2   8  -2  282.16   10.08
   2  -8   2  262.83   10.75
  -2   8  -2  299.31   11.87
   2  -8   2  274.41   11.39
  -2   8  -3  611.17   15.63
  -2   8  -3  592.67   15.45
   2  -8   3  607.89   16.97
  -2   8  -3  598.68   16.86
  -2   8  -4  530.73   14.80
  -2   8  -4  507.12   15.03
   2  -8   4  532.42   16.61
  -2   8  -4  533.50   16.31
  -2   8  -5 1016.63   20.94
   2  -8   5  966.39   23.27
  -2   8  -5  947.36   21.47
  -2   8  -5 1017.95   22.77
  -2   8  -6  320.27   12.08
   2  -8   6  305.42   13.61
  -2   8  -6  294.19   12.57
  -2   8  -6  303.94   12.80
   2  -8   7  109.63    8.47
  -2   8  -7   94.49    7.43
  -2   8  -7   92.37    7.29
  -2   8  -8   24.95    1.52
   2  -8   8   22.58    3.39
  -2   8  -8   18.97    3.55
  -2   8  -9   96.22    8.21
  -2   8 -10  189.25   11.88
  -2   8 -11  735.32   24.25
  -2   8 -12  602.74   22.59
  -2   8 -13  345.35   17.67
  -2   8 -14  252.27   15.59
  -2   8 -15   12.83    4.59
  -2   8 -16   14.40    3.96
  -2   8 -17   93.09   10.27
   2  -7 -15   27.61    5.69
   2  -7 -14    2.00    2.72
   2  -7 -13   39.16    6.33
   2  -7 -12  226.36   14.08
   2  -7 -12  201.08    7.76
   2  -7 -11  163.05   11.46
   2  -7 -11  149.78    6.49
   2  -7 -11  141.19    5.90
   2  -7 -10  185.73   11.70
   2  -7 -10  182.64    6.42
   2  -7 -10  178.73    6.81
   2  -7  -9   48.53    5.82
   2  -7  -9   62.06    3.59
   2  -7  -9   57.01    3.68
   2  -7  -8   24.00    4.05
   2  -7  -8   30.84    2.49
   2  -7  -7   22.65    3.81
   2  -7  -7   26.43    2.25
   2  -7  -6  138.50    8.65
  -2   7   6  146.87    8.98
   2  -7  -6  139.05    5.10
  -2   7   5   76.28    6.24
   2  -7  -5   85.99    6.64
   2  -7  -5   77.70    3.87
  -2   7   4   71.74    2.13
  -2   7   4   80.26    6.26
   2  -7  -4   74.76    6.06
   2  -7  -4   72.56    3.88
  -2   7   4   71.96    2.14
   2  -7  -3  205.38    6.74
  -2   7   3  228.66   10.16
   2  -7  -3  203.29    9.58
  -2   7   2  268.10    7.47
   2  -7  -2  259.82    7.94
   2  -7  -2  260.32   10.69
  -2   7   2  276.85   10.94
   2  -7  -1  148.48    6.39
  -2   7   1  138.58    5.73
   2  -7  -1  157.61    8.20
  -2   7   1  142.74    7.82
   2  -7   0   24.08    2.85
  -2   7   0   26.41    2.72
  -2   7   0   25.64    3.23
   2  -7   0   22.39    3.12
  -2   7  -1  266.31    8.76
   2  -7   1  257.55    9.45
   2  -7   1  259.88   10.32
  -2   7  -1  276.73   10.71
  -2   7  -2  197.76    8.00
   2  -7   2  203.40    8.82
   2  -7   2  195.71    9.06
  -2   7  -2  212.30    9.41
  -2   7  -3    6.05    1.61
  -2   7  -3    6.63    1.73
   2  -7   3    7.60    2.00
  -2   7  -3   11.75    2.41
  -2   7  -4    3.37    1.52
   2  -7   4    7.84    2.28
  -2   7  -4    9.43    2.07
  -2   7  -4    6.69    2.10
  -2   7  -5   65.27    5.12
   2  -7   5   54.87    5.35
  -2   7  -5   67.18    5.64
  -2   7  -5   64.18    5.45
  -2   7  -6  110.27    6.82
   2  -7   6  125.52    8.40
  -2   7  -6  109.80    7.45
  -2   7  -6  120.62    7.70
   2  -7   7  170.54    8.62
  -2   7  -7  146.07    9.04
   2  -7   7  170.67   10.29
  -2   7  -7  169.25    9.35
   2  -7   8   64.51    5.56
  -2   7  -8   47.15    5.34
   2  -7   8   58.23    6.17
   2  -7   9    0.59    0.91
  -2   7  -9    0.07    1.52
  -2   7 -10   -1.47    2.02
  -2   7 -11    0.56    1.76
  -2   7 -12   19.52    4.20
  -2   7 -13    5.73    3.10
  -2   7 -14    7.02    2.96
  -2   7 -15    6.53    2.92
  -2   7 -16   -0.52    2.09
  -2   7 -17   -0.51    3.22
  -2   7 -18    1.83    1.76
   2  -6 -16  407.94   21.66
   2  -6 -15  261.27   16.75
   2  -6 -14   77.85    8.81
   2  -6 -13    1.84    2.53
   2  -6 -13    2.21    1.21
   2  -6 -12   35.84    5.61
   2  -6 -12   31.43    3.27
   2  -6 -11  381.88   17.13
   2  -6 -11  415.91   10.91
   2  -6 -10  277.40   14.16
   2  -6 -10  267.48    8.30
   2  -6  -9  344.20   14.88
   2  -6  -9  361.10    9.09
   2  -6  -8  816.62   21.92
   2  -6  -8  797.95   11.85
   2  -6  -8  796.63   12.62
  -2   6   7  408.81   15.06
   2  -6  -7  379.45   14.34
   2  -6  -7  388.83    7.86
  -2   6   6   87.82    6.76
   2  -6  -6   88.95    6.75
   2  -6  -6   90.37    3.70
  -2   6   5   11.64    2.46
   2  -6  -5    8.44    2.08
   2  -6  -5    7.89    1.16
  -2   6   4   31.24    3.74
   2  -6  -4   30.58    3.76
   2  -6  -4   33.28    2.30
  -2   6   3  108.17    6.67
   2  -6  -3  112.07    6.80
   2  -6  -3  108.57    4.34
  -2   6   3  111.07    3.13
  -2   6   2  836.41   11.77
   2  -6  -2  814.86   12.60
  -2   6   2  827.15   17.84
   2  -6  -2  841.98   17.90
  -2   6   1 1775.62   18.43
   2  -6  -1 1724.33   19.68
  -2   6   1 1792.32   25.71
   2  -6  -1 1808.55   25.71
   2  -6   0 2309.36   24.67
  -2   6   0 2404.44   22.88
  -2   6   0 2459.83   29.73
   2  -6   0 2394.79   29.38
  -2   6  -1  700.98   13.22
   2  -6   1  688.36   14.39
  -2   6  -1  712.08   15.99
   2  -6   1  696.64   15.87
   2  -6   2  635.61   14.73
  -2   6  -2  638.19   13.48
  -2   6  -2  686.98   15.72
   2  -6   2  641.04   15.28
  -2   6  -3  155.70    7.10
  -2   6  -3  147.36    7.01
   2  -6   3  149.47    7.54
  -2   6  -3  146.06    7.49
  -2   6  -4   64.57    4.71
   2  -6   4   64.75    5.31
  -2   6  -4   69.60    5.19
  -2   6  -4   65.21    5.10
  -2   6  -5  856.32   17.46
  -2   6  -5  827.65   18.67
   2  -6   5  850.72   19.93
  -2   6  -5  841.10   18.52
   2  -6   6 1387.36   22.81
  -2   6  -6 1347.40   25.16
   2  -6   6 1344.78   26.45
  -2   6  -6 1349.38   24.17
   2  -6   7  352.34   11.99
   2  -6   7  370.96   14.58
  -2   6  -7  357.44   13.64
   2  -6   8  862.93   19.47
  -2   6  -8  833.17   21.74
   2  -6   8  873.69   23.24
   2  -6   9  233.75   10.62
   2  -6   9  243.26   12.83
  -2   6  -9  243.02   12.29
   2  -6  10   15.67    3.27
  -2   6 -10   11.75    3.18
  -2   6 -11    5.89    2.37
  -2   6 -12  171.25   11.50
  -2   6 -13   46.26    6.26
  -2   6 -14  415.92   18.95
  -2   6 -15  111.84   10.32
  -2   6 -16  251.89   15.59
  -2   6 -17  179.97   13.67
  -2   6 -18   50.47    7.30
  -2   6 -19    7.28    3.68
   2  -5 -16   16.67    3.98
   2  -5 -15   17.71    4.71
   2  -5 -14    0.92    2.05
   2  -5 -14    2.32    1.48
   2  -5 -13    3.33    2.24
   2  -5 -13    4.93    1.53
   2  -5 -12   36.04    5.59
   2  -5 -12   27.95    3.14
   2  -5 -11   50.90    6.18
   2  -5 -11   55.60    4.09
   2  -5 -10    5.61    2.04
   2  -5 -10    6.58    1.63
   2  -5  -9  117.01    8.51
   2  -5  -9  120.48    5.29
   2  -5  -8  105.81    7.80
   2  -5  -8   98.77    4.46
   2  -5  -7   10.18    2.45
   2  -5  -7   11.01    1.48
  -2   5   6  120.20    7.49
   2  -5  -6  118.68    7.45
   2  -5  -6  109.20    3.69
  -2   5   5   20.79    3.10
   2  -5  -5   18.80    2.96
   2  -5  -5   17.43    1.44
   2  -5  -4    4.64    1.57
  -2   5   4    2.51    1.26
   2  -5  -4    2.71    0.62
  -2   5   3   16.05    2.43
   2  -5  -3   15.37    2.48
   2  -5  -3   16.25    1.49
  -2   5   3   16.37    0.95
  -2   5   2    0.52    0.93
   2  -5  -2    0.32    0.99
   2  -5  -2    0.54    0.51
  -2   5   2    0.58    0.51
  -2   5   2    0.43    0.45
  -2   5   1   33.83    2.30
   2  -5  -1   33.34    2.47
   2  -5  -1   37.42    3.54
  -2   5   1   41.20    3.69
  -2   5   0  557.60    9.95
   2  -5   0  550.77   10.79
  -2   5   0  553.75   13.12
   2  -5   0  555.71   13.14
  -2   5  -1   11.26    1.71
   2  -5   1   11.13    1.68
  -2   5  -1    8.52    1.75
   2  -5   1   11.25    2.02
   2  -5   2   12.13    2.03
  -2   5  -2   13.54    2.02
   2  -5   2   13.36    2.23
  -2   5  -2   12.47    2.07
  -2   5  -3   17.47    2.34
   2  -5   3   18.69    2.47
  -2   5  -3   16.37    2.26
  -2   5  -3   17.14    2.46
  -2   5  -4   31.73    3.18
  -2   5  -4   34.67    3.51
   2  -5   4   35.08    3.81
  -2   5  -4   39.23    3.72
  -2   5  -5   16.72    2.47
   2  -5   5   17.36    2.46
  -2   5  -5   11.43    2.17
  -2   5  -5   11.91    2.26
   2  -5   5   12.17    2.41
   2  -5   6   19.79    2.74
  -2   5  -6   16.15    2.79
   2  -5   6   18.52    3.09
   2  -5   7    7.96    1.97
  -2   5  -7   10.17    2.35
   2  -5   7    8.63    2.32
   2  -5   8  342.34   11.98
  -2   5  -8  349.78   13.73
   2  -5   8  368.23   14.64
   2  -5   9    0.75    1.04
  -2   5  -9    2.52    1.90
   2  -5   9    1.85    1.47
   2  -5  10    3.08    1.11
  -2   5 -10    2.22    1.67
   2  -5  10    4.44    2.34
  -2   5 -11    2.60    1.69
  -2   5 -12   39.96    5.52
  -2   5 -13   18.31    4.05
  -2   5 -14   15.11    3.89
  -2   5 -15   35.41    5.92
  -2   5 -16   32.59    5.85
  -2   5 -17   83.99    9.29
  -2   5 -18   43.32    7.01
  -2   5 -19   28.76    6.06
   2  -4 -17    0.69    2.43
   2  -4 -16   50.79    7.73
   2  -4 -15  111.87   10.76
   2  -4 -15  121.79    7.50
   2  -4 -14  217.19   14.11
   2  -4 -14  250.61   10.28
   2  -4 -13  319.38   16.48
   2  -4 -13  347.48   11.63
   2  -4 -13  318.87    7.09
   2  -4 -12  201.85   12.56
   2  -4 -12  238.91    9.19
   2  -4 -12  222.64    5.44
   2  -4 -11  419.36   17.19
   2  -4 -11  438.92   11.79
   2  -4 -11  418.49    6.64
   2  -4 -10  275.46   13.32
   2  -4 -10  292.91    9.05
   2  -4 -10  270.97    4.46
   2  -4  -9   28.27    4.10
   2  -4  -9   24.02    2.49
   2  -4  -8  309.83   12.86
   2  -4  -8  305.07    7.94
   2  -4  -7  839.82   20.07
   2  -4  -7  877.45   12.18
   2  -4  -6  507.32   14.79
   2  -4  -6  493.23    8.14
  -2   4   5 1767.84   26.28
   2  -4  -5 1711.07   25.63
   2  -4  -5 1693.95   12.19
  -2   4   4 1889.61   25.75
   2  -4  -4 1904.10   25.70
   2  -4  -4 1906.69   11.94
   2  -4  -3 1987.64   25.06
  -2   4   3 1919.50   24.59
   2  -4  -3 1898.74   12.23
   2  -4  -2  936.81   16.54
  -2   4   2  975.93   16.80
   2  -4  -2  942.56    9.58
  -2   4   2  914.03    8.02
   2  -4  -1    3.68    1.38
  -2   4   1    4.49    1.14
  -2   4   1    4.62    0.81
   2  -4  -1    5.15    0.92
  -2   4   1    3.83    0.71
  -2   4   0  191.58    5.23
   2  -4   0  193.31    5.70
   2  -4   0  184.43    6.98
  -2   4   0  192.55    7.10
  -2   4  -1  727.16   11.48
   2  -4   1  720.97   12.33
   2  -4   1  723.89   13.78
  -2   4  -1  723.26   13.68
   2  -4   2 1541.74   19.72
  -2   4  -2 1575.65   18.74
  -2   4  -2 1553.28   20.37
   2  -4   2 1601.44   20.70
  -2   4  -3 1957.23   21.88
  -2   4  -3 1945.62   22.94
   2  -4   3 1899.20   23.87
  -2   4  -3 1918.28   23.06
  -2   4  -4  824.17   14.73
   2  -4   4  784.18   16.56
  -2   4  -4  784.64   15.89
  -2   4  -4  797.73   15.47
  -2   4  -5  981.90   16.79
   2  -4   5  955.60   16.57
  -2   4  -5  942.17   18.66
   2  -4   5  950.01   19.42
   2  -4   6  204.70    8.06
  -2   4  -6  201.26    9.16
   2  -4   6  202.95    9.55
   2  -4   7    1.60    1.08
  -2   4  -7    2.57    1.51
   2  -4   7    3.25    1.47
   2  -4   8  720.11   16.91
  -2   4  -8  715.99   19.04
   2  -4   8  706.80   19.76
   2  -4   9  592.23   16.23
  -2   4  -9  584.27   18.01
   2  -4   9  581.66   18.72
   2  -4  10  416.64   14.34
  -2   4 -10  400.23   15.48
   2  -4  10  426.87   16.71
  -2   4 -11  861.90   23.57
   2  -4  11  907.35   25.19
  -2   4 -12  384.80   16.37
  -2   4 -13  181.87   11.67
  -2   4 -14   57.99    6.97
  -2   4 -15  149.43   11.25
  -2   4 -16  125.59   10.58
  -2   4 -17  220.77   14.48
  -2   4 -18  215.61   14.70
  -2   4 -19  104.68   10.83
  -2   4 -20  109.41   11.03
   2  -3 -17    1.50    1.78
   2  -3 -16    8.10    3.30
   2  -3 -16    4.86    2.20
   2  -3 -15    0.70    2.34
   2  -3 -15    6.14    2.17
   2  -3 -14    7.53    2.91
   2  -3 -14    8.73    2.25
   2  -3 -13   -0.59    1.97
   2  -3 -13    4.32    1.58
   2  -3 -13    1.23    0.91
   2  -3 -12   40.54    5.74
   2  -3 -12   33.76    3.56
   2  -3 -12   33.16    2.68
   2  -3 -11   89.00    7.97
   2  -3 -11   97.81    5.79
   2  -3 -11   86.52    4.01
   2  -3 -10   22.25    3.91
   2  -3 -10   23.28    2.69
   2  -3 -10   21.06    1.80
   2  -3  -9   20.88    3.61
   2  -3  -9   19.27    2.35
   2  -3  -9   17.16    1.48
   2  -3  -8   24.00    3.50
   2  -3  -8   19.38    2.13
   2  -3  -8   21.56    1.49
   2  -3  -7    7.12    1.98
   2  -3  -7    9.55    0.85
   2  -3  -7   11.64    1.52
   2  -3  -6   36.99    4.00
   2  -3  -6   37.82    2.35
   2  -3  -5  538.19   13.88
   2  -3  -5  541.51    7.42
   2  -3  -4   39.31    3.64
  -2   3   4   37.56    3.57
   2  -3  -4   40.26    1.65
  -2   3   3    0.63    0.69
   2  -3  -3    1.90    1.08
   2  -3  -2    1.57    1.00
  -2   3   2    2.81    1.04
  -2   3   2    2.57    0.43
   2  -3  -1   11.14    1.77
  -2   3   1   12.35    1.81
  -2   3   1   10.83    0.87
   2  -3  -1   10.48    1.00
  -2   3   1   11.62    1.03
   2  -3   0    0.11    0.72
  -2   3   0   -0.21    0.77
  -2   3   0    0.02    0.47
   2  -3   0    0.50    0.59
  -2   3   0    0.35    0.43
  -2   3  -1  205.42    5.61
   2  -3   1  200.12    5.95
  -2   3  -1  201.95    6.55
   2  -3   1  210.54    6.75
   2  -3   2   43.12    3.12
  -2   3  -2   44.92    3.05
   2  -3   2   44.26    3.27
  -2   3  -2   42.44    3.17
  -2   3  -3  947.32   14.17
  -2   3  -3  915.92   15.15
   2  -3   3  899.88   15.46
  -2   3  -3  929.54   14.89
  -2   3  -4  527.90   11.09
   2  -3   4  517.02   10.96
   2  -3   4  501.39   12.53
  -2   3  -4  512.11   12.35
   2  -3   5  327.24    9.20
  -2   3  -5  334.69   10.76
   2  -3   5  334.09   11.07
   2  -3   6  414.74   11.06
  -2   3  -6  406.16   12.57
   2  -3   6  409.45   13.08
   2  -3   7   33.46    3.41
  -2   3  -7   35.34    4.06
   2  -3   7   36.42    4.26
  -2   3  -8  175.88    9.14
   2  -3   8  182.25    9.78
  -2   3  -9    3.42    1.77
   2  -3   9    2.42    1.57
  -2   3 -10  123.62    8.42
   2  -3  10  112.67    8.48
  -2   3 -11  299.47   13.63
   2  -3  11  317.41   14.52
  -2   3 -12  178.83   10.96
  -2   3 -13  206.98   12.12
   2  -3  14  125.92    3.09
  -2   3 -14  149.70   10.67
   2  -3  15    5.35    0.72
  -2   3 -15    9.26    3.30
  -2   3 -16   14.80    3.79
  -2   3 -17   15.27    3.96
  -2   3 -18  194.27   13.86
  -2   3 -19  106.37   10.59
  -2   3 -20  117.13   11.32
   2  -2 -17  310.38   18.61
   2  -2 -16  215.52   15.11
   2  -2 -16  218.17   11.16
   2  -2 -15   72.19    8.80
   2  -2 -15   86.67    6.84
   2  -2 -14    9.38    3.01
   2  -2 -14   15.04    3.07
   2  -2 -14   14.81    2.38
   2  -2 -13  136.40   10.68
   2  -2 -13  156.11    8.39
   2  -2 -13  147.80    6.66
   2  -2 -12  291.51   14.86
   2  -2 -12  313.70   11.30
   2  -2 -12  301.55    9.02
   2  -2 -11 1094.33   27.33
   2  -2 -11 1166.51   20.62
   2  -2 -11 1092.36   16.26
   2  -2 -10 1136.00   26.46
   2  -2 -10 1209.51   19.81
   2  -2  -9  862.89   21.81
   2  -2  -9  885.04   15.90
   2  -2  -8  327.25   12.70
   2  -2  -8  343.66    9.17
   2  -2  -7  162.50    8.49
   2  -2  -7  162.67    5.76
   2  -2  -6    2.01    1.37
   2  -2  -6    1.16    0.79
   2  -2  -5   78.02    5.21
   2  -2  -5   87.87    3.18
   2  -2  -4  396.74   10.67
   2  -2  -4  384.21    5.19
   2  -2  -4  363.92    4.47
  -2   2   3 1131.20   16.71
   2  -2  -3 1145.59   16.83
   2  -2  -2 1146.03   15.70
  -2   2   2 1143.73   15.57
  -2   2   2 1106.60    7.64
   2  -2  -1 1989.18   19.37
  -2   2   1 2003.31   19.28
  -2   2   1 1991.00   11.91
   2  -2  -1 1981.75   12.12
   2  -2   0   36.22    2.61
  -2   2   0   38.95    2.65
  -2   2   0   39.96    1.86
   2  -2   0   38.80    1.92
  -2   2   0   38.53    1.96
   2  -2   0   39.41    2.05
   2  -2   1  677.28   10.72
  -2   2  -1  670.83   10.60
  -2   2  -1  680.99    9.51
  -2   2  -1  669.98    9.10
   2  -2   1  651.06    9.62
  -2   2  -2  324.44    7.37
   2  -2   2  312.57    7.47
  -2   2  -2  309.13    7.44
  -2   2  -2  317.92    7.60
   2  -2   2  311.78    7.70
  -2   2  -2  317.85    7.02
  -2   2  -3  102.83    4.34
   2  -2   3   99.05    4.26
  -2   2  -3  100.63    4.83
   2  -2   3  100.11    4.87
  -2   2  -3  105.63    4.48
   2  -2   4   16.73    1.91
  -2   2  -4   18.58    2.45
   2  -2   4   15.53    2.21
   2  -2   5  427.58   10.11
  -2   2  -5  424.59    5.74
  -2   2  -5  436.64   11.87
   2  -2   5  447.68   12.21
   2  -2   6  855.31   15.29
  -2   2  -6  883.02   17.98
   2  -2   6  860.55   18.16
  -2   2  -7  592.05   15.58
   2  -2   7  578.76   15.85
   2  -2   8  532.98    6.88
  -2   2  -8  549.27   15.79
   2  -2   8  565.22   16.47
   2  -2   9    2.70    0.65
   2  -2   9    5.05    2.15
  -2   2  -9    3.27    1.58
   2  -2  10   65.78    2.87
  -2   2 -10   68.73    6.15
   2  -2  11   40.88    2.48
  -2   2 -11   45.62    5.24
   2  -2  12  252.83    6.51
  -2   2 -12  269.93   13.09
  -2   2 -12  270.81   11.59
   2  -2  13  300.00    7.53
  -2   2 -13  352.00   15.46
  -2   2 -13  335.67   13.32
   2  -2  14  118.63    4.99
  -2   2 -14  123.21    9.54
   2  -2  15  150.15    5.83
  -2   2 -15  171.94   11.71
   2  -2  16  165.83    6.30
  -2   2 -16  176.22   12.10
  -2   2 -17   15.22    4.29
  -2   2 -18   21.82    4.95
  -2   2 -19   28.58    5.73
  -2   2 -20   60.74    8.07
  -2   2 -21   40.88    6.80
   2  -1 -18    7.33    3.54
   2  -1 -17   47.84    7.62
   2  -1 -17   48.01    5.75
   2  -1 -16   85.22    9.49
   2  -1 -16   73.82    6.78
   2  -1 -15   41.77    6.58
   2  -1 -15   47.45    5.26
   2  -1 -14  161.93   11.88
   2  -1 -14  162.89    9.23
   2  -1 -14  155.07    7.73
   2  -1 -13   22.41    4.57
   2  -1 -13   17.01    3.00
   2  -1 -12    4.12    1.98
   2  -1 -12    7.42    1.98
   2  -1 -11   55.61    6.16
   2  -1 -11   57.07    4.85
   2  -1 -10   30.30    4.29
   2  -1 -10   35.69    3.64
   2  -1  -9  382.36   14.38
   2  -1  -9  412.39   11.41
   2  -1  -8  286.92   11.78
   2  -1  -8  322.60    9.36
   2  -1  -7 1187.39   22.40
   2  -1  -7 1205.42   16.57
   2  -1  -6  754.40   16.73
   2  -1  -6  741.24   11.73
   2  -1  -5  394.34   11.23
   2  -1  -5  403.36    7.54
   2  -1  -4  119.27    5.72
   2  -1  -4  120.20    3.42
  -2   1   4  125.06    3.75
   2  -1  -3   39.73    1.82
   2  -1  -3   40.05    3.07
   2  -1  -3   43.40    1.56
  -2   1   3   41.17    1.69
   2  -1  -2    5.85    1.26
  -2   1   2    3.83    0.98
   2  -1  -2    3.86    0.60
   2  -1  -1  517.60    8.83
  -2   1   1  505.48    8.68
   2  -1  -1  511.08    6.18
  -2   1   1  511.47    6.20
   2  -1   0 4802.53   24.74
  -2   1   0 4811.09   24.76
  -2   1   0 4673.39   20.33
   2  -1   0 4755.45   20.68
  -2   1  -1 1768.83   14.68
   2  -1   1 1813.80   14.86
   2  -1   1 1774.15   13.95
  -2   1  -1 1746.69   13.74
  -2   1  -1 1738.32   14.22
  -2   1  -2  245.43    5.74
  -2   1  -2  256.69    5.88
  -2   1  -2  245.67    5.69
   2  -1   2  251.03    5.86
  -2   1  -2  249.77    6.31
   2  -1   3    5.81    1.13
  -2   1  -3    3.92    0.92
  -2   1  -3    6.43    1.12
  -2   1  -3    5.42    1.34
  -2   1  -4   24.81    1.58
   2  -1   4   23.66    2.16
  -2   1  -4   25.05    2.26
  -2   1  -4   23.43    2.58
   2  -1   5  783.39    8.94
  -2   1  -5  763.92   13.07
  -2   1  -5  780.98   15.26
   2  -1   6 1209.81   11.53
  -2   1  -6 1199.72   17.52
  -2   1  -6 1208.01   20.33
   2  -1   7 1583.03   14.06
  -2   1  -7 1632.70   25.12
  -2   1  -7 1565.87   21.27
   2  -1   8 2158.67   17.67
  -2   1  -8 2221.78   30.88
  -2   1  -8 2114.84   26.19
  -2   1  -9  875.96   20.34
  -2   1  -9  836.93   17.30
  -2   1 -10   60.09    5.73
  -2   1 -10   60.78    4.93
  -2   1 -11   13.95    3.04
  -2   1 -11   17.50    2.81
  -2   1 -12   56.48    5.99
  -2   1 -12   37.81    4.20
  -2   1 -13  944.67   24.83
  -2   1 -13  954.54   21.54
  -2   1 -14   30.08    4.73
  -2   1 -14   24.79    3.90
  -2   1 -15 1186.14   29.71
  -2   1 -16  485.84   19.74
  -2   1 -17  141.22   11.03
  -2   1 -18   19.63    4.84
  -2   1 -19   -5.19    3.08
  -2   1 -20    2.71    1.98
  -2   1 -21  117.58   11.19
   2   0 -18    3.89    1.87
   2   0 -18    0.79    2.14
   2   0 -17   74.04    7.24
   2   0 -17   84.19    9.64
   2   0 -16  236.45   15.47
   2   0 -16  206.29   11.54
   2   0 -15  276.48   12.88
   2   0 -14  464.92   16.12
   2   0 -13  127.82    8.18
   2   0 -12  380.76   13.41
   2   0 -11   39.69    4.26
   2   0 -10   21.25    2.91
   2   0  -9  508.64   13.24
  -2   0   9  504.67   13.85
   2   0  -8  601.36   13.48
  -2   0   8  614.48   14.29
   2   0  -7  472.64   11.05
  -2   0   7  497.75   11.93
   2   0  -6  218.88    6.88
  -2   0   6  222.88    7.36
   2   0  -5  307.06    7.31
  -2   0   5  300.86    7.63
  -2   0   4  267.09    6.27
   2   0  -4  267.72    5.95
  -2   0   3   58.48    2.50
   2   0  -3   56.87    2.33
   2   0  -3   58.07    3.50
   2   0  -2   26.08    1.68
   2   0  -2   24.31    2.08
  -2   0   2   26.78    1.39
   2   0  -2   27.36    1.39
  -2   0   1  228.48    4.62
  -2   0   1  237.02    5.30
   2   0  -1  230.94    5.18
  -2   0   1  230.09    3.64
   2   0  -1  229.96    4.59
   2   0   0 1197.24   10.22
  -2   0   0 1180.58   10.13
  -2   0   0 1199.75   10.62
   2   0   0 1220.05   10.66
  -2   0  -1  768.56    7.69
   2   0   1  762.82    7.75
  -2   0  -1  765.96    8.96
   2   0   1  784.20    9.06
   2   0   2  794.78    9.04
  -2   0  -2  798.63    9.03
  -2   0  -2  817.82    9.96
   2   0   2  810.59   10.01
  -2   0  -2  784.80    9.81
   2   0   3  199.78    4.91
   2   0   3  198.96    5.10
  -2   0  -3  197.31    4.78
  -2   0  -3  192.13    5.25
   2   0   3  201.76    5.42
   2   0   4  369.20    6.74
  -2   0  -4  373.10    6.68
  -2   0  -4  357.84    7.81
   2   0   4  357.99    7.88
   2   0   5   18.57    1.65
  -2   0  -5   15.08    2.15
  -2   0  -5   16.06    1.91
   2   0   6  206.21    5.60
  -2   0  -6  189.80    6.61
  -2   0  -6  194.89    7.91
  -2   0  -7  328.34   10.95
  -2   0  -7  316.16    9.06
  -2   0  -8  233.44    8.26
  -2   0  -8  254.53   10.22
  -2   0  -9   43.19    4.52
  -2   0  -9   38.65    3.64
  -2   0 -10   56.82    5.41
  -2   0 -10   50.93    4.34
  -2   0 -11   14.27    3.03
  -2   0 -11   17.36    2.61
  -2   0 -12   65.05    6.25
  -2   0 -12   65.74    5.36
  -2   0 -13   13.04    3.09
  -2   0 -13   14.38    2.76
  -2   0 -14   76.34    7.30
  -2   0 -14   58.93    5.42
  -2   0 -15    2.92    1.43
  -2   0 -15    3.46    2.28
  -2   0 -16   16.96    3.61
  -2   0 -17   14.22    3.51
  -2   0 -18   15.18    3.63
  -2   0 -19    8.32    2.82
  -2   0 -20   -0.23    2.25
  -2   0 -21    4.36    2.57
  -2   0 -22   -0.62    2.90
   2   1 -18   12.04    3.46
   2   1 -17   -0.22    1.98
   2   1 -16   15.06    3.22
   2   1 -15  155.04   10.01
   2   1 -14  537.27   17.82
   2   1 -13  550.44   17.40
   2   1 -12  231.69   10.92
   2   1 -11  562.75   16.23
  -2  -1  11  610.75   17.70
   2   1 -10   15.43    2.78
  -2  -1  10   17.83    2.98
   2   1  -9   17.35    2.71
  -2  -1   9   18.73    2.97
   2   1  -8  106.37    6.02
  -2  -1   8  114.39    6.56
  -2  -1   7  451.34   11.98
   2   1  -7  424.24   11.15
   2   1  -6 1415.01   18.81
  -2  -1   6 1412.64   19.60
  -2  -1   5  899.57   14.11
   2   1  -5  896.63   13.66
   2   1  -4  998.22   13.02
  -2  -1   4  989.45   13.30
  -2  -1   3  383.46    7.38
   2   1  -3  377.49    7.17
  -2  -1   2   12.59    1.25
   2   1  -2   12.37    1.26
   2   1  -1   16.37    1.49
   2   1  -1   15.26    1.27
  -2  -1   1   16.02    1.31
   2   1   0 1179.85    7.90
  -2  -1   0 1201.01   11.57
   2   1   0 1209.63   11.59
  -2  -1  -1 1307.41   13.33
  -2  -1  -1 1295.71   12.14
   2   1   1 1294.77   12.10
   2   1   2 3474.98   21.63
   2   1   2 3408.64   16.09
  -2  -1  -2 3506.15   21.52
  -2  -1  -2 3477.33   20.65
   2   1   2 3520.15   20.79
   2   1   3 2176.75   17.56
  -2  -1  -3 2137.71   17.28
   2   1   3 2148.11   17.27
  -2  -1  -3 2133.27   17.12
   2   1   4 1109.66   13.13
  -2  -1  -4 1076.65   13.05
   2   1   4 1096.66   13.15
  -2  -1  -5   62.77    3.44
   2   1   5   64.88    3.50
   2   1   6   46.97    3.22
  -2  -1  -6   43.74    3.06
  -2  -1  -7  579.94   11.76
  -2  -1  -8 1315.61   22.41
  -2  -1  -8 1290.11   18.54
  -2  -1  -9  643.29   16.73
  -2  -1  -9  645.32   13.86
  -2  -1 -10 1102.10   23.04
  -2  -1 -10 1064.27   18.70
  -2  -1 -11  753.45   16.47
  -2  -1 -11  792.22   20.37
  -2  -1 -12  108.87    7.94
  -2  -1 -12  123.10    7.07
  -2  -1 -13  156.73    9.90
  -2  -1 -13  152.46    8.15
  -2  -1 -14   86.62    7.61
  -2  -1 -14   68.74    5.73
  -2  -1 -15   80.94    7.68
  -2  -1 -15   66.00    5.79
  -2  -1 -16   92.57    8.43
  -2  -1 -17  172.68   11.80
  -2  -1 -18  299.69   16.07
  -2  -1 -19  243.31   14.99
  -2  -1 -20   84.68    9.25
  -2  -1 -21   59.89    7.99
  -2  -1 -22   -4.39    3.21
   2   2 -19   44.42    6.34
   2   2 -18   37.38    5.91
   2   2 -17    1.96    2.53
   2   2 -16    0.31    1.86
   2   2 -15    2.83    1.72
   2   2 -14   13.31    3.17
   2   2 -13   56.01    5.89
  -2  -2  13   63.41    6.50
   2   2 -12   71.22    6.36
  -2  -2  12   75.47    6.88
   2   2 -11  136.96    8.35
  -2  -2  11  129.27    8.60
   2   2 -10   78.97    6.05
  -2  -2  10   91.15    6.86
  -2  -2   9   44.28    4.68
   2   2  -9   36.59    3.96
  -2  -2   8   53.17    4.64
   2   2  -8   40.90    3.93
  -2  -2   7  262.01    9.59
   2   2  -7  256.24    9.18
  -2  -2   6  152.53    6.79
   2   2  -6  143.71    6.46
   2   2  -5  112.60    5.33
  -2  -2   5  110.09    5.37
   2   2  -4   63.74    3.71
  -2  -2   4   62.37    3.72
   2   2  -3  121.11    4.67
  -2  -2   3  124.82    4.76
   2   2  -2   41.69    2.59
  -2  -2   2   38.07    2.51
  -2  -2   1  242.88    6.23
  -2  -2   1  246.53    5.80
   2   2  -1  242.07    5.77
   2   2   0  319.40    6.96
   2   2   0  316.44    6.62
  -2  -2   0  327.09    7.10
  -2  -2   0  312.43    6.31
   2   2   1  221.38    5.84
  -2  -2  -1  221.95    5.42
  -2  -2  -1  229.38    5.93
   2   2   1  229.09    5.50
  -2  -2  -2   56.03    3.05
   2   2   2   53.63    3.00
  -2  -2  -2   54.69    2.74
   2   2   2   55.05    2.73
   2   2   3  830.82   12.14
  -2  -2  -3  824.21   10.80
   2   2   3  845.50   10.92
  -2  -2  -4   51.20    2.82
   2   2   4   44.93    2.68
   2   2   5   10.60    1.46
  -2  -2  -5    8.22    1.25
  -2  -2  -6   29.89    2.48
   2   2   6   29.62    2.53
   2   2   7   11.43    1.75
  -2  -2  -7   10.90    1.66
  -2  -2  -8  302.73    8.75
  -2  -2  -9   12.07    1.92
  -2  -2  -9    8.29    1.87
  -2  -2 -10    5.39    1.97
  -2  -2 -10    6.86    1.59
  -2  -2 -11   15.61    3.05
  -2  -2 -11   12.55    2.21
  -2  -2 -12   10.90    2.06
  -2  -2 -12   17.53    3.19
  -2  -2 -13   25.79    4.02
  -2  -2 -13   25.31    3.36
  -2  -2 -14   23.81    4.10
  -2  -2 -14   17.98    2.81
  -2  -2 -15   -0.86    1.23
  -2  -2 -15    3.51    1.96
  -2  -2 -16   51.21    5.34
  -2  -2 -16   47.89    6.13
  -2  -2 -17   12.04    3.53
  -2  -2 -18   35.19    5.85
  -2  -2 -19    7.46    2.70
  -2  -2 -20    4.86    2.22
  -2  -2 -21    6.53    3.16
  -2  -2 -22    1.21    3.06
   2   3 -19  112.32   10.14
   2   3 -18  164.64   11.99
   2   3 -17  222.38   13.51
   2   3 -16  239.96   13.66
   2   3 -15   31.36    4.87
   2   3 -14    9.82    2.47
   2   3 -13    6.07    2.19
   2   3 -12  521.43   17.46
  -2  -3  12  540.56   18.74
   2   3 -11  458.55   15.80
  -2  -3  11  487.37   17.07
  -2  -3  10  613.70   18.21
   2   3 -10  565.16   16.77
  -2  -3   9  659.39   18.00
   2   3  -9  641.40   17.01
  -2  -3   8  397.21   13.08
   2   3  -8  380.70   12.48
   2   3  -7   94.13    5.94
  -2  -3   7   84.95    5.77
  -2  -3   6  166.23    7.53
   2   3  -6  162.88    7.29
  -2  -3   5    5.06    1.44
   2   3  -5    5.36    1.37
   2   3  -4 1057.01   16.29
  -2  -3   4 1072.45   16.53
  -2  -3   3 1138.41   14.46
  -2  -3   3 1169.26   16.15
   2   3  -3 1176.04   16.01
  -2  -3   2 1663.39   17.03
  -2  -3   2 1711.02   18.39
   2   3  -2 1696.65   18.24
   2   3  -1 2051.18   18.60
  -2  -3   1 2060.70   18.81
  -2  -3   1 2066.11   19.11
   2   3  -1 2083.28   19.23
  -2  -3   0   52.16    3.06
   2   3   0   50.69    3.02
  -2  -3   0   55.63    3.04
   2   3   0   51.31    2.96
   2   3   1  408.14    8.59
   2   3   1  403.56    7.98
  -2  -3  -1  419.98    4.77
   2   3   1  397.34    4.63
  -2  -3  -1  398.81    8.00
   2   3   2  528.26    6.13
  -2  -3  -2  531.42    6.10
   2   3   2  533.43   10.29
  -2  -3  -2  532.13    8.96
   2   3   2  525.85    8.94
  -2  -3  -3   56.95    2.48
  -2  -3  -3   57.54    3.00
   2   3   3   56.12    2.96
  -2  -3  -4  370.15    7.53
   2   3   4  382.28    7.84
  -2  -3  -4  370.86    7.72
   2   3   5 1272.76   14.81
  -2  -3  -5 1251.32   14.76
   2   3   6 2883.42   23.47
  -2  -3  -6 2843.98   23.44
  -2  -3  -7 1195.89   15.97
   2   3   7 1198.92   15.89
   2   3   8 1278.19   17.48
  -2  -3  -8 1267.45   17.34
  -2  -3  -9   72.91    4.41
  -2  -3 -10   79.56    4.88
  -2  -3 -11  235.38   10.81
  -2  -3 -11  212.32    8.29
  -2  -3 -12  235.60   11.35
  -2  -3 -12  210.04    8.61
  -2  -3 -13  574.84   14.86
  -2  -3 -13  600.70   18.92
  -2  -3 -14  467.28   13.99
  -2  -3 -14  461.83   17.36
  -2  -3 -15  397.65   16.60
  -2  -3 -15  394.76   13.33
  -2  -3 -16  157.26   10.82
  -2  -3 -16  151.11    8.67
  -2  -3 -17   54.06    6.59
  -2  -3 -18   11.61    3.47
  -2  -3 -19   72.01    9.14
  -2  -3 -19   47.31    6.61
  -2  -3 -20  139.40   12.76
  -2  -3 -20  125.28   11.07
  -2  -3 -21  140.09   11.79
   2   4 -20   -2.76    2.74
   2   4 -19    1.36    2.70
   2   4 -18    8.27    3.31
   2   4 -17    3.29    2.59
   2   4 -16   -0.23    1.90
   2   4 -15    1.77    1.52
   2   4 -14   10.39    2.66
   2   4 -13   -1.19    1.88
   2   4 -12   -0.92    1.46
   2   4 -11   11.59    2.57
  -2  -4  11   10.24    2.79
   2   4 -10   32.01    4.15
  -2  -4  10   25.15    3.85
   2   4  -9  118.52    7.74
  -2  -4   9  146.57    8.86
   2   4  -8    4.88    1.72
  -2  -4   8    4.26    1.69
  -2  -4   7    6.50    1.82
   2   4  -7    6.35    1.83
  -2  -4   6    1.19    0.76
  -2  -4   6    1.74    1.19
   2   4  -6    1.34    0.91
  -2  -4   5    3.35    0.96
   2   4  -5    0.76    0.94
  -2  -4   5    1.75    1.01
  -2  -4   4    9.32    1.52
  -2  -4   4    8.90    1.76
   2   4  -4    7.79    1.69
  -2  -4   3   19.71    1.97
   2   4  -3   20.27    2.44
  -2  -4   3   17.01    2.27
   2   4  -2   99.63    4.36
  -2  -4   2   97.16    4.35
   2   4  -2  107.86    5.08
  -2  -4   2  105.06    5.08
   2   4  -1  433.86    9.06
  -2  -4   1  417.28    9.04
  -2  -4   1  419.01    5.67
   2   4  -1  435.64    9.81
  -2  -4   1  430.42    9.73
   2   4   0   65.53    3.67
   2   4   0   64.33    3.77
  -2  -4   0   59.55    3.53
   2   4   0   62.11    2.64
   2   4   1   48.84    3.35
   2   4   1   44.81    2.97
  -2  -4  -1   53.07    3.32
   2   4   1   48.21    2.21
  -2  -4  -1   48.00    2.22
   2   4   2   15.99    1.37
  -2  -4  -2   15.06    1.29
   2   4   2   17.71    1.85
  -2  -4  -3  246.63    5.75
   2   4   3  250.08    5.87
  -2  -4  -3  255.17    6.69
   2   4   3  257.90    6.65
  -2  -4  -4  102.73    4.15
  -2  -4  -4  106.04    4.32
   2   4   4  100.85    4.19
  -2  -4  -5    7.91    1.44
  -2  -4  -5    4.17    1.06
   2   4   5    4.60    1.14
  -2  -4  -6  617.91   12.64
  -2  -4  -6  614.50   10.91
   2   4   6  605.95   10.76
  -2  -4  -7  194.03    7.78
  -2  -4  -7  189.21    6.34
   2   4   7  193.55    6.35
  -2  -4  -8  363.77   11.67
   2   4   8  378.27    9.25
  -2  -4  -8  380.03    9.39
  -2  -4  -9  112.67    6.92
  -2  -4  -9  106.03    5.28
   2   4   9  108.20    5.27
  -2  -4 -10    0.02    1.75
  -2  -4 -10    1.99    0.93
  -2  -4 -11    0.01    1.78
  -2  -4 -11    3.21    1.15
  -2  -4 -12   -0.89    1.88
  -2  -4 -12    4.12    1.34
  -2  -4 -12    1.19    1.55
  -2  -4 -13    3.17    2.38
  -2  -4 -13    6.20    1.95
  -2  -4 -13    0.93    1.01
  -2  -4 -14    8.41    2.90
  -2  -4 -14   15.57    3.65
  -2  -4 -14    8.68    2.03
  -2  -4 -15  436.19   18.99
  -2  -4 -15  422.97   17.03
  -2  -4 -15  417.28   13.45
  -2  -4 -16   29.27    5.13
  -2  -4 -16   38.68    5.44
  -2  -4 -16   38.60    4.35
  -2  -4 -17   31.14    5.81
  -2  -4 -17   32.89    5.29
  -2  -4 -18   27.69    5.59
  -2  -4 -18   24.92    4.67
  -2  -4 -19   20.23    4.99
  -2  -4 -19   16.19    3.87
  -2  -4 -20    6.43    2.78
  -2  -4 -21    9.85    4.02
   2   5 -19   -0.42    2.60
   2   5 -18   -0.48    2.75
   2   5 -17  128.14   11.04
   2   5 -16  136.74   10.93
   2   5 -15  288.90   15.31
   2   5 -14  401.46   17.55
  -2  -5  13  337.42   10.24
   2   5 -13  342.10   15.74
  -2  -5  12  203.01    7.79
   2   5 -12  211.90   11.97
  -2  -5  11   20.46    2.47
   2   5 -11   12.37    2.95
  -2  -5  10  148.23    6.34
  -2  -5  10  160.30   10.13
   2   5 -10  149.85    9.41
  -2  -5   9  511.91   11.40
  -2  -5   9  570.51   18.02
   2   5  -9  546.86   17.10
  -2  -5   8  611.84   12.13
   2   5  -8  617.73   17.48
  -2  -5   8  670.00   18.61
  -2  -5   7  761.39   13.20
   2   5  -7  777.59   18.73
  -2  -5   7  792.40   19.25
  -2  -5   6 1499.63   18.13
   2   5  -6 1542.97   25.06
  -2  -5   6 1602.55   25.88
  -2  -5   5  736.12   12.50
   2   5  -5  750.66   16.59
  -2  -5   5  788.68   17.25
  -2  -5   4  324.69    8.26
   2   5  -4  338.55   10.62
  -2  -5   4  328.66   10.62
  -2  -5   3   99.29    4.58
   2   5  -3  110.41    4.79
  -2  -5   3  102.37    5.66
   2   5  -3  100.96    5.63
  -2  -5   2   23.08    1.79
   2   5  -2   18.90    2.11
   2   5  -2   17.35    2.24
  -2  -5   2   20.28    2.52
   2   5  -1  378.24    9.13
  -2  -5   1  373.64    9.96
   2   5  -1  392.42   10.19
   2   5  -1  385.91    8.18
   2   5   0  973.90   15.19
   2   5   0  930.57    8.81
   2   5   0  976.31   15.62
  -2  -5   0  974.41   15.56
   2   5   0  952.57   12.07
  -2  -5  -1  903.82   14.67
  -2  -5  -1  920.52   11.51
   2   5   1  893.47   11.37
   2   5   2  441.53    9.53
   2   5   2  433.28    8.10
  -2  -5  -2  442.60    8.18
  -2  -5  -2  448.22   10.32
  -2  -5  -3  464.65    8.92
   2   5   3  462.35    8.86
   2   5   3  475.97    9.61
   2   5   4   79.04    4.04
  -2  -5  -4   87.03    4.17
  -2  -5  -4   81.69    4.06
   2   5   4   84.11    4.03
  -2  -5  -5   25.59    2.51
  -2  -5  -5   22.25    2.13
   2   5   5   22.42    2.15
  -2  -5  -6  209.22    7.59
  -2  -5  -6  206.58    6.54
   2   5   6  217.31    6.61
  -2  -5  -7  271.10    9.31
  -2  -5  -7  246.41    7.35
   2   5   7  261.80    7.43
  -2  -5  -8 1447.69   23.22
  -2  -5  -8 1388.03   17.95
   2   5   8 1468.13   18.13
  -2  -5  -9  600.79   16.04
   2   5   9  606.32   12.13
  -2  -5  -9  594.02   12.21
  -2  -5 -10  351.36   13.11
  -2  -5 -10  344.09    9.70
  -2  -5 -11  446.59   15.71
  -2  -5 -11  445.06   11.54
  -2  -5 -12  266.83   12.87
  -2  -5 -12  275.25    9.45
  -2  -5 -13    1.05    1.38
  -2  -5 -13    1.00    1.04
  -2  -5 -13    2.18    1.30
  -2  -5 -14   56.81    6.66
  -2  -5 -14   58.35    4.83
  -2  -5 -14   61.15    6.34
  -2  -5 -15  237.70   14.05
  -2  -5 -15  232.78   12.71
  -2  -5 -15  224.13    9.68
  -2  -5 -16  218.22   14.03
  -2  -5 -16  232.33   13.13
  -2  -5 -17  229.38   15.09
  -2  -5 -17  198.59   12.50
  -2  -5 -18  122.87   11.47
  -2  -5 -18  120.65   10.09
  -2  -5 -19   93.52   10.55
  -2  -5 -19   69.38    7.78
  -2  -5 -20   11.18    3.19
   2   6 -19   -2.58    3.19
   2   6 -18    4.31    3.33
   2   6 -17   -1.63    2.77
   2   6 -16   -1.80    2.94
   2   6 -15    0.10    2.19
   2   6 -14    3.82    2.18
  -2  -6  13   63.79    4.03
   2   6 -13   61.48    7.00
  -2  -6  12    8.37    1.55
   2   6 -12    9.04    2.87
  -2  -6  11   54.47    3.70
   2   6 -11   54.40    6.17
  -2  -6  10  226.10    7.35
   2   6 -10  227.81   12.04
  -2  -6   9   70.02    4.08
   2   6  -9   75.03    6.64
  -2  -6   9   83.36    7.19
  -2  -6   8    3.25    0.87
  -2  -6   8    2.54    1.93
   2   6  -8    3.07    1.52
  -2  -6   7  158.32    5.99
   2   6  -7  170.07    9.18
  -2  -6   7  165.04    9.20
  -2  -6   6   87.80    4.44
  -2  -6   6   88.06    6.45
   2   6  -6   78.96    6.01
   2   6  -5  406.08   12.92
  -2  -6   5  405.01   13.14
  -2  -6   4  373.97    9.17
  -2  -6   4  372.74   12.09
   2   6  -4  367.58   11.74
   2   6  -3  273.89    7.92
  -2  -6   3  272.14    7.05
  -2  -6   3  287.07   10.15
   2   6  -3  272.44    9.78
  -2  -6   2  612.92    9.63
   2   6  -2  625.20   12.30
  -2  -6   2  641.61   14.54
   2   6  -2  616.90   14.22
   2   6  -1    8.70    1.62
  -2  -6   1   10.85    2.01
   2   6  -1    9.79    2.15
   2   6  -1    8.38    1.41
   2   6   0  338.41    6.35
   2   6   0  325.83    9.75
  -2  -6   0  348.78   10.16
   2   6   0  339.90    8.22
   2   6   1  243.73    8.26
  -2  -6  -1  232.73    8.13
  -2  -6  -1  235.79    6.75
   2   6   1  233.86    6.70
   2   6   2  722.42   13.04
  -2  -6  -2  720.42   14.25
   2   6   2  716.43   11.90
  -2  -6  -2  701.86   11.83
   2   6   3  945.37   14.44
  -2  -6  -3  931.90   14.03
   2   6   3  887.91   13.72
  -2  -6  -3  936.23   16.20
   2   6   4 1218.94   16.90
  -2  -6  -4 1223.83   16.89
   2   6   4 1242.68   16.21
  -2  -6  -5  689.90   13.53
   2   6   5  688.11   13.69
  -2  -6  -5  662.31   11.96
   2   6   5  681.29   11.89
  -2  -6  -6  280.92    9.21
  -2  -6  -6  264.74    7.68
   2   6   6  281.70    7.72
  -2  -6  -7   88.45    5.54
  -2  -6  -7   88.90    4.50
   2   6   7   94.86    4.58
  -2  -6  -8   10.79    2.13
  -2  -6  -8   12.17    1.78
   2   6   8   12.03    1.76
  -2  -6  -9  210.63    9.73
  -2  -6  -9  216.66    7.36
   2   6   9  216.84    7.23
  -2  -6 -10  404.39   14.23
   2   6  10  417.74   10.48
  -2  -6 -10  404.01   10.43
  -2  -6 -11  489.46   16.60
  -2  -6 -11  523.53   12.27
  -2  -6 -12 1097.64   26.17
  -2  -6 -12 1120.85   18.61
  -2  -6 -13   80.19    7.54
  -2  -6 -13   92.70    5.60
  -2  -6 -14    0.31    2.38
  -2  -6 -14    4.66    1.55
  -2  -6 -14    4.88    2.08
  -2  -6 -15   17.76    3.51
  -2  -6 -15   19.58    2.92
  -2  -6 -15   15.35    3.33
  -2  -6 -16  107.10   10.09
  -2  -6 -16  119.37    9.58
  -2  -6 -17  254.17   15.95
  -2  -6 -17  246.95   14.14
  -2  -6 -18  255.78   14.63
  -2  -6 -18  272.53   17.15
  -2  -6 -19  151.94   11.64
  -2  -6 -19  200.97   15.31
   2   7 -18   85.90    9.65
   2   7 -17  101.82   10.32
   2   7 -16   23.50    4.90
   2   7 -15    0.22    1.92
   2   7 -14   37.42    5.83
   2   7 -13  181.74   12.26
   2   7 -12  430.92   18.36
   2   7 -11  333.08   15.51
   2   7 -10  623.57   20.52
   2   7  -9  237.58   12.21
   2   7  -8   55.23    5.73
  -2  -7   8   54.40    5.86
  -2  -7   7   97.41    6.12
   2   7  -7   95.23    7.17
  -2  -7   7   93.23    7.24
  -2  -7   6   61.92    4.57
  -2  -7   6   62.37    5.71
   2   7  -6   68.30    5.88
  -2  -7   5  266.28    8.63
   2   7  -5  261.51   10.94
  -2  -7   5  268.35   11.33
  -2  -7   4  625.43   12.19
   2   7  -4  638.16   12.53
  -2  -7   4  659.58   17.01
   2   7  -4  641.99   16.42
   2   7  -3 1003.64   16.26
  -2  -7   3 1007.34   14.37
   2   7  -3 1019.30   19.99
  -2  -7   3 1034.83   20.54
   2   7  -2 1233.58   18.48
  -2  -7   2 1261.63   21.96
   2   7  -2 1227.72   21.27
   2   7  -2 1233.11   18.52
   2   7  -1  246.09    6.38
   2   7  -1  234.86    8.36
  -2  -7   1  239.58    9.33
   2   7  -1  239.40    9.13
   2   7  -1  244.33    7.97
   2   7   0   24.69    2.01
  -2  -7   0   25.01    2.90
   2   7   0   27.03    3.11
   2   7   0   24.34    2.50
  -2  -7  -1    2.63    1.27
   2   7   1    0.16    1.23
   2   7   1    2.04    0.97
  -2  -7  -1    1.12    0.83
   2   7   2  575.51   12.40
  -2  -7  -2  570.43   13.57
   2   7   2  541.63   11.45
  -2  -7  -2  562.58   11.72
   2   7   3  475.31   10.98
   2   7   3  443.83   10.65
  -2  -7  -3  478.62   11.09
  -2  -7  -3  467.11   12.26
  -2  -7  -4 1298.95   18.89
   2   7   4 1262.93   18.67
  -2  -7  -4 1278.39   20.23
   2   7   4 1272.16   17.50
   2   7   5 1374.06   20.52
  -2  -7  -5 1407.23   20.47
   2   7   5 1440.64   18.17
  -2  -7  -6  557.56   13.79
   2   7   6  571.30   14.05
   2   7   6  576.41   11.47
  -2  -7  -7    8.89    1.95
  -2  -7  -7    9.39    1.55
   2   7   7   10.51    1.66
  -2  -7  -8   23.74    3.20
  -2  -7  -8   25.00    2.57
   2   7   8   23.53    2.40
  -2  -7  -9   51.61    4.99
  -2  -7  -9   50.48    3.62
   2   7   9   53.67    3.66
  -2  -7 -10  253.94   11.46
  -2  -7 -10  238.67    8.01
   2   7  10  257.05    8.14
  -2  -7 -11  458.76   16.21
  -2  -7 -11  456.17   11.35
  -2  -7 -12  426.63   16.56
  -2  -7 -12  443.80   11.52
  -2  -7 -13   22.90    4.16
  -2  -7 -13   20.00    2.66
  -2  -7 -14    6.14    2.76
  -2  -7 -14    5.94    1.47
  -2  -7 -15    1.76    2.14
  -2  -7 -15    0.66    1.57
  -2  -7 -16    0.09    2.27
  -2  -7 -16   -1.96    2.56
  -2  -7 -17    2.44    2.39
  -2  -7 -17   -1.88    1.69
  -2  -7 -18   22.87    5.51
  -2  -7 -18   11.93    3.38
  -2  -7 -19   24.87    5.85
  -2  -7 -19   20.37    4.60
   2   8 -17  124.67   11.58
   2   8 -16  129.56   11.58
   2   8 -15   42.15    6.59
   2   8 -14    1.29    2.49
   2   8 -13    7.88    3.58
   2   8 -12   91.29    8.75
   2   8 -11  285.35   14.91
  -2  -8  10  741.83   20.14
   2   8 -10  771.79   23.55
  -2  -8   9  366.78   13.53
   2   8  -9  392.74   16.26
  -2  -8   8  261.69   10.68
   2   8  -8  265.83   12.92
  -2  -8   7    7.98    1.89
   2   8  -7   13.26    2.99
  -2  -8   7   13.54    2.91
  -2  -8   6    9.59    2.04
   2   8  -6    8.87    2.29
  -2  -8   6   11.75    2.80
  -2  -8   5    2.26    1.14
   2   8  -5    2.67    1.04
   2   8  -5   -1.39    1.63
  -2  -8   5    4.80    1.76
   2   8  -4  178.52    7.13
  -2  -8   4  177.65    6.83
  -2  -8   4  191.85    9.72
   2   8  -4  168.09    8.89
   2   8  -3 1270.21   19.36
  -2  -8   3 1266.78   24.14
   2   8  -3 1238.68   23.30
   2   8  -3 1201.60   20.46
   2   8  -2 1316.19   20.44
  -2  -8   2 1342.63   24.14
   2   8  -2 1301.11   23.16
   2   8  -2 1292.87   20.36
   2   8  -1  707.39   11.89
   2   8  -1  681.24   15.20
  -2  -8   1  706.93   17.06
   2   8  -1  697.61   16.52
   2   8  -1  676.30   14.39
   2   8   0  212.59    6.38
  -2  -8   0  199.05    8.87
   2   8   0  207.53    8.87
   2   8   0  204.62    7.73
   2   8   1  230.74    9.19
  -2  -8  -1  224.96    9.26
   2   8   1  234.52    8.18
  -2  -8  -1  228.66    8.20
   2   8   2   84.98    5.06
  -2  -8  -2   87.26    5.71
   2   8   2   93.08    5.20
  -2  -8  -2   94.83    5.31
   2   8   3   55.84    4.08
  -2  -8  -3   58.57    4.75
  -2  -8  -3   59.19    4.23
   2   8   3   52.30    3.96
   2   8   4  778.14   14.49
  -2  -8  -4  777.24   15.72
   2   8   4  736.50   15.35
  -2  -8  -4  754.62   16.60
  -2  -8  -5  837.68   16.93
   2   8   5  842.84   17.06
  -2  -8  -5  808.99   17.28
   2   8   5  843.64   14.81
  -2  -8  -6 1306.25   22.01
   2   8   6 1329.70   22.49
  -2  -8  -6 1303.55   22.17
   2   8   6 1336.46   18.30
  -2  -8  -7  744.05   17.45
   2   8   7  769.79   17.95
   2   8   7  765.41   13.76
  -2  -8  -8  144.61    8.08
   2   8   8  164.20    6.40
  -2  -8  -9    3.67    1.43
   2   8   9    4.27    1.30
  -2  -8 -10   78.75    6.69
  -2  -8 -10   80.93    4.71
   2   8  10   82.10    4.63
  -2  -8 -11  294.06   13.37
  -2  -8 -11  286.94    9.00
   2   8  11  318.54    9.30
  -2  -8 -12  365.31   15.57
  -2  -8 -12  372.66   10.44
  -2  -8 -13  195.53   12.03
  -2  -8 -13  204.08    7.88
  -2  -8 -14  460.82   19.10
  -2  -8 -15  317.64   16.58
  -2  -8 -15  302.30   14.62
  -2  -8 -16   74.44    8.63
  -2  -8 -16   68.43    7.37
  -2  -8 -17   30.84    6.03
  -2  -8 -17   28.13    4.92
  -2  -8 -18    3.50    2.27
  -2  -8 -18    0.68    2.02
   2   9 -16   77.42    9.31
   2   9 -15   78.65    9.09
   2   9 -14   40.20    6.52
   2   9 -13    2.31    2.36
   2   9 -12   -1.61    2.77
   2   9 -11   -6.05    2.70
   2   9 -10  146.26   10.68
  -2  -9   9  113.19    7.61
   2   9  -9  121.67    9.40
  -2  -9   8  147.02    8.17
   2   9  -8  143.47    9.88
  -2  -9   7  218.08    9.40
   2   9  -7  219.43   11.80
  -2  -9   6   16.53    2.63
   2   9  -6   19.61    3.44
  -2  -9   5    4.07    1.39
   2   9  -5    3.04    1.01
  -2  -9   5    2.68    1.15
   2   9  -5    5.98    2.10
   2   9  -4    7.49    1.64
   2   9  -4    3.90    1.87
  -2  -9   4    8.84    2.40
   2   9  -4    7.73    1.89
   2   9  -3  173.82    7.70
  -2  -9   3  182.17    9.68
   2   9  -3  175.46    9.23
   2   9  -3  162.70    7.98
   2   9  -2   40.72    3.96
   2   9  -2   43.64    4.57
  -2  -9   2   38.81    4.44
   2   9  -2   40.89    3.96
   2   9  -1  158.80    6.14
  -2  -9   1  180.50    9.17
   2   9  -1  159.06    8.41
   2   9  -1  157.70    7.50
   2   9   0  209.97    6.93
  -2  -9   0  217.05    9.86
   2   9   0  213.09    9.51
   2   9   0  220.35    8.70
   2   9   1  114.24    6.87
  -2  -9  -1  107.73    6.84
  -2  -9  -1  103.22    5.97
   2   9   1  102.42    5.88
   2   9   2   43.75    3.88
  -2  -9  -2   52.41    4.79
   2   9   2   44.16    3.90
  -2  -9  -2   53.99    4.30
   2   9   3   66.17    4.67
  -2  -9  -3   66.17    5.26
  -2  -9  -3   66.30    4.97
   2   9   3   71.78    5.03
   2   9   4   43.06    3.65
  -2  -9  -4   40.06    4.12
  -2  -9  -4   36.28    3.62
   2   9   4   39.05    3.82
   2   9   5    2.62    1.14
  -2  -9  -5    0.46    0.86
   2   9   5    0.47    1.29
  -2  -9  -5    0.18    1.12
   2   9   6   58.35    5.01
  -2  -9  -6   51.19    4.67
  -2  -9  -6   50.08    4.64
   2   9   6   49.29    3.69
   2   9   7    5.26    1.74
  -2  -9  -7    2.78    1.47
  -2  -9  -7    3.67    1.52
   2   9   7    6.21    1.44
  -2  -9  -8   67.25    5.77
  -2  -9  -8   62.44    5.25
   2   9   8   64.45    4.15
  -2  -9  -9    9.22    2.25
   2   9   9   12.07    1.87
  -2  -9 -10    2.26    1.34
   2   9  10    1.16    0.83
  -2  -9 -11    0.64    1.78
   2   9  11   -0.50    1.00
  -2  -9 -12    0.46    1.41
  -2  -9 -13    0.90    1.57
  -2  -9 -14    4.09    1.74
  -2  -9 -15    9.53    3.66
  -2  -9 -16    1.65    2.21
  -2  -9 -16    3.46    2.14
  -2  -9 -17   -2.56    2.40
  -2  -9 -17    1.73    1.91
  -2  -9 -18   -3.04    3.60
   2  10 -15  176.32   13.96
   2  10 -14  217.58   15.24
   2  10 -13  256.49   15.93
   2  10 -12  115.78   10.59
   2  10 -11    3.88    2.94
   2  10 -10   50.74    6.60
  -2 -10   9  153.22    8.98
   2  10  -9  175.46   11.70
  -2 -10   8  189.63    9.48
   2  10  -8  186.55   11.67
  -2 -10   7  421.20   13.38
   2  10  -7  415.45   16.91
   2  10  -6  656.63   14.33
   2  10  -6  582.85   19.38
   2  10  -6  624.31   18.24
   2  10  -5  272.75    9.57
   2  10  -5  278.61   13.01
   2  10  -5  280.26   11.88
   2  10  -4  254.85    9.57
   2  10  -4  246.26   11.86
   2  10  -4  253.86   10.92
   2  10  -3   30.80    3.58
  -2 -10   3   33.13    4.37
   2  10  -3   33.42    4.43
   2  10  -3   34.86    4.06
   2  10  -2   52.52    3.89
   2  10  -2   50.78    4.60
  -2 -10   2   60.32    5.77
   2  10  -2   50.88    5.19
   2  10  -2   52.70    4.79
   2  10  -1  312.12    9.20
  -2 -10   1  305.52   12.60
   2  10  -1  288.28   12.00
   2  10  -1  297.27   10.98
   2  10   0 1047.01   16.68
  -2 -10   0 1037.97   22.70
   2  10   0 1023.32   21.96
   2  10   0 1022.27   20.10
  -2 -10  -1  843.37   20.09
   2  10   1  823.97   19.39
   2  10   1  815.74   17.96
  -2 -10  -1  815.44   17.95
  -2 -10  -2  541.91   15.98
  -2 -10  -2  519.40   14.30
   2  10   2  538.85   14.53
   2  10   3  741.81   16.32
  -2 -10  -3  775.49   19.04
  -2 -10  -3  782.31   17.77
   2  10   3  748.84   17.46
   2  10   4   83.43    5.37
  -2 -10  -4   83.40    6.25
  -2 -10  -4   74.63    5.62
   2  10   4   75.34    5.64
   2  10   5   13.49    2.20
  -2 -10  -5   13.08    2.56
   2  10   5   14.04    2.60
  -2 -10  -5   16.70    2.78
   2  10   6    5.49    1.48
  -2 -10  -6    4.51    1.54
   2  10   6    3.60    1.69
  -2 -10  -6    6.23    1.81
   2  10   7  485.81   15.65
  -2 -10  -7  477.41   15.35
  -2 -10  -7  462.09   14.73
   2  10   7  494.08   11.97
   2  10   8  495.27   16.45
  -2 -10  -8  500.93   16.29
  -2 -10  -8  515.64   15.74
   2  10   8  525.87   12.20
  -2 -10  -9  772.16   20.90
  -2 -10  -9  760.24   19.49
   2  10   9  805.84   14.93
  -2 -10 -10  385.49   15.44
  -2 -10 -10  385.67   14.07
   2  10  10  409.25   10.58
  -2 -10 -11  129.23    9.48
   2  10  11  128.38    5.92
  -2 -10 -12  213.05   12.58
  -2 -10 -13    1.87    1.49
  -2 -10 -14   52.42    6.89
  -2 -10 -15  135.19   11.37
  -2 -10 -16  265.57   16.47
  -2 -10 -17  316.81   18.64
   2  11 -14   26.58    5.59
   2  11 -13   17.42    4.70
   2  11 -12   20.19    4.73
   2  11 -11   14.12    4.02
   2  11 -10   10.51    3.26
   2  11  -9   -1.37    1.86
  -2 -11   8    6.40    1.75
   2  11  -8    2.86    1.53
   2  11  -7   53.00    6.33
   2  11  -6   16.02    2.47
   2  11  -6   14.07    3.67
   2  11  -5  184.49    8.33
   2  11  -5  164.26   10.45
   2  11  -5  188.97   10.17
   2  11  -4   23.01    3.08
   2  11  -4   19.05    3.68
   2  11  -4   23.91    3.60
   2  11  -3    1.63    1.73
   2  11  -3    2.08    1.35
   2  11  -3   -0.23    1.05
   2  11  -2    2.80    1.62
   2  11  -2    1.75    0.76
   2  11  -2    0.78    1.12
   2  11  -2    1.82    1.01
   2  11  -1   64.16    4.49
  -2 -11   1   61.06    5.96
   2  11  -1   63.46    5.96
   2  11  -1   61.93    5.36
   2  11   0    8.52    1.74
   2  11   0    5.48    1.60
  -2 -11   0    4.21    1.21
   2  11   0   11.32    2.33
  -2 -11  -1    1.90    1.54
  -2 -11  -1    3.17    1.56
   2  11   1    1.44    1.07
   2  11   2   51.24    4.71
  -2 -11  -2   57.22    5.52
   2  11   2   57.28    5.19
  -2 -11  -2   54.95    5.07
   2  11   3   37.46    3.88
  -2 -11  -3   36.98    4.49
   2  11   3   39.75    4.32
  -2 -11  -3   40.59    4.44
   2  11   4    0.53    0.86
  -2 -11  -4    2.07    1.17
  -2 -11  -4    0.46    1.27
   2  11   4   -0.08    1.05
   2  11   5    5.65    1.60
  -2 -11  -5    5.57    2.07
  -2 -11  -5    3.98    1.60
   2  11   5    6.66    1.90
   2  11   6    0.60    1.07
  -2 -11  -6   -1.51    1.43
   2  11   6   -4.39    1.73
  -2 -11  -6   -1.87    1.69
  -2 -11  -7   20.11    3.43
   2  11   7   20.22    3.32
  -2 -11  -7   18.35    3.19
   2  11   7   18.89    2.61
  -2 -11  -8    1.14    1.49
  -2 -11  -8    1.56    1.38
   2  11   8    2.18    1.13
  -2 -11  -9   84.13    7.26
  -2 -11  -9   91.27    7.08
   2  11   9   92.48    5.20
  -2 -11 -10    9.99    2.72
  -2 -11 -10   10.40    2.47
   2  11  10   11.89    1.89
  -2 -11 -11   32.62    4.93
   2  11  11   45.36    3.58
  -2 -11 -12    2.00    1.65
   2  11  12    1.74    1.10
  -2 -11 -13   27.00    5.09
  -2 -11 -14    8.46    2.95
  -2 -11 -15   -2.03    2.57
  -2 -11 -16    6.92    2.72
   2  12 -13  111.68   11.18
   2  12 -12  287.97   17.48
   2  12 -11  278.09   16.79
   2  12 -10  271.33   16.08
   2  12  -9  184.71   12.90
   2  12  -8    7.81    2.70
   2  12  -7    4.64    2.23
   2  12  -6   22.90    3.07
   2  12  -6   19.60    4.13
   2  12  -5 1016.08   20.67
   2  12  -5  987.59   26.59
   2  12  -4  268.71   10.98
   2  12  -4  255.55   13.17
   2  12  -4  284.22   12.76
   2  12  -3  705.84   18.31
   2  12  -3  679.76   20.98
   2  12  -3  671.99   19.15
   2  12  -2  590.72   17.07
   2  12  -2  576.65   14.48
   2  12  -2  587.39   19.07
   2  12  -2  581.63   17.64
   2  12  -1  137.11    6.98
   2  12  -1  122.51    8.59
   2  12  -1  150.04    8.82
   2  12   0    0.81    0.99
   2  12   0    3.91    2.02
   2  12   0    1.49    1.38
   2  12   1   45.59    4.11
   2  12   1   51.98    5.20
   2  12   2   81.81    6.18
  -2 -12  -2   80.66    6.53
   2  12   2   91.27    6.86
   2  12   3  247.11   10.38
  -2 -12  -3  257.03   12.13
   2  12   3  260.10   11.63
  -2 -12  -3  246.33   11.25
   2  12   4  561.62   15.28
  -2 -12  -4  576.09   17.40
   2  12   4  570.06   17.30
  -2 -12  -4  572.66   17.96
  -2 -12  -5  561.10   17.42
   2  12   5  543.89   17.22
  -2 -12  -5  571.40   17.90
   2  12   5  572.08   14.92
  -2 -12  -6  378.16   14.59
  -2 -12  -6  367.26   14.43
   2  12   6  396.32   12.16
  -2 -12  -7   46.52    5.45
  -2 -12  -7   37.69    4.72
   2  12   7   43.04    3.96
  -2 -12  -8   63.43    6.38
   2  12   8   73.57    4.95
  -2 -12  -9    5.75    2.03
   2  12   9    3.50    1.27
  -2 -12 -10  229.30   12.81
   2  12  10  223.63    8.14
  -2 -12 -11  452.06   18.53
   2  12  11  448.31   11.12
  -2 -12 -12  280.16   15.19
  -2 -12 -13  242.68   14.69
  -2 -12 -14   91.82    9.57
  -2 -12 -15   44.45    6.93
  -2 -12 -16   -2.90    3.37
   2  13 -12   -2.54    2.86
   2  13 -11   -0.30    2.98
   2  13 -10   -0.28    2.10
   2  13  -9   14.45    4.43
   2  13  -8    7.62    3.38
   2  13  -7   24.16    3.08
   2  13  -7   26.33    5.06
   2  13  -6   20.58    3.11
   2  13  -6   14.55    3.84
   2  13  -5    2.03    1.42
   2  13  -5    1.08    1.50
   2  13  -4   90.34    6.71
   2  13  -4   76.07    7.47
   2  13  -3   61.69    5.70
   2  13  -3   57.00    6.42
   2  13  -2   96.10    7.32
   2  13  -2   89.85    6.11
   2  13  -2   98.92    8.22
   2  13  -1   70.18    5.30
   2  13  -1   74.87    7.10
   2  13   0   39.95    4.05
   2  13   0   37.31    5.03
   2  13   0   41.02    4.86
   2  13   1    1.81    1.37
   2  13   1    1.05    1.21
   2  13   2   35.31    4.68
  -2 -13  -2   28.63    4.22
   2  13   2   35.46    4.29
  -2 -13  -3    7.09    2.48
   2  13   3    5.23    2.14
  -2 -13  -4   51.85    5.52
   2  13   4   42.78    4.45
  -2 -13  -5  140.79    9.27
   2  13   5  130.48    7.50
  -2 -13  -6   92.75    7.73
   2  13   6  102.83    6.53
  -2 -13  -7  136.01    9.44
   2  13   7  153.71    7.63
  -2 -13  -8  166.06   10.66
   2  13   8  189.72    8.20
  -2 -13  -9   22.33    4.30
   2  13   9   21.50    2.85
  -2 -13 -10   14.46    3.64
  -2 -13 -11    0.73    2.01
  -2 -13 -12   88.10    9.08
  -2 -13 -13   80.20    8.85
  -2 -13 -14  138.11   11.91
  -2 -13 -15  108.94   10.82
   2  14 -11    9.00    3.82
   2  14 -10  194.61   14.67
   2  14  -9  155.23   12.71
   2  14  -8  308.55   17.44
   2  14  -7  435.88   13.72
   2  14  -7  422.99   19.81
   2  14  -6   81.69    6.30
   2  14  -6   83.73    8.80
   2  14  -5  118.69    7.81
   2  14  -5  109.40    9.58
   2  14  -4   24.69    3.77
   2  14  -4   23.39    4.66
   2  14  -3   57.04    5.77
   2  14  -3   47.48    6.12
   2  14  -2  175.41    8.89
   2  14  -2  180.31   10.41
   2  14  -2  164.64   10.98
   2  14  -1   68.47    5.59
   2  14  -1   66.12    6.87
   2  14   0  430.53   13.64
   2  14   1  752.28   18.12
  -2 -14  -2  297.25   13.70
   2  14   2  291.00   12.68
  -2 -14  -3    8.26    2.62
   2  14   3    3.70    1.64
  -2 -14  -4  115.03    8.66
   2  14   4  107.84    7.33
  -2 -14  -5  157.86   10.25
   2  14   5  166.19    8.79
  -2 -14  -6  155.62   10.44
   2  14   6  167.96    8.61
  -2 -14  -7  335.94   15.57
   2  14   7  359.32   12.12
  -2 -14  -8  394.79   17.12
   2  14   8  424.24   12.66
  -2 -14  -9  121.50    9.93
  -2 -14 -10   21.12    4.46
  -2 -14 -11   -0.36    2.65
  -2 -14 -12   35.67    6.11
  -2 -14 -13   90.24    9.56
  -2 -14 -14   38.43    6.32
   2  15  -9   31.88    6.11
   2  15  -8   81.23    9.26
   2  15  -7  108.64   10.52
   2  15  -6  199.62   10.21
   2  15  -6  190.10   13.55
   2  15  -5   75.12    6.59
   2  15  -5   71.32    8.09
   2  15  -4  104.18    7.91
   2  15  -4   92.48    9.16
   2  15  -3   -1.80    2.61
   2  15  -3   -0.32    1.99
   2  15  -2    6.06    2.37
   2  15  -2    9.02    1.98
   2  15  -2    7.78    2.79
   2  15  -1   43.21    5.55
   2  15  -1   41.95    4.51
   2  15  -1   42.52    5.73
   2  15   0  135.37    8.05
   2  15   1  254.48   11.06
   2  15   2  364.09   13.38
   2  15   2  348.91   14.43
  -2 -15  -3  151.70   10.37
   2  15   3  139.67    8.93
  -2 -15  -4   27.16    4.36
   2  15   4   27.08    3.85
  -2 -15  -5    8.74    2.67
   2  15   5    7.27    1.80
  -2 -15  -6   36.30    5.38
   2  15   6   34.97    4.28
  -2 -15  -7  159.95   11.22
   2  15   7  173.96    8.80
  -2 -15  -8  182.70   12.28
  -2 -15  -9  247.11   14.41
  -2 -15 -10  160.93   11.95
  -2 -15 -11  120.50   10.92
  -2 -15 -12   33.70    6.05
  -2 -15 -13    7.81    2.82
   2  16  -7   46.95    7.29
   2  16  -6  108.78   10.66
   2  16  -5  210.18   11.40
   2  16  -5  198.71   13.90
   2  16  -4   48.00    5.67
   2  16  -4   47.48    6.74
   2  16  -3   11.86    3.15
   2  16  -3   23.66    5.07
   2  16  -2    4.73    1.89
   2  16  -2    6.45    2.63
   2  16  -1   -1.36    2.17
   2  16  -1    1.87    2.08
   2  16   0   72.15    6.28
   2  16   1   34.95    4.27
   2  16   1   38.20    5.38
   2  16   2   85.82    6.82
   2  16   2   86.87    7.55
   2  16   3   37.60    4.62
   2  16   3   34.08    4.65
  -2 -16  -3   41.45    6.00
   2  16   4   25.16    4.13
  -2 -16  -4   28.09    4.91
   2  16   5    6.10    2.00
  -2 -16  -5   12.98    3.53
   2  16   6    1.81    1.35
  -2 -16  -6   -0.73    2.66
  -2 -16  -7    2.00    3.05
  -2 -16  -8    1.44    1.92
  -2 -16  -9   44.54    6.65
  -2 -16 -10   31.76    5.58
  -2 -16 -11   76.06    8.71
  -2 -16 -12    1.63    2.64
   2  17  -5   87.59    9.61
   2  17  -4  180.79   11.27
   2  17  -4  165.18   13.00
   2  17  -3  269.90   14.11
   2  17  -3  272.61   16.29
   2  17  -2  213.73   12.97
   2  17  -2  203.71   13.84
   2  17  -1   94.08    7.47
   2  17  -1   85.58    8.41
   2  17   0    5.62    1.57
   2  17   1   28.61    4.74
   2  17   1   27.72    4.03
   2  17   2   56.94    6.51
   2  17   2   59.79    6.00
   2  17   3  159.95    9.79
   2  17   3  174.28   10.84
   2  17   4  259.11   12.67
  -2 -17  -4  262.12   15.05
  -2 -17  -5  275.08   15.69
  -2 -17  -6  245.49   14.83
  -2 -17  -7   65.79    8.05
  -2 -17  -8    5.34    3.00
  -2 -17  -9   19.01    4.71
  -2 -17 -10   97.41   10.01
   2  18  -3   14.70    4.25
   2  18  -2    9.93    3.37
   2  18  -1   -2.12    3.67
   2  18   0    2.52    2.20
   2  18   0    3.28    2.85
   2  18   1    2.10    2.20
   2  18   2    0.21    2.25
   2  18   3    2.54    1.92
  -2 -18  -5    2.73    2.82
  -2 -18  -6   -0.63    2.65
  -2 -18  -7    6.27    2.87
  -2 -18  -8   -1.17    2.16
   2  19  -1  168.26   12.77
   2  19  -1  179.06   12.87
   2  19   0  263.48   15.95
   2  19   0  245.39   14.75
   2  19   1  146.96   12.47
   2  19   1  156.89   11.49
  -3  17   0  114.50   10.60
  -3  17  -1   89.93    9.37
  -3  17  -2  236.45   15.10
  -3  17  -2  241.51   14.06
  -3  17  -3  223.76   14.77
  -3  17  -3  206.12   13.38
  -3  17  -4  130.37   11.41
  -3  17  -4  116.53   10.37
  -3  17  -5    7.57    3.65
  -3  17  -5   20.29    4.78
  -3  17  -6   -0.72    1.80
  -3  16   0    0.43    2.08
  -3  16  -1    4.03    1.83
  -3  16  -1    3.30    1.98
  -3  16  -2    3.20    2.20
  -3  16  -2    4.16    2.55
  -3  16  -3   10.37    3.50
  -3  16  -3    9.40    2.99
  -3  16  -4    3.91    2.45
  -3  16  -4    2.29    2.01
  -3  16  -5   -0.48    2.31
  -3  16  -5    1.41    2.54
  -3  16  -6    4.27    2.20
  -3  16  -6    0.29    2.09
  -3  16  -7    2.88    3.12
  -3  16  -8   -6.48    3.05
   3 -15  -4  215.02   14.99
   3 -15  -3  232.34   15.38
   3 -15  -2  254.57   16.10
   3 -15  -1  201.84   14.30
  -3  15   0   34.02    5.39
   3 -15   0   37.32    6.23
  -3  15  -1   -0.24    2.26
  -3  15  -1    5.20    2.02
  -3  15  -2   45.67    6.14
  -3  15  -2   58.20    6.81
  -3  15  -3   91.78    8.84
  -3  15  -3   88.01    8.13
  -3  15  -4  195.50   12.82
  -3  15  -4  184.99   12.12
  -3  15  -5  251.56   14.72
  -3  15  -5  230.32   13.92
  -3  15  -6  203.71   13.42
  -3  15  -6  184.79   12.86
  -3  15  -7  141.42   11.60
  -3  15  -8   43.21    7.04
  -3  15  -9    7.80    3.32
  -3  15 -10   23.53    5.74
   3 -14  -7    1.44    2.01
   3 -14  -6   52.55    7.66
   3 -14  -5    0.60    2.11
   3 -14  -4    1.09    1.85
   3 -14  -3   14.73    4.17
   3 -14  -2    2.68    2.61
   3 -14  -1    2.15    2.54
  -3  14   0    5.12    2.27
   3 -14   0    7.57    3.49
  -3  14  -1   22.69    4.44
  -3  14  -1   19.56    3.70
  -3  14  -2   12.71    3.03
  -3  14  -2   19.62    3.84
  -3  14  -3   -2.60    2.41
  -3  14  -3    3.96    2.23
  -3  14  -4    6.29    2.77
  -3  14  -4    8.07    2.71
  -3  14  -5   55.18    6.74
  -3  14  -5   57.88    6.88
  -3  14  -6   28.86    5.22
  -3  14  -6   23.85    4.90
  -3  14  -7   41.16    6.37
  -3  14  -7   37.17    5.97
  -3  14  -8   22.43    5.87
  -3  14  -9   38.32    6.40
  -3  14 -10   19.00    4.73
  -3  14 -11    1.80    2.31
   3 -13  -9  173.97   13.83
   3 -13  -8  263.36   16.63
   3 -13  -7  325.54   18.12
   3 -13  -6  237.25   15.09
   3 -13  -5  127.45   11.07
   3 -13  -4   13.66    4.03
   3 -13  -3   16.33    4.05
   3 -13  -2  101.87    9.69
   3 -13  -1  158.73   10.05
   3 -13  -1  171.80   12.02
  -3  13   0  268.82   11.88
   3 -13   0  260.42   13.22
   3 -13   0  255.53   14.74
  -3  13  -1  378.58   16.34
  -3  13  -1  371.96   14.38
   3 -13   1  376.20   17.84
  -3  13  -2  235.66   12.94
  -3  13  -2  236.53   11.86
  -3  13  -3  107.79    8.68
  -3  13  -3  104.12    8.20
  -3  13  -4   26.73    4.49
  -3  13  -4   20.93    3.83
  -3  13  -5   31.02    4.73
  -3  13  -5   31.38    5.04
  -3  13  -6  103.21    8.76
  -3  13  -6   87.08    8.28
  -3  13  -7  254.57   14.01
  -3  13  -7  218.30   13.42
  -3  13  -8  233.45   14.31
  -3  13  -9  151.05   11.99
  -3  13 -10  156.18   12.47
  -3  13 -11   32.42    5.88
  -3  13 -12  -10.44    3.80
   3 -12 -10   28.24    5.65
   3 -12  -9    6.08    2.58
   3 -12  -8   20.69    5.14
   3 -12  -7   48.27    6.86
   3 -12  -6  159.69   12.10
   3 -12  -5   84.11    8.53
  -3  12   4   69.30    3.57
   3 -12  -4   67.43    7.56
   3 -12  -3   31.19    5.37
   3 -12  -3   26.19    3.61
   3 -12  -2    1.97    2.13
   3 -12  -2    0.95    1.78
  -3  12   2    1.38    0.97
   3 -12  -1    3.88    1.79
  -3  12   1    3.88    1.28
   3 -12  -1    6.44    3.00
   3 -12   0   81.63    7.11
  -3  12   0   78.42    6.20
   3 -12   0   79.84    7.90
   3 -12   1   80.69    7.23
  -3  12  -1   89.60    6.78
   3 -12   1  109.25    9.26
  -3  12  -2  365.57   15.28
  -3  12  -2  390.99   14.59
   3 -12   2  374.15   15.99
  -3  12  -3  283.22   13.63
  -3  12  -3  291.09   12.98
  -3  12  -4  140.43    9.61
  -3  12  -4  120.88    8.66
  -3  12  -5   19.88    3.65
  -3  12  -5   18.47    3.78
  -3  12  -6   11.76    2.94
  -3  12  -6   11.19    2.78
  -3  12  -7  124.50    9.43
  -3  12  -7  120.84    9.68
  -3  12  -8   79.50    8.18
  -3  12  -9  258.40   15.12
  -3  12 -10  199.67   13.78
  -3  12 -11  198.73   14.14
  -3  12 -12   54.09    7.74
  -3  12 -13    7.76    3.48
  -3  12 -14    1.24    3.07
   3 -11 -11  105.10   10.63
   3 -11 -10   71.64    8.51
   3 -11  -9   30.09    5.84
   3 -11  -8    2.96    2.49
   3 -11  -7   13.58    3.92
   3 -11  -6  124.14   10.20
   3 -11  -5  240.17   13.68
   3 -11  -5  218.32    8.67
  -3  11   4  546.64    9.11
   3 -11  -4  549.25   20.38
   3 -11  -4  523.35   14.11
  -3  11   4  545.77    9.18
   3 -11  -3  263.14   13.96
   3 -11  -3  248.19   10.26
  -3  11   3  262.58    7.85
   3 -11  -2  178.43   11.38
   3 -11  -2  162.54    8.69
  -3  11   2  162.07    7.02
  -3  11   1   23.98    3.13
   3 -11  -1   18.48    3.13
   3 -11  -1   23.56    4.24
   3 -11   0   12.28    3.07
  -3  11   0   10.28    2.37
   3 -11   0   11.52    3.27
   3 -11   1    4.61    2.10
  -3  11  -1    2.91    1.43
   3 -11   1    4.27    2.40
  -3  11  -2  259.83   12.37
  -3  11  -2  262.63   11.43
   3 -11   2  242.16   12.29
   3 -11   2  249.95   13.21
  -3  11  -3  366.89   14.78
   3 -11   3  364.43   15.62
  -3  11  -3  352.41   13.73
  -3  11  -4  184.32   10.53
  -3  11  -4  179.31   10.10
  -3  11  -5   89.91    7.43
  -3  11  -5   87.28    7.37
  -3  11  -6   19.39    3.76
  -3  11  -6   11.59    2.91
  -3  11  -7   28.70    4.47
  -3  11  -7   24.74    4.40
  -3  11  -8    0.54    1.75
  -3  11  -9   14.68    3.58
  -3  11 -10   99.78    9.49
  -3  11 -11  164.59   12.65
  -3  11 -12    1.60    2.36
  -3  11 -13   25.65    5.59
  -3  11 -14    8.59    3.34
  -3  11 -15   -0.63    3.08
   3 -10 -12   61.45    8.26
   3 -10 -11  115.64   10.97
   3 -10 -10  230.99   14.97
   3 -10  -9   66.63    7.98
   3 -10  -8  112.03    9.78
   3 -10  -7   64.52    7.36
   3 -10  -6   36.28    5.36
   3 -10  -6   29.61    2.86
   3 -10  -5   57.79    6.59
   3 -10  -5   50.38    3.81
  -3  10   4  295.92    6.02
   3 -10  -4  306.26   14.58
   3 -10  -4  285.05    9.67
  -3  10   4  299.18    6.09
   3 -10  -3  590.83   19.95
   3 -10  -3  536.86   13.96
  -3  10   3  570.90   10.74
   3 -10  -2  416.75   16.56
   3 -10  -2  390.84   12.51
  -3  10   2  418.01   10.51
  -3  10   1  514.73   13.31
   3 -10  -1  485.05   14.68
   3 -10  -1  485.95   17.75
  -3  10   0  115.65    6.63
   3 -10   0  102.97    7.11
   3 -10   0  107.17    8.28
  -3  10  -1    8.50    2.00
   3 -10   1    5.13    2.15
   3 -10   1    0.52    1.64
   3 -10   2   24.72    3.84
  -3  10  -2   28.90    3.69
   3 -10   2   28.89    4.46
  -3  10  -3   87.23    6.89
   3 -10   3   90.76    7.40
  -3  10  -3   91.50    6.73
  -3  10  -4  220.63   10.99
  -3  10  -4  248.28   11.42
   3 -10   4  238.02   12.52
  -3  10  -5  421.27   15.45
  -3  10  -5  404.91   15.24
   3 -10   5  409.48   16.98
  -3  10  -6  583.74   18.45
  -3  10  -6  535.02   18.22
  -3  10  -7  179.90   10.43
  -3  10  -7  192.37   11.44
  -3  10  -8  420.98   17.48
  -3  10  -9   39.42    5.67
  -3  10 -10   56.19    7.05
  -3  10 -11  172.48   12.61
  -3  10 -12  336.54   18.06
  -3  10 -13  241.94   15.72
  -3  10 -14  270.08   16.98
  -3  10 -15  125.48   12.00
  -3  10 -16   34.36    6.48
   3  -9 -13   -8.02    3.39
   3  -9 -12    9.54    3.51
   3  -9 -11   41.73    6.41
   3  -9 -10   85.87    8.94
   3  -9  -9  135.89   10.87
   3  -9  -8  141.96   10.75
   3  -9  -8  113.44    3.82
   3  -9  -8  117.65    3.91
   3  -9  -7   34.38    5.19
   3  -9  -7   31.85    2.32
   3  -9  -6  163.74   10.76
   3  -9  -6  149.48    5.51
   3  -9  -5   51.17    5.91
   3  -9  -5   49.17    3.43
  -3   9   4    9.04    0.96
   3  -9  -4    7.02    2.39
   3  -9  -4    7.40    1.41
  -3   9   4    9.16    0.97
   3  -9  -3   64.57    6.44
   3  -9  -3   64.79    4.46
  -3   9   3   67.79    3.42
   3  -9  -2   61.60    6.17
   3  -9  -2   67.71    4.81
  -3   9   2   60.70    3.79
  -3   9   1   32.45    3.22
   3  -9  -1   32.16    3.57
   3  -9  -1   33.95    4.59
  -3   9   0  152.42    7.18
   3  -9   0  128.96    7.45
   3  -9   0  154.79    9.53
  -3   9  -1    3.42    1.11
   3  -9   1    1.15    1.08
   3  -9   1    3.75    1.84
   3  -9   2    9.01    2.55
  -3   9  -2    6.26    1.75
   3  -9   2   11.16    2.81
  -3   9  -3   13.77    2.78
  -3   9  -3   14.36    2.70
   3  -9   3   14.58    3.16
  -3   9  -4    1.18    1.12
  -3   9  -4   -1.93    1.89
   3  -9   4    1.41    1.47
  -3   9  -5   56.27    5.49
  -3   9  -5   46.42    5.01
   3  -9   5   45.83    5.43
  -3   9  -6   84.92    6.83
  -3   9  -6   73.41    6.67
   3  -9   6   69.49    6.93
  -3   9  -7   -0.69    1.57
  -3   9  -7    0.70    1.79
  -3   9  -8  119.33    9.14
  -3   9  -9   16.18    3.70
  -3   9 -10    1.64    2.16
  -3   9 -11   -3.53    3.23
  -3   9 -12   17.58    3.96
  -3   9 -13   18.48    4.43
  -3   9 -14    3.08    2.69
  -3   9 -15    0.81    2.55
  -3   9 -16    8.46    3.86
   3  -8 -14  223.83   15.92
   3  -8 -13  285.85   17.42
   3  -8 -12   28.27    5.59
   3  -8 -11   12.76    3.96
   3  -8 -10   47.18    6.50
   3  -8  -9  300.57   15.43
   3  -8  -8  377.96   16.72
   3  -8  -8  355.19    5.90
   3  -8  -8  339.20    5.63
   3  -8  -7  740.38   22.57
   3  -8  -7  687.32    9.08
   3  -8  -6  502.71   18.05
   3  -8  -6  486.60    8.50
   3  -8  -5  431.39   16.25
   3  -8  -5  416.54    8.67
  -3   8   4   11.69    0.82
   3  -8  -4   12.13    2.68
   3  -8  -4   12.86    1.73
  -3   8   4    9.00    0.76
   3  -8  -3  148.30    9.22
  -3   8   3  139.54    8.87
   3  -8  -3  137.91    5.89
  -3   8   3  141.09    4.40
   3  -8  -2  210.76   10.65
  -3   8   2  244.12   11.56
   3  -8  -2  203.95    7.69
  -3   8   2  222.95    7.06
  -3   8   2  218.10    6.51
  -3   8   1  660.11   18.69
   3  -8  -1  647.17   18.40
   3  -8  -1  616.68   14.21
  -3   8   1  637.76   12.80
  -3   8   1  628.76   12.44
   3  -8   0 1042.83   19.61
  -3   8   0 1104.11   17.95
  -3   8   0 1128.40   24.20
   3  -8   0 1075.84   23.54
   3  -8   1  366.98   12.28
  -3   8  -1  387.22   11.20
   3  -8   1  383.03   13.90
  -3   8  -1  384.65   14.17
   3  -8   2  477.68   14.69
  -3   8  -2  467.23   12.95
  -3   8  -2  489.89   15.93
   3  -8   2  476.11   15.73
  -3   8  -3  169.36    8.76
  -3   8  -3  179.60    9.77
   3  -8   3  172.03    9.30
  -3   8  -3  173.34    8.37
  -3   8  -4    1.78    1.27
  -3   8  -4    3.95    1.47
  -3   8  -4    2.38    1.05
   3  -8   4   -0.62    1.66
  -3   8  -5   20.49    3.21
  -3   8  -5   21.41    3.59
  -3   8  -5   15.57    2.98
   3  -8   5   18.57    3.42
  -3   8  -6   95.58    6.94
   3  -8   6   94.51    7.82
  -3   8  -6   88.60    7.00
  -3   8  -6   99.76    7.52
  -3   8  -7  869.33   21.16
   3  -8   7  880.15   24.74
  -3   8  -7  811.59   22.08
  -3   8  -8  268.07   13.25
  -3   8  -9  450.44    5.58
  -3   8  -9  508.05   18.90
  -3   8 -10  287.20   14.80
  -3   8 -11  125.05   10.16
  -3   8 -12   57.60    7.27
  -3   8 -13    4.21    2.57
  -3   8 -14   75.88    8.66
  -3   8 -15  264.83   16.56
  -3   8 -16  316.54   18.57
  -3   8 -17  274.13   17.66
   3  -7 -14   19.95    4.96
   3  -7 -13   32.79    6.10
   3  -7 -12    8.35    3.38
   3  -7 -11   61.49    7.51
   3  -7 -10   68.14    7.55
   3  -7 -10   48.03    2.05
   3  -7 -10   45.18    1.92
   3  -7  -9   87.45    8.12
   3  -7  -8    7.69    2.33
   3  -7  -7    4.66    2.03
   3  -7  -7    4.01    0.59
   3  -7  -7    4.97    0.73
   3  -7  -6   83.24    7.12
   3  -7  -6   78.86    2.81
   3  -7  -5   19.17    3.49
   3  -7  -5   17.94    1.64
   3  -7  -4    3.74    1.55
  -3   7   4    7.84    2.29
   3  -7  -4    4.09    0.89
  -3   7   3   38.40    4.55
   3  -7  -3   28.95    3.89
   3  -7  -3   33.76    2.62
  -3   7   3   34.03    1.93
   3  -7  -2    6.37    1.85
  -3   7   2    6.67    1.85
  -3   7   2    6.06    1.19
   3  -7  -2    6.30    1.30
  -3   7   2    6.63    1.11
  -3   7   1   -0.79    1.18
   3  -7  -1   -0.77    0.99
   3  -7  -1   -0.36    0.84
  -3   7   1    0.01    0.54
  -3   7   1    0.03    0.65
  -3   7   0    3.15    1.65
   3  -7   0    2.22    1.12
  -3   7   0    1.70    1.04
   3  -7   0    1.17    0.94
   3  -7   1    8.40    2.40
  -3   7  -1    8.21    2.06
  -3   7  -1    9.26    1.74
   3  -7   1    8.93    2.01
  -3   7  -2   45.38    4.65
   3  -7   2   44.29    4.57
   3  -7   2   44.93    4.36
  -3   7  -2   47.03    3.97
  -3   7  -3   38.85    4.06
  -3   7  -3   27.37    3.67
  -3   7  -3   31.78    3.47
   3  -7   3   32.16    3.90
  -3   7  -4   10.62    2.33
  -3   7  -4   10.53    2.40
  -3   7  -4    8.99    2.17
   3  -7   4    8.53    2.07
  -3   7  -5   23.89    3.34
  -3   7  -5   25.28    3.59
  -3   7  -5   23.33    3.41
   3  -7   5   22.81    3.64
  -3   7  -6    0.00    1.20
  -3   7  -6    0.66    1.13
  -3   7  -6    0.09    1.36
   3  -7   6   -0.49    1.80
  -3   7  -7   14.34    2.89
  -3   7  -7   10.13    2.05
   3  -7   7   10.72    2.97
  -3   7  -8    1.25    0.97
  -3   7  -8    2.34    1.50
   3  -7   8   -0.38    1.99
  -3   7  -9   26.77    4.43
  -3   7 -10    1.29    1.71
  -3   7 -11   14.29    3.77
  -3   7 -12  249.33   14.40
  -3   7 -13   59.56    7.27
  -3   7 -14   33.98    5.85
  -3   7 -15   11.76    4.17
  -3   7 -16   38.57    6.48
  -3   7 -17   56.24    8.01
  -3   7 -18   92.53   10.45
   3  -6 -15   29.10    5.87
   3  -6 -14  204.11   14.67
   3  -6 -13  246.66   15.50
   3  -6 -12  284.55   16.02
   3  -6 -11  295.33   15.60
   3  -6 -11  272.79    6.39
   3  -6 -10  522.49   19.94
   3  -6 -10  504.33    7.86
   3  -6 -10  504.73    7.45
   3  -6  -9  165.97   10.89
   3  -6  -9  152.41    3.60
   3  -6  -9  152.23    3.80
   3  -6  -8    7.04    2.40
   3  -6  -7   85.51    7.15
   3  -6  -6  821.63   21.38
  -3   6   6  884.71   22.36
   3  -6  -5  215.08   10.61
  -3   6   5  229.38   10.92
   3  -6  -5  194.96    3.75
   3  -6  -4  778.77   19.37
  -3   6   4  799.43   19.60
   3  -6  -4  741.28    8.87
   3  -6  -3 1155.91   22.86
  -3   6   3 1184.95   23.17
   3  -6  -3 1070.64   12.53
  -3   6   3 1138.46    9.69
   3  -6  -2  675.65   17.16
  -3   6   2  701.63   17.44
  -3   6   2  687.67    9.78
   3  -6  -2  650.13   11.06
  -3   6   2  697.65    9.60
  -3   6   1  236.55   10.08
   3  -6  -1  253.51   10.26
  -3   6   1  254.94    6.67
   3  -6  -1  244.88    7.44
  -3   6   1  246.02    6.56
  -3   6   0   28.62    3.56
   3  -6   0   29.87    3.52
   3  -6   0   36.17    3.11
  -3   6   0   40.80    2.96
  -3   6   0   36.52    2.85
  -3   6  -1  204.56    7.17
   3  -6   1  218.95    8.24
   3  -6   1  209.47    9.26
  -3   6  -1  232.06    9.74
  -3   6  -2  996.82   16.92
   3  -6   2  972.91   18.72
   3  -6   2  976.05   19.88
  -3   6  -2 1013.62   20.40
  -3   6  -3  510.45   13.66
  -3   6  -3  523.15   13.24
   3  -6   3  504.08   14.36
  -3   6  -3  530.55   14.83
  -3   6  -4 1384.54   22.77
  -3   6  -4 1379.19   23.01
   3  -6   4 1396.83   25.07
  -3   6  -4 1406.25   24.45
  -3   6  -5 1557.77   24.67
   3  -6   5 1530.45   27.75
  -3   6  -5 1534.42   25.81
  -3   6  -5 1558.00   26.38
  -3   6  -6 1036.74   20.76
  -3   6  -6 1033.15   21.76
   3  -6   6 1007.67   23.54
  -3   6  -6  992.07   21.96
  -3   6  -7   81.24    6.45
  -3   6  -7   75.42    6.45
   3  -6   7   84.05    7.07
   3  -6   8   57.68    5.21
  -3   6  -8   57.90    2.40
  -3   6  -8   51.23    5.58
   3  -6   8   63.76    6.54
   3  -6   9  280.64   11.92
  -3   6  -9  287.41   13.59
   3  -6   9  298.66   14.66
  -3   6 -10  450.43   17.65
  -3   6 -11  656.36   22.04
  -3   6 -12  589.69   21.56
  -3   6 -13  399.82   18.31
  -3   6 -14   57.97    7.32
  -3   6 -15   12.84    3.62
  -3   6 -16   20.60    4.60
  -3   6 -17  110.02   10.88
  -3   6 -18   82.82    9.71
  -3   6 -19  126.12   12.28
   3  -5 -16   44.44    7.66
   3  -5 -15   10.14    3.84
   3  -5 -14    0.51    2.41
   3  -5 -13   21.27    4.71
   3  -5 -12    1.81    2.28
   3  -5 -12    1.40    0.91
   3  -5 -11  105.87    9.29
   3  -5 -11   98.20    4.40
   3  -5 -10   57.34    6.54
   3  -5 -10   60.68    3.11
   3  -5  -9  207.94   11.80
   3  -5  -9  208.27    5.05
   3  -5  -8   14.94    3.31
   3  -5  -8   10.28    0.99
   3  -5  -8   11.50    0.97
   3  -5  -7   49.37    5.38
   3  -5  -6   -0.84    1.49
  -3   5   6    1.53    1.46
  -3   5   5    4.61    1.73
   3  -5  -5    3.45    1.41
   3  -5  -4  311.02   11.66
  -3   5   4  335.58   12.15
   3  -5  -3   71.05    5.43
  -3   5   3   80.95    5.83
   3  -5  -3   75.57    2.54
  -3   5   3   73.08    2.20
   3  -5  -2  124.78    7.03
  -3   5   2  129.17    7.07
   3  -5  -2  127.37    4.11
  -3   5   2  124.48    3.72
   3  -5  -1   11.87    2.24
  -3   5   1   18.18    2.66
  -3   5   1   16.84    1.53
  -3   5   1   16.74    1.62
   3  -5  -1   17.41    1.85
   3  -5   0  248.42    9.44
  -3   5   0  241.08    9.33
  -3   5   0  244.77    6.50
   3  -5   0  239.47    7.30
  -3   5   0  247.40    6.79
   3  -5   1   33.29    3.51
  -3   5  -1   39.19    3.80
  -3   5  -1   34.06    2.71
   3  -5   1   33.06    3.01
  -3   5  -1   39.13    2.99
   3  -5   2   12.62    2.29
  -3   5  -2   13.38    2.25
  -3   5  -2   14.43    2.04
  -3   5  -2   16.27    2.15
   3  -5   2   13.54    2.13
  -3   5  -3  238.64    8.86
   3  -5   3  241.99    9.38
  -3   5  -3  231.42    8.52
  -3   5  -3  240.84    9.39
  -3   5  -4  415.14   11.85
  -3   5  -4  406.61   12.15
   3  -5   4  388.03   12.61
  -3   5  -4  409.64   12.50
  -3   5  -5 1228.56   20.89
  -3   5  -5 1162.00   21.62
  -3   5  -5 1188.27   22.06
   3  -5   5 1151.01   23.02
  -3   5  -6  798.41   17.41
  -3   5  -6  764.99   17.96
  -3   5  -6  790.18   19.06
   3  -5   6  783.92   20.04
   3  -5   7  274.73   10.57
  -3   5  -7  257.57   11.45
   3  -5   7  288.50   12.79
   3  -5   8   67.84    5.55
  -3   5  -8   57.05    2.12
  -3   5  -8   62.99    5.99
   3  -5   8   63.21    6.32
   3  -5   9   40.86    4.37
  -3   5  -9   42.92    5.23
   3  -5   9   50.57    5.92
   3  -5  10  104.62    7.40
  -3   5 -10  116.43    8.86
   3  -5  10  110.06    8.86
  -3   5 -11  293.74   14.42
  -3   5 -12  501.23   19.44
  -3   5 -13  123.32   10.04
  -3   5 -14  151.88   11.50
  -3   5 -15  170.21   12.41
  -3   5 -16   20.76    4.66
  -3   5 -17    6.58    3.30
  -3   5 -18   24.87    5.61
  -3   5 -19   44.75    7.15
   3  -4 -16  196.71   15.16
   3  -4 -15  128.24   11.84
   3  -4 -14   30.40    5.79
   3  -4 -13   22.90    2.79
   3  -4 -13   35.67    6.10
   3  -4 -12  108.68    5.52
   3  -4 -12  109.21    9.57
   3  -4 -11   84.99    4.54
   3  -4 -11   85.82    8.15
   3  -4 -10  167.41    5.82
   3  -4 -10  163.55   10.74
   3  -4  -9  625.85    9.94
   3  -4  -9  628.44   19.93
   3  -4  -8  542.57    7.95
   3  -4  -8  539.61   17.75
   3  -4  -7  495.08    5.85
   3  -4  -7  546.92   17.03
   3  -4  -6  184.71    9.43
  -3   4   5    1.43    1.31
   3  -4  -5   -0.54    1.12
  -3   4   4   31.84    3.58
   3  -4  -4   32.45    3.68
   3  -4  -3  676.81   15.69
  -3   4   3  670.30   15.65
  -3   4   3  656.28    6.25
   3  -4  -2 1007.37   18.51
  -3   4   2 1032.65   18.69
  -3   4   2 1004.57    9.82
   3  -4  -2  981.44    8.40
  -3   4   1 1978.37   25.08
   3  -4  -1 1918.03   24.83
  -3   4   1 1920.72   13.59
  -3   4   1 1924.16   15.62
   3  -4  -1 1882.79   15.54
  -3   4   0 1149.79   18.73
   3  -4   0 1181.34   19.04
   3  -4   0 1128.22   14.16
  -3   4   0 1134.23   12.64
  -3   4   0 1140.41   13.49
   3  -4   1  714.97   14.75
  -3   4  -1  711.12   14.71
  -3   4  -1  721.00   11.64
   3  -4   1  691.55   12.50
  -3   4  -1  717.40   11.84
  -3   4  -2  214.66    8.13
   3  -4   2  209.75    8.03
  -3   4  -2  203.07    7.02
  -3   4  -2  208.69    6.93
   3  -4   2  205.10    7.52
  -3   4  -3   30.90    3.13
  -3   4  -3   23.14    2.78
  -3   4  -3   30.14    3.02
  -3   4  -3   28.70    2.78
   3  -4   3   27.63    3.10
  -3   4  -4   81.93    5.04
  -3   4  -4   77.31    5.17
  -3   4  -4   82.68    5.32
   3  -4   4   81.60    5.55
  -3   4  -5  416.28   11.62
  -3   4  -5  405.03   11.92
  -3   4  -5  394.07   12.39
   3  -4   5  396.37   13.06
   3  -4   6  792.51   16.50
  -3   4  -6  768.19   18.35
   3  -4   6  783.46   19.36
  -3   4  -7  479.04    7.42
   3  -4   7  483.37   13.42
  -3   4  -7  489.02   15.44
   3  -4   7  473.30   15.89
   3  -4   8  896.01   19.18
  -3   4  -8  907.99   22.06
   3  -4   8  917.01   23.04
   3  -4   9   38.86    4.25
  -3   4  -9   37.15    4.78
   3  -4   9   30.55    4.61
   3  -4  10    7.12    2.06
  -3   4 -10    7.33    2.40
   3  -4  10    7.74    2.40
   3  -4  11   10.74    2.40
  -3   4 -11   10.99    3.00
   3  -4  11   11.12    3.24
  -3   4 -12   19.15    3.86
  -3   4 -13  120.15    9.62
  -3   4 -14  321.72   16.24
  -3   4 -15  194.36   13.08
  -3   4 -16   39.95    6.07
  -3   4 -17   19.74    4.86
  -3   4 -18   -0.48    2.25
  -3   4 -19   11.14    3.83
  -3   4 -20    4.58    3.46
   3  -3 -16   47.93    7.36
   3  -3 -15   73.82    8.88
   3  -3 -14  112.94    6.67
   3  -3 -14  100.32    9.92
   3  -3 -13   11.56    1.61
   3  -3 -13   11.85    3.36
   3  -3 -13    8.89    1.91
   3  -3 -12   26.57    2.22
   3  -3 -12   32.88    5.25
   3  -3 -12   35.19    3.48
   3  -3 -12   32.07    2.41
   3  -3 -11    0.63    0.59
   3  -3 -11    1.48    1.72
   3  -3 -11    0.65    0.82
   3  -3 -11    1.50    0.64
   3  -3 -10   50.30    2.62
   3  -3 -10   44.56    5.66
   3  -3 -10   48.39    3.45
   3  -3 -10   51.29    2.64
   3  -3  -9  142.16    3.96
   3  -3  -9  150.88    9.63
   3  -3  -9  138.72    5.27
   3  -3  -9  138.38    3.90
   3  -3  -8  251.16   11.86
   3  -3  -8  236.71    6.05
   3  -3  -8  247.08    4.68
   3  -3  -7  228.92   10.72
   3  -3  -7  218.06    4.86
   3  -3  -7  213.34    3.78
   3  -3  -6  829.15   19.35
  -3   3   5  188.34    8.72
   3  -3  -5  195.03    8.91
   3  -3  -4   13.98    2.43
  -3   3   4   11.33    2.18
   3  -3  -4   14.52    0.94
  -3   3   3    4.74    1.52
   3  -3  -3    3.00    1.04
   3  -3  -3    4.66    0.65
  -3   3   2  596.10   13.32
   3  -3  -2  565.86   12.97
  -3   3   2  569.28    7.26
   3  -3  -2  564.41    7.50
  -3   3   1  427.99   10.94
   3  -3  -1  430.87   10.93
  -3   3   1  438.03    5.34
  -3   3   1  443.05    7.18
  -3   3   0  753.83   13.92
   3  -3   0  730.47   13.81
  -3   3   0  737.69    9.28
  -3   3   0  722.18   10.10
  -3   3  -1 1524.37   19.71
   3  -3   1 1547.04   19.86
  -3   3  -1 1533.60   16.19
   3  -3   1 1482.23   16.55
  -3   3  -1 1502.63   15.96
  -3   3  -2 1461.68   19.40
   3  -3   2 1446.61   19.25
  -3   3  -2 1467.24   18.01
   3  -3   2 1428.66   18.42
  -3   3  -2 1466.53   17.16
  -3   3  -3   56.63    3.87
  -3   3  -3   52.71    3.83
  -3   3  -3   65.56    4.21
   3  -3   3   65.07    4.38
  -3   3  -3   65.27    3.93
  -3   3  -4   43.88    3.50
  -3   3  -4   43.68    3.58
  -3   3  -4   35.94    3.50
  -3   3  -4   43.23    3.43
   3  -3   4   41.51    3.76
   3  -3   5    1.99    0.91
  -3   3  -5    2.98    1.32
   3  -3   5    3.78    1.65
  -3   3  -5    1.29    1.23
  -3   3  -5    3.62    1.37
  -3   3  -6  221.73    5.52
   3  -3   6  213.75    8.20
  -3   3  -6  234.72    9.87
   3  -3   6  227.66   10.06
  -3   3  -6  217.81    8.67
  -3   3  -7  250.84    5.37
   3  -3   7  252.75    9.39
  -3   3  -7  248.28   10.79
  -3   3  -7  248.57    9.68
   3  -3   7  247.73   11.07
   3  -3   8  858.08   18.19
  -3   3  -8  831.67   20.56
   3  -3   8  860.91   21.64
  -3   3  -8  850.51   18.75
   3  -3   9  911.82   19.82
  -3   3  -9  923.32   22.50
  -3   3  -9  922.70   20.22
   3  -3   9  925.41   23.34
   3  -3  10  299.39   11.97
  -3   3 -10  298.25   13.36
  -3   3 -10  284.31   11.86
   3  -3  11  312.87   12.89
  -3   3 -11  334.23   14.70
  -3   3 -11  299.18   12.46
  -3   3 -12   -0.90    1.98
  -3   3 -12   -2.63    1.71
  -3   3 -13    1.47    1.72
  -3   3 -14  153.53   11.09
  -3   3 -15  294.02   15.74
  -3   3 -16  518.10   21.48
  -3   3 -17  302.62   16.85
  -3   3 -18  274.63   16.57
  -3   3 -19   52.11    7.62
  -3   3 -20    0.47    2.15
   3  -2 -17    2.21    2.36
   3  -2 -16   49.01    7.46
   3  -2 -15  197.71   14.16
   3  -2 -15  198.35    9.69
   3  -2 -14  187.67   13.38
   3  -2 -14  209.49    9.53
   3  -2 -13  189.01   12.80
   3  -2 -13  197.65    8.87
   3  -2 -13  196.30    7.41
   3  -2 -12  202.13    8.50
   3  -2 -12  175.70   11.81
   3  -2 -11  211.53    8.24
   3  -2 -11  197.87   12.00
   3  -2 -10   13.91    2.13
   3  -2 -10   18.02    3.63
   3  -2  -9   71.51    4.18
   3  -2  -9   70.69    6.58
   3  -2  -8  217.08    5.91
   3  -2  -8  213.26    6.47
   3  -2  -8  223.16   11.00
   3  -2  -7  249.87    5.88
   3  -2  -7  254.49    6.18
   3  -2  -7  256.17   11.12
   3  -2  -6  188.22    4.68
   3  -2  -6  181.52    8.85
   3  -2  -6  186.30    4.40
   3  -2  -5  903.96   18.35
   3  -2  -5  867.02    7.06
   3  -2  -5  876.07    9.38
  -3   2   4  323.35   10.40
   3  -2  -4  306.82   10.20
   3  -2  -4  304.51    5.30
   3  -2  -3  430.80   11.27
  -3   2   3  417.76   11.08
   3  -2  -3  413.71    6.23
   3  -2  -2   27.02    2.68
  -3   2   2   26.09    2.65
  -3   2   2   27.55    1.71
   3  -2  -2   25.31    1.65
   3  -2  -1  313.92    8.65
  -3   2   1  314.02    8.53
   3  -2  -1  319.89    6.17
  -3   2   1  309.30    5.94
  -3   2   0 2441.03   22.87
   3  -2   0 2491.68   23.22
  -3   2   0 2430.97   16.44
   3  -2   0 2451.17   18.34
  -3   2   0 2444.26   18.01
   3  -2   1  573.31   10.95
  -3   2  -1  554.16   10.71
  -3   2  -1  537.96    9.32
  -3   2  -1  552.22    9.23
   3  -2   1  566.91    9.61
   3  -2   2   12.60    1.70
  -3   2  -2   12.52    1.68
   3  -2   2   11.96    1.61
  -3   2  -2   12.47    1.74
  -3   2  -2   11.23    1.47
  -3   2  -3   55.04    3.50
  -3   2  -3   55.02    3.52
  -3   2  -3   57.36    3.91
  -3   2  -3   51.29    3.30
  -3   2  -4  496.54   10.81
   3  -2   4  481.21   10.61
  -3   2  -4  491.83   10.87
  -3   2  -4  485.70   12.12
  -3   2  -4  486.55   10.87
   3  -2   5   53.30    3.74
  -3   2  -5   60.75    4.03
  -3   2  -5   57.36    2.98
  -3   2  -5   48.65    4.19
  -3   2  -5   52.64    3.89
   3  -2   6  103.23    5.50
  -3   2  -6   92.91    3.62
  -3   2  -6   94.50    6.21
  -3   2  -6   89.30    5.30
   3  -2   7    8.63    1.87
  -3   2  -7    4.05    1.26
  -3   2  -7    5.14    1.86
   3  -2   8   40.95    3.96
  -3   2  -8   48.05    4.99
  -3   2  -8   36.16    3.72
  -3   2  -9   12.54    2.82
  -3   2  -9    9.38    2.32
  -3   2 -10   32.53    4.39
  -3   2 -10   26.22    3.53
   3  -2  11   18.04    1.68
  -3   2 -11   17.08    3.46
  -3   2 -11   16.87    2.94
   3  -2  12   -0.07    0.62
  -3   2 -12   -0.36    1.85
  -3   2 -12    1.41    1.07
   3  -2  13    1.57    0.81
  -3   2 -13    0.24    2.14
   3  -2  14    1.18    0.72
  -3   2 -14    2.11    2.15
   3  -2  15    8.45    1.42
  -3   2 -15   12.04    3.28
   3  -2  16    1.17    0.77
  -3   2 -16    1.89    2.08
  -3   2 -17   14.57    3.97
  -3   2 -18   16.28    4.28
  -3   2 -19   13.65    4.40
  -3   2 -20   15.66    4.36
  -3   2 -21    0.94    2.72
   3  -1 -17   19.64    5.06
   3  -1 -16    5.37    2.75
   3  -1 -15   18.18    4.57
   3  -1 -15   21.73    3.35
   3  -1 -14   42.62    6.52
   3  -1 -14   44.24    4.62
   3  -1 -13  294.85   15.86
   3  -1 -13  326.60   11.95
   3  -1 -12  475.67   19.21
   3  -1 -12  462.73   13.57
   3  -1 -11  656.42   21.48
   3  -1 -11  687.67   15.70
   3  -1 -10   88.61    7.69
   3  -1 -10   95.89    5.54
   3  -1  -9  282.85   12.93
   3  -1  -9  289.47    8.99
   3  -1  -8    0.17    1.45
   3  -1  -8    0.33    0.70
   3  -1  -7  121.03    7.54
   3  -1  -7  133.45    5.11
   3  -1  -6 1118.35   21.49
   3  -1  -6 1147.03   13.10
   3  -1  -5 1118.07   12.80
   3  -1  -5 1100.05   19.73
   3  -1  -5 1126.09   11.04
  -3   1   5 1088.86   12.22
   3  -1  -4 2194.92   16.86
   3  -1  -4 2274.60   26.33
   3  -1  -4 2204.49   12.96
  -3   1   4 2180.57   14.57
   3  -1  -3 2113.16   23.46
  -3   1   3 2122.18   23.61
   3  -1  -3 2041.20   15.72
   3  -1  -2  967.92   14.70
  -3   1   2  972.22   14.80
  -3   1   2  937.88   10.50
   3  -1  -2  941.68   10.56
   3  -1  -1   63.14    3.60
  -3   1   1   65.96    3.60
  -3   1   1   71.27    2.97
   3  -1  -1   68.16    2.95
   3  -1   0    4.86    1.23
  -3   1   0    3.16    0.83
  -3   1   0    3.10    0.77
   3  -1   0    4.34    0.88
   3  -1   1 9908.11   40.15
  -3   1  -1 9971.15   40.04
  -3   1  -1 9867.68   38.20
   3  -1   1 9999.00   39.05
  -3   1  -2 1140.78   13.70
   3  -1   2 1139.01   13.73
  -3   1  -2 1142.46   13.85
   3  -1   2 1129.46   14.01
  -3   1  -3 1134.28   14.24
  -3   1  -3 1131.55   14.47
  -3   1  -3 1150.02   16.38
  -3   1  -3 1104.98   14.56
   3  -1   3 1120.77   14.97
   3  -1   4  297.23    7.84
  -3   1  -4  303.82    7.96
  -3   1  -4  310.88    7.23
   3  -1   4  307.72    8.41
  -3   1  -4  296.59    8.08
  -3   1  -4  307.81    9.31
  -3   1  -5  471.63    8.59
   3  -1   5  470.66   10.46
  -3   1  -5  489.81   12.65
  -3   1  -5  466.02   10.75
  -3   1  -6  104.65    4.02
   3  -1   6  101.39    5.25
  -3   1  -6  100.93    6.19
  -3   1  -6  100.62    5.32
   3  -1   7   10.21    1.36
  -3   1  -7   12.18    2.04
  -3   1  -7    8.36    2.24
   3  -1   8    0.80    0.53
  -3   1  -8    1.94    1.09
  -3   1  -8    3.11    1.83
   3  -1   9  139.08    5.03
  -3   1  -9  138.92    8.45
  -3   1  -9  126.46    6.95
   3  -1  10  731.45   11.98
  -3   1 -10  773.59   20.69
  -3   1 -10  747.86   17.53
   3  -1  11  472.10   10.02
  -3   1 -11  479.68   16.91
  -3   1 -11  481.39   14.62
   3  -1  12  794.30   13.52
  -3   1 -12  837.49   23.19
  -3   1 -12  794.90   19.45
   3  -1  13  643.14   12.71
  -3   1 -13  667.76   21.46
  -3   1 -13  658.95   18.35
   3  -1  14  179.63    6.98
  -3   1 -14  185.97   11.85
   3  -1  15   46.55    3.74
  -3   1 -15   52.51    6.60
   3  -1  16    1.27    0.92
  -3   1 -16    5.14    2.64
   3  -1  17  131.57    6.47
  -3   1 -17  127.05   10.63
  -3   1 -18  200.97   13.77
  -3   1 -19  243.47   15.63
  -3   1 -20  178.83   13.80
  -3   1 -21  112.46   11.08
   3   0 -17   29.12    6.13
   3   0 -16   20.74    4.92
   3   0 -16   20.22    3.64
   3   0 -15   23.14    5.23
   3   0 -15   19.45    3.44
   3   0 -14    7.06    3.20
   3   0 -14    6.35    1.75
   3   0 -13   81.59    8.40
   3   0 -13   78.34    6.19
   3   0 -12   53.06    6.50
   3   0 -12   67.83    5.53
   3   0 -11  188.66   11.45
   3   0 -11  193.63    8.84
   3   0 -10  152.91    9.97
   3   0 -10  162.57    7.66
   3   0  -9   34.62    4.62
   3   0  -9   46.97    3.93
  -3   0   9   41.75    3.97
   3   0  -8   20.49    3.41
   3   0  -8   18.04    2.32
  -3   0   8   16.67    2.33
   3   0  -7    1.73    1.31
   3   0  -7   -0.06    0.64
  -3   0   7    0.28    0.71
   3   0  -6  120.93    7.08
   3   0  -6  127.60    4.97
  -3   0   6  125.57    5.34
   3   0  -5    1.31    1.02
   3   0  -5    0.13    0.52
  -3   0   5    0.30    0.56
   3   0  -4   26.49    2.15
  -3   0   4   27.85    2.01
   3   0  -4   27.49    1.92
   3   0  -4   25.12    2.76
   3   0  -3   24.03    1.98
   3   0  -3   23.18    1.58
  -3   0   3   24.90    1.66
   3   0  -3   22.85    2.43
   3   0  -2    7.18    1.17
  -3   0   2    7.79    0.89
   3   0  -2    7.37    1.38
  -3   0   1    8.50    1.14
   3   0  -1    9.15    1.24
   3   0  -1    9.34    1.34
  -3   0   1    7.59    1.21
  -3   0   1    7.85    0.91
  -3   0   0  179.93    4.86
   3   0   0  179.89    4.90
   3   0   0  172.94    4.97
  -3   0   0  176.13    5.01
   3   0   1 1752.50   14.37
  -3   0  -1 1732.92   14.21
  -3   0  -1 1762.49   16.28
   3   0   1 1748.76   16.34
  -3   0  -2 3461.64   20.35
   3   0   2 3465.13   20.45
  -3   0  -2 3497.47   22.08
   3   0   2 3497.61   24.26
  -3   0  -2 3472.26   23.93
   3   0   3  165.20    5.08
  -3   0  -3  185.67    5.36
  -3   0  -3  179.17    5.73
  -3   0  -3  170.19    5.62
   3   0   3  175.44    5.76
  -3   0  -4  453.02    8.90
   3   0   4  446.03    8.93
  -3   0  -4  465.23    9.78
   3   0   4  464.23    9.92
  -3   0  -5  156.47    5.23
   3   0   5  166.48    5.95
   3   0   5  167.45    5.53
  -3   0  -5  167.49    6.23
   3   0   5  170.53    6.35
   3   0   6   21.76    2.09
  -3   0  -6   17.71    2.22
   3   0   6   18.17    2.24
   3   0   7   28.81    2.44
  -3   0  -7   29.14    2.96
  -3   0  -7   32.06    3.68
   3   0   8   14.83    1.85
  -3   0  -8   19.74    2.57
  -3   0  -8   22.14    3.21
   3   0   9  123.24    5.33
  -3   0  -9  110.13    6.24
  -3   0  -9  134.16    8.14
   3   0  10    8.36    1.59
  -3   0 -10   10.22    2.12
  -3   0 -10    6.34    2.07
   3   0  11    1.16    0.88
  -3   0 -11   -0.74    1.09
  -3   0 -11    0.88    1.50
   3   0  12   15.71    2.20
  -3   0 -12   13.86    3.30
  -3   0 -12   20.76    3.27
   3   0  13   13.39    2.26
  -3   0 -13   15.83    2.90
  -3   0 -13   17.90    3.88
   3   0  14   76.62    5.19
  -3   0 -14   90.92    8.16
  -3   0 -14   78.63    6.44
   3   0  15    1.53    0.98
  -3   0 -15   -0.50    1.99
   3   0  16    8.87    2.10
  -3   0 -16    8.32    2.97
   3   0  17    0.89    1.08
  -3   0 -17   -1.22    2.76
  -3   0 -18    1.31    3.30
  -3   0 -19    3.32    1.89
  -3   0 -20    9.39    3.31
  -3   0 -21   12.01    3.15
   3   1 -17  239.67   12.84
   3   1 -17  247.22   16.79
   3   1 -16  261.17   13.11
   3   1 -16  272.30   16.93
   3   1 -15  203.44   14.23
   3   1 -15  194.86   10.87
   3   1 -14  110.57    8.03
   3   1 -13   19.84    3.39
   3   1 -12   33.34    4.04
   3   1 -11  194.04    9.29
  -3  -1  11  184.12    9.64
   3   1 -10  426.45   13.05
  -3  -1  10  465.79   14.51
   3   1  -9  564.56   14.27
  -3  -1   9  589.60   15.44
   3   1  -8  772.19   15.62
  -3  -1   8  763.77   16.49
  -3  -1   7  238.32    8.58
   3   1  -7  252.80    8.36
  -3  -1   6 1466.00   19.56
   3   1  -6 1491.49   18.77
   3   1  -5  292.14    7.66
  -3  -1   5  292.02    8.01
   3   1  -4   15.08    1.66
  -3  -1   4   16.85    1.82
   3   1  -3   65.35    3.55
  -3  -1   3   60.86    3.08
   3   1  -3   62.91    3.08
   3   1  -3   66.50    3.95
   3   1  -2 2266.79   19.80
  -3  -1   2 2244.12   17.07
   3   1  -2 2231.99   17.15
   3   1  -2 2216.07   19.99
   3   1  -1  202.61    5.74
  -3  -1   1  203.83    5.73
   3   1  -1  200.54    5.13
  -3  -1   1  201.95    4.99
   3   1   0  157.51    3.87
  -3  -1   0  158.29    3.91
  -3  -1   0  152.85    4.97
   3   1   0  151.73    4.91
   3   1   1 1580.50   10.72
  -3  -1  -1 1566.09   10.62
   3   1   1 1570.23   15.89
  -3  -1  -1 1546.51   15.80
  -3  -1  -2 7451.48   23.66
  -3  -1  -2 7541.72   38.45
  -3  -1  -2 7516.37   28.19
   3   1   2 7511.71   35.85
  -3  -1  -2 7503.59   35.50
   3   1   3   29.75    1.97
  -3  -1  -3   31.25    2.48
   3   1   3   33.47    2.66
  -3  -1  -3   28.59    2.31
   3   1   3   33.44    2.60
  -3  -1  -4 2210.20   20.58
   3   1   4 2169.13   20.75
   3   1   4 2098.07   18.14
  -3  -1  -4 2131.11   20.64
   3   1   4 2129.38   20.84
   3   1   5  759.06   12.61
  -3  -1  -5  759.84   12.96
   3   1   5  782.84   13.21
   3   1   6 3036.50   25.68
   3   1   6 3047.24   27.51
  -3  -1  -6 3019.01   27.26
   3   1   7 2846.89   25.96
   3   1   7 2971.15   28.58
  -3  -1  -7 2857.54   27.82
   3   1   8 1276.23   17.99
  -3  -1  -8 1305.39   19.78
   3   1   9 1752.45   21.98
  -3  -1  -9 1756.51   24.05
  -3  -1  -9 1783.31   28.64
  -3  -1 -10   45.35    4.13
  -3  -1 -10   48.41    5.07
  -3  -1 -11    0.29    1.21
  -3  -1 -11    3.50    1.73
  -3  -1 -12  364.55   12.48
  -3  -1 -12  358.30   14.77
  -3  -1 -13  304.41   14.15
  -3  -1 -13  298.29   11.71
  -3  -1 -14  581.53   20.25
  -3  -1 -14  557.58   16.57
  -3  -1 -15  571.44   20.72
  -3  -1 -16  452.64   19.10
  -3  -1 -17  171.62   12.18
  -3  -1 -18   11.93    3.53
  -3  -1 -19    3.63    2.94
  -3  -1 -20   30.21    6.05
  -3  -1 -21   72.24    8.90
  -3  -1 -22   68.51    8.89
   3   2 -17    2.25    1.53
   3   2 -16    0.79    1.35
   3   2 -15   22.18    4.14
   3   2 -14    7.56    2.30
   3   2 -13    3.40    1.52
  -3  -2  13    0.01    1.65
   3   2 -12   12.07    2.61
  -3  -2  12   11.44    2.89
   3   2 -11   92.36    6.75
  -3  -2  11   95.45    7.32
   3   2 -10   27.33    3.67
  -3  -2  10   23.90    3.58
   3   2  -9    5.02    1.62
  -3  -2   9    4.72    1.62
   3   2  -8   13.84    2.32
  -3  -2   8   17.79    2.74
   3   2  -7   44.12    3.78
  -3  -2   7   47.93    4.11
  -3  -2   6    2.17    0.89
   3   2  -6    2.77    1.17
  -3  -2   5   15.34    2.09
   3   2  -5   11.89    1.74
  -3  -2   4   67.39    3.89
   3   2  -4   67.39    3.85
   3   2  -3   10.17    1.44
  -3  -2   3   12.97    1.68
   3   2  -2   29.22    2.66
  -3  -2   2   29.87    2.32
   3   2  -2   30.45    2.35
   3   2  -1   60.09    3.48
  -3  -2   1   57.36    3.08
   3   2   0  167.02    5.56
  -3  -2   0  176.50    6.25
  -3  -2   0  169.00    5.53
   3   2   0  175.09    3.45
  -3  -2   0  168.97    5.17
  -3  -2  -1 4251.28   30.12
  -3  -2  -1 4142.56   27.04
   3   2   1 4197.19   27.33
  -3  -2  -2  106.64    2.83
  -3  -2  -2  108.48    4.78
   3   2   2  102.01    4.74
  -3  -2  -2  104.32    4.39
   3   2   2  101.27    4.35
   3   2   3   91.15    3.08
  -3  -2  -3   98.32    4.60
   3   2   3   92.01    4.55
  -3  -2  -3   94.12    4.21
   3   2   3   92.53    4.26
   3   2   4  124.97    5.36
  -3  -2  -4  127.21    5.07
   3   2   4  123.88    5.07
   3   2   5  107.04    5.11
   3   2   5  104.47    4.84
  -3  -2  -5  106.42    4.88
   3   2   6  240.39    7.93
   3   2   6  244.22    7.69
  -3  -2  -6  244.46    7.64
   3   2   7  689.27   13.43
  -3  -2  -7  665.42   13.23
  -3  -2  -8  563.42   12.78
   3   2   8  591.38   13.11
  -3  -2  -9  333.11   10.29
  -3  -2 -10   44.96    3.99
  -3  -2 -11    6.35    1.84
  -3  -2 -11    3.24    1.39
  -3  -2 -12  116.66    8.37
  -3  -2 -12  118.98    6.98
  -3  -2 -13   31.07    4.61
  -3  -2 -13   22.19    3.34
  -3  -2 -14    8.93    2.31
  -3  -2 -14    5.65    2.47
  -3  -2 -15  198.98   12.23
  -3  -2 -15  188.02    9.77
  -3  -2 -16  232.00   13.56
  -3  -2 -17  184.10   12.53
  -3  -2 -18   84.48    8.74
  -3  -2 -19   24.40    5.23
  -3  -2 -20   10.38    3.94
  -3  -2 -21   14.48    4.09
  -3  -2 -22    3.03    2.50
   3   3 -18   -1.23    3.29
   3   3 -17   -1.76    2.31
   3   3 -16   70.88    7.46
   3   3 -15  245.96   13.25
   3   3 -14  230.83   12.36
   3   3 -13  532.81   18.17
   3   3 -12  199.52   10.72
  -3  -3  12  249.97   12.76
   3   3 -11  274.51   12.13
  -3  -3  11  310.97   13.52
   3   3 -10   10.20    2.30
  -3  -3  10   10.86    2.75
   3   3  -9    0.49    1.40
  -3  -3   9    0.79    1.24
  -3  -3   8  198.78    9.27
   3   3  -8  204.29    9.08
   3   3  -7  227.75    9.09
  -3  -3   7  229.43    9.43
   3   3  -6 1998.42   25.40
  -3  -3   6 1971.20   25.87
  -3  -3   5 1005.61   17.39
   3   3  -5 1009.26   17.02
  -3  -3   4 2337.61   24.89
   3   3  -4 2283.81   24.26
  -3  -3   3  683.43   12.71
   3   3  -3  668.30   12.50
  -3  -3   2    0.07    0.67
  -3  -3   2    0.20    0.73
   3   3  -2    2.30    0.81
  -3  -3   1  307.46    8.57
   3   3  -1  312.36    8.38
   3   3  -1  305.67    7.87
  -3  -3   1  303.42    7.81
   3   3   0  141.65    5.50
  -3  -3   0  140.80    5.73
   3   3   0  138.38    5.67
  -3  -3   0  150.41    5.39
   3   3   1 7900.47   39.78
  -3  -3  -1 7892.75   42.55
   3   3   1 7926.42   42.81
  -3  -3  -1 7949.39   39.68
   3   3   2   63.22    1.73
  -3  -3  -2   64.01    3.60
  -3  -3  -2   57.33    3.73
   3   3   2   63.06    3.90
   3   3   2   65.82    3.68
  -3  -3  -3 1105.26    8.60
   3   3   3 1148.08   16.73
   3   3   3 1112.10   14.88
  -3  -3  -3 1097.61   14.83
   3   3   4   81.90    4.65
  -3  -3  -4   78.57    4.06
   3   3   4   75.82    4.03
   3   3   5  260.43    8.54
   3   3   5  261.67    7.62
  -3  -3  -5  266.70    7.71
   3   3   6   36.67    2.99
  -3  -3  -6   47.27    3.42
   3   3   7  261.15    8.22
  -3  -3  -7  263.42    8.27
   3   3   8  585.87   12.79
  -3  -3  -8  567.31   12.66
  -3  -3  -9  786.05   15.56
   3   3   9  820.34   15.81
  -3  -3 -10  603.21   14.18
  -3  -3 -11  427.90   12.46
  -3  -3 -12  783.19   17.57
  -3  -3 -12  816.78   21.80
  -3  -3 -13   32.66    3.86
  -3  -3 -13   44.27    5.46
  -3  -3 -14   27.74    3.62
  -3  -3 -14   37.26    5.20
  -3  -3 -15  156.99    8.80
  -3  -3 -15  162.68   10.98
  -3  -3 -16   35.02    4.44
  -3  -3 -16   32.58    5.22
  -3  -3 -17  183.59   12.49
  -3  -3 -18  173.19   12.45
  -3  -3 -19  135.35   11.34
  -3  -3 -20   77.13    8.83
  -3  -3 -21   -4.89    2.09
  -3  -3 -22   -9.15    3.67
   3   4 -18   20.29    4.41
   3   4 -17   -1.48    2.61
   3   4 -16   -2.69    2.58
   3   4 -15    0.75    1.53
   3   4 -14   14.55    3.25
   3   4 -13   13.73    3.21
   3   4 -12  279.03   13.20
   3   4 -11   55.94    5.74
  -3  -4  11   52.10    5.81
   3   4 -10  162.06    9.29
  -3  -4  10  150.18    9.43
  -3  -4   9   86.13    6.79
   3   4  -9   75.98    6.19
   3   4  -8    0.60    1.20
  -3  -4   8   -1.50    1.52
  -3  -4   7   17.55    2.84
   3   4  -7   12.48    2.31
   3   4  -6  160.61    7.75
  -3  -4   6  152.17    7.66
  -3  -4   5  131.57    6.21
  -3  -4   5  138.07    6.92
   3   4  -5  126.42    6.54
  -3  -4   4  396.29   10.52
  -3  -4   4  415.52   11.32
   3   4  -4  392.27   10.93
  -3  -4   3  363.35    9.83
  -3  -4   3  363.90   10.14
   3   4  -3  365.42   10.12
  -3  -4   2  122.06    5.67
  -3  -4   2  121.26    5.65
   3   4  -2  126.69    5.80
   3   4  -1    8.67    1.64
  -3  -4   1   10.87    1.75
  -3  -4   1    9.64    1.56
   3   4  -1   13.44    1.94
   3   4   0  965.35   15.29
   3   4   0  997.17   15.68
  -3  -4   0  991.41   15.77
  -3  -4   0  986.95   15.14
   3   4   1  397.50   10.05
   3   4   1  417.47    9.80
  -3  -4  -1  386.41    9.90
   3   4   1  397.50    4.81
  -3  -4  -1  408.83    9.67
  -3  -4  -2  515.33    5.60
   3   4   2  518.62    5.58
   3   4   2  536.14   11.91
  -3  -4  -2  516.63   10.70
   3   4   2  509.13   10.60
  -3  -4  -3  427.50    6.12
   3   4   3  437.24   11.09
  -3  -4  -3  434.27    9.75
   3   4   3  429.33    9.66
  -3  -4  -4 1229.59   12.39
   3   4   4 1257.08   19.30
  -3  -4  -4 1209.57   16.42
   3   4   4 1219.42   16.36
  -3  -4  -5 1167.63   14.19
   3   4   5 1125.36   16.04
  -3  -4  -5 1143.16   16.35
  -3  -4  -6 1069.57   15.42
  -3  -4  -6 1072.79   16.15
   3   4   6 1091.19   16.20
  -3  -4  -7  635.00   12.86
   3   4   7  636.69   12.76
   3   4   8  612.85   13.00
  -3  -4  -8  627.43   13.24
  -3  -4  -9    2.28    1.22
   3   4   9    3.97    1.29
  -3  -4 -10  335.29   10.48
   3   4  10  345.10   10.56
  -3  -4 -11  662.13   15.34
  -3  -4 -12  708.43   16.47
  -3  -4 -13  769.87   17.85
  -3  -4 -13  799.60   22.38
  -3  -4 -14  199.57    9.45
  -3  -4 -14  221.86   12.34
  -3  -4 -15   53.14    6.44
  -3  -4 -15   59.47    5.38
  -3  -4 -16   15.93    3.87
  -3  -4 -16   15.07    2.75
  -3  -4 -17   71.24    7.83
  -3  -4 -18  162.41   12.11
  -3  -4 -18  161.75   13.00
  -3  -4 -19  181.69   13.25
  -3  -4 -19  203.63   14.99
  -3  -4 -20  120.71   11.20
  -3  -4 -20  121.55   11.86
  -3  -4 -21  171.99   13.53
  -3  -4 -22   43.94    7.23
   3   5 -19   88.21    9.43
   3   5 -18  156.60   12.25
   3   5 -17  124.59   10.63
   3   5 -16   68.34    7.71
   3   5 -15   53.48    6.65
   3   5 -14   -2.13    1.85
   3   5 -13   11.63    3.12
   3   5 -12  243.13   12.76
   3   5 -11  455.03   16.86
  -3  -5  10  598.73   14.82
   3   5 -10  617.01   18.93
  -3  -5  10  618.04   19.59
  -3  -5   9  504.68   13.27
   3   5  -9  504.98   16.41
  -3  -5   9  538.74   17.47
  -3  -5   8   88.25    5.44
   3   5  -8   91.14    6.76
  -3  -5   8   84.35    6.72
  -3  -5   7   12.58    1.98
  -3  -5   7   21.84    3.40
   3   5  -7   21.53    3.25
  -3  -5   6   14.37    2.12
   3   5  -6   15.72    2.74
  -3  -5   6   16.04    2.75
  -3  -5   5   90.14    5.18
  -3  -5   5  101.39    6.33
   3   5  -5   91.12    5.90
  -3  -5   4  940.32   16.22
  -3  -5   4 1001.90   18.78
   3   5  -4  980.09   18.53
  -3  -5   3 1131.17   17.71
  -3  -5   3 1186.26   19.64
   3   5  -3 1145.31   19.16
  -3  -5   2 1271.90   18.72
   3   5  -2 1319.59   18.68
  -3  -5   2 1318.38   19.98
   3   5  -2 1360.35   20.15
   3   5  -1  433.80   10.76
  -3  -5   1  416.56    5.66
  -3  -5   1  435.33   10.96
   3   5  -1  422.21   10.99
  -3  -5   1  442.35   11.23
   3   5   0  153.90    6.58
  -3  -5   0  156.88    6.66
   3   5   0  161.67    6.67
   3   5   0  160.90    6.66
  -3  -5   0  152.83    6.49
   3   5   0  153.93    4.36
   3   5   1   65.74    4.36
   3   5   1   64.25    4.13
  -3  -5  -1   64.51    4.20
   3   5   1   64.41    2.60
   3   5   2  232.45    8.34
   3   5   2  235.60    7.66
  -3  -5  -2  237.72    5.03
   3   5   2  226.01    4.85
  -3  -5  -2  232.62    7.91
  -3  -5  -3  172.61    4.60
   3   5   3  168.53    4.61
  -3  -5  -3  158.07    6.21
   3   5   3  181.82    7.65
   3   5   3  167.07    6.36
  -3  -5  -4  722.18   10.45
  -3  -5  -4  722.19   13.24
   3   5   4  727.58   13.13
  -3  -5  -5  271.88    7.20
  -3  -5  -5  258.97    8.04
   3   5   5  284.10    8.30
  -3  -5  -6   58.18    3.68
  -3  -5  -6   59.87    3.93
   3   5   6   60.49    3.90
  -3  -5  -7   99.37    5.31
  -3  -5  -7   96.36    5.12
   3   5   7  101.79    5.16
  -3  -5  -8   27.02    3.07
  -3  -5  -8   26.15    2.79
   3   5   8   29.12    2.92
  -3  -5  -9    6.25    1.69
  -3  -5  -9    5.71    1.43
   3   5   9    5.73    1.38
  -3  -5 -10   26.91    3.60
  -3  -5 -10   22.51    2.80
   3   5  10   26.02    2.89
  -3  -5 -11   94.51    7.07
  -3  -5 -11   93.21    5.74
   3   5  11   94.23    5.74
  -3  -5 -12  232.29   11.68
  -3  -5 -12  231.29    9.35
  -3  -5 -13   66.98    6.62
  -3  -5 -13   52.28    4.66
  -3  -5 -14   47.67    5.99
  -3  -5 -14   53.38    4.92
  -3  -5 -14   52.71    6.10
  -3  -5 -15  126.88   10.00
  -3  -5 -15  133.65    7.98
  -3  -5 -15  125.46    9.62
  -3  -5 -16   45.63    6.41
  -3  -5 -16   27.03    4.70
  -3  -5 -16   32.87    4.15
  -3  -5 -17   -2.80    3.03
  -3  -5 -17    1.19    1.66
  -3  -5 -18   24.83    5.25
  -3  -5 -18   17.63    4.24
  -3  -5 -19   20.78    5.36
  -3  -5 -19   17.89    4.58
  -3  -5 -20    7.92    2.79
  -3  -5 -20    8.58    3.14
  -3  -5 -21   32.68    5.71
   3   6 -18   43.62    7.05
   3   6 -17  134.06   11.36
   3   6 -16  109.09   10.18
   3   6 -15  113.54    9.93
   3   6 -14   18.21    4.02
   3   6 -13   -0.05    2.15
  -3  -6  12    2.08    0.92
   3   6 -12    0.16    1.46
  -3  -6  11   31.45    3.42
   3   6 -11   29.33    4.57
  -3  -6  10  100.70    5.92
   3   6 -10  109.24    8.31
  -3  -6   9  460.57   12.37
   3   6  -9  454.49   16.28
  -3  -6   9  505.44   17.68
  -3  -6   8  505.07   12.73
   3   6  -8  507.60   16.53
  -3  -6   8  566.70   17.90
  -3  -6   7  228.48    8.48
   3   6  -7  247.04   11.05
  -3  -6   7  254.45   11.49
  -3  -6   6  107.56    5.73
  -3  -6   6  103.01    7.07
   3   6  -6  111.33    7.16
  -3  -6   5   22.64    2.75
   3   6  -5   24.13    3.33
  -3  -6   5   21.67    3.33
  -3  -6   4   71.99    4.69
  -3  -6   4   76.15    5.58
   3   6  -4   73.67    5.32
  -3  -6   3  732.11   11.25
  -3  -6   3  715.35   14.51
  -3  -6   3  775.23   17.02
   3   6  -3  741.31   16.52
  -3  -6   2 1401.64   13.47
  -3  -6   2 1373.90   20.22
   3   6  -2 1445.32   20.28
  -3  -6   2 1471.47   22.65
   3   6  -2 1445.37   22.34
   3   6  -1 2257.71   25.80
   3   6  -1 2202.78   26.92
  -3  -6   1 2262.49   27.27
   3   6  -1 2179.27   20.22
   3   6   0 1992.14   24.70
   3   6   0 2026.82   25.29
  -3  -6   0 2035.12   25.46
   3   6   0 2002.33   18.20
   3   6   1  613.77   13.37
   3   6   1  584.26    6.06
   3   6   1  596.24   13.91
  -3  -6  -1  567.51   13.35
   3   6   1  578.46    9.29
   3   6   2  132.20    6.08
   3   6   2  144.34    7.01
   3   6   2  138.02    4.57
  -3  -6  -2  145.39    4.72
  -3  -6  -2  149.12    6.75
   3   6   3   47.82    2.83
  -3  -6  -3   48.35    2.85
  -3  -6  -3   49.80    3.93
   3   6   3   49.18    3.65
  -3  -6  -4  232.76    6.65
   3   6   4  234.07    6.71
  -3  -6  -4  222.38    7.74
   3   6   4  234.61    7.87
  -3  -6  -5 1660.23   19.11
  -3  -6  -5 1648.64   21.04
   3   6   5 1696.03   20.95
  -3  -6  -6 1142.47   17.07
  -3  -6  -6 1161.64   17.72
   3   6   6 1182.99   17.65
  -3  -6  -7  773.08   15.18
  -3  -6  -7  760.59   14.51
   3   6   7  789.18   14.57
  -3  -6  -8  696.20   15.49
   3   6   8  710.44   14.11
  -3  -6  -8  704.56   14.30
  -3  -6  -9  238.12    9.79
   3   6   9  243.97    8.49
  -3  -6  -9  227.47    8.39
  -3  -6 -10   74.60    5.88
   3   6  10   82.38    5.10
  -3  -6 -10   70.52    4.85
  -3  -6 -11   34.31    4.28
  -3  -6 -11   38.55    3.66
   3   6  11   35.57    3.48
  -3  -6 -12   15.05    3.27
  -3  -6 -12   10.14    2.14
  -3  -6 -13  495.36   17.95
  -3  -6 -13  498.27   14.03
  -3  -6 -14  368.39   16.27
  -3  -6 -14  355.67   12.24
  -3  -6 -15  630.14   22.25
  -3  -6 -15  601.12   16.40
  -3  -6 -15  635.43   21.64
  -3  -6 -16  190.78   12.88
  -3  -6 -16  191.04   12.38
  -3  -6 -16  185.43    9.45
  -3  -6 -17   82.89    9.04
  -3  -6 -17   83.13    8.45
  -3  -6 -18   33.51    6.19
  -3  -6 -18   33.24    5.81
  -3  -6 -19    6.31    2.94
  -3  -6 -19    1.40    2.10
  -3  -6 -20   24.62    5.42
  -3  -6 -21   50.58    7.52
   3   7 -18    6.34    3.10
   3   7 -17   38.38    6.41
   3   7 -16   76.00    8.82
   3   7 -15  145.60   11.70
   3   7 -14  128.54   10.64
   3   7 -13   72.61    7.83
   3   7 -12   61.37    6.92
  -3  -7  11   11.60    2.10
   3   7 -11   10.51    2.77
  -3  -7  10   93.10    5.52
   3   7 -10   98.86    8.23
  -3  -7   9   58.69    4.40
   3   7  -9   59.21    6.15
  -3  -7   8   65.42    4.61
  -3  -7   8   67.35    6.44
   3   7  -8   64.58    6.23
  -3  -7   7   14.42    2.19
   3   7  -7   14.06    2.85
  -3  -7   7   20.20    3.54
  -3  -7   6   92.65    5.44
  -3  -7   6  115.73    7.85
   3   7  -6  101.91    7.22
  -3  -7   5   12.24    1.94
  -3  -7   5    6.55    1.58
   3   7  -5   11.58    2.48
  -3  -7   5   12.30    2.62
  -3  -7   4   12.04    1.71
  -3  -7   4   12.18    2.37
   3   7  -4   13.06    2.61
   3   7  -3   -0.57    1.07
  -3  -7   3   -0.14    0.50
  -3  -7   3   -0.17    0.94
   3   7  -3    0.45    0.98
   3   7  -2   -0.96    1.10
  -3  -7   2    1.00    1.08
   3   7  -2   -0.56    0.95
   3   7  -2    2.29    0.97
   3   7  -1  112.47    6.13
  -3  -7   1  109.74    6.43
   3   7  -1  114.12    6.59
   3   7  -1  109.82    4.99
   3   7   0  157.53    7.41
  -3  -7   0  144.21    7.26
   3   7   0  142.28    7.19
   3   7   0  140.17    5.41
   3   7   1   10.84    1.11
   3   7   1   12.18    2.29
   3   7   1    9.03    1.66
  -3  -7  -1   11.03    2.04
   3   7   1   16.75    1.87
   3   7   2  284.13    9.43
   3   7   2  295.87   10.60
  -3  -7  -2  286.11   10.08
  -3  -7  -2  294.88    7.67
   3   7   2  276.97    7.41
   3   7   3    2.30    1.20
  -3  -7  -3    1.24    1.02
   3   7   3   -0.11    0.65
  -3  -7  -3    0.16    0.60
   3   7   4    2.99    1.17
  -3  -7  -4    3.05    1.29
  -3  -7  -4    2.70    0.88
   3   7   4    4.73    1.18
  -3  -7  -5   16.81    2.17
   3   7   5   15.77    2.06
   3   7   5   18.05    2.32
  -3  -7  -6  108.97    5.61
  -3  -7  -6  114.03    5.83
   3   7   6  115.91    5.71
  -3  -7  -7   35.64    3.44
  -3  -7  -7   29.53    3.06
   3   7   7   26.94    2.80
  -3  -7  -8   47.78    4.34
  -3  -7  -8   43.60    3.64
   3   7   8   49.60    3.83
  -3  -7  -9    3.61    1.71
  -3  -7  -9    0.17    0.94
   3   7   9    1.15    0.79
  -3  -7 -10   50.64    4.94
   3   7  10   52.03    4.06
  -3  -7 -10   61.83    4.56
  -3  -7 -11    1.37    1.41
  -3  -7 -11   -0.30    1.43
   3   7  11   -1.13    1.44
  -3  -7 -12   18.45    3.49
  -3  -7 -12   19.64    2.75
   3   7  12   19.45    2.75
  -3  -7 -13   12.03    3.01
  -3  -7 -13    9.32    2.07
  -3  -7 -14   -1.48    1.42
  -3  -7 -14    0.20    1.60
  -3  -7 -15   15.26    4.04
  -3  -7 -15   22.38    3.49
  -3  -7 -16   38.28    5.95
  -3  -7 -16   34.51    5.44
  -3  -7 -17    3.13    2.87
  -3  -7 -17   -1.31    1.80
  -3  -7 -18    2.66    2.27
  -3  -7 -18    2.77    1.83
  -3  -7 -19   -0.71    2.57
  -3  -7 -19    5.41    2.94
  -3  -7 -20    3.62    3.12
   3   8 -17   -0.17    2.28
   3   8 -16   21.91    5.06
   3   8 -15  118.38   10.90
   3   8 -14  223.55   14.60
   3   8 -13  201.97   13.44
   3   8 -12  246.15   14.24
   3   8 -11  156.10   11.08
   3   8 -10    5.43    2.71
   3   8  -9    4.38    1.70
   3   8  -8   37.74    5.01
  -3  -8   7  252.96    9.87
   3   8  -7  261.05   12.47
  -3  -8   6  576.64   13.88
  -3  -8   6  598.28   18.57
   3   8  -6  563.18   17.73
  -3  -8   5  669.49   13.78
  -3  -8   5  714.90   19.60
   3   8  -5  660.63   18.54
   3   8  -4  506.82   12.91
  -3  -8   4  496.36   10.88
  -3  -8   4  512.06   16.04
   3   8  -4  494.06   15.55
   3   8  -3  547.68   13.66
  -3  -8   3  526.20   10.28
  -3  -8   3  535.64   15.99
   3   8  -3  515.47   15.45
   3   8  -2  235.94    9.07
  -3  -8   2  226.79   10.13
   3   8  -2  225.34    9.92
   3   8  -2  228.77    8.20
   3   8  -1    5.51    1.73
  -3  -8   1    2.57    1.30
   3   8  -1    2.88    1.33
   3   8  -1    4.58    1.40
   3   8   0  659.18   15.90
   3   8   0  639.13    9.48
   3   8   0  674.59   16.45
  -3  -8   0  687.20   16.78
   3   8   0  625.52   12.57
   3   8   1  440.30    7.75
   3   8   1  442.56   12.64
   3   8   1  455.36   13.50
  -3  -8  -1  457.51   13.58
   3   8   1  442.45   10.36
   3   8   2 2061.20   26.59
  -3  -8  -2 2047.76   28.52
  -3  -8  -2 2033.93   22.43
   3   8   2 2021.22   22.14
   3   8   3  784.40   16.06
  -3  -8  -3  768.87   14.03
   3   8   3  767.59   13.87
  -3  -8  -3  796.04   17.75
   3   8   4  950.34   16.03
  -3  -8  -4 1025.46   16.67
  -3  -8  -4 1001.63   19.91
   3   8   4 1035.48   18.01
  -3  -8  -5  653.42   13.86
   3   8   5  647.08   13.89
  -3  -8  -5  646.85   16.12
   3   8   5  659.20   14.18
  -3  -8  -6  104.63    5.83
   3   8   6  116.34    6.28
   3   8   6  104.81    5.69
  -3  -8  -7   19.02    2.62
   3   8   7   16.71    2.42
  -3  -8  -8  641.54   16.01
  -3  -8  -8  610.86   13.99
   3   8   8  666.45   14.23
  -3  -8  -9  493.83   14.83
  -3  -8  -9  474.27   12.56
   3   8   9  506.13   12.56
  -3  -8 -10 1047.04   22.73
  -3  -8 -10 1041.31   18.81
   3   8  10 1061.42   18.49
  -3  -8 -11  587.91   18.00
  -3  -8 -11  558.70   14.08
   3   8  11  615.18   14.36
  -3  -8 -12  371.86   15.10
  -3  -8 -12  370.04   11.67
   3   8  12  404.46   11.89
  -3  -8 -13  427.80   16.93
  -3  -8 -13  413.44   12.58
  -3  -8 -14    2.39    1.66
  -3  -8 -14    2.18    1.30
  -3  -8 -15   24.85    4.66
  -3  -8 -16  167.95   12.31
  -3  -8 -17  175.78   13.19
  -3  -8 -17  191.26   12.98
  -3  -8 -18  266.77   16.75
  -3  -8 -18  281.32   16.12
  -3  -8 -19  276.59   17.70
  -3  -8 -19  255.35   15.82
   3   9 -16   -1.58    2.35
   3   9 -15    3.23    2.55
   3   9 -14    6.01    3.25
   3   9 -13   13.18    3.99
   3   9 -12    0.93    1.82
   3   9 -11    4.44    2.73
  -3  -9  10   -1.47    2.10
   3   9 -10    1.33    1.84
  -3  -9   9   60.22    5.65
   3   9  -9   78.71    7.72
  -3  -9   8   11.43    2.46
   3   9  -8   13.32    3.39
  -3  -9   7   22.01    3.08
   3   9  -7   15.46    3.24
  -3  -9   6   64.77    4.78
   3   9  -6   59.22    6.11
  -3  -9   5   59.10    4.25
  -3  -9   5   83.55    6.99
   3   9  -5   59.44    5.87
   3   9  -4    4.81    1.50
   3   9  -4    3.50    1.77
  -3  -9   4    5.47    1.94
   3   9  -4    8.22    1.93
   3   9  -3    0.93    0.84
  -3  -9   3    0.51    1.10
   3   9  -3    0.38    1.21
   3   9  -3    1.24    0.99
   3   9  -2    2.61    1.30
  -3  -9   2    1.04    1.34
   3   9  -2    1.17    1.14
   3   9  -2    3.07    1.19
   3   9  -1   13.17    2.34
  -3  -9   1   10.72    2.41
   3   9  -1   12.83    2.57
   3   9  -1   11.14    1.97
   3   9   0    0.27    0.96
   3   9   0    0.05    0.51
  -3  -9   0    0.71    1.11
   3   9   0    0.26    1.18
   3   9   0    1.38    0.75
   3   9   1   38.74    4.17
   3   9   1   38.04    2.63
  -3  -9  -1   37.98    4.23
   3   9   1   38.09    3.44
   3   9   2    1.25    1.11
  -3  -9  -2    2.53    1.29
   3   9   2    1.51    0.84
  -3  -9  -2    0.57    0.69
   3   9   3   13.65    2.33
  -3  -9  -3   16.50    2.96
  -3  -9  -3   11.37    1.93
   3   9   3    9.20    1.80
   3   9   4   30.40    3.30
  -3  -9  -4   30.81    3.74
   3   9   4   30.18    3.14
  -3  -9  -4   24.73    2.89
   3   9   5   27.85    3.16
  -3  -9  -5   25.01    2.98
   3   9   5   32.71    3.42
  -3  -9  -5   22.56    3.20
  -3  -9  -6   54.60    4.53
   3   9   6   49.00    4.36
  -3  -9  -6   58.46    5.17
   3   9   6   54.90    4.27
  -3  -9  -7   59.33    4.91
  -3  -9  -7   56.50    5.18
   3   9   7   57.68    4.34
  -3  -9  -8   45.40    4.52
   3   9   8   49.31    4.00
  -3  -9  -9  138.02    8.16
   3   9   9  139.94    6.78
  -3  -9 -10   54.21    5.41
   3   9  10   56.65    4.39
  -3  -9 -11  105.18    7.90
  -3  -9 -11   93.34    5.84
   3   9  11  109.48    6.10
  -3  -9 -12   17.94    3.66
  -3  -9 -12   17.47    2.59
   3   9  12   18.44    2.57
  -3  -9 -13   24.79    4.29
  -3  -9 -13   32.81    3.68
   3   9  13   33.58    3.64
  -3  -9 -14    5.40    2.41
  -3  -9 -15    8.69    3.15
  -3  -9 -16   -1.07    1.94
  -3  -9 -17   12.62    3.67
  -3  -9 -17    6.80    3.13
  -3  -9 -18   29.83    5.84
  -3  -9 -18   33.48    5.63
  -3  -9 -19   47.26    6.96
   3  10 -15   38.09    6.28
   3  10 -14    7.31    4.32
   3  10 -13   56.68    7.75
   3  10 -12  202.92   13.96
   3  10 -11  225.93   14.29
   3  10 -10  523.61   21.01
  -3 -10   9  783.21   20.01
   3  10  -9  777.83   24.83
  -3 -10   8  175.11    8.96
   3  10  -8  161.93   11.10
  -3 -10   7   10.10    2.41
   3  10  -7   15.28    3.35
  -3 -10   6    4.63    1.45
   3  10  -6    5.24    2.02
   3  10  -5  131.69    7.11
   3  10  -5  138.25    9.34
   3  10  -5  132.04    7.95
   3  10  -4  546.86   14.63
   3  10  -4  545.32   17.91
   3  10  -4  515.54   15.10
   3  10  -3  904.04   19.21
   3  10  -3  864.15   22.02
   3  10  -3  855.61   19.00
   3  10  -2  921.99   19.86
  -3 -10   2 1003.30   23.63
   3  10  -2  884.73   21.73
   3  10  -2  928.04   19.01
   3  10  -1  352.25   12.63
  -3 -10   1  376.31   14.18
   3  10  -1  359.46   13.55
   3  10  -1  366.00   11.60
   3  10   0  131.33    5.30
   3  10   0  131.55    7.87
  -3 -10   0  127.27    8.14
   3  10   0  123.14    7.88
   3  10   0  137.28    7.05
   3  10   1   16.25    2.89
   3  10   1   14.47    1.82
  -3 -10  -1   11.76    2.51
   3  10   1   12.95    2.24
   3  10   2   57.99    4.94
  -3 -10  -2   50.81    5.10
   3  10   2   53.73    4.32
  -3 -10  -2   50.35    4.22
   3  10   3  233.72    9.69
  -3 -10  -3  238.36   10.82
  -3 -10  -3  229.05    9.01
   3  10   3  228.14    8.96
   3  10   4  665.66   15.92
  -3 -10  -4  659.00   15.53
   3  10   4  650.73   15.36
  -3 -10  -4  687.16   18.27
   3  10   5  937.77   18.94
  -3 -10  -5  964.88   19.21
  -3 -10  -5  954.72   21.66
   3  10   5  968.27   18.86
   3  10   6  969.50   20.17
  -3 -10  -6  952.76   19.70
  -3 -10  -6  992.88   22.20
   3  10   6  976.42   18.67
   3  10   7  739.21   18.35
  -3 -10  -7  734.88   17.88
  -3 -10  -7  743.00   19.38
   3  10   7  751.89   16.08
  -3 -10  -8  222.92   10.29
  -3 -10  -8  209.67   10.44
   3  10   8  225.33    8.88
  -3 -10  -9   28.08    3.85
  -3 -10  -9   30.41    4.13
   3  10   9   37.52    3.64
  -3 -10 -10    2.90    1.87
   3  10  10    2.72    1.31
  -3 -10 -11   86.52    7.29
   3  10  11   82.87    5.44
  -3 -10 -12  245.70   12.87
   3  10  12  251.75    9.40
  -3 -10 -13  503.86   19.21
   3  10  13  538.38   13.92
  -3 -10 -14  177.58   12.00
  -3 -10 -15  168.55   12.25
  -3 -10 -16  149.74   12.09
  -3 -10 -17    6.90    3.50
  -3 -10 -18    4.82    3.25
  -3 -10 -18    2.18    2.22
   3  11 -14   -0.08    1.91
   3  11 -13    4.18    2.41
   3  11 -12   -2.54    2.68
   3  11 -11   15.02    4.50
   3  11 -10   23.10    4.73
  -3 -11   9   24.60    3.73
   3  11  -9   22.88    4.67
  -3 -11   8   70.91    5.86
   3  11  -8   65.92    7.42
  -3 -11   7   65.64    5.40
   3  11  -7   54.28    6.55
   3  11  -6   82.59    7.75
   3  11  -6   79.83    6.88
   3  11  -5   11.14    2.33
   3  11  -5   10.03    3.03
   3  11  -5   18.98    3.29
   3  11  -4   56.93    5.04
   3  11  -4   52.82    5.95
   3  11  -4   52.02    5.14
   3  11  -3   85.44    6.24
   3  11  -3   86.50    7.30
   3  11  -3   83.38    6.24
   3  11  -2   88.41    6.46
   3  11  -2   99.15    7.71
   3  11  -2   94.81    6.45
   3  11  -1   75.99    6.21
   3  11  -1   66.26    6.22
   3  11  -1   65.08    5.25
   3  11   0  104.76    7.40
   3  11   0  111.65    5.31
   3  11   0  107.90    7.70
   3  11   0  102.51    6.54
   3  11   1  241.42    7.75
  -3 -11  -1  230.94   11.36
   3  11   1  225.96    9.47
   3  11   2   34.16    3.89
  -3 -11  -2   34.80    4.43
   3  11   2   32.73    3.72
  -3 -11  -2   34.18    3.88
   3  11   3  125.49    7.45
  -3 -11  -3  118.51    8.07
  -3 -11  -3  118.43    6.98
   3  11   3  114.10    6.82
   3  11   4   12.88    2.53
   3  11   4    8.09    1.97
  -3 -11  -4   20.62    3.03
  -3 -11  -4   13.31    2.78
   3  11   5  126.31    7.44
  -3 -11  -5  138.37    7.81
  -3 -11  -5  133.66    8.56
   3  11   5  138.07    7.46
   3  11   6  198.83    9.72
  -3 -11  -6  210.82    9.85
  -3 -11  -6  203.99   10.51
   3  11   6  223.46    9.37
   3  11   7  399.31   14.20
  -3 -11  -7  419.00   14.27
  -3 -11  -7  401.43   14.85
   3  11   7  402.15   12.24
  -3 -11  -8  374.42   13.91
   3  11   8  381.51   11.87
  -3 -11  -9  144.00    8.97
   3  11   9  149.82    7.37
  -3 -11 -10   40.72    5.04
   3  11  10   42.32    3.97
  -3 -11 -11   -0.81    1.78
   3  11  11    0.29    1.29
  -3 -11 -12    9.30    2.44
   3  11  12    8.15    1.78
  -3 -11 -13  102.93    9.11
   3  11  13  102.60    6.10
  -3 -11 -14  156.89   11.54
  -3 -11 -15  148.32   11.70
  -3 -11 -16  190.52   13.75
  -3 -11 -17   70.38    8.90
   3  12 -13  103.87   10.87
   3  12 -12   75.57    9.11
   3  12 -11   13.15    3.86
   3  12 -10   56.34    7.53
   3  12  -9   57.63    7.62
   3  12  -8  219.42   13.83
   3  12  -7  388.60   17.90
   3  12  -6  555.02   20.74
   3  12  -5  139.61    8.02
   3  12  -5  146.87   10.42
   3  12  -5  142.88    9.15
   3  12  -4  166.11    8.92
   3  12  -4  159.50   10.59
   3  12  -4  182.16    9.99
   3  12  -3    0.21    1.30
   3  12  -3   -0.25    1.62
   3  12  -3    4.16    1.80
   3  12  -2   90.73    6.88
   3  12  -2  106.20    8.31
   3  12  -2  102.61    7.13
   3  12  -1  253.02   11.65
   3  12  -1  244.92   12.33
   3  12  -1  253.68   10.93
   3  12   0  674.27   13.94
   3  12   0  684.47   19.65
   3  12   0  684.78   20.28
   3  12   0  682.29   17.87
   3  12   1  997.57   21.35
   3  12   1  942.40   22.14
   3  12   1 1003.08   16.99
   3  12   2  348.47   12.68
   3  12   2  362.92   13.47
  -3 -12  -3  109.20    7.17
   3  12   3  112.67    7.29
   3  12   3  101.75    6.99
   3  12   4   18.39    2.95
  -3 -12  -4   18.77    3.05
   3  12   4   16.60    2.81
   3  12   5   33.36    4.12
  -3 -12  -5   36.49    4.31
   3  12   5   35.56    4.00
  -3 -12  -6   51.53    5.21
   3  12   6   56.37    5.48
   3  12   6   52.63    4.79
   3  12   7  185.82   10.08
  -3 -12  -7  193.75   10.18
   3  12   7  182.12    8.61
  -3 -12  -8  304.67   13.12
   3  12   8  320.30   11.24
  -3 -12  -9  274.17   12.89
   3  12   9  276.64   10.33
  -3 -12 -10  173.97   10.69
   3  12  10  193.20    8.52
  -3 -12 -11   91.91    8.10
   3  12  11  107.87    6.31
  -3 -12 -12   -0.80    2.36
   3  12  12    1.59    0.96
  -3 -12 -13    1.91    1.63
  -3 -12 -14   23.48    4.98
  -3 -12 -15   60.27    7.76
  -3 -12 -16   85.60    9.42
  -3 -12 -17  119.06   11.74
   3  13 -12   61.93    8.34
   3  13 -11   15.23    4.37
   3  13 -10   21.22    5.12
   3  13  -9   -0.35    1.86
   3  13  -8    1.51    1.90
   3  13  -7   73.91    8.30
   3  13  -6  106.09    7.08
   3  13  -6   98.33    9.16
   3  13  -5  724.57   18.92
   3  13  -5  649.15   22.73
   3  13  -4  367.29   13.92
   3  13  -4  358.48   16.51
   3  13  -3   97.26    7.30
   3  13  -3   90.35    8.12
   3  13  -3   98.22    7.55
   3  13  -2    7.79    2.10
   3  13  -2   11.24    2.95
   3  13  -2    8.60    2.18
   3  13  -1   85.66    7.14
   3  13  -1   73.00    7.24
   3  13  -1   84.96    6.78
   3  13   0   92.37    6.96
   3  13   0  105.76    8.08
   3  13   0   92.03    5.51
   3  13   1  224.27   10.71
   3  13   1  223.37   11.21
   3  13   1  217.71    8.44
   3  13   2  512.41   16.27
   3  13   2  536.84   13.45
   3  13   2  507.98   16.63
   3  13   3  502.83   16.15
  -3 -13  -3  506.08   16.20
   3  13   3  478.89   15.75
  -3 -13  -4  473.60   15.83
   3  13   4  448.78   15.37
   3  13   4  466.73   15.29
  -3 -13  -5   12.80    2.85
   3  13   5   14.18    2.96
   3  13   5   11.74    2.48
  -3 -13  -6    4.48    1.94
   3  13   6    2.70    1.46
  -3 -13  -7   51.93    5.63
   3  13   7   52.49    4.94
  -3 -13  -8   21.66    3.93
   3  13   8   22.35    3.14
  -3 -13  -9  315.53   14.34
   3  13   9  307.29   11.19
  -3 -13 -10  328.83   15.10
   3  13  10  338.72   11.54
  -3 -13 -11  356.87   16.30
   3  13  11  366.30   11.78
  -3 -13 -12  188.50   12.34
  -3 -13 -13   33.51    5.55
  -3 -13 -14   13.62    4.47
  -3 -13 -15   45.44    6.89
  -3 -13 -16   53.84    7.82
   3  14 -10   90.13   10.10
   3  14  -9   21.21    5.01
   3  14  -8   -7.65    3.21
   3  14  -7   39.20    6.39
   3  14  -6    9.22    2.50
   3  14  -6   17.64    4.33
   3  14  -5  180.22    9.93
   3  14  -5  156.34   11.61
   3  14  -4   61.42    5.95
   3  14  -4   51.19    6.69
   3  14  -3   69.42    6.55
   3  14  -3   75.23    7.85
   3  14  -2   77.58    7.04
   3  14  -2   61.10    7.00
   3  14  -1   20.26    3.73
   3  14  -1   20.33    4.25
   3  14   0    3.86    1.66
   3  14   0    6.89    2.49
   3  14   1   12.32    2.30
   3  14   1    7.45    2.19
   3  14   1   11.08    3.14
   3  14   2    6.92    2.10
   3  14   2    9.86    2.12
  -3 -14  -3  162.29    9.80
   3  14   3  151.95    9.38
  -3 -14  -4  165.87    9.91
   3  14   4  167.72    9.53
  -3 -14  -5   21.17    3.71
   3  14   5   24.82    3.62
  -3 -14  -6   72.71    6.83
   3  14   6   63.53    5.71
  -3 -14  -7    7.40    2.30
   3  14   7    5.42    1.88
  -3 -14  -8    4.97    2.36
   3  14   8    4.19    1.30
  -3 -14  -9    6.19    2.28
   3  14   9    4.46    1.88
  -3 -14 -10   43.08    5.88
   3  14  10   38.39    4.10
  -3 -14 -11   30.92    5.30
  -3 -14 -12    5.38    2.89
  -3 -14 -13    9.34    3.48
  -3 -14 -14    0.62    2.52
  -3 -14 -15    3.95    2.70
   3  15  -9  120.36   11.58
   3  15  -8   88.83    9.74
   3  15  -7   15.68    4.40
   3  15  -6    4.87    1.87
   3  15  -6    4.13    2.22
   3  15  -5   71.37    6.53
   3  15  -5   62.51    7.80
   3  15  -4  254.23   12.58
   3  15  -4  249.58   15.00
   3  15  -3  259.40   12.94
   3  15  -3  237.43   14.32
   3  15  -2  269.22   13.39
   3  15  -2  255.52   14.64
   3  15  -1  321.60   15.05
   3  15   0  131.89    7.33
   3  15   0  118.79    9.29
   3  15   1  150.09   10.71
   3  15   1  148.29    7.77
   3  15   1  155.15   10.13
   3  15   2    1.84    1.72
   3  15   2    4.41    1.54
   3  15   3   16.29    3.45
   3  15   3   11.28    2.51
  -3 -15  -4  182.59   10.93
   3  15   4  187.37   10.55
  -3 -15  -5  322.95   14.60
   3  15   5  339.10   13.79
  -3 -15  -6  306.12   14.48
   3  15   6  353.72   13.72
  -3 -15  -7  313.47   14.93
   3  15   7  353.28   13.38
  -3 -15  -8  112.41    9.18
   3  15   8  101.28    7.01
  -3 -15  -9   23.20    4.42
  -3 -15 -10    2.13    2.70
  -3 -15 -11   70.87    8.25
  -3 -15 -12  159.02   12.05
  -3 -15 -13  278.88   16.28
  -3 -15 -14  200.82   14.34
   3  16  -7   10.43    3.70
   3  16  -6    5.69    2.09
   3  16  -5    5.62    2.08
   3  16  -5    4.01    2.77
   3  16  -4   -0.03    1.59
   3  16  -4    3.59    2.18
   3  16  -3   -0.10    1.89
   3  16  -3    4.11    2.28
   3  16  -2   -1.50    2.28
   3  16  -2    2.02    1.98
   3  16  -1    4.70    2.17
   3  16   0    1.91    1.01
   3  16   0   -2.48    2.36
   3  16   1   16.55    3.95
   3  16   1   16.73    3.91
   3  16   1   14.68    2.88
   3  16   2    2.14    1.43
   3  16   2   -0.08    1.61
   3  16   3    1.21    1.08
   3  16   3    0.94    1.80
  -3 -16  -4    6.51    2.73
   3  16   4    5.47    1.84
  -3 -16  -5    2.71    2.26
   3  16   5    5.32    2.31
  -3 -16  -6    3.94    2.17
   3  16   6   -0.29    1.40
  -3 -16  -7   -0.86    1.61
   3  16   7   -1.76    1.42
  -3 -16  -8    4.32    1.95
  -3 -16  -9    1.74    2.24
  -3 -16 -10   -1.28    2.31
  -3 -16 -11   -1.01    2.38
  -3 -16 -12   -3.69    3.31
  -3 -16 -13   -1.40    2.57
   3  17  -5  123.45   11.67
   3  17  -4   74.40    7.46
   3  17  -4   82.70    9.52
   3  17  -3   -0.51    2.04
   3  17  -3   -0.23    2.83
   3  17  -2   23.71    4.38
   3  17  -1  175.19   12.05
   3  17   0  259.55   14.42
   3  17   0  273.08   15.26
   3  17   1  291.99   15.07
   3  17   1  304.37   16.32
   3  17   2  280.67   14.49
   3  17   2  303.25   16.88
   3  17   3   73.43    7.47
   3  17   4   32.69    4.75
   3  17   5   -0.20    1.78
  -3 -17  -5    1.19    2.24
   3  17   6   15.05    3.06
  -3 -17  -6   13.56    3.81
  -3 -17  -7  145.25   11.17
  -3 -17  -8  172.76   12.43
  -3 -17  -9  309.17   16.83
  -3 -17 -10  183.74   13.26
  -3 -17 -11   85.74    9.33
   3  18  -2    6.46    3.35
   3  18  -1   -1.63    3.02
   3  18  -1   -1.59    2.59
   3  18   0   -1.75    2.50
   3  18   0   -1.05    1.95
   3  18   1   17.19    4.88
   3  18   1   17.71    4.01
   3  18   2    4.86    2.62
   3  18   2   12.07    4.03
   3  18   3   50.84    6.25
   3  18   4   32.24    4.95
  -3 -18  -6    1.45    2.46
  -3 -18  -7    0.46    2.69
  -3 -18  -8   17.72    4.45
  -3 -18  -9    6.96    3.80
  -3 -18 -10   48.42    7.49
   3  19  -2  127.21   11.45
   3  19  -1   42.29    6.57
   3  19  -1   36.34    5.80
   3  19   0    1.76    2.88
   3  19   0   -3.08    2.70
   3  19   1    7.11    3.18
   3  19   1   11.01    3.44
   3  19   2   65.62    8.47
   3  19   2   62.64    7.50
  -4  17  -5   97.43    9.95
  -4  17  -6  170.33   13.20
  -4  16  -1   32.81    5.93
  -4  16  -2   33.93    5.97
  -4  16  -3    5.72    2.75
  -4  16  -3   12.35    3.38
  -4  16  -4    3.90    2.38
  -4  16  -4    5.44    2.20
  -4  16  -5   11.89    3.29
  -4  16  -5   15.43    4.02
  -4  16  -6   22.76    4.89
  -4  16  -7   25.35    5.07
  -4  16  -8   25.16    5.57
   4 -15  -1   26.30    5.97
  -4  15   0  116.88   10.47
   4 -15   0  102.98   10.53
  -4  15  -1  202.79   13.59
  -4  15  -1  200.03   11.35
  -4  15  -2  156.78   11.95
  -4  15  -2  183.90   11.22
  -4  15  -3  110.07   10.09
  -4  15  -3  128.10    9.71
  -4  15  -4   63.97    7.57
  -4  15  -4   57.11    6.76
  -4  15  -5   11.66    4.10
  -4  15  -5   18.67    4.40
  -4  15  -6    0.59    1.60
  -4  15  -6    3.41    2.38
  -4  15  -7   18.44    4.42
  -4  15  -7   15.21    3.88
  -4  15  -8   58.01    7.74
  -4  15  -9  168.29   13.32
   4 -14  -5  138.87   12.40
   4 -14  -4   98.87   10.32
   4 -14  -3  128.33   11.56
   4 -14  -2   34.75    6.25
   4 -14  -1   -2.82    2.97
  -4  14   0    2.65    1.35
   4 -14   0    3.79    2.44
  -4  14  -1  120.25   10.21
  -4  14  -1  116.57    8.32
  -4  14  -2   51.58    6.66
  -4  14  -2   58.34    6.11
  -4  14  -3  109.17    9.64
  -4  14  -3  124.85    9.22
  -4  14  -4  143.78   11.10
  -4  14  -4  131.69    9.76
  -4  14  -5   63.35    7.67
  -4  14  -5   60.25    7.06
  -4  14  -6   -0.70    2.03
  -4  14  -6   -0.64    2.15
  -4  14  -7    0.88    2.14
  -4  14  -7    1.54    3.07
  -4  14  -8    7.78    2.74
  -4  14  -9   35.28    6.16
  -4  14 -10   90.45    9.86
  -4  14 -11  106.56   10.97
   4 -13  -7   -0.66    2.75
   4 -13  -6   20.00    4.80
   4 -13  -5   51.57    7.35
   4 -13  -4  249.08   15.60
   4 -13  -3  117.16   10.67
   4 -13  -2  155.12   12.15
   4 -13  -1   53.69    7.11
  -4  13   0   10.77    2.43
   4 -13   0   13.34    3.97
  -4  13  -1    1.59    1.58
   4 -13   1    0.39    2.29
  -4  13  -2   12.92    3.51
  -4  13  -2   18.07    3.39
  -4  13  -3   65.21    7.21
  -4  13  -3   74.63    6.93
  -4  13  -4   97.81    8.79
  -4  13  -4   87.36    7.69
  -4  13  -5  112.50    9.46
  -4  13  -5  103.50    8.61
  -4  13  -6   79.85    8.13
  -4  13  -6   75.27    7.71
  -4  13  -7  146.06   11.07
  -4  13  -7  149.81   11.10
  -4  13  -8    8.66    3.43
  -4  13  -9   10.00    4.86
  -4  13 -10   13.90    3.95
  -4  13 -11   33.05    6.05
  -4  13 -12   16.43    4.90
   4 -12  -8  180.59   13.85
   4 -12  -7   70.22    8.53
   4 -12  -6   83.87    9.18
   4 -12  -5   24.97    4.89
   4 -12  -4   13.67    3.72
   4 -12  -3  164.48   12.05
   4 -12  -2  251.08   14.69
   4 -12  -1  232.99   13.98
   4 -12   0  167.10   11.84
   4 -12   0  148.12    9.48
  -4  12   0  162.24    8.55
  -4  12   0  148.46    7.96
   4 -12   1  354.86   17.20
  -4  12  -1  352.51   13.11
   4 -12   1  325.23   14.64
  -4  12  -1  324.36   12.34
  -4  12  -2  121.89    9.42
   4 -12   2  109.82    8.90
  -4  12  -2  108.53    7.67
  -4  12  -2  102.11    7.26
  -4  12  -3    5.61    2.33
  -4  12  -3   10.60    2.84
  -4  12  -4  175.48   11.30
  -4  12  -4  192.97   10.91
  -4  12  -5  373.08   16.51
  -4  12  -5  379.17   15.86
  -4  12  -6  332.59   15.72
  -4  12  -6  314.52   14.97
  -4  12  -7  660.77   22.51
  -4  12  -7  584.06   21.20
  -4  12  -8  169.11   11.94
  -4  12  -9  268.22   15.51
  -4  12 -10    5.12    2.97
  -4  12 -11   40.18    6.44
  -4  12 -12  124.09   11.79
  -4  12 -13  192.47   14.82
   4 -11 -10   68.33    8.79
   4 -11  -9   32.61    5.79
   4 -11  -8   38.28    6.36
   4 -11  -7   59.06    7.68
   4 -11  -6   78.18    8.63
   4 -11  -5    4.15    2.41
   4 -11  -4   -1.39    1.74
   4 -11  -3   -2.78    1.68
   4 -11  -2   48.97    6.24
   4 -11  -2   47.35    4.54
  -4  11   2   46.72    3.60
   4 -11  -1  152.48   10.99
  -4  11   1  158.83    7.61
   4 -11  -1  134.17    8.16
  -4  11   1  155.19    7.22
   4 -11   0    2.84    2.62
  -4  11   0    1.63    1.16
  -4  11   0    2.97    1.58
   4 -11   0    3.05    2.22
   4 -11   1   40.30    5.64
  -4  11  -1   39.01    4.16
  -4  11  -1   35.37    3.96
   4 -11   1   38.28    4.83
  -4  11  -2   22.23    4.12
   4 -11   2   21.30    4.35
  -4  11  -2   18.92    3.25
   4 -11   2   20.74    3.59
  -4  11  -2   21.61    3.33
  -4  11  -3    1.74    1.41
  -4  11  -3   -0.44    2.31
   4 -11   3   -1.48    2.10
  -4  11  -4    1.97    1.28
   4 -11   4   -0.89    2.43
  -4  11  -5    1.27    1.53
  -4  11  -5   -0.97    1.96
  -4  11  -6   12.32    2.89
  -4  11  -6   12.60    3.09
  -4  11  -7   27.22    4.69
  -4  11  -7   35.61    5.30
  -4  11  -8    2.81    2.08
  -4  11  -8    0.57    1.61
  -4  11  -9   -0.10    2.22
  -4  11 -10    5.36    2.51
  -4  11 -11    4.95    2.97
  -4  11 -12    1.21    2.57
  -4  11 -13    1.15    2.48
  -4  11 -14   10.67    3.87
   4 -10 -11   23.75    5.15
   4 -10 -10    9.06    3.83
   4 -10  -9   51.04    7.37
   4 -10  -8  140.69   11.45
   4 -10  -7  281.77   15.65
   4 -10  -6  373.51   17.60
   4 -10  -5  500.03   19.94
   4 -10  -4  615.92   21.66
   4 -10  -4  565.79   11.94
   4 -10  -3   33.11    5.01
   4 -10  -3   33.88    3.36
  -4  10   3   37.02    2.56
   4 -10  -2   -0.16    2.10
  -4  10   2    2.80    0.87
   4 -10  -2    1.20    0.89
   4 -10  -1   61.99    6.69
  -4  10   1   73.33    4.82
   4 -10  -1   74.67    5.72
  -4  10   1   69.33    4.62
   4 -10   0  522.39   18.93
  -4  10   0  513.06   13.55
   4 -10   0  496.61   15.41
  -4  10   0  484.65   13.04
   4 -10   1  602.47   20.28
   4 -10   1  544.23   16.97
  -4  10  -1  620.36   15.67
  -4  10  -1  577.13   15.11
   4 -10   2 1089.14   27.25
  -4  10  -2 1020.66   21.14
   4 -10   2 1003.91   24.16
  -4  10  -2 1003.52   21.12
  -4  10  -3  448.77   16.47
  -4  10  -3  403.74   13.94
   4 -10   3  416.68   16.31
  -4  10  -4  192.46   10.77
  -4  10  -4  184.80    9.91
   4 -10   4  191.56   11.39
  -4  10  -5   61.55    6.22
  -4  10  -5   60.52    5.95
   4 -10   5   55.99    6.52
  -4  10  -6   14.61    3.41
  -4  10  -6   10.77    2.83
  -4  10  -7  155.72   10.15
  -4  10  -7  169.26   10.77
  -4  10  -8  499.98   18.41
  -4  10  -8  471.56   18.64
  -4  10  -9  402.35   17.97
  -4  10 -10  323.22   16.67
  -4  10 -11  272.56   15.89
  -4  10 -12  124.08   11.18
  -4  10 -13   16.97    5.14
  -4  10 -14   11.70    4.02
  -4  10 -15   49.50    7.69
   4  -9 -12    2.33    2.13
   4  -9 -11   18.30    4.87
   4  -9 -10    0.05    2.38
   4  -9  -9    1.55    2.19
   4  -9  -8   -2.01    2.51
   4  -9  -7    3.03    1.70
   4  -9  -6   32.01    5.24
   4  -9  -5   20.13    3.97
   4  -9  -5   16.12    1.26
   4  -9  -4   28.24    4.61
   4  -9  -4   30.84    2.49
   4  -9  -3   -0.45    2.49
   4  -9  -3    2.35    0.82
  -4   9   3    4.31    0.90
   4  -9  -2   -1.48    1.63
   4  -9  -2    0.56    0.76
  -4   9   2    0.05    0.69
   4  -9  -1    1.46    1.65
  -4   9   1   -0.12    0.96
   4  -9  -1    0.17    1.29
  -4   9   1   -1.02    1.14
   4  -9   0  123.61    8.84
  -4   9   0  128.29    6.38
   4  -9   0  103.85    6.65
  -4   9   0  128.10    6.40
   4  -9   1   88.83    7.52
   4  -9   1   76.39    6.11
  -4   9  -1   89.64    5.70
  -4   9  -1   84.25    5.55
   4  -9   2  217.32   11.71
  -4   9  -2  215.01    9.27
   4  -9   2  203.38   10.33
  -4   9  -2  212.94    9.35
  -4   9  -3   30.53    4.14
  -4   9  -3   27.14    3.66
  -4   9  -3   35.17    4.11
   4  -9   3   30.85    4.28
  -4   9  -4    3.48    1.61
  -4   9  -4    1.02    1.28
   4  -9   4    2.18    1.81
  -4   9  -5   76.26    6.73
  -4   9  -5   60.75    5.75
   4  -9   5   53.57    5.98
  -4   9  -6   42.77    5.12
  -4   9  -6   33.26    4.40
   4  -9   6   39.80    5.51
  -4   9  -7    1.14    1.34
  -4   9  -7    1.38    1.54
  -4   9  -8    0.43    2.25
  -4   9  -9   31.91    4.83
  -4   9 -10   12.50    1.22
  -4   9 -10    9.14    2.82
  -4   9 -11   60.58    7.49
  -4   9 -12   76.69    8.70
  -4   9 -13   38.54    6.38
  -4   9 -14   -0.60    3.25
  -4   9 -15   -0.91    2.90
  -4   9 -16   16.89    5.20
   4  -8 -13   52.58    7.97
   4  -8 -12  258.98   16.64
   4  -8 -11  310.10   17.51
   4  -8 -10  339.75   17.75
   4  -8  -9  373.38   17.96
   4  -8  -8  185.18   12.29
   4  -8  -7   14.84    3.42
   4  -8  -6   72.47    7.26
   4  -8  -5  384.21   16.11
   4  -8  -4  337.98   14.69
   4  -8  -4  343.67    6.40
   4  -8  -3  707.18   20.95
   4  -8  -3  666.13   11.50
  -4   8   3  703.11    9.50
   4  -8  -2  486.95   16.93
   4  -8  -2  487.08   11.29
  -4   8   2  529.11    9.99
   4  -8  -1  425.21   15.72
   4  -8  -1  401.00   11.29
  -4   8   1  421.80    9.94
  -4   8   1  420.04   10.04
   4  -8   0  123.50    8.39
   4  -8   0  111.17    6.39
  -4   8   0  129.77    6.02
  -4   8   0  131.19    6.14
   4  -8   1    0.63    1.44
  -4   8  -1   -0.55    1.79
  -4   8  -1   -1.53    1.24
  -4   8  -1   -0.96    1.30
   4  -8   1   -0.93    1.21
  -4   8  -2   83.72    7.06
   4  -8   2   76.82    6.74
  -4   8  -2   67.13    4.90
   4  -8   2   61.14    5.36
  -4   8  -2   71.87    5.15
  -4   8  -3  296.14   12.23
   4  -8   3  301.59   13.14
  -4   8  -3  313.25   13.33
   4  -8   3  279.56   12.04
  -4   8  -3  300.90   11.05
  -4   8  -3  294.12   11.07
  -4   8  -4  422.53   14.68
  -4   8  -4  425.05   13.86
   4  -8   4  400.36   15.12
  -4   8  -5  578.89   17.34
   4  -8   5  598.55   19.24
  -4   8  -5  589.93   17.26
  -4   8  -6  455.31   15.66
  -4   8  -6  460.59   16.05
   4  -8   6  458.65   17.64
  -4   8  -7  180.95   10.12
  -4   8  -7  180.64   10.53
   4  -8   7  196.41   12.00
  -4   8  -8   69.15    6.86
  -4   8  -9    9.75    2.82
  -4   8 -10   82.14    2.59
  -4   8 -10  101.89    9.01
  -4   8 -11  146.70   11.06
  -4   8 -12  162.41   12.12
  -4   8 -13  288.59   16.58
  -4   8 -14  334.94   18.40
  -4   8 -15   85.06    9.57
  -4   8 -16   59.15    8.49
  -4   8 -17    0.26    1.92
   4  -7 -13   16.12    4.60
   4  -7 -12   27.97    5.80
   4  -7 -11   16.08    4.17
   4  -7 -10    0.28    2.32
   4  -7  -9  187.09   12.40
   4  -7  -8  100.10    8.81
   4  -7  -7   28.42    4.74
   4  -7  -6    2.92    1.47
   4  -7  -5   86.28    7.39
   4  -7  -4   83.99    7.09
   4  -7  -3  225.35   11.35
   4  -7  -3  216.31    5.34
  -4   7   3  219.58    5.00
   4  -7  -2  202.47   10.53
  -4   7   2  226.48   11.10
   4  -7  -2  226.24    6.77
  -4   7   2  223.60    6.12
  -4   7   1   55.71    5.47
   4  -7  -1   58.36    5.62
  -4   7   1   52.54    3.21
   4  -7  -1   50.07    3.66
  -4   7   1   58.36    3.55
  -4   7   0  432.16   14.88
   4  -7   0  431.43   14.93
   4  -7   0  422.04   11.49
  -4   7   0  439.15   10.16
  -4   7   0  427.64   10.44
   4  -7   1   75.25    6.25
  -4   7  -1   89.88    6.80
  -4   7  -1   75.48    4.68
   4  -7   1   77.08    5.39
  -4   7  -1   79.96    4.89
  -4   7  -2    1.10    1.46
   4  -7   2    0.48    1.30
  -4   7  -2   -0.28    1.22
   4  -7   2    1.21    1.06
  -4   7  -2    0.56    0.89
  -4   7  -3   -1.45    1.82
  -4   7  -3    1.01    1.12
   4  -7   3   -1.75    1.88
  -4   7  -3   -0.42    1.05
  -4   7  -3    1.27    1.06
   4  -7   3    0.25    1.02
  -4   7  -4  207.78    9.93
  -4   7  -4  222.81   10.77
  -4   7  -4  209.31    9.41
   4  -7   4  208.75   10.46
  -4   7  -4  203.21    9.26
  -4   7  -5  730.66   18.75
  -4   7  -5  727.85   19.70
  -4   7  -5  742.79   18.75
  -4   7  -5  718.47   18.15
   4  -7   5  734.18   20.54
  -4   7  -6  276.33   11.73
  -4   7  -6  287.49   12.72
  -4   7  -6  265.36   11.80
   4  -7   6  272.34   13.16
  -4   7  -7  296.58   12.45
  -4   7  -7  295.79   13.05
  -4   7  -7  290.82   13.09
   4  -7   7  312.16   14.58
  -4   7  -8  130.57    9.23
   4  -7   8  144.04   10.29
  -4   7  -9   85.78    3.70
  -4   7  -9   95.21    8.18
  -4   7 -10    4.03    0.55
  -4   7 -10    3.42    2.00
  -4   7 -11   45.61    6.25
  -4   7 -12   54.27    6.94
  -4   7 -13   53.74    7.12
  -4   7 -14  301.73   17.19
  -4   7 -15  125.84   11.48
  -4   7 -16  207.73   14.90
  -4   7 -17   34.22    6.64
  -4   7 -18    2.10    2.28
   4  -6 -14  205.33   15.23
   4  -6 -13   99.84   11.10
   4  -6 -12   57.29    7.79
   4  -6 -11   -0.42    2.43
   4  -6 -10   71.19    7.83
   4  -6  -9  490.25   19.45
   4  -6  -8  430.99   17.61
   4  -6  -7  344.81   15.18
   4  -6  -6  442.19   16.45
   4  -6  -5   22.20    3.58
   4  -6  -4    4.37    1.74
  -4   6   4    9.72    2.49
  -4   6   3    7.29    1.84
   4  -6  -3   12.09    2.72
  -4   6   3    7.90    0.89
   4  -6  -2  119.30    7.70
  -4   6   2  108.71    7.33
  -4   6   2  116.99    4.20
   4  -6  -2  109.96    3.91
   4  -6  -1  406.22   13.79
  -4   6   1  413.67   13.98
  -4   6   1  387.34    7.77
  -4   6   1  399.50    8.71
   4  -6  -1  403.02    9.09
  -4   6   0  784.49   18.95
   4  -6   0  734.99   18.42
  -4   6   0  746.56   12.32
  -4   6   0  755.64   13.10
   4  -6   0  747.04   14.02
  -4   6  -1  138.38    7.93
   4  -6   1  134.45    7.84
  -4   6  -1  128.59    5.64
  -4   6  -1  128.29    5.88
   4  -6   1  128.35    6.44
   4  -6   2  453.86   14.26
  -4   6  -2  460.04   14.37
  -4   6  -2  429.67   11.28
   4  -6   2  430.89   12.73
  -4   6  -2  464.71   11.92
   4  -6   3   55.06    5.05
  -4   6  -3   60.89    5.26
  -4   6  -3   60.31    4.64
  -4   6  -3   56.57    4.44
   4  -6   3   57.83    5.02
  -4   6  -4   56.66    4.99
  -4   6  -4   61.41    5.40
  -4   6  -4   48.72    4.48
   4  -6   4   60.25    5.41
  -4   6  -4   54.85    4.60
  -4   6  -5   22.61    3.22
  -4   6  -5   26.02    3.61
  -4   6  -5   21.85    3.30
  -4   6  -5   23.77    3.22
   4  -6   5   23.87    3.85
  -4   6  -6  117.54    7.46
  -4   6  -6  118.84    7.84
  -4   6  -6  121.89    7.89
  -4   6  -6  122.39    7.52
   4  -6   6  106.22    8.01
  -4   6  -7  452.65   14.77
  -4   6  -7  472.88   15.58
  -4   6  -7  472.74   16.28
  -4   6  -7  442.03   14.89
   4  -6   7  469.33   17.31
  -4   6  -8  412.42   14.98
  -4   6  -8  378.51   15.20
   4  -6   8  402.87   16.59
  -4   6  -8  373.87   14.11
  -4   6  -9  407.85    7.65
  -4   6  -9  363.52   15.51
   4  -6   9  422.85   17.65
  -4   6 -10  154.34   10.58
  -4   6 -11   53.33    6.56
  -4   6 -12   20.69    4.46
  -4   6 -13   11.29    3.20
  -4   6 -14   63.11    7.71
  -4   6 -15   88.04    9.42
  -4   6 -16  189.63   14.05
  -4   6 -17   13.18    4.05
  -4   6 -18   20.12    5.29
   4  -5 -15   50.57    8.21
   4  -5 -14   96.37   10.23
   4  -5 -13   40.66    6.64
   4  -5 -12   97.08    9.83
   4  -5 -11   11.57    3.55
   4  -5 -10    7.64    2.88
   4  -5  -9   -0.49    1.58
   4  -5  -8   41.11    5.42
   4  -5  -7  179.58   10.63
   4  -5  -6  331.56   13.85
   4  -5  -5  349.38   13.62
  -4   5   5  349.39   13.76
  -4   5   4   37.37    4.44
   4  -5  -4   34.01    4.20
   4  -5  -3   97.80    6.77
  -4   5   3  118.88    7.42
  -4   5   3  100.41    3.16
  -4   5   2   23.08    3.32
   4  -5  -2   17.73    2.94
  -4   5   2   27.05    1.98
  -4   5   1    2.66    1.23
   4  -5  -1    6.30    2.32
  -4   5   1    1.35    0.39
  -4   5   1    2.59    0.79
   4  -5   0  103.70    6.52
  -4   5   0  100.77    6.49
  -4   5   0   98.44    4.10
  -4   5   0  103.31    4.61
   4  -5   0   99.98    4.61
  -4   5  -1  520.44   14.46
   4  -5   1  503.24   14.19
  -4   5  -1  516.59   10.67
  -4   5  -1  510.06   11.10
   4  -5   1  504.24   11.65
   4  -5   2  739.15   17.07
  -4   5  -2  774.19   17.53
  -4   5  -2  795.80   14.75
  -4   5  -2  760.86   14.41
   4  -5   2  778.18   15.90
   4  -5   3 1364.64   23.57
  -4   5  -3 1393.37   23.99
  -4   5  -3 1390.16   21.25
   4  -5   3 1363.09   22.66
  -4   5  -3 1377.45   20.81
  -4   5  -4  633.53   15.58
  -4   5  -4  683.78   16.91
  -4   5  -4  640.20   15.57
  -4   5  -4  654.97   15.16
   4  -5   4  652.65   16.74
  -4   5  -5  249.09    9.97
  -4   5  -5  239.24   10.25
  -4   5  -5  236.33   10.15
  -4   5  -5  243.43    9.73
   4  -5   5  238.90   10.74
  -4   5  -6   28.43    3.57
  -4   5  -6   34.57    4.01
  -4   5  -6   32.63    3.96
  -4   5  -6   35.83    3.96
   4  -5   6   32.06    4.19
  -4   5  -7  151.95    8.19
  -4   5  -7  137.75    8.12
  -4   5  -7  144.16    8.84
   4  -5   7  146.84    9.41
  -4   5  -7  150.74    8.36
  -4   5  -8 1034.94   13.74
   4  -5   8 1093.18   22.50
  -4   5  -8 1046.30   24.76
  -4   5  -8 1055.91   22.90
   4  -5   8 1083.30   26.36
  -4   5  -9  675.67    9.59
   4  -5   9  706.60   18.83
  -4   5  -9  665.68   20.61
   4  -5   9  731.16   22.46
  -4   5  -9  669.38   18.99
  -4   5 -10  692.36   21.82
   4  -5  10  681.68   22.41
  -4   5 -11  931.24   26.14
  -4   5 -12  297.82   15.35
  -4   5 -13  161.47   11.67
  -4   5 -14    4.84    3.03
  -4   5 -15  162.10   12.45
  -4   5 -16  261.54   16.13
  -4   5 -17  206.89   14.69
  -4   5 -18  204.50   15.08
  -4   5 -19  218.20   15.91
   4  -4 -15   19.24    5.23
   4  -4 -14   92.13   10.12
   4  -4 -13  124.53   11.23
   4  -4 -12  127.45   10.72
   4  -4 -11  105.01    3.02
   4  -4 -11  131.49   10.64
   4  -4 -10   41.07    5.75
   4  -4  -9   64.93    6.85
   4  -4  -8    4.86    2.27
   4  -4  -7   -0.83    1.42
   4  -4  -6  132.31    8.46
   4  -4  -5   66.70    5.79
  -4   4   5   66.94    5.81
   4  -4  -4  479.68   14.74
  -4   4   4  502.69   15.08
   4  -4  -3  234.02    9.90
  -4   4   3  232.79    9.88
  -4   4   3  235.74    4.97
   4  -4  -2    0.84    1.13
  -4   4   2    0.89    0.92
  -4   4   2    1.26    0.56
   4  -4  -1   35.24    3.66
  -4   4   1   36.71    3.69
  -4   4   1   34.25    1.77
  -4   4   1   34.64    2.41
  -4   4   0   35.52    3.64
   4  -4   0   30.55    3.32
  -4   4   0   36.60    2.36
  -4   4   0   35.19    2.61
  -4   4  -1  440.93   12.38
   4  -4   1  438.27   12.37
  -4   4  -1  423.27    9.29
  -4   4  -1  430.36    9.71
   4  -4   2  268.17    9.76
  -4   4  -2  286.84    9.96
  -4   4  -2  262.08    8.24
  -4   4  -2  268.77    8.27
   4  -4   3  427.93   12.36
  -4   4  -3  430.30   12.26
  -4   4  -3  412.77   11.35
  -4   4  -3  410.90   10.83
   4  -4   3  399.37   11.50
  -4   4  -4   78.34    5.24
  -4   4  -4   87.71    5.68
  -4   4  -4   74.37    5.24
  -4   4  -4   79.97    5.07
   4  -4   4   81.36    5.71
  -4   4  -5  460.35   12.93
  -4   4  -5  434.35   12.86
  -4   4  -5  428.90   13.31
   4  -4   5  422.25   13.67
  -4   4  -5  440.61   12.56
  -4   4  -6   73.21    5.36
  -4   4  -6   86.59    6.00
  -4   4  -6   82.04    6.20
   4  -4   6   76.34    6.12
  -4   4  -6   79.34    5.59
   4  -4   7   18.26    2.82
  -4   4  -7   23.07    3.54
  -4   4  -7   21.70    3.16
   4  -4   7   20.71    3.37
   4  -4   8   15.28    2.65
  -4   4  -8   13.46    1.63
  -4   4  -8   15.13    3.18
   4  -4   8   12.73    3.10
  -4   4  -8   11.47    2.19
   4  -4   9  235.24   10.52
  -4   4  -9  217.46    5.62
  -4   4  -9  228.89   11.84
  -4   4  -9  219.79   10.46
   4  -4  10    1.30    1.30
  -4   4 -10    3.09    2.18
  -4   4 -10   -0.36    0.96
  -4   4 -11   -0.30    1.96
  -4   4 -12    3.13    1.97
  -4   4 -13   33.55    5.53
  -4   4 -14   21.28    4.38
  -4   4 -15   12.62    3.61
  -4   4 -16    1.59    2.35
  -4   4 -17    1.34    3.20
  -4   4 -18    3.06    1.98
  -4   4 -19    2.86    2.44
   4  -3 -15   46.75    7.37
   4  -3 -14   -2.19    2.50
   4  -3 -13  120.40   10.87
   4  -3 -12  105.92    9.52
   4  -3 -12  115.30    5.03
   4  -3 -11  282.54   15.00
   4  -3 -11  270.05    6.97
   4  -3 -11  254.16    5.83
   4  -3 -11  257.77    5.78
   4  -3 -10  519.57   19.35
   4  -3 -10  533.80    8.66
   4  -3 -10  502.86    7.66
   4  -3 -10  522.84    7.84
   4  -3  -9  692.86   21.48
   4  -3  -9  688.05    8.12
   4  -3  -9  699.82    8.54
   4  -3  -8  375.60   15.11
   4  -3  -8  359.13    5.88
   4  -3  -7    2.24    1.62
   4  -3  -7    1.65    0.56
   4  -3  -6  189.32    9.79
   4  -3  -6  191.30    4.20
   4  -3  -5  491.73   14.96
  -4   3   5  488.53   14.98
   4  -3  -5  463.95    6.78
   4  -3  -4 1147.42   21.81
  -4   3   4 1160.20   22.07
   4  -3  -4 1121.84   11.19
   4  -3  -3 1235.48   21.57
  -4   3   3 1295.78   22.07
  -4   3   3 1271.19   12.29
   4  -3  -3 1237.21   12.56
   4  -3  -2 1875.27   25.59
  -4   3   2 1871.32   25.40
  -4   3   2 1798.80   15.70
   4  -3  -2 1806.20   16.27
   4  -3  -1  900.27   17.15
  -4   3   1  918.67   17.36
  -4   3   1  911.01    8.16
   4  -3  -1  899.72   12.36
  -4   3   1  909.30   11.94
  -4   3   0   32.74    3.24
   4  -3   0   30.71    3.17
  -4   3   0   33.41    2.17
   4  -3   0   31.35    2.54
  -4   3   0   33.19    2.50
   4  -3   1   48.12    3.81
  -4   3  -1   52.09    4.01
  -4   3  -1   53.09    3.28
  -4   3  -1   48.60    3.16
   4  -3   1   53.34    3.47
  -4   3  -2 1098.76   18.12
   4  -3   2 1132.97   18.43
  -4   3  -2 1097.50   16.60
  -4   3  -2 1124.68   16.08
  -4   3  -3  983.46   17.06
  -4   3  -3  988.15   17.38
   4  -3   3  975.83   17.27
  -4   3  -3  975.50   17.08
  -4   3  -3  968.75   15.90
  -4   3  -4 1825.84   23.75
  -4   3  -4 1864.82   24.43
  -4   3  -4 1827.89   25.12
  -4   3  -4 1850.95   23.28
  -4   3  -5 2204.39   26.70
  -4   3  -5 2193.95   26.99
  -4   3  -5 2120.02   29.20
  -4   3  -5 2175.63   26.61
   4  -3   6 2255.07   27.96
  -4   3  -6 2273.52   28.12
  -4   3  -6 2247.70   28.42
  -4   3  -6 2254.19   31.64
  -4   3  -6 2253.06   28.49
   4  -3   7 1046.14   19.71
  -4   3  -7 1025.82   14.20
  -4   3  -7 1017.15   22.37
  -4   3  -7 1029.98   20.23
  -4   3  -8  332.42    7.69
   4  -3   8  331.70   11.59
  -4   3  -8  322.46   13.27
  -4   3  -8  344.06   12.19
   4  -3   9   14.21    2.61
  -4   3  -9   12.89    2.50
  -4   3  -9    9.25    2.62
   4  -3  10  178.09    9.47
  -4   3 -10  168.40   10.39
  -4   3 -10  167.53    9.20
   4  -3  11  344.41   13.62
  -4   3 -11  354.02   15.50
  -4   3 -11  338.76   13.49
  -4   3 -12  841.07   24.65
  -4   3 -13  471.83   19.19
  -4   3 -14  542.58   21.14
  -4   3 -15   96.09    9.32
  -4   3 -16  155.97   12.18
  -4   3 -17    2.03    2.32
  -4   3 -18   93.00   10.00
  -4   3 -19  123.86   11.75
  -4   3 -20  166.95   13.82
   4  -2 -16   10.06    3.08
   4  -2 -15   16.51    4.18
   4  -2 -14   -2.68    2.32
   4  -2 -13    1.21    0.90
   4  -2 -13   -1.14    2.44
   4  -2 -12   68.27    4.18
   4  -2 -12   75.53    4.65
   4  -2 -12   66.21    7.74
   4  -2 -11    0.72    0.71
   4  -2 -11    1.89    1.00
   4  -2 -11    1.61    1.52
   4  -2 -10   -0.25    0.75
   4  -2 -10    1.28    0.61
   4  -2 -10   -0.13    1.70
   4  -2  -9   32.79    2.55
   4  -2  -9   34.40    2.50
   4  -2  -9   34.45    4.85
   4  -2  -8    6.27    1.16
   4  -2  -8    8.85    1.14
   4  -2  -8    5.94    2.01
   4  -2  -7   -0.78    0.77
   4  -2  -7    1.23    1.43
   4  -2  -7    0.03    0.39
   4  -2  -6   46.38    4.85
   4  -2  -6   41.98    2.49
   4  -2  -5   26.89    3.47
   4  -2  -5   28.50    2.04
   4  -2  -4   42.31    4.11
  -4   2   4   46.80    4.31
   4  -2  -4   41.28    2.42
   4  -2  -3    0.83    0.95
  -4   2   3   -0.43    0.86
   4  -2  -3    0.82    0.61
   4  -2  -2   27.55    2.98
  -4   2   2   25.96    2.87
  -4   2   2   24.66    1.99
   4  -2  -2   22.64    1.92
  -4   2   1    9.36    1.70
   4  -2  -1   12.40    1.95
  -4   2   1    9.62    1.33
  -4   2   1   10.48    1.03
   4  -2  -1   10.22    1.39
  -4   2   0   28.39    2.78
   4  -2   0   25.63    2.64
  -4   2   0   25.58    1.96
   4  -2   0   26.88    2.28
  -4   2   0   27.16    2.23
   4  -2   1  209.30    7.30
  -4   2  -1  216.70    7.36
   4  -2   1  215.60    6.69
  -4   2  -1  207.19    6.38
  -4   2  -1  217.55    6.47
  -4   2  -2    5.45    1.22
   4  -2   2    6.30    1.49
  -4   2  -2    7.55    1.36
   4  -2   2    6.95    1.30
  -4   2  -2    6.41    1.46
  -4   2  -3   94.26    4.92
  -4   2  -3   88.30    4.86
  -4   2  -3   87.88    5.06
  -4   2  -3   85.58    4.60
   4  -2   3   91.97    4.85
  -4   2  -4  126.46    5.86
  -4   2  -4  132.26    6.03
  -4   2  -4  126.89    5.86
  -4   2  -4  124.64    6.47
   4  -2   4  136.19    6.28
  -4   2  -5   17.15    2.35
  -4   2  -5   18.25    2.47
  -4   2  -5   18.53    2.72
  -4   2  -5   16.70    2.28
   4  -2   6  110.22    5.92
  -4   2  -6  100.42    4.68
  -4   2  -6  109.17    6.05
  -4   2  -6  106.46    6.77
  -4   2  -7   57.27    3.40
   4  -2   7   65.02    4.75
  -4   2  -7   67.73    5.71
  -4   2  -7   61.76    4.85
   4  -2   8    3.68    1.53
  -4   2  -8    0.57    0.52
  -4   2  -8   -0.24    1.66
  -4   2  -8    0.39    1.06
   4  -2   9  250.16   10.32
  -4   2  -9  254.20   11.96
  -4   2  -9  262.20   10.65
   4  -2  10    4.31    1.69
  -4   2 -10    3.54    1.35
  -4   2 -10    5.63    2.26
   4  -2  11   68.92    5.97
  -4   2 -11   71.23    6.91
  -4   2 -11   64.19    5.69
  -4   2 -12    0.29    1.25
  -4   2 -12   -0.92    2.28
  -4   2 -13   70.15    7.43
  -4   2 -14   26.11    4.83
  -4   2 -15   62.23    7.51
  -4   2 -16    2.34    1.92
  -4   2 -17    5.97    3.09
  -4   2 -18    0.84    2.35
  -4   2 -19    0.02    2.68
  -4   2 -20    1.42    1.95
   4  -1 -16  214.64   15.57
   4  -1 -15  206.32   14.85
   4  -1 -14  261.17   10.46
   4  -1 -14  256.88   15.95
   4  -1 -13  161.68    7.90
   4  -1 -13  159.80   12.18
   4  -1 -12  245.41    9.25
   4  -1 -12  241.05   14.21
   4  -1 -11  215.05    8.15
   4  -1 -11  206.27   12.52
   4  -1 -10  127.34    5.98
   4  -1 -10  129.58    5.90
   4  -1 -10  122.64    9.27
   4  -1  -9  832.16   14.64
   4  -1  -9  844.22   13.98
   4  -1  -9  848.65   22.90
   4  -1  -8  916.39   14.65
   4  -1  -8  899.34   13.15
   4  -1  -8  914.20   22.57
   4  -1  -7  830.90   13.31
   4  -1  -7  842.13   20.60
   4  -1  -7  803.09   11.26
   4  -1  -6  654.26   11.27
   4  -1  -6  659.30   17.18
   4  -1  -6  649.43    8.93
  -4   1   6  629.04    9.84
   4  -1  -5  976.76   19.63
   4  -1  -5  977.30   13.22
  -4   1   5  971.80   10.81
   4  -1  -4    3.73    1.40
   4  -1  -4    4.17    0.95
  -4   1   4    3.76    0.67
   4  -1  -3   51.70    4.11
  -4   1   3   53.60    4.16
  -4   1   3   53.95    1.94
   4  -1  -3   49.72    2.89
  -4   1   2 1114.84   13.54
   4  -1  -2 1110.83   17.39
  -4   1   2 1118.24   17.43
  -4   1   2 1119.58    8.73
   4  -1  -2 1114.96   13.67
   4  -1  -1 2131.01   22.61
  -4   1   1 2118.60   22.55
   4  -1  -1 2137.71   19.32
  -4   1   1 2109.79   18.90
   4  -1   0 1361.96   17.29
  -4   1   0 1330.96   16.98
   4  -1   0 1351.16   15.82
  -4   1   0 1351.04   15.61
   4  -1   1 2345.29   21.93
  -4   1  -1 2320.50   21.68
   4  -1   1 2394.00   21.84
  -4   1  -1 2348.32   21.29
   4  -1   2  543.44   10.59
  -4   1  -2  543.69   10.44
   4  -1   2  555.52   11.02
  -4   1  -2  538.73   10.66
  -4   1  -3  727.58   12.32
  -4   1  -3  737.25   12.95
  -4   1  -3  725.49   12.97
   4  -1   3  735.07   13.32
  -4   1  -4  135.03    5.55
  -4   1  -4  135.18    5.73
   4  -1   4  136.77    6.03
  -4   1  -4  130.26    5.78
  -4   1  -4  141.62    6.66
   4  -1   5  184.97    6.97
  -4   1  -5  188.82    6.60
  -4   1  -5  194.96    7.17
  -4   1  -5  186.75    7.25
  -4   1  -5  188.60    8.22
   4  -1   5  182.21    7.28
   4  -1   6  857.30   15.68
  -4   1  -6  879.96   13.88
  -4   1  -6  888.90   18.87
   4  -1   6  885.11   16.98
  -4   1  -6  886.87   16.61
   4  -1   7 1812.52   23.98
  -4   1  -7 1750.01   19.33
  -4   1  -7 1799.29   24.74
  -4   1  -7 1767.83   28.10
   4  -1   8  983.24   18.82
  -4   1  -8  989.89   22.12
  -4   1  -8  999.70   19.30
   4  -1   9 1420.45   23.86
  -4   1  -9 1341.03   23.33
  -4   1  -9 1332.73   26.79
   4  -1  10  595.55   11.82
  -4   1 -10  602.46   18.92
  -4   1 -10  585.79   16.06
   4  -1  11  197.36    6.94
  -4   1 -11  212.64   11.69
  -4   1 -11  209.71   10.02
   4  -1  12   24.10    2.50
  -4   1 -12   31.96    4.10
  -4   1 -12   21.27    4.02
   4  -1  13   13.16    1.94
  -4   1 -13   16.75    3.89
   4  -1  14  187.86    7.19
  -4   1 -14  196.39   12.43
   4  -1  15  220.01    7.95
  -4   1 -15  232.06   13.98
   4  -1  16  312.23    9.59
  -4   1 -16  344.16   17.41
   4  -1  17  324.64    9.85
  -4   1 -17  351.26   18.08
  -4   1 -18  179.90   13.39
  -4   1 -19   21.06    4.93
  -4   1 -20   -1.50    2.62
  -4   1 -21   17.55    5.00
   4   0 -16   -0.29    1.96
   4   0 -15   -1.33    2.74
   4   0 -14   11.82    3.30
   4   0 -14    9.45    2.43
   4   0 -13   15.00    3.69
   4   0 -13   14.74    2.59
   4   0 -12    2.93    1.63
   4   0 -12    2.10    1.28
   4   0 -11   62.87    6.97
   4   0 -11   70.22    5.04
   4   0 -10  104.75    8.40
   4   0 -10  118.89    6.23
   4   0  -9   27.26    4.35
   4   0  -9   27.27    2.89
  -4   0   9   28.83    3.25
   4   0  -8   43.81    4.94
   4   0  -8   50.58    3.55
  -4   0   8   53.14    3.99
   4   0  -7   -0.73    0.83
   4   0  -7   -0.42    1.16
   4   0  -7    1.19    0.91
   4   0  -6  103.00    5.01
  -4   0   6  113.70    4.94
   4   0  -6   98.94    4.26
   4   0  -6  111.59    6.97
   4   0  -5  170.92    6.17
   4   0  -5  170.96    5.12
  -4   0   5  166.21    5.42
   4   0  -5  163.57    7.84
   4   0  -4  424.89    9.38
  -4   0   4  423.39    7.79
   4   0  -4  424.95    7.40
   4   0  -4  430.46   11.84
   4   0  -3    8.69    1.42
   4   0  -3    7.05    1.45
  -4   0   3   10.91    1.23
   4   0  -2   74.67    4.24
  -4   0   2   68.65    4.11
  -4   0   2   71.64    2.85
   4   0  -2   68.65    3.63
  -4   0   1  253.72    6.89
   4   0  -1  233.24    6.95
  -4   0   1  244.93    7.10
  -4   0   1  236.62    5.24
   4   0  -1  233.43    6.65
   4   0   0  212.42    6.17
  -4   0   0  222.17    6.24
   4   0   0  216.04    6.48
  -4   0   0  221.72    6.52
   4   0   1 1477.05   15.42
  -4   0  -1 1486.82   15.37
  -4   0  -1 1496.56   17.27
   4   0   1 1507.83   17.45
   4   0   2 1597.86   15.84
  -4   0  -2 1596.39   15.68
  -4   0  -2 1621.49   18.51
   4   0   2 1604.83   18.60
  -4   0  -3  283.93    6.87
  -4   0  -3  300.94    7.59
  -4   0  -3  286.51    8.10
   4   0   3  309.90    8.52
  -4   0  -4  702.61   11.44
  -4   0  -4  719.10   12.25
  -4   0  -4  703.18   13.09
   4   0   4  693.86   13.36
  -4   0  -4  705.18   13.19
  -4   0  -5   15.96    2.01
   4   0   5   16.73    2.06
  -4   0  -5   13.58    2.02
   4   0   5   12.24    1.94
  -4   0  -6   79.73    4.33
   4   0   6   76.14    4.50
  -4   0  -6   78.46    4.85
   4   0   6   75.58    4.90
   4   0   7  108.65    5.23
  -4   0  -7  111.89    5.14
   4   0   7  115.04    5.93
  -4   0  -7  118.31    6.23
   4   0   7  112.37    6.17
   4   0   8  439.92   10.59
   4   0   8  451.49   12.42
  -4   0  -8  429.92   12.39
  -4   0  -8  447.95   14.58
   4   0   9   29.28    2.84
  -4   0  -9   34.16    3.70
  -4   0  -9   34.44    4.30
   4   0  10  239.80    8.15
  -4   0 -10  245.71   10.15
  -4   0 -10  223.28   11.31
   4   0  11  168.77    6.98
  -4   0 -11  174.46    8.91
  -4   0 -11  149.26    9.71
   4   0  12  195.60    7.75
  -4   0 -12  207.54   10.03
  -4   0 -12  207.88   11.81
   4   0  13    7.32    1.82
  -4   0 -13    4.99    1.65
  -4   0 -13    6.88    1.86
   4   0  14   11.79    2.12
  -4   0 -14   18.49    4.00
   4   0  15    8.28    1.90
  -4   0 -15   10.80    3.51
   4   0  16  202.93    8.80
  -4   0 -16  198.11   13.15
   4   0  17  211.25    9.09
  -4   0 -17  203.50   13.74
  -4   0 -18   63.32    8.04
  -4   0 -19  104.84   10.49
  -4   0 -20   17.32    4.57
  -4   0 -21    8.04    1.87
   4   1 -16    2.02    2.99
   4   1 -15   21.67    5.08
   4   1 -15   20.07    3.59
   4   1 -14  256.59   15.64
   4   1 -14  252.17   11.63
   4   1 -13  341.59   17.37
   4   1 -13  354.22   13.26
   4   1 -12  226.70   13.72
   4   1 -12  241.70   10.55
   4   1 -11  503.97   19.21
   4   1 -11  547.09   15.10
  -4  -1  11  560.98   16.41
   4   1 -10  304.20   14.35
   4   1 -10  313.06   10.89
  -4  -1  10  329.30   12.02
   4   1  -9   10.90    2.96
   4   1  -9    7.47    1.84
  -4  -1   9    5.69    1.64
   4   1  -8    3.15    1.59
   4   1  -8    1.75    1.09
  -4  -1   8    4.53    1.37
  -4  -1   7  186.91    7.53
   4   1  -7  197.77    7.22
   4   1  -7  172.49    9.11
   4   1  -6  917.03   14.55
  -4  -1   6  919.47   15.43
   4   1  -6  914.53   19.64
   4   1  -5 1143.89   17.29
  -4  -1   5 1114.17   15.70
   4   1  -5 1121.49   15.20
   4   1  -5 1138.92   20.44
   4   1  -4 1371.96   18.32
  -4  -1   4 1409.39   16.38
   4   1  -4 1406.31   15.99
   4   1  -4 1445.97   21.20
   4   1  -3  907.79   14.38
   4   1  -3  912.64   15.33
  -4  -1   3  910.53   12.37
   4   1  -2  136.48    5.39
  -4  -1   2  147.50    4.78
   4   1  -2  139.33    5.52
  -4  -1   1    4.88    1.17
   4   1  -1    6.25    1.29
   4   1  -1    3.65    0.94
  -4  -1   1    3.35    0.94
   4   1   0   50.15    2.66
  -4  -1   0   46.77    2.57
  -4  -1   0   51.13    3.30
   4   1   0   46.91    3.18
  -4  -1  -1    4.50    0.85
   4   1   1    3.88    0.79
  -4  -1  -1    3.85    1.06
   4   1   1    1.96    0.96
   4   1   2   10.60    1.19
  -4  -1  -2   12.00    1.19
  -4  -1  -2   12.76    1.84
  -4  -1  -2   11.09    1.64
   4   1   2   14.05    1.88
  -4  -1  -3 1020.97   11.08
  -4  -1  -3 1040.20   12.83
  -4  -1  -3 1029.13   16.30
  -4  -1  -3 1038.71   15.37
   4   1   3 1029.25   15.50
   4   1   4 2752.05   22.20
  -4  -1  -4 2814.65   26.60
  -4  -1  -4 2761.46   25.99
   4   1   4 2787.92   26.26
  -4  -1  -5 1968.39   22.18
   4   1   5 1929.54   19.92
   4   1   5 2017.47   22.97
  -4  -1  -5 1974.74   22.81
   4   1   5 1968.97   23.06
   4   1   6  513.89   11.69
  -4  -1  -6  518.87   11.50
   4   1   6  514.81   11.16
  -4  -1  -6  523.37   12.21
   4   1   6  511.83   12.24
   4   1   7   17.80    2.33
  -4  -1  -7   16.14    2.31
   4   1   7   20.06    2.69
   4   1   8   96.59    5.28
   4   1   8   99.30    5.89
  -4  -1  -8   98.89    5.81
   4   1   9  263.97    8.93
  -4  -1  -9  274.71   10.08
   4   1  10  459.21   12.05
  -4  -1 -10  474.80   13.74
  -4  -1 -10  485.76   16.23
   4   1  11  540.73   13.50
  -4  -1 -11  561.70   15.60
  -4  -1 -11  573.12   18.57
   4   1  12  654.53   15.28
  -4  -1 -12  674.76   17.69
  -4  -1 -12  678.59   20.97
   4   1  13  206.91    8.91
  -4  -1 -13  223.30   10.55
  -4  -1 -13  217.97   12.39
   4   1  14   33.67    3.73
  -4  -1 -14   36.73    4.49
  -4  -1 -14   28.77    4.93
   4   1  15   99.95    6.59
  -4  -1 -15   98.71    9.04
   4   1  16  177.12    8.94
  -4  -1 -16  207.14   13.32
   4   1  17   33.50    4.11
  -4  -1 -17   36.32    6.07
   4   1  18   23.64    3.62
  -4  -1 -18   22.62    4.87
  -4  -1 -19   75.81    8.87
  -4  -1 -20   43.00    7.04
  -4  -1 -21   61.69    8.62
   4   2 -16    4.28    2.28
   4   2 -16    0.75    1.78
   4   2 -15   -2.32    3.18
   4   2 -15   -1.90    1.64
   4   2 -14   11.34    3.28
   4   2 -14   20.22    3.63
   4   2 -13   66.25    6.08
  -4  -2  13   65.48    6.62
   4   2 -12   -1.13    1.47
  -4  -2  12    0.01    1.50
   4   2 -11  351.82   12.82
  -4  -2  11  381.41   14.27
   4   2 -10  185.28    8.93
  -4  -2  10  195.08    9.81
   4   2  -9   42.31    4.18
  -4  -2   9   44.56    4.47
  -4  -2   8   73.87    5.44
   4   2  -8   62.72    4.69
  -4  -2   7    0.85    0.97
   4   2  -7    2.50    1.14
  -4  -2   6  259.78    8.88
   4   2  -6  259.27    8.55
   4   2  -5  323.59    9.00
  -4  -2   5  306.78    9.07
   4   2  -4  273.62    8.78
  -4  -2   4  274.43    8.03
   4   2  -4  281.99    7.99
   4   2  -3  387.56   10.10
  -4  -2   3  386.67    9.06
   4   2  -3  393.57    9.09
   4   2  -3  384.54    9.84
   4   2  -2  355.40    9.38
  -4  -2   2  346.19    8.23
   4   2  -2  358.90    8.44
   4   2  -1  132.82    5.64
   4   2  -1  124.93    4.31
  -4  -2   1  131.09    5.00
  -4  -2   0  154.80    5.97
   4   2   0  149.69    3.96
  -4  -2   0  150.11    5.32
   4   2   0  146.32    5.82
  -4  -2  -1    9.77    0.89
   4   2   1   11.04    0.94
  -4  -2  -1   11.52    1.87
  -4  -2  -1   12.58    1.79
   4   2   1   10.93    1.65
  -4  -2  -2  751.63    6.62
  -4  -2  -2  778.78    9.31
  -4  -2  -2  765.09   14.51
  -4  -2  -2  781.19   13.40
   4   2   2  755.91   13.16
  -4  -2  -3    3.21    0.59
  -4  -2  -3    4.24    0.87
  -4  -2  -3    3.43    1.10
  -4  -2  -3    4.11    1.29
   4   2   3    4.21    1.48
   4   2   3    5.63    1.41
   4   2   4  181.04    5.27
  -4  -2  -4  189.74    7.20
   4   2   4  187.16    7.28
   4   2   4  193.97    7.00
  -4  -2  -4  191.60    6.90
   4   2   5  497.80    9.59
   4   2   5  519.91   12.19
  -4  -2  -5  511.21   11.82
   4   2   5  509.37   11.62
  -4  -2  -5  523.08   11.71
   4   2   6 1242.83   19.08
  -4  -2  -6 1218.26   18.68
   4   2   6 1215.13   18.58
   4   2   7  526.23   12.67
   4   2   7  501.97   12.44
  -4  -2  -7  497.61   12.35
   4   2   8  345.34   10.55
  -4  -2  -8  365.35   10.94
   4   2   8  368.75   11.12
   4   2   9   38.12    3.77
  -4  -2  -9   39.87    3.89
   4   2   9   36.63    3.72
   4   2  10   67.59    4.96
  -4  -2 -10   65.15    5.11
   4   2  10   63.11    4.99
   4   2  11  420.61   12.75
  -4  -2 -11  457.17   13.76
   4   2  12  303.83   11.17
  -4  -2 -12  322.29   11.98
  -4  -2 -12  347.82   14.82
   4   2  13  437.83   13.85
  -4  -2 -13  451.20   14.65
  -4  -2 -13  463.67   17.84
   4   2  14  978.77   21.32
  -4  -2 -14 1037.12   23.00
  -4  -2 -14 1110.46   28.70
   4   2  15  164.13    9.08
  -4  -2 -15  188.20   12.33
   4   2  16   32.75    4.20
  -4  -2 -16   33.74    5.53
   4   2  17   10.39    2.63
  -4  -2 -17   23.29    4.75
   4   2  18   22.62    3.70
  -4  -2 -18   20.87    4.37
   4   2  19  123.77    8.61
  -4  -2 -19  125.07   11.40
  -4  -2 -20   94.79   10.18
  -4  -2 -21  180.18   14.32
   4   3 -17   95.81   10.71
   4   3 -16  162.27   10.92
   4   3 -15   50.98    6.01
   4   3 -14   52.55    5.99
   4   3 -13    6.69    2.24
   4   3 -12    8.70    2.27
  -4  -3  12    7.33    2.57
  -4  -3  11   97.89    7.62
   4   3 -11   84.06    6.66
   4   3 -10  127.08    7.83
  -4  -3  10  127.27    8.28
  -4  -3   9  440.88   14.58
   4   3  -9  426.85   13.66
  -4  -3   8  128.98    7.52
   4   3  -8  132.94    7.28
  -4  -3   7  221.96    9.32
   4   3  -7  228.31    9.09
  -4  -3   6  248.94    9.33
   4   3  -6  257.24    9.24
  -4  -3   5   93.50    5.46
   4   3  -5   88.07    5.17
  -4  -3   4   65.00    4.31
   4   3  -4   66.48    4.29
   4   3  -3  731.63   14.74
  -4  -3   3  735.91   13.74
   4   3  -3  717.20   13.46
   4   3  -2 1074.74   17.37
   4   3  -2 1078.85   16.06
  -4  -3   2 1099.68   16.11
   4   3  -1  681.15   13.44
  -4  -3   1  666.90   14.39
   4   3  -1  648.27    9.42
  -4  -3   1  665.79   12.32
   4   3   0  879.46   14.94
  -4  -3   0  894.89   16.45
   4   3   0  892.94    8.59
  -4  -3   0  887.05   14.13
  -4  -3  -1  618.99   13.48
  -4  -3  -1  609.00   12.30
   4   3   1  609.75   12.30
  -4  -3  -2  523.81    6.29
  -4  -3  -2  505.65   12.09
   4   3   2  514.52   12.31
  -4  -3  -2  511.65   11.24
   4   3   2  508.41   11.23
  -4  -3  -3   -0.01    0.86
  -4  -3  -3   -0.86    1.08
   4   3   3    0.78    0.50
   4   3   3    1.46    1.23
   4   3   3    1.40    0.84
   4   3   4  119.36    6.27
  -4  -3  -4  116.54    5.87
   4   3   4  117.47    3.91
   4   3   4  119.73    5.63
  -4  -3  -4  119.33    5.57
   4   3   5  396.63   11.13
   4   3   5  400.56   10.40
  -4  -3  -5  388.81   10.27
   4   3   6  698.41   15.11
  -4  -3  -6  691.88   14.06
   4   3   6  693.63   14.05
   4   3   7  561.35   13.94
  -4  -3  -7  563.13   13.12
   4   3   7  561.16   13.07
   4   3   8   42.14    3.96
  -4  -3  -8   44.55    3.90
   4   3   8   43.96    3.81
   4   3   9  328.54   11.28
   4   3   9  331.08   10.78
  -4  -3  -9  330.05   10.75
   4   3  10   39.64    4.08
  -4  -3 -10   44.70    4.15
   4   3  10   46.87    4.29
   4   3  11   31.92    3.71
  -4  -3 -11   37.59    4.01
  -4  -3 -12   65.00    5.37
  -4  -3 -13  150.83   10.10
  -4  -3 -13  149.45    8.36
  -4  -3 -14  100.91    8.62
  -4  -3 -14  100.09    7.14
  -4  -3 -15    5.61    2.61
  -4  -3 -15    3.93    1.48
  -4  -3 -16   11.61    3.62
  -4  -3 -17   28.13    5.31
   4   3  18    7.81    2.51
  -4  -3 -18    8.07    3.19
   4   3  19    4.22    2.17
  -4  -3 -19    0.90    2.22
  -4  -3 -20   -1.37    3.00
  -4  -3 -21   -0.36    2.55
  -4  -3 -22    4.83    3.81
   4   4 -17   44.88    6.36
   4   4 -16  120.92    9.85
   4   4 -15  122.72    9.70
   4   4 -14  140.76    9.99
   4   4 -13  198.52   11.44
   4   4 -12  123.72    8.76
   4   4 -11    1.66    1.72
  -4  -4  11    1.32    1.66
   4   4 -10  148.41    8.85
  -4  -4  10  170.17    9.95
  -4  -4   9  212.21   10.60
   4   4  -9  193.82    9.74
  -4  -4   8  711.87   18.48
   4   4  -8  674.71   17.36
  -4  -4   7  559.72   15.53
   4   4  -7  521.38   14.59
   4   4  -6  658.79   15.72
  -4  -4   6  674.40   16.28
  -4  -4   5  929.26   18.17
   4   4  -5  914.89   17.82
  -4  -4   4   31.68    3.48
  -4  -4   4   33.50    3.32
   4   4  -4   34.82    3.43
  -4  -4   3    1.59    0.96
  -4  -4   3   -0.22    0.98
   4   4  -3    1.42    1.16
  -4  -4   2  366.50   11.06
   4   4  -2  381.80   10.99
   4   4  -2  371.29   10.26
  -4  -4   2  372.83   10.24
  -4  -4   1 1412.61   21.27
   4   4  -1 1401.66   20.47
  -4  -4   1 1424.82   19.55
  -4  -4   0 1662.18   22.76
   4   4   0 1637.08   21.55
  -4  -4   0 1630.27   20.61
  -4  -4  -1 2618.13   28.53
   4   4   1 2646.00   28.51
  -4  -4  -1 2629.38   26.61
  -4  -4  -1 2642.41   26.24
   4   4   1 2667.08   26.93
  -4  -4  -2  686.24   14.71
   4   4   2  696.10   14.84
  -4  -4  -2  707.34   13.79
   4   4   2  711.88   13.86
   4   4   3  650.12    6.78
   4   4   3  664.63   14.66
  -4  -4  -3  670.94   13.39
  -4  -4  -3  657.26   14.45
   4   4   3  679.56   13.46
  -4  -4  -4   67.10    2.39
   4   4   4   68.76    4.86
  -4  -4  -4   64.73    4.22
   4   4   4   67.53    4.32
  -4  -4  -5   84.72    3.46
   4   4   5   94.64    5.81
  -4  -4  -5   88.03    5.02
   4   4   5   92.38    5.17
   4   4   6  807.94   17.23
  -4  -4  -6  854.37   15.83
   4   4   6  853.10   15.71
   4   4   7 1283.21   22.26
   4   4   7 1290.87   19.84
  -4  -4  -7 1308.03   20.11
   4   4   8 1485.83   24.62
   4   4   8 1521.13   22.16
  -4  -4  -8 1510.48   22.17
  -4  -4  -9  925.57   17.97
   4   4   9  958.55   18.11
   4   4  10  814.46   17.28
  -4  -4 -10  825.28   17.53
  -4  -4 -11  251.38   10.07
   4   4  11  255.99   10.05
  -4  -4 -12   14.11    2.70
  -4  -4 -13   83.65    6.32
  -4  -4 -14  139.21    8.29
  -4  -4 -14  141.48   10.21
  -4  -4 -15  333.06   16.14
  -4  -4 -15  334.72   13.28
  -4  -4 -16  403.09   18.46
  -4  -4 -17  422.33   19.50
  -4  -4 -18  132.10   11.34
  -4  -4 -19   85.40    9.52
  -4  -4 -20   43.42    7.11
  -4  -4 -20   44.50    7.23
  -4  -4 -21   19.46    4.68
  -4  -4 -22   32.61    6.59
   4   5 -17   23.75    5.02
   4   5 -16   38.38    5.98
   4   5 -15   46.94    6.17
   4   5 -14   40.70    5.72
   4   5 -13   54.45    6.28
   4   5 -12  230.69   12.40
   4   5 -11    7.01    2.19
   4   5 -10    0.06    1.85
  -4  -5  10    0.95    1.61
   4   5  -9   26.97    3.90
  -4  -5   9   29.79    4.25
  -4  -5   8   68.09    5.47
  -4  -5   8   70.05    6.12
   4   5  -8   55.09    5.34
  -4  -5   7   90.02    6.10
  -4  -5   7  112.83    7.42
   4   5  -7   96.77    6.70
  -4  -5   6  139.05    7.37
   4   5  -6  143.45    7.86
  -4  -5   6  153.05    8.25
  -4  -5   5   20.87    2.81
   4   5  -5   25.29    3.34
  -4  -5   5   26.36    3.38
  -4  -5   4  345.74   11.25
  -4  -5   4  357.88   11.57
   4   5  -4  362.21   11.51
  -4  -5   3    3.05    1.38
  -4  -5   3    1.02    1.17
   4   5  -3    1.08    1.04
  -4  -5   2  245.77    9.22
  -4  -5   2  246.06    8.95
   4   5  -2  230.75    8.79
  -4  -5   1  255.59    9.31
   4   5  -1  261.82    9.38
   4   5  -1  261.59    9.00
  -4  -5   1  256.97    8.98
   4   5   0   88.62    5.48
   4   5   0   82.34    5.17
  -4  -5   0   94.69    5.68
  -4  -5   0   91.89    5.36
  -4  -5  -1   39.92    3.70
   4   5   1   33.12    3.35
   4   5   1   39.36    3.75
   4   5   1   36.17    1.52
  -4  -5  -1   35.06    3.31
   4   5   2   65.53    4.80
  -4  -5  -2   58.47    4.52
  -4  -5  -2   59.98    4.28
   4   5   2   59.10    4.20
  -4  -5  -3  109.91    2.75
   4   5   3  126.85    6.76
  -4  -5  -3  113.49    5.76
   4   5   3  117.21    5.84
  -4  -5  -4    2.82    0.64
   4   5   4    1.90    1.24
  -4  -5  -4    3.60    1.22
   4   5   4    3.14    1.03
  -4  -5  -5    9.86    1.29
  -4  -5  -5   10.92    1.84
   4   5   5   11.93    2.39
   4   5   5   11.18    2.00
  -4  -5  -6   25.46    2.28
  -4  -5  -6   28.35    2.98
   4   5   6   22.56    3.09
   4   5   6   24.95    2.80
  -4  -5  -7   19.56    2.30
   4   5   7   18.80    3.04
  -4  -5  -7   15.91    2.32
   4   5   7   14.26    2.26
  -4  -5  -8    3.99    1.22
  -4  -5  -8    1.62    1.17
   4   5   8   -0.14    0.88
  -4  -5  -9    2.52    1.33
  -4  -5  -9    1.60    1.06
   4   5   9   -0.19    1.18
  -4  -5 -10    8.75    2.10
   4   5  10    8.46    1.91
  -4  -5 -10    9.21    2.07
   4   5  11   16.54    2.62
  -4  -5 -11   17.39    2.91
  -4  -5 -12   -1.03    1.52
   4   5  12    0.25    1.33
  -4  -5 -13    7.91    2.18
  -4  -5 -14   -1.57    1.65
  -4  -5 -14   -0.56    1.24
  -4  -5 -15   33.74    5.08
  -4  -5 -15   33.55    4.32
  -4  -5 -15   30.47    5.28
  -4  -5 -16   20.04    4.22
  -4  -5 -16   12.33    2.78
  -4  -5 -16   14.64    3.86
  -4  -5 -17    8.00    2.86
  -4  -5 -17   11.59    3.27
  -4  -5 -18   -0.87    2.37
  -4  -5 -18    3.43    2.68
  -4  -5 -19    1.75    2.07
  -4  -5 -19   -1.43    3.15
  -4  -5 -20    2.53    1.92
  -4  -5 -20    2.75    2.78
  -4  -5 -21    3.31    2.61
  -4  -5 -22  -11.31    4.30
   4   6 -17   31.53    5.65
   4   6 -16   -0.52    2.38
   4   6 -15   17.63    4.34
   4   6 -14   73.04    7.88
   4   6 -13  356.46   16.51
  -4  -6  12  213.92   10.10
   4   6 -12  221.95   12.77
  -4  -6  11  305.67   11.87
   4   6 -11  320.69   14.75
  -4  -6  10  266.83   10.92
   4   6 -10  276.53   13.20
  -4  -6   9  308.80   11.56
  -4  -6   9  348.65   14.80
   4   6  -9  306.00   13.43
  -4  -6   8   33.91    3.91
   4   6  -8   33.14    4.37
  -4  -6   8   32.53    4.39
  -4  -6   7  273.42   10.51
  -4  -6   7  301.60   12.68
   4   6  -7  268.47   11.73
  -4  -6   6  474.30   13.59
  -4  -6   6  530.13   16.08
   4   6  -6  521.32   15.68
  -4  -6   5  995.56   19.44
  -4  -6   5 1064.61   21.92
   4   6  -5 1045.06   21.46
  -4  -6   4 1220.27   21.24
  -4  -6   4 1248.48   22.88
   4   6  -4 1229.33   22.50
  -4  -6   3 1405.55   22.65
  -4  -6   3 1442.73   23.81
   4   6  -3 1420.21   23.47
  -4  -6   2 1281.36   21.57
  -4  -6   2 1308.53   21.99
   4   6  -2 1275.44   21.62
   4   6  -1    2.79    1.19
  -4  -6   1    7.06    1.83
  -4  -6   1    2.78    0.53
   4   6  -1    4.89    1.76
  -4  -6   1    2.28    1.24
   4   6  -1    0.65    1.09
  -4  -6   0   14.99    2.60
   4   6   0   12.19    2.14
   4   6   0   17.67    2.65
  -4  -6   0   14.66    2.38
   4   6   0   14.58    1.44
   4   6   1  999.02   19.06
   4   6   1  964.87   18.00
  -4  -6  -1  970.41   18.12
   4   6   1  955.99   10.11
   4   6   2  657.71   15.68
   4   6   2  679.92   14.69
   4   6   2  671.77    8.14
  -4  -6  -2  663.00   15.02
   4   6   3 2608.40   31.90
   4   6   3 2538.83   16.98
  -4  -6  -3 2636.59   17.16
  -4  -6  -3 2651.26   29.85
   4   6   3 2580.48   28.41
  -4  -6  -4 1623.20   14.81
  -4  -6  -4 1630.33   22.75
   4   6   4 1655.44   25.87
   4   6   4 1631.57   22.47
  -4  -6  -5 1636.13   16.67
  -4  -6  -5 1610.36   22.74
   4   6   5 1634.86   26.38
   4   6   5 1654.90   22.58
  -4  -6  -6  768.85   12.69
  -4  -6  -6  779.25   15.88
   4   6   6  793.70   18.89
   4   6   6  790.33   15.78
  -4  -6  -7  270.30    8.30
   4   6   7  262.10    9.21
  -4  -6  -7  265.68    9.39
  -4  -6  -8    0.97    1.00
  -4  -6  -8    1.01    0.98
   4   6   8    1.69    1.26
  -4  -6  -9  454.67   12.86
  -4  -6  -9  454.09   12.91
   4   6   9  472.32   12.84
  -4  -6 -10  569.32   15.48
  -4  -6 -10  559.93   14.65
   4   6  10  592.54   14.72
  -4  -6 -11  680.73   18.09
  -4  -6 -11  677.50   16.51
   4   6  11  686.94   16.29
  -4  -6 -12  851.39   21.47
  -4  -6 -12  831.01   18.87
   4   6  12  863.53   18.81
  -4  -6 -13  709.79   20.74
   4   6  13  729.43   18.03
  -4  -6 -13  693.39   17.68
  -4  -6 -14  405.69   16.56
  -4  -6 -14  412.83   14.06
  -4  -6 -15   10.36    3.39
  -4  -6 -15   12.24    2.80
  -4  -6 -16   22.01    4.49
  -4  -6 -16   25.88    3.76
  -4  -6 -16   18.50    3.77
  -4  -6 -17  118.73   10.60
  -4  -6 -17  131.09   10.96
  -4  -6 -18  258.31   16.03
  -4  -6 -18  256.83   15.82
  -4  -6 -19  297.06   17.79
  -4  -6 -19  269.03   16.77
  -4  -6 -20  177.17   14.35
  -4  -6 -20  170.53   13.70
  -4  -6 -21   86.63   10.10
   4   7 -17    4.36    2.99
   4   7 -16   -0.37    2.55
   4   7 -15   -5.50    3.85
   4   7 -14   -2.86    2.46
   4   7 -13    2.86    1.98
   4   7 -12    1.69    2.00
  -4  -7  11    0.31    1.17
   4   7 -11   -1.58    1.91
  -4  -7  10    4.61    2.03
   4   7 -10    3.75    1.50
  -4  -7   9    2.08    1.16
   4   7  -9    3.03    1.46
  -4  -7   8   46.31    4.34
   4   7  -8   39.65    4.95
  -4  -7   7   -0.55    1.36
   4   7  -7   -0.35    1.41
  -4  -7   7    0.02    1.12
  -4  -7   6    4.56    1.42
   4   7  -6    4.40    1.55
  -4  -7   6    7.48    1.89
  -4  -7   5  100.54    6.35
  -4  -7   5  105.71    7.32
   4   7  -5  100.61    7.10
  -4  -7   4   73.38    5.40
  -4  -7   4   78.13    6.14
   4   7  -4   73.91    5.93
  -4  -7   3  122.44    4.65
  -4  -7   3  120.03    6.79
  -4  -7   3  121.71    7.38
   4   7  -3  119.07    7.25
  -4  -7   2   66.34    2.90
   4   7  -2   65.04    4.98
  -4  -7   2   62.19    4.90
  -4  -7   2   68.81    5.43
   4   7  -2   68.64    5.49
   4   7  -1    3.88    1.53
  -4  -7   1   10.11    2.22
   4   7  -1    5.67    1.89
   4   7  -1    6.65    1.23
   4   7   0    2.02    1.28
   4   7   0   -0.93    1.82
  -4  -7   0    0.78    1.02
   4   7   0    0.83    0.54
   4   7   1   15.23    2.51
   4   7   1    9.77    1.98
  -4  -7  -1   10.25    2.15
   4   7   1   11.12    1.36
   4   7   2   76.47    5.66
   4   7   2   68.15    4.97
   4   7   2   68.27    3.20
  -4  -7  -2   69.43    5.17
   4   7   3  358.87   12.42
   4   7   3  358.66    7.45
  -4  -7  -3  361.23    7.57
  -4  -7  -3  371.88   11.93
   4   7   3  336.37   10.77
   4   7   4  347.29   12.48
   4   7   4  334.45    7.77
  -4  -7  -4  337.77    7.69
  -4  -7  -4  338.95   11.43
   4   7   4  338.26   10.65
  -4  -7  -5  400.05    9.02
   4   7   5  409.71   13.87
  -4  -7  -5  409.79   11.80
   4   7   5  400.66   11.53
  -4  -7  -6  278.86    8.16
  -4  -7  -6  286.52    9.95
   4   7   6  282.44    9.68
  -4  -7  -7  133.61    6.11
  -4  -7  -7  124.91    6.65
   4   7   7  126.95    6.57
  -4  -7  -8    2.12    1.17
  -4  -7  -8    0.44    1.02
   4   7   8    0.24    1.11
  -4  -7  -9   40.36    4.02
  -4  -7  -9   38.01    3.81
   4   7   9   38.21    3.76
  -4  -7 -10    4.93    1.70
  -4  -7 -10    3.90    1.62
   4   7  10    1.01    1.19
  -4  -7 -11    0.73    1.03
  -4  -7 -11    2.44    1.91
   4   7  11    2.60    1.28
  -4  -7 -12   71.72    6.39
  -4  -7 -12   66.09    5.41
   4   7  12   68.63    5.37
  -4  -7 -13  139.99    9.29
  -4  -7 -13  138.01    8.00
   4   7  13  143.20    7.89
  -4  -7 -14  220.19   12.28
  -4  -7 -14  226.01   10.49
  -4  -7 -15    1.27    2.12
  -4  -7 -15    0.28    1.54
  -4  -7 -16   20.69    4.32
  -4  -7 -17    4.91    3.33
  -4  -7 -17    2.32    2.01
  -4  -7 -18   14.75    4.29
  -4  -7 -18   25.31    5.57
  -4  -7 -19   24.44    5.12
  -4  -7 -19   34.06    6.22
  -4  -7 -20   49.38    7.81
  -4  -7 -20   59.50    8.15
  -4  -7 -21   57.77    8.38
   4   8 -17   85.60    9.82
   4   8 -16  173.85   13.53
   4   8 -15  171.59   13.11
   4   8 -14   93.14    9.47
   4   8 -13   -3.53    3.02
   4   8 -12   91.06    8.84
   4   8 -11  159.28   11.25
  -4  -8  10  853.72   18.94
   4   8 -10  932.99   26.26
  -4  -8   9  316.17   11.50
   4   8  -9  353.90   15.78
  -4  -8   8  595.14   15.66
   4   8  -8  644.87   20.53
  -4  -8   7  373.76   12.40
   4   8  -7  391.76   15.46
  -4  -8   6  119.32    7.00
  -4  -8   6  138.03    9.03
   4   8  -6  115.31    8.17
  -4  -8   5   34.23    3.17
  -4  -8   5   30.93    3.71
  -4  -8   5   39.79    4.78
   4   8  -5   26.84    3.84
  -4  -8   4  435.19    9.91
  -4  -8   4  470.64   15.61
   4   8  -4  437.72   14.90
  -4  -8   3  392.40    8.40
  -4  -8   3  441.37   14.74
   4   8  -3  429.96   14.39
   4   8  -2  773.30   17.49
  -4  -8   2  821.32   19.64
   4   8  -2  789.54   19.02
   4   8  -2  793.54   14.73
   4   8  -1  494.77   14.23
  -4  -8   1  477.78   14.65
   4   8  -1  465.54   14.50
   4   8  -1  498.48   11.00
   4   8   0  499.39   14.47
   4   8   0  497.30   14.46
  -4  -8   0  494.61   14.76
   4   8   0  493.31   10.32
   4   8   1  801.63   18.03
   4   8   1  818.26   18.77
  -4  -8  -1  808.79   18.80
   4   8   1  816.85   12.76
   4   8   2   67.44    2.28
   4   8   2   70.10    5.30
   4   8   2   69.04    5.62
  -4  -8  -2   73.29    5.65
   4   8   2   72.98    3.81
   4   8   3   24.44    3.10
   4   8   3   23.57    3.40
   4   8   3   22.10    2.18
  -4  -8  -3   23.74    2.22
  -4  -8  -3   23.84    3.44
   4   8   4   69.28    5.85
  -4  -8  -4   71.83    4.00
   4   8   4   73.50    4.05
  -4  -8  -4   80.97    5.93
   4   8   4   64.43    4.87
   4   8   5  289.17    8.55
  -4  -8  -5  300.99    8.54
  -4  -8  -5  304.78   11.55
   4   8   5  302.60   10.44
  -4  -8  -6 1804.17   22.19
   4   8   6 1816.84   25.32
  -4  -8  -7 1185.86   19.06
  -4  -8  -7 1158.02   20.78
   4   8   7 1175.17   20.37
  -4  -8  -8  838.52   17.09
  -4  -8  -8  823.44   17.73
   4   8   8  884.41   17.80
  -4  -8  -9  456.04   13.44
  -4  -8  -9  440.27   13.14
   4   8   9  467.62   13.12
  -4  -8 -10   -0.28    1.17
  -4  -8 -10    0.07    1.05
   4   8  10   -0.82    1.60
  -4  -8 -11    2.54    1.70
  -4  -8 -11    0.83    1.29
   4   8  11    1.57    1.20
  -4  -8 -12  195.83   10.54
  -4  -8 -12  189.29    9.04
   4   8  12  201.50    9.09
  -4  -8 -13  262.67   12.79
  -4  -8 -13  254.47   10.76
   4   8  13  285.40   11.11
  -4  -8 -14  225.93   12.51
  -4  -8 -14  243.06   10.74
  -4  -8 -15  279.36   14.55
  -4  -8 -15  260.86   11.46
  -4  -8 -16  131.05   10.53
  -4  -8 -17   35.66    6.10
  -4  -8 -17   33.29    5.74
  -4  -8 -18    7.56    3.17
  -4  -8 -18    5.63    3.36
  -4  -8 -19    2.68    2.40
  -4  -8 -19   -2.35    3.48
  -4  -8 -20   -3.82    3.24
  -4  -8 -21   39.28    7.15
   4   9 -16    3.90    3.13
   4   9 -15   26.59    5.63
   4   9 -14   28.81    5.56
   4   9 -13   30.56    5.97
   4   9 -12   -0.26    2.19
   4   9 -11   -2.26    2.28
   4   9 -10  125.81   10.09
  -4  -9   9  119.34    7.85
   4   9  -9  138.87   10.35
  -4  -9   8   41.37    4.41
   4   9  -8   42.36    5.51
  -4  -9   7  133.84    7.27
   4   9  -7  134.12    9.56
  -4  -9   6   38.28    3.60
   4   9  -6   36.57    5.01
  -4  -9   5   42.58    3.50
   4   9  -5   45.01    5.18
  -4  -9   4   66.07    3.99
  -4  -9   4   76.78    6.68
   4   9  -4   60.75    5.90
   4   9  -3   12.62    2.32
  -4  -9   3   17.67    3.20
   4   9  -3   16.18    3.05
   4   9  -3   14.92    2.33
   4   9  -2   50.83    4.77
  -4  -9   2   54.66    5.39
   4   9  -2   43.06    4.76
   4   9  -2   48.16    3.91
   4   9  -1  244.05   10.36
  -4  -9   1  244.92   11.12
   4   9  -1  224.57   10.56
   4   9  -1  242.92    8.32
   4   9   0  217.90    9.97
   4   9   0  222.23   10.10
  -4  -9   0  216.72   10.29
   4   9   0  210.97    7.45
   4   9   1  346.90   12.86
   4   9   1  325.94   11.98
  -4  -9  -1  343.88   12.89
   4   9   1  330.56    9.04
   4   9   2   86.68    6.13
   4   9   2   90.77    3.23
   4   9   2   91.13    6.80
  -4  -9  -2   93.68    6.69
   4   9   2   95.67    4.83
   4   9   3  196.68   10.13
   4   9   3  190.85    8.81
  -4  -9  -3  202.08    7.18
   4   9   3  189.15    6.87
  -4  -9  -3  191.34    9.55
   4   9   4   51.89    5.39
  -4  -9  -4   55.08    3.88
   4   9   4   52.69    3.74
  -4  -9  -4   60.42    5.38
   4   9   4   54.79    4.74
   4   9   5   32.35    3.61
  -4  -9  -5   30.19    3.02
   4   9   5   32.67    3.23
  -4  -9  -5   35.53    4.20
   4   9   6  153.42    7.12
  -4  -9  -6  163.00    7.16
  -4  -9  -6  158.10    8.78
   4   9   6  163.44    7.89
  -4  -9  -7   70.93    5.00
   4   9   7   68.18    5.08
  -4  -9  -8  248.60    9.72
   4   9   8  258.69    9.93
  -4  -9  -9  370.66   12.59
  -4  -9  -9  388.52   12.59
   4   9   9  422.87   12.73
  -4  -9 -10  167.11    8.91
  -4  -9 -10  156.47    8.13
   4   9  10  165.87    8.03
  -4  -9 -11  131.61    8.37
  -4  -9 -11  122.14    7.25
   4   9  11  142.57    7.62
  -4  -9 -12    5.72    2.06
  -4  -9 -12    7.57    2.11
   4   9  12    5.79    1.55
  -4  -9 -13   17.73    3.50
  -4  -9 -13   20.69    3.31
   4   9  13   23.30    3.22
  -4  -9 -14   14.32    3.43
  -4  -9 -14   13.72    2.95
   4   9  14   19.52    3.28
  -4  -9 -15   96.64    8.74
  -4  -9 -16  139.65   11.12
  -4  -9 -17  153.06   12.14
  -4  -9 -18  180.98   13.67
  -4  -9 -18  176.01   13.43
  -4  -9 -19   63.40    8.81
  -4  -9 -19   64.28    8.44
  -4  -9 -20    1.38    3.27
   4  10 -15   94.73   10.40
   4  10 -14  147.30   12.68
   4  10 -13  181.66   13.76
   4  10 -12   38.76    6.38
   4  10 -11   67.41    7.92
   4  10 -10    4.80    2.18
  -4 -10   9   11.53    2.76
   4  10  -9   11.07    3.31
  -4 -10   8   46.90    4.72
   4  10  -8   47.60    6.18
  -4 -10   7  261.00   10.17
   4  10  -7  257.68   13.80
  -4 -10   6  399.50   11.64
   4  10  -6  382.59   16.18
  -4 -10   5  580.57   13.10
   4  10  -5  562.40   19.04
   4  10  -4  386.67   13.13
   4  10  -4  386.79   15.45
   4  10  -4  369.45   12.50
   4  10  -3   30.50    3.82
   4  10  -3   30.50    4.30
   4  10  -3   33.70    3.63
   4  10  -2   34.90    4.13
   4  10  -2   29.25    4.13
   4  10  -2   37.46    3.78
   4  10  -1   88.14    6.56
  -4 -10   1  100.93    7.50
   4  10  -1   91.42    7.14
   4  10  -1   87.44    5.45
   4  10   0  192.12    9.79
   4  10   0  179.53    9.49
  -4 -10   0  176.02    9.76
   4  10   0  174.19    7.39
   4  10   1  836.63   11.00
   4  10   1  841.82   20.90
   4  10   1  813.52   19.78
  -4 -10  -1  846.54   21.11
   4  10   1  828.66   15.79
   4  10   2  118.86    4.24
   4  10   2   99.33    6.80
   4  10   2  121.37    8.15
  -4 -10  -2  117.99    7.87
   4  10   2  114.40    5.80
   4  10   3  725.19   20.07
   4  10   3  728.70   18.00
  -4 -10  -3  748.68   15.06
   4  10   3  726.13   14.79
  -4 -10  -3  756.74   19.79
   4  10   4  319.89    9.97
  -4 -10  -4  337.31   10.30
  -4 -10  -4  326.87   12.98
   4  10   4  328.33   11.85
   4  10   5   32.68    3.87
  -4 -10  -5   27.64    3.90
  -4 -10  -5   29.57    3.17
   4  10   5   30.99    3.27
   4  10   6    2.49    1.22
  -4 -10  -6    3.58    1.27
   4  10   6    2.73    1.28
  -4 -10  -6    0.68    1.29
  -4 -10  -7    1.04    0.89
  -4 -10  -7    0.52    1.33
   4  10   7    0.00    1.00
  -4 -10  -8  496.39   14.40
   4  10   8  482.81   13.95
  -4 -10  -9   64.06    5.49
   4  10   9   67.22    5.32
  -4 -10 -10  359.96   13.51
   4  10  10  372.99   12.31
  -4 -10 -11  138.30    8.83
   4  10  11  147.02    7.84
  -4 -10 -12  153.00    9.71
  -4 -10 -12  129.87    7.71
   4  10  12  144.65    7.83
  -4 -10 -13    2.69    1.58
  -4 -10 -13    0.97    1.38
   4  10  13    4.11    1.29
  -4 -10 -14   23.30    4.46
   4  10  14   23.53    3.18
  -4 -10 -15   13.61    3.70
  -4 -10 -16   38.80    6.02
  -4 -10 -17   69.12    8.31
  -4 -10 -18   32.97    6.06
  -4 -10 -18   31.78    6.46
  -4 -10 -19   20.84    5.07
  -4 -10 -19   34.30    6.41
   4  11 -14   24.86    5.30
   4  11 -13   20.05    4.99
   4  11 -12  139.70   12.09
   4  11 -11  101.30   10.03
   4  11 -10  114.73   10.44
  -4 -11   9   24.99    3.71
   4  11  -9   25.94    5.08
  -4 -11   8    0.49    1.42
   4  11  -8    0.04    2.44
  -4 -11   7   26.58    3.49
   4  11  -7   24.92    4.59
  -4 -11   6  188.71    8.16
   4  11  -6  187.91   11.80
   4  11  -5  393.33   16.58
   4  11  -5  378.90   13.86
   4  11  -4  585.18   16.80
   4  11  -4  538.89   18.98
   4  11  -4  559.41   16.11
   4  11  -3  448.61   14.85
   4  11  -3  458.50   17.14
   4  11  -3  449.47   13.94
   4  11  -2  262.15   11.55
   4  11  -2  242.48   12.28
   4  11  -2  254.97   10.19
   4  11  -1   87.53    6.82
   4  11  -1   88.88    7.30
   4  11  -1   95.70    6.09
   4  11   0   29.01    3.24
   4  11   0   39.38    4.77
   4  11   0   26.08    3.63
   4  11   1    6.25    1.63
   4  11   1    8.93    2.59
   4  11   1    5.32    1.09
   4  11   1    6.35    1.82
   4  11   2  328.50   10.70
   4  11   2  341.09    7.98
   4  11   2  338.38   14.03
   4  11   2  326.42   12.77
  -4 -11  -3  396.67   11.92
   4  11   3  368.25   11.40
   4  11   3  397.91   13.87
   4  11   3  399.99   15.57
   4  11   4  695.73   15.82
  -4 -11  -4  736.34   16.40
   4  11   4  729.81   18.37
  -4 -11  -5  541.53   14.37
   4  11   5  532.55   14.29
   4  11   5  563.15   15.91
  -4 -11  -6  262.80   10.23
   4  11   6  273.73   10.66
   4  11   6  277.17   11.08
   4  11   7  123.02    7.50
  -4 -11  -7  120.35    7.23
   4  11   7  127.09    7.60
  -4 -11  -8  193.91    9.49
   4  11   8  186.99    8.94
  -4 -11  -9    1.05    1.49
   4  11   9    4.46    1.92
  -4 -11 -10  511.82   16.62
   4  11  10  518.17   14.82
  -4 -11 -11  530.31   17.73
   4  11  11  544.45   15.21
  -4 -11 -12  266.76   13.16
   4  11  12  295.16   11.29
  -4 -11 -13  431.72   17.47
   4  11  13  450.43   14.09
  -4 -11 -14  122.67    9.83
   4  11  14  120.73    7.37
  -4 -11 -15   28.83    5.15
  -4 -11 -16    7.08    2.76
  -4 -11 -17   64.96    8.20
  -4 -11 -18  120.21   11.29
   4  12 -13    3.98    3.16
   4  12 -12   68.78    9.78
   4  12 -11  109.70   10.83
   4  12 -10  167.41   12.95
   4  12  -9   58.39    7.80
  -4 -12   8   91.15    6.63
   4  12  -8  104.63    9.76
   4  12  -7    2.65    1.90
   4  12  -6   15.62    3.73
   4  12  -5  143.46   10.59
   4  12  -5  129.99    8.48
   4  12  -4   58.03    5.63
   4  12  -4   53.77    6.30
   4  12  -4   52.34    5.34
   4  12  -3  111.48    7.80
   4  12  -3  109.65    8.81
   4  12  -3  103.71    7.12
   4  12  -2  126.08    8.37
   4  12  -2  132.89    9.52
   4  12  -2  120.93    7.42
   4  12  -1  145.88    9.16
   4  12  -1  140.34    9.60
   4  12  -1  146.09    8.03
   4  12   0    5.43    1.69
   4  12   0    2.97    1.47
   4  12   0    4.80    1.92
   4  12   1   -1.64    1.38
   4  12   1   -0.26    1.40
   4  12   1    0.61    1.30
   4  12   1   -0.79    0.97
   4  12   2  234.82    9.76
   4  12   2  231.80    7.22
   4  12   2  230.18   11.18
   4  12   2  245.75   12.46
  -4 -12  -3  110.43    6.80
   4  12   3  103.36    6.52
   4  12   3  104.27    8.43
   4  12   3   87.88    6.77
   4  12   4   11.55    2.33
  -4 -12  -4   13.27    2.54
   4  12   4   13.10    2.81
  -4 -12  -5    2.00    1.37
   4  12   5    0.92    1.26
   4  12   5    1.45    1.38
  -4 -12  -6   58.01    5.18
   4  12   6   53.43    5.06
   4  12   6   55.45    5.16
   4  12   7   40.98    4.61
  -4 -12  -7   41.50    4.50
   4  12   7   36.82    4.20
  -4 -12  -8   18.57    3.26
   4  12   8   22.22    3.38
  -4 -12  -9   93.65    7.18
   4  12   9  111.11    7.12
  -4 -12 -10   63.82    6.18
   4  12  10   67.98    5.57
  -4 -12 -11    2.32    2.03
   4  12  11    2.24    1.36
  -4 -12 -12    1.01    1.48
   4  12  12    0.07    1.43
  -4 -12 -13    5.24    2.47
   4  12  13   11.00    2.33
  -4 -12 -14    7.78    3.13
  -4 -12 -15   -0.63    2.04
  -4 -12 -16    5.17    3.07
  -4 -12 -17    4.93    3.02
   4  13 -11   69.64    9.06
   4  13 -10   96.82   10.21
   4  13  -9  238.70   15.52
   4  13  -8  185.97   13.46
   4  13  -7  161.17   12.21
   4  13  -6  126.21   10.51
   4  13  -5   19.16    3.34
   4  13  -5   12.29    3.74
   4  13  -4    5.15    2.03
   4  13  -4   -2.72    3.23
   4  13  -4    0.04    1.72
   4  13  -3  465.43   16.40
   4  13  -3  490.72   19.22
   4  13  -3  459.91   15.64
   4  13  -2  382.18   15.14
   4  13  -2  377.56   16.55
   4  13  -2  393.31   14.12
   4  13  -1  606.45   19.29
   4  13  -1  618.47   20.80
   4  13  -1  596.00   17.03
   4  13   0  551.35   16.14
   4  13   0  587.94   19.31
   4  13   0  567.87   18.94
   4  13   1  355.43   12.76
   4  13   1  387.09   16.02
   4  13   1  398.93   10.07
   4  13   1  357.33   14.72
   4  13   2  450.54   14.39
   4  13   2  455.15   17.69
   4  13   2  464.45   10.99
   4  13   2  432.81   15.94
   4  13   3    0.43    1.15
   4  13   3    1.42    0.99
   4  13   3    0.89    1.68
   4  13   4    9.46    2.20
  -4 -13  -4   14.33    2.78
   4  13   4   12.66    2.94
   4  13   5  606.50   17.12
  -4 -13  -5  624.91   17.33
   4  13   5  627.99   18.17
  -4 -13  -6  635.85   17.99
   4  13   6  639.22   18.04
   4  13   6  654.43   18.33
  -4 -13  -7  297.78   12.52
   4  13   7  300.99   12.80
   4  13   7  295.46   12.15
  -4 -13  -8  808.45   21.21
   4  13   8  809.32   19.84
  -4 -13  -9  269.14   12.67
   4  13   9  285.82   11.72
  -4 -13 -10   88.82    7.59
   4  13  10  112.88    7.34
  -4 -13 -11   12.15    3.04
   4  13  11   10.55    2.47
  -4 -13 -12   42.66    5.73
   4  13  12   39.02    4.36
  -4 -13 -13  253.67   14.15
  -4 -13 -14  257.58   14.94
  -4 -13 -15  204.89   13.82
  -4 -13 -16  208.57   14.44
  -4 -13 -17   75.76    9.10
   4  14 -10    6.75    3.26
   4  14  -9   15.11    4.47
   4  14  -8   17.22    4.46
   4  14  -7   -1.68    2.50
   4  14  -6   13.99    3.81
   4  14  -5   -0.80    1.69
   4  14  -5   -2.44    2.34
   4  14  -4    1.10    1.75
   4  14  -4   -1.30    2.24
   4  14  -3    3.23    1.78
   4  14  -3    1.06    2.15
   4  14  -2   -1.50    1.92
   4  14  -2   -0.30    1.74
   4  14  -2   -0.18    1.69
   4  14  -1    0.99    1.06
   4  14  -1    4.20    2.21
   4  14   0    2.63    1.85
   4  14   0    1.45    1.45
   4  14   0    2.95    2.35
   4  14   1    2.30    1.67
   4  14   1   -0.78    1.86
   4  14   1    0.48    0.79
   4  14   1   -0.30    1.52
   4  14   2   53.34    5.24
   4  14   2   49.72    6.10
   4  14   2   54.02    4.07
   4  14   2   52.14    5.94
   4  14   3   45.71    4.93
   4  14   3   43.99    5.97
   4  14   3   51.96    4.06
   4  14   3   46.91    5.46
   4  14   4   -1.55    1.94
  -4 -14  -4    0.43    1.17
   4  14   4    0.18    1.34
  -4 -14  -5   -0.53    1.33
   4  14   5   -0.69    1.01
   4  14   5    1.96    1.50
  -4 -14  -6    2.91    1.59
   4  14   6    0.65    1.52
  -4 -14  -7   12.38    2.80
   4  14   7   11.66    2.62
  -4 -14  -8   10.08    2.89
   4  14   8    7.22    2.24
  -4 -14  -9   29.79    4.54
   4  14   9   29.35    3.90
  -4 -14 -10    0.84    1.55
   4  14  10    4.83    2.24
  -4 -14 -11   20.33    4.00
   4  14  11   21.33    3.42
  -4 -14 -12    1.24    1.93
  -4 -14 -13    4.55    2.79
  -4 -14 -14    7.42    2.99
  -4 -14 -15   19.67    4.71
  -4 -14 -16    3.58    1.97
   4  15  -8   99.39   10.53
   4  15  -7  249.99   16.25
   4  15  -6  396.64   19.90
   4  15  -5  479.60   17.27
   4  15  -5  480.32   21.60
   4  15  -4  232.92   12.32
   4  15  -4  228.69   14.54
   4  15  -3  137.88    9.76
   4  15  -3  134.73   10.99
   4  15  -2   -0.95    2.26
   4  15  -2    0.53    2.23
   4  15  -1   25.37    4.54
   4  15  -1   26.53    4.52
   4  15   0  168.20   11.16
   4  15   0  158.34   10.99
   4  15   1  218.84   12.51
   4  15   1  223.63   13.12
   4  15   1  221.75    8.55
   4  15   2  668.25   14.91
   4  15   2  641.17   20.89
   4  15   2  651.68   22.88
   4  15   3  489.30   17.85
   4  15   3  506.85   13.19
   4  15   3  481.06   19.99
   4  15   4  215.41    8.86
   4  15   4  221.16   11.79
   4  15   4  229.20   14.18
  -4 -15  -5  105.39    8.02
   4  15   5   98.99    7.81
  -4 -15  -6    6.77    2.32
   4  15   6    8.08    2.61
  -4 -15  -7   27.37    4.50
   4  15   7   29.68    4.22
  -4 -15  -8  208.12   11.89
   4  15   8  198.56   10.45
  -4 -15  -9  200.20   11.84
   4  15   9  214.65   10.69
  -4 -15 -10  247.19   13.55
   4  15  10  254.31   11.44
  -4 -15 -11  215.46   13.08
  -4 -15 -12   93.06    8.95
  -4 -15 -13   35.46    6.00
  -4 -15 -14    3.44    3.11
  -4 -15 -15   28.43    5.77
   4  16  -6   32.46    6.06
   4  16  -5   10.57    2.64
   4  16  -5   10.26    3.40
   4  16  -4   58.06    6.63
   4  16  -4   48.86    7.06
   4  16  -3    3.35    2.33
   4  16  -3    1.80    1.72
   4  16  -2   18.92    4.19
   4  16  -1    3.25    2.22
   4  16  -1    2.07    2.28
   4  16   0    8.96    3.27
   4  16   0    8.72    2.80
   4  16   1   13.41    3.46
   4  16   1   15.50    3.70
   4  16   2    9.97    3.65
   4  16   2    8.35    3.18
   4  16   3   53.47    6.96
   4  16   3   59.27    6.61
   4  16   4   85.03    9.22
   4  16   4   80.81    7.43
  -4 -16  -5   80.84    7.45
   4  16   5   69.89    6.85
  -4 -16  -6   29.43    4.68
   4  16   6   19.59    3.80
  -4 -16  -7    2.73    2.10
   4  16   7    4.87    1.34
  -4 -16  -8    0.48    1.88
   4  16   8    1.44    1.62
  -4 -16  -9    7.00    2.79
  -4 -16 -10   56.95    6.92
  -4 -16 -11   29.73    5.21
  -4 -16 -12   60.32    7.49
  -4 -16 -13   53.56    7.47
  -4 -16 -14   28.65    6.08
   4  17  -4  115.37    9.33
   4  17  -4   96.56   10.24
   4  17  -3  236.41   13.62
   4  17  -2  232.68   13.71
   4  17  -2  239.90   14.96
   4  17  -1  193.92   13.22
   4  17  -1  190.55   12.70
   4  17   0   64.56    7.72
   4  17   0   72.77    8.17
   4  17   1   -0.29    1.98
   4  17   1   -0.88    2.02
   4  17   2    1.21    2.32
   4  17   2   11.90    3.49
   4  17   3   32.11    5.14
   4  17   3   33.28    5.76
   4  17   4   52.79    7.57
   4  17   4   54.34    6.54
   4  17   5  166.74   13.31
   4  17   5  184.98   11.40
  -4 -17  -6  181.13   11.70
   4  17   6  162.79   10.54
  -4 -17  -7  176.11   11.65
   4  17   7  151.06    9.99
  -4 -17  -8   59.07    7.18
  -4 -17  -9   -0.42    2.44
  -4 -17 -10    5.28    3.30
  -4 -17 -11   57.02    7.39
  -4 -17 -12   90.25    9.62
   4  18  -2   44.19    6.38
   4  18  -2   47.52    6.98
   4  18  -1  104.51    9.80
   4  18  -1   87.06    9.12
   4  18   0  124.05   10.81
   4  18   0  111.09    9.99
   4  18   1   75.96    8.23
   4  18   1   93.97    9.56
   4  18   2   50.19    7.17
   4  18   2   42.36    6.27
   4  18   3    5.22    2.33
   4  18   3   -1.72    2.54
   4  18   4   10.21    3.60
   4  18   4   12.29    3.41
   4  18   5   35.43    5.26
   4  18   5   43.44    7.10
  -4 -18  -7  185.54   12.38
  -4 -18  -8  184.39   12.79
   4  19  -1   43.82    6.61
   4  19   0   86.72    9.33
   4  19   0   83.41    9.25
   4  19   1   82.39    9.39
   4  19   1   58.61    7.62
   4  19   2   44.63    6.62
   4  19   2   49.76    7.49
   4  19   3   27.60    5.17
   4  19   4   -0.97    2.90
  -5  16  -6   88.96    9.06
  -5  16  -7   25.45    5.38
  -5  16  -8   15.75    4.25
  -5  15  -1    3.83    2.28
  -5  15  -2    0.63    1.98
  -5  15  -3    3.93    3.08
  -5  15  -4    7.97    3.15
  -5  15  -4    7.35    2.76
  -5  15  -5   17.42    4.58
  -5  15  -5   11.95    3.83
  -5  15  -6   68.85    7.84
  -5  15  -7    2.72    2.48
  -5  15  -8   43.41    6.86
  -5  15  -9   14.79    4.13
   5 -14  -1  227.99   15.64
   5 -14   0  352.90   19.24
  -5  14  -1  308.63   16.90
   5 -14   1  302.74   17.91
  -5  14  -2  120.14   10.70
  -5  14  -2  114.26    8.39
  -5  14  -3   14.65    3.62
  -5  14  -3   20.19    4.02
  -5  14  -4   -1.21    3.28
  -5  14  -4   -0.97    1.68
  -5  14  -5   59.45    7.47
  -5  14  -5   57.99    6.94
  -5  14  -6  162.10   12.44
  -5  14  -6  158.80   11.49
  -5  14  -7  182.75   13.37
  -5  14  -7  153.88   11.68
  -5  14  -8  200.55   14.00
  -5  14  -8  186.33   13.18
  -5  14  -9  122.50   11.28
  -5  14 -10  148.75   12.68
  -5  14 -11   12.44    4.12
   5 -13  -4   16.04    4.42
   5 -13  -3    2.61    2.68
   5 -13  -2   -1.34    2.32
   5 -13  -1    1.08    2.94
   5 -13   0    1.64    2.04
  -5  13  -1    6.68    2.22
   5 -13   1    4.89    3.01
  -5  13  -2   13.52    3.64
  -5  13  -2    9.22    2.55
  -5  13  -3    0.95    1.89
  -5  13  -3    0.64    1.31
  -5  13  -4    9.17    3.07
  -5  13  -4    4.25    1.86
  -5  13  -5   -0.36    1.92
  -5  13  -5    0.23    1.60
  -5  13  -6   -0.51    2.69
  -5  13  -6   -0.70    2.44
  -5  13  -7    2.34    2.31
  -5  13  -7   -0.15    2.20
  -5  13  -8   -0.23    2.42
  -5  13  -8   -2.32    3.14
  -5  13  -9    1.51    2.56
  -5  13 -10    1.42    2.42
  -5  13 -11    2.83    2.67
  -5  13 -12   -4.74    3.21
   5 -12  -6  220.67   15.19
   5 -12  -5  539.02   23.29
   5 -12  -4  220.88   14.76
   5 -12  -3  356.30   18.44
   5 -12  -2   66.83    7.92
   5 -12  -1    4.61    2.32
  -5  12   0   63.74    5.27
   5 -12   0   50.71    6.86
  -5  12  -1   67.22    5.62
   5 -12   1   69.34    7.96
  -5  12  -2  325.97   16.04
  -5  12  -2  317.68   12.78
   5 -12   2  344.20   17.66
  -5  12  -3  424.44   18.20
  -5  12  -3  422.20   15.38
  -5  12  -4  408.23   17.89
  -5  12  -4  387.54   15.30
  -5  12  -5  142.16   10.59
  -5  12  -5  132.93    9.43
  -5  12  -6   62.96    7.31
  -5  12  -6   44.53    5.80
  -5  12  -7    6.52    2.78
  -5  12  -7    7.86    2.75
  -5  12  -8   75.60    8.18
  -5  12  -8   63.18    7.36
  -5  12  -9  152.83   11.82
  -5  12 -10  219.55   14.82
  -5  12 -11  332.31   18.46
  -5  12 -12  145.27   12.72
  -5  12 -13  104.36   11.06
   5 -11  -8    3.32    2.26
   5 -11  -7   -2.89    1.96
   5 -11  -6    0.97    2.20
   5 -11  -5   35.45    6.02
   5 -11  -4    5.23    2.70
   5 -11  -3    3.42    2.25
   5 -11  -2   36.69    5.99
   5 -11  -1    5.18    2.68
   5 -11   0    0.22    1.90
  -5  11   0    0.69    1.02
  -5  11   0    1.15    1.48
   5 -11   1    6.90    2.61
  -5  11  -1    8.54    2.17
  -5  11  -1    6.61    2.08
   5 -11   1   11.64    3.36
   5 -11   2    1.29    1.78
  -5  11  -2   -1.32    1.67
  -5  11  -2    0.87    1.51
   5 -11   2    4.04    2.51
  -5  11  -3    4.32    2.11
  -5  11  -3    6.27    2.16
  -5  11  -3    3.26    1.23
   5 -11   3    4.17    1.72
  -5  11  -4    5.93    2.51
  -5  11  -4   10.54    2.71
   5 -11   4    8.21    2.82
  -5  11  -5  112.83    9.22
  -5  11  -5   94.62    7.65
  -5  11  -6   17.45    3.86
  -5  11  -6   13.31    3.25
  -5  11  -7   12.37    3.22
  -5  11  -7   11.31    3.16
  -5  11  -8   99.04    8.87
  -5  11  -8   87.55    8.33
  -5  11  -9   13.82    3.74
  -5  11 -10   15.14    3.65
  -5  11 -11   46.47    6.83
  -5  11 -12  106.69   10.78
  -5  11 -13   60.63    8.55
  -5  11 -14   39.94    7.07
   5 -10  -9  190.19   14.17
   5 -10  -8  152.68   12.39
   5 -10  -7   93.05    9.58
   5 -10  -6    5.85    2.85
   5 -10  -5    3.20    2.11
   5 -10  -4  110.50    9.63
   5 -10  -3  327.01   16.37
   5 -10  -2  351.67   16.74
   5 -10  -2  312.09    9.58
  -5  10   2  328.96    8.76
   5 -10  -1  543.33   20.35
  -5  10   1  552.19   12.44
  -5  10   1  563.68   12.95
   5 -10  -1  538.41   14.29
   5 -10   0  414.81   17.60
  -5  10   0  421.07   11.81
  -5  10   0  406.32   11.98
   5 -10   0  414.05   13.68
   5 -10   1  106.82    8.94
  -5  10  -1  118.37    6.76
   5 -10   1  105.92    7.46
  -5  10  -1  118.06    6.99
   5 -10   2    5.40    2.29
  -5  10  -2    8.80    2.06
   5 -10   2    6.41    2.21
  -5  10  -2   10.38    2.35
  -5  10  -3   -4.65    1.79
  -5  10  -3   -1.01    1.95
   5 -10   3    0.81    1.64
  -5  10  -4   83.05    7.54
  -5  10  -4   81.32    6.60
   5 -10   4   93.47    8.15
  -5  10  -4   85.68    6.81
  -5  10  -5  437.34   17.22
  -5  10  -5  449.06   16.11
   5 -10   5  445.04   18.32
  -5  10  -6  486.63   18.31
  -5  10  -6  450.43   16.86
  -5  10  -7  327.35   15.30
  -5  10  -7  350.76   15.65
  -5  10  -8  103.29    8.88
  -5  10  -8  105.40    8.97
  -5  10  -9   73.06    7.94
  -5  10 -10    5.25    1.97
  -5  10 -11    0.05    2.04
  -5  10 -12   29.02    5.87
  -5  10 -13  220.97   15.46
  -5  10 -14  136.75   12.61
  -5  10 -15  147.40   13.32
   5  -9 -10   90.08    9.93
   5  -9  -9   26.29    5.35
   5  -9  -8   35.71    5.73
   5  -9  -7  131.21   10.95
   5  -9  -6  109.98    9.89
   5  -9  -5   62.74    7.42
   5  -9  -4    8.88    3.37
   5  -9  -3   10.20    3.03
  -5   9   3   14.96    1.46
   5  -9  -2   31.79    4.98
  -5   9   2   33.65    2.71
   5  -9  -2   32.91    2.81
   5  -9  -1  103.34    8.67
  -5   9   1  104.45    5.02
  -5   9   1  101.17    5.28
   5  -9  -1   98.03    5.64
   5  -9   0  443.23   17.41
  -5   9   0  434.73   11.30
   5  -9   0  450.67   13.36
  -5   9   0  429.24   11.82
   5  -9   1  368.57   15.82
  -5   9  -1  410.02   11.88
   5  -9   1  368.72   13.08
  -5   9  -1  389.19   12.08
   5  -9   2  266.95   13.45
  -5   9  -2  260.12   10.15
  -5   9  -2  266.43   10.53
   5  -9   2  260.51   11.70
  -5   9  -3   13.25    3.17
   5  -9   3    8.43    2.54
  -5   9  -3    8.30    2.13
   5  -9   3    7.93    2.00
  -5   9  -3   11.85    2.56
  -5   9  -4   86.59    7.40
  -5   9  -4   91.22    6.74
  -5   9  -4   89.85    6.76
   5  -9   4   86.31    7.50
  -5   9  -5   39.22    5.19
  -5   9  -5   38.73    4.60
  -5   9  -5   43.60    4.92
   5  -9   5   38.02    5.31
  -5   9  -6  119.06    8.81
  -5   9  -6  119.32    8.49
   5  -9   6  112.79    9.29
  -5   9  -7  254.35   13.03
  -5   9  -7  249.19   12.87
  -5   9  -8  260.26   13.30
  -5   9  -8  259.14   13.71
  -5   9  -9  269.29   14.49
  -5   9 -10  176.14   12.27
  -5   9 -11   43.93    6.46
  -5   9 -12   16.69    4.77
  -5   9 -13   19.74    4.97
  -5   9 -14   50.66    7.73
  -5   9 -15  185.40   14.53
  -5   9 -16  121.91   12.05
   5  -8 -11   15.99    4.38
   5  -8 -10    2.75    3.03
   5  -8  -9   54.35    7.34
   5  -8  -8  166.16   12.33
   5  -8  -7  252.93   14.55
   5  -8  -6  228.19   13.52
   5  -8  -5  270.61   14.28
   5  -8  -4   41.04    5.46
   5  -8  -3   56.48    6.35
  -5   8   3   57.60    2.77
   5  -8  -2    9.48    2.52
  -5   8   2   12.42    1.61
   5  -8  -1  108.95    8.45
  -5   8   1  106.83    4.66
   5  -8  -1  105.53    5.25
  -5   8   1  104.75    5.19
   5  -8   0  148.08    9.70
  -5   8   0  150.69    6.24
  -5   8   0  161.01    6.93
   5  -8   0  142.11    6.97
   5  -8   1  149.40    9.64
  -5   8  -1  145.30    6.66
  -5   8  -1  143.73    7.05
   5  -8   1  144.56    7.69
   5  -8   2  589.49   19.05
  -5   8  -2  607.52   14.71
  -5   8  -2  598.71   15.18
   5  -8   2  614.63   16.90
  -5   8  -3  108.31    7.83
   5  -8   3  114.53    8.49
  -5   8  -3  108.64    6.68
  -5   8  -3  116.67    7.05
   5  -8   3  109.23    7.65
  -5   8  -4  202.79   10.76
  -5   8  -4  192.01    9.42
  -5   8  -4  215.42   10.02
   5  -8   4  187.72   10.61
  -5   8  -5   33.55    4.54
  -5   8  -5   30.61    4.08
  -5   8  -5   29.00    3.89
   5  -8   5   35.14    4.90
  -5   8  -6   -0.26    1.68
  -5   8  -6   -1.04    1.63
  -5   8  -6    0.72    1.47
   5  -8   6    0.85    1.79
  -5   8  -7   30.15    4.47
  -5   8  -7   36.55    4.90
   5  -8   7   28.83    4.71
  -5   8  -8   66.21    6.57
  -5   8  -8   62.69    6.55
  -5   8  -9  106.16    8.89
  -5   8 -10   67.48    3.85
  -5   8 -10   64.23    7.21
  -5   8 -11   72.39    2.90
  -5   8 -11   70.82    7.97
  -5   8 -12    8.43    3.26
  -5   8 -13    4.43    2.66
  -5   8 -14    2.44    2.31
  -5   8 -15    9.82    3.60
  -5   8 -16   44.43    7.29
  -5   8 -17   35.35    6.74
   5  -7 -12  108.59   10.97
   5  -7 -11   62.12    8.05
   5  -7 -10   63.11    7.97
   5  -7  -9   94.02    9.23
   5  -7  -8    5.78    3.17
   5  -7  -7  242.30   13.79
   5  -7  -6  397.63   17.07
   5  -7  -5  177.84   11.12
   5  -7  -4  594.03   19.64
   5  -7  -3  425.20   16.35
  -5   7   3  419.65    7.36
   5  -7  -2  224.35   11.72
  -5   7   2  218.15    6.39
   5  -7  -1   27.22    4.18
  -5   7   1   25.35    2.08
  -5   7   1   23.36    2.42
   5  -7   0   36.23    4.63
  -5   7   0   46.81    3.26
  -5   7   0   43.21    3.45
  -5   7  -1  356.82   14.19
   5  -7   1  349.25   14.03
  -5   7  -1  349.67    9.83
  -5   7  -1  345.61   10.40
   5  -7   1  340.42   10.87
   5  -7   2  693.12   19.55
  -5   7  -2  764.12   20.77
  -5   7  -2  725.44   15.39
  -5   7  -2  716.70   15.86
   5  -7   2  731.96   17.33
   5  -7   3  624.48   18.73
  -5   7  -3  657.72   19.35
  -5   7  -3  633.46   15.55
  -5   7  -3  611.83   15.59
   5  -7   3  618.91   17.00
  -5   7  -4  713.11   19.30
  -5   7  -4  699.74   19.93
  -5   7  -4  697.74   17.43
  -5   7  -4  692.83   17.35
   5  -7   4  688.69   19.19
  -5   7  -5  469.93   15.73
  -5   7  -5  438.80   14.71
  -5   7  -5  459.88   14.77
   5  -7   5  433.12   16.00
  -5   7  -6  122.50    8.18
  -5   7  -6  135.99    8.73
  -5   7  -6  129.93    8.18
   5  -7   6  115.50    8.66
  -5   7  -7   17.65    3.39
  -5   7  -7   16.24    3.38
  -5   7  -7   16.78    3.30
   5  -7   7   15.68    3.41
  -5   7  -8   14.26    2.97
  -5   7  -8   15.57    3.52
   5  -7   8   15.01    3.99
  -5   7  -9  234.89   13.04
  -5   7 -10  286.56    7.60
  -5   7 -10  293.31   15.10
  -5   7 -11  314.00    6.09
  -5   7 -11  296.11   15.69
  -5   7 -12  498.77   20.95
  -5   7 -13  333.02   17.71
  -5   7 -14  160.86   12.74
  -5   7 -15    1.92    2.25
  -5   7 -16    4.41    2.47
  -5   7 -17  237.82   16.79
   5  -6 -13   22.20    5.12
   5  -6 -12   67.50    8.47
   5  -6 -11  141.72   12.00
   5  -6 -10  196.22   13.47
   5  -6  -9   28.36    5.09
   5  -6  -8   10.53    2.92
   5  -6  -7    0.72    1.38
   5  -6  -6   42.42    5.50
   5  -6  -5   16.39    3.25
   5  -6  -4  121.72    8.56
   5  -6  -3   45.11    5.24
  -5   6   3   46.19    2.49
  -5   6   2   32.41    4.27
   5  -6  -2   32.32    4.37
  -5   6   2   29.25    2.33
   5  -6  -1   70.80    6.15
  -5   6   1   76.46    6.51
  -5   6   1   72.95    3.12
  -5   6   1   72.59    4.00
   5  -6   0    7.02    2.12
  -5   6   0    4.23    1.56
  -5   6   0    6.75    1.20
  -5   6   0    6.35    1.43
   5  -6   1   31.04    4.05
  -5   6  -1   32.53    4.09
  -5   6  -1   31.10    2.76
  -5   6  -1   35.05    3.23
   5  -6   2    0.76    1.26
  -5   6  -2   -0.52    1.25
  -5   6  -2   -0.63    1.11
  -5   6  -2   -0.32    0.90
  -5   6  -3    2.17    1.30
   5  -6   3    0.57    1.20
  -5   6  -3    1.50    1.23
  -5   6  -3    2.73    1.32
   5  -6   3    0.99    1.21
  -5   6  -4   29.65    3.86
  -5   6  -4   32.76    4.29
  -5   6  -4   28.45    3.48
  -5   6  -4   27.10    3.25
   5  -6   4   26.81    3.67
  -5   6  -5    1.51    1.46
  -5   6  -5    2.04    1.44
  -5   6  -5    1.04    1.36
  -5   6  -5    2.63    1.29
   5  -6   5    4.97    2.04
  -5   6  -6    3.69    1.72
  -5   6  -6    3.99    1.63
  -5   6  -6    5.34    2.02
   5  -6   6    3.21    1.58
  -5   6  -6    1.40    1.24
  -5   6  -7   36.94    4.45
  -5   6  -7   42.32    4.94
  -5   6  -7   40.17    4.96
  -5   6  -7   41.00    4.63
   5  -6   7   48.21    5.60
  -5   6  -8   16.05    3.12
  -5   6  -8   17.01    3.49
  -5   6  -8   20.86    3.56
   5  -6   8   18.35    3.77
  -5   6  -9   49.20    3.49
  -5   6  -9   46.60    5.86
  -5   6 -10   33.47    2.58
  -5   6 -10   30.04    4.90
  -5   6 -11    4.78    2.36
  -5   6 -12   -0.35    1.85
  -5   6 -13    0.12    2.00
  -5   6 -14    4.30    2.05
  -5   6 -15    0.07    2.36
  -5   6 -16   -3.58    2.62
  -5   6 -17   -3.01    1.85
  -5   6 -18    9.55    3.81
   5  -5 -14   47.38    7.73
   5  -5 -13   -1.89    3.48
   5  -5 -12  101.62   10.22
   5  -5 -11  217.48   14.30
   5  -5 -10  436.75   19.51
   5  -5  -9  632.43   22.46
   5  -5  -8  398.99   17.24
   5  -5  -7  244.48   12.96
   5  -5  -6  185.72   10.87
   5  -5  -5   53.71    5.72
   5  -5  -4  271.46   12.27
  -5   5   4  287.32   12.72
  -5   5   3  519.34   16.38
   5  -5  -3  477.15   15.85
  -5   5   3  505.19    8.33
   5  -5  -2  738.38   19.16
  -5   5   2  748.46   19.28
  -5   5   2  725.96   11.22
  -5   5   1  864.41   20.34
   5  -5  -1  850.50   20.07
  -5   5   1  841.64    9.34
  -5   5   1  837.23   13.15
  -5   5   0  842.28   19.68
   5  -5   0  816.10   19.38
  -5   5   0  814.75   11.75
  -5   5   0  819.20   13.93
  -5   5  -1  415.24   13.69
   5  -5   1  434.25   14.01
  -5   5  -1  420.25    9.80
  -5   5  -1  415.85   10.56
   5  -5   2  216.36    9.85
  -5   5  -2  203.29    9.63
  -5   5  -2  215.17    7.87
  -5   5  -2  213.85    8.05
  -5   5  -3  307.81   11.85
   5  -5   3  302.83   11.71
  -5   5  -3  310.83   10.36
  -5   5  -3  325.72   10.47
  -5   5  -4  659.04   16.91
  -5   5  -4  660.87   17.34
  -5   5  -4  636.79   15.94
  -5   5  -4  652.40   15.59
  -5   5  -5  594.36   16.26
  -5   5  -5  592.60   16.68
  -5   5  -5  602.70   16.60
  -5   5  -5  617.66   15.90
  -5   5  -6 1309.03   24.63
  -5   5  -6 1375.25   26.04
  -5   5  -6 1290.69   25.59
  -5   5  -6 1305.49   24.20
  -5   5  -7 1365.68   25.74
  -5   5  -7 1409.39   26.85
  -5   5  -7 1322.91   27.41
  -5   5  -7 1381.02   25.93
  -5   5  -8  906.39   21.87
  -5   5  -8  880.19   23.31
  -5   5  -8  910.44   21.78
  -5   5  -9  212.46    7.12
  -5   5  -9  207.62   11.80
  -5   5  -9  213.13   10.96
  -5   5 -10    1.14    0.83
  -5   5 -10    2.30    2.26
  -5   5 -11   17.17    3.77
  -5   5 -12  297.15   15.65
  -5   5 -13  402.62   18.82
  -5   5 -14  636.22   24.22
  -5   5 -15  379.00   19.33
  -5   5 -16  105.86   10.58
  -5   5 -17   11.97    4.08
  -5   5 -18    0.31    2.80
  -5   5 -19    7.58    3.60
   5  -4 -14    4.13    2.76
   5  -4 -13   20.54    4.98
   5  -4 -12   -0.14    2.99
   5  -4 -11   13.34    3.83
   5  -4 -10   22.29    4.48
   5  -4  -9    2.26    1.57
   5  -4  -8    1.85    1.92
   5  -4  -7   12.85    2.99
   5  -4  -6   29.37    4.25
   5  -4  -5    4.91    2.35
  -5   4   5    4.91    1.79
   5  -4  -4  228.14   10.81
  -5   4   4  207.29   10.40
   5  -4  -3    1.36    1.24
  -5   4   3    1.28    1.37
  -5   4   3    0.73    0.52
  -5   4   2    1.40    1.32
   5  -4  -2    1.59    1.52
  -5   4   2    1.79    0.72
  -5   4   1    6.39    1.73
   5  -4  -1    5.42    1.95
  -5   4   1    8.44    0.89
  -5   4   1    7.30    1.29
   5  -4   0   34.33    3.90
  -5   4   0   35.90    3.94
  -5   4   0   37.12    2.43
  -5   4   0   33.78    2.82
  -5   4  -1  124.50    7.17
   5  -4   1  119.52    6.98
  -5   4  -1  129.49    5.39
  -5   4  -1  120.76    5.56
   5  -4   2   16.88    2.75
  -5   4  -2   11.94    2.28
  -5   4  -2   13.98    2.09
  -5   4  -2    9.78    1.82
  -5   4  -3    6.09    2.06
   5  -4   3    5.39    1.82
  -5   4  -3    3.97    1.31
  -5   4  -3    5.42    1.57
  -5   4  -4   12.41    2.38
  -5   4  -4   13.73    2.54
  -5   4  -4   14.73    2.50
  -5   4  -4   15.86    2.45
  -5   4  -5   29.22    3.57
  -5   4  -5   21.12    3.06
  -5   4  -5   19.13    3.03
  -5   4  -5   23.68    3.13
  -5   4  -6   24.69    3.38
  -5   4  -6   18.63    2.96
  -5   4  -6   21.97    3.35
  -5   4  -6   21.64    3.12
  -5   4  -7    1.92    1.24
  -5   4  -7    1.06    1.21
  -5   4  -7    3.26    1.50
  -5   4  -7    3.68    1.94
  -5   4  -8    2.71    1.72
  -5   4  -8    3.89    0.93
  -5   4  -8    4.00    1.84
  -5   4  -8    3.63    1.46
   5  -4   9   50.93    5.05
  -5   4  -9   44.95    3.29
  -5   4  -9   42.20    4.70
  -5   4  -9   53.95    5.97
  -5   4 -10  109.29    4.78
  -5   4 -10  110.88    8.81
  -5   4 -11    4.09    1.82
  -5   4 -12   81.25    8.04
  -5   4 -13   48.53    6.54
  -5   4 -14    9.21    2.79
  -5   4 -15   53.66    7.24
  -5   4 -16    0.31    2.09
  -5   4 -17   83.14    9.49
  -5   4 -18   23.88    5.73
  -5   4 -19    0.08    2.13
   5  -3 -15  183.26   14.80
   5  -3 -14  248.22   16.52
   5  -3 -13  259.44   16.16
   5  -3 -12   71.87    8.30
   5  -3 -11   75.69    8.15
   5  -3 -10   20.00    4.24
   5  -3 -10   17.74    1.44
   5  -3  -9   30.92    4.81
   5  -3  -9   32.62    1.94
   5  -3  -8  133.92    9.49
   5  -3  -8  138.52    4.08
   5  -3  -7  389.95   15.39
   5  -3  -7  384.06    6.99
   5  -3  -6  747.97   20.44
   5  -3  -6  744.86   10.09
   5  -3  -5  679.56   18.73
   5  -3  -5  716.19   10.36
   5  -3  -4  549.39   16.05
  -5   3   4  560.74   16.37
   5  -3  -4  544.98    9.49
  -5   3   3  137.21    7.77
   5  -3  -3  156.42    8.25
  -5   3   3  142.62    4.90
   5  -3  -3  144.74    5.12
   5  -3  -2    6.84    1.84
  -5   3   2   11.35    2.34
  -5   3   2   10.87    1.48
   5  -3  -2   12.34    1.69
   5  -3  -1   59.46    4.80
  -5   3   1   62.31    4.93
  -5   3   1   63.43    2.40
  -5   3   1   60.38    3.53
   5  -3  -1   58.42    3.61
  -5   3   0 1080.75   19.64
   5  -3   0 1081.31   19.74
  -5   3   0 1081.84   13.16
  -5   3   0 1059.16   15.31
   5  -3   0 1058.24   15.98
  -5   3  -1 1328.23   21.44
   5  -3   1 1295.59   21.21
  -5   3  -1 1291.94   16.94
  -5   3  -1 1326.65   18.07
   5  -3   1 1298.52   18.61
  -5   3  -2 1137.24   19.64
   5  -3   2 1133.13   19.70
  -5   3  -2 1098.27   17.56
  -5   3  -2 1105.68   17.13
   5  -3   2 1095.05   17.94
  -5   3  -3  531.21   13.52
   5  -3   3  548.97   13.82
  -5   3  -3  550.14   13.48
  -5   3  -3  549.64   12.71
  -5   3  -4  929.52   18.22
  -5   3  -4  941.88   18.23
  -5   3  -4  882.69   18.36
  -5   3  -4  935.87   17.43
  -5   3  -5   76.80    5.36
  -5   3  -5   84.67    5.60
  -5   3  -5   90.52    6.25
  -5   3  -5   85.60    5.55
  -5   3  -6  180.86    8.45
  -5   3  -6  187.27    8.62
  -5   3  -6  180.79    9.32
  -5   3  -6  183.04    8.46
  -5   3  -7  337.70   11.82
  -5   3  -7  349.81    9.85
  -5   3  -7  349.07   12.03
  -5   3  -7  337.81   13.33
  -5   3  -7  345.58   12.12
   5  -3   8  741.98   17.94
  -5   3  -8  707.96   13.57
  -5   3  -8  717.40   20.28
  -5   3  -8  730.92   18.35
  -5   3  -9  584.14   11.84
   5  -3   9  604.39   16.82
  -5   3  -9  583.60   19.05
  -5   3  -9  565.87   16.71
   5  -3  10  786.40   19.92
  -5   3 -10  758.79   22.53
  -5   3 -10  756.84   19.98
  -5   3 -11  501.27   18.94
  -5   3 -12  268.73   14.36
  -5   3 -13   28.51    5.13
  -5   3 -14   15.80    4.31
  -5   3 -15   64.31    7.74
  -5   3 -16  136.89   11.58
  -5   3 -17  222.77   15.24
  -5   3 -18  143.46   12.74
  -5   3 -19  139.12   12.69
  -5   3 -20   30.60    6.12
   5  -2 -15   -6.36    3.08
   5  -2 -14    0.65    2.18
   5  -2 -13   23.72    5.38
   5  -2 -12    4.65    2.83
   5  -2 -11   37.75    5.72
   5  -2 -11   35.39    2.43
   5  -2 -11   31.61    2.75
   5  -2 -10    9.78    1.47
   5  -2 -10   18.16    3.92
   5  -2 -10   10.95    1.28
   5  -2  -9   58.94    6.41
   5  -2  -9   56.42    3.44
   5  -2  -8   -0.79    1.38
   5  -2  -8    2.16    0.87
   5  -2  -7   60.87    6.03
   5  -2  -7   61.55    3.43
   5  -2  -6  247.60   11.50
   5  -2  -6  230.50    6.54
   5  -2  -5   34.48    4.16
   5  -2  -5   33.58    2.54
   5  -2  -4  152.13    8.14
  -5   2   4  141.70    7.89
   5  -2  -4  150.35    5.34
   5  -2  -3  479.44   13.75
  -5   2   3  481.90   13.92
   5  -2  -3  475.19    9.59
   5  -2  -2  150.09    7.42
  -5   2   2  153.21    7.48
  -5   2   2  156.77    5.56
   5  -2  -2  158.23    5.71
   5  -2  -1    6.73    1.75
  -5   2   1    5.44    1.43
  -5   2   1    6.89    1.27
  -5   2   1    6.42    1.00
   5  -2  -1    7.72    1.42
   5  -2   0  359.22   10.61
  -5   2   0  354.77   10.46
  -5   2   0  350.54    8.83
   5  -2   0  342.83    9.03
  -5   2   0  353.41    7.91
  -5   2  -1  383.08   10.70
   5  -2   1  398.99   10.94
  -5   2  -1  389.09    9.38
   5  -2   1  419.78   10.31
  -5   2  -1  421.50   10.07
  -5   2  -2  619.94   13.44
   5  -2   2  607.27   13.41
  -5   2  -2  612.95   12.66
   5  -2   2  623.13   13.16
  -5   2  -2  603.87   12.89
  -5   2  -3   80.01    4.91
   5  -2   3   81.31    4.98
   5  -2   3   82.98    5.04
  -5   2  -3   82.22    5.22
  -5   2  -3   82.75    4.90
  -5   2  -4  428.47   11.46
  -5   2  -4  440.35   11.83
  -5   2  -4  434.93   11.59
   5  -2   4  428.20   11.78
  -5   2  -4  422.37   12.47
  -5   2  -5  269.72    9.38
  -5   2  -5  278.61    9.63
  -5   2  -5  275.67    9.67
   5  -2   5  276.48    9.92
  -5   2  -5  267.63   10.54
  -5   2  -6    7.07    1.54
  -5   2  -6   10.02    2.04
  -5   2  -6    8.52    1.80
  -5   2  -6   10.15    2.02
  -5   2  -6    9.28    2.42
  -5   2  -7    1.26    0.60
   5  -2   7    1.05    0.97
  -5   2  -7    1.67    1.07
  -5   2  -7    1.84    1.16
   5  -2   8   16.08    2.66
  -5   2  -8   17.28    2.22
  -5   2  -8   17.25    3.34
  -5   2  -8   14.98    2.69
   5  -2   9  346.94   12.36
  -5   2  -9  326.77    9.08
  -5   2  -9  340.28   14.34
  -5   2  -9  314.30   12.15
   5  -2  10  102.75    7.10
  -5   2 -10  105.00    8.33
  -5   2 -10  106.19    7.33
   5  -2  11  231.95   11.04
  -5   2 -11  214.17   12.23
  -5   2 -11  221.60   10.94
  -5   2 -12  326.95   15.61
  -5   2 -13  295.42   15.33
  -5   2 -14    9.30    3.28
  -5   2 -15   94.93    9.52
  -5   2 -16  201.27   13.79
  -5   2 -17   31.72    6.05
  -5   2 -18   47.03    7.46
  -5   2 -19  109.48   11.15
  -5   2 -20  129.38   12.38
   5  -1 -15   10.38    3.93
   5  -1 -14   10.01    3.88
   5  -1 -13  108.39   10.27
   5  -1 -12  169.66    7.43
   5  -1 -12  157.40    6.94
   5  -1 -12  167.14   12.13
   5  -1 -11  519.79   12.72
   5  -1 -11  503.48   11.38
   5  -1 -11  547.73   20.88
   5  -1 -10  233.44    8.26
   5  -1 -10  226.59   12.90
   5  -1 -10  221.72    7.05
   5  -1  -9  345.37   15.23
   5  -1  -9  360.26    8.24
   5  -1  -9  343.36    9.72
   5  -1  -8   66.70    6.57
   5  -1  -8   75.66    3.45
   5  -1  -8   74.78    4.43
   5  -1  -7    8.84    2.37
   5  -1  -7    8.25    1.44
   5  -1  -6  112.21    7.57
   5  -1  -6  109.72    5.10
   5  -1  -5  361.26   12.72
  -5   1   5  353.80    6.05
   5  -1  -5  355.11    8.87
   5  -1  -4  631.25   15.85
  -5   1   4  624.52    7.40
   5  -1  -4  636.46   11.73
   5  -1  -3  981.32   18.78
  -5   1   3  986.22   18.89
  -5   1   3  972.75    9.01
   5  -1  -3  955.90   14.31
  -5   1   2  925.70   14.08
   5  -1  -2  946.43   17.37
  -5   1   2  955.77   17.52
  -5   1   2  926.44    9.35
   5  -1  -2  952.86   14.40
   5  -1  -1  362.13   10.27
  -5   1   1  359.54   10.16
  -5   1   1  368.14    9.01
   5  -1  -1  361.78    9.02
  -5   1   0   43.87    3.45
   5  -1   0   44.56    3.47
   5  -1   0   41.54    3.16
  -5   1   0   49.69    3.38
  -5   1  -1   21.51    2.32
   5  -1   1   20.07    2.26
  -5   1  -1   26.01    2.53
   5  -1   1   22.65    2.43
  -5   1  -2  521.18   11.26
   5  -1   2  525.26   11.41
   5  -1   2  530.73   11.92
  -5   1  -2  546.69   11.83
   5  -1   3  631.36   12.59
  -5   1  -3  619.26   12.38
  -5   1  -3  619.00   13.00
  -5   1  -3  604.12   12.92
   5  -1   3  614.17   13.34
  -5   1  -4  624.56   12.76
  -5   1  -4  634.12   13.33
   5  -1   4  648.30   14.15
  -5   1  -4  634.30   13.75
  -5   1  -5  970.54   16.46
  -5   1  -5  973.06   17.02
  -5   1  -5  983.81   17.27
   5  -1   5  983.41   18.13
  -5   1  -5  955.19   19.27
  -5   1  -5  961.24   17.57
  -5   1  -6  482.76   12.13
  -5   1  -6  518.38   12.86
  -5   1  -6  492.34   12.02
   5  -1   6  475.65   12.30
  -5   1  -6  505.28   13.30
   5  -1   6  478.40   13.23
  -5   1  -6  473.27   14.36
  -5   1  -7  124.16    5.95
   5  -1   7  129.20    6.69
  -5   1  -7  124.79    7.84
  -5   1  -7  130.24    7.04
   5  -1   7  123.97    7.05
   5  -1   8   83.61    5.66
  -5   1  -8   78.76    4.66
  -5   1  -8   87.84    6.07
  -5   1  -8   83.76    6.75
   5  -1   9    2.31    1.47
  -5   1  -9    4.92    2.13
  -5   1  -9   -0.18    1.15
   5  -1  10    1.59    1.09
  -5   1 -10    2.90    1.70
  -5   1 -10    1.14    1.07
   5  -1  11   85.56    6.59
  -5   1 -11   84.09    6.64
  -5   1 -11   79.10    7.44
  -5   1 -12  157.54   10.64
  -5   1 -13   83.08    8.17
  -5   1 -14  463.70   19.49
  -5   1 -15    3.40    1.73
  -5   1 -16  131.69   11.08
  -5   1 -17   -0.04    2.18
  -5   1 -18    7.59    3.57
  -5   1 -19   12.34    3.80
  -5   1 -20   56.02    8.17
   5   0 -15   29.05    6.21
   5   0 -14    5.33    3.28
   5   0 -13    5.69    1.83
   5   0 -13    8.79    3.67
   5   0 -12   -0.55    1.24
   5   0 -12    1.82    1.28
   5   0 -12    0.44    2.58
   5   0 -11   81.56    5.56
   5   0 -11   87.49    5.41
   5   0 -11   82.33    8.28
   5   0 -10  198.75    8.45
   5   0 -10  181.44   11.43
   5   0 -10  198.76    7.68
   5   0  -9  174.35    7.68
   5   0  -9  186.86   11.06
   5   0  -9  175.22    6.77
  -5   0   9  186.88    7.62
   5   0  -8   92.31    5.38
   5   0  -8   78.71    6.84
   5   0  -8   90.24    4.57
  -5   0   8   90.15    5.07
   5   0  -7   23.70    2.65
   5   0  -7   27.57    3.96
   5   0  -7   31.51    2.57
  -5   0   7   33.49    2.92
   5   0  -6    9.34    2.08
   5   0  -6   12.61    1.98
  -5   0   6   11.61    1.63
   5   0  -5    1.52    0.91
   5   0  -5    2.80    1.37
  -5   0   5    1.50    0.64
   5   0  -4  123.98    6.86
  -5   0   4  122.07    4.35
   5   0  -4  116.74    5.43
   5   0  -3  520.24   13.01
  -5   0   3  512.34    8.51
   5   0  -3  508.89   11.05
   5   0  -2  965.29   16.61
  -5   0   2  916.76   16.27
  -5   0   2  915.34   11.27
   5   0  -2  944.03   14.95
  -5   0   1 1055.90   15.83
   5   0  -1 1086.08   16.48
  -5   0   1 1037.13   16.22
  -5   0   1 1064.57   12.46
   5   0  -1 1043.00   15.80
   5   0   0 1058.22   15.40
  -5   0   0 1053.24   15.24
   5   0   0 1069.74   16.16
  -5   0   0 1074.06   16.06
   5   0   1  370.16    8.74
  -5   0  -1  377.69    8.75
  -5   0  -1  388.96    9.85
   5   0   1  382.06    9.86
  -5   0  -2 1709.72   18.17
   5   0   2 1754.96   18.73
   5   0   2 1756.98   21.66
  -5   0  -2 1760.03   21.31
  -5   0  -3    2.12    0.68
  -5   0  -3    5.80    1.42
   5   0   3    3.12    1.20
  -5   0  -3    3.32    1.17
  -5   0  -4  237.11    7.16
  -5   0  -4  244.03    7.79
  -5   0  -4  239.86    8.73
  -5   0  -4  239.35    8.39
   5   0   4  238.22    8.51
  -5   0  -5  866.83   14.26
  -5   0  -5  874.74   15.29
  -5   0  -5  887.52   16.50
   5   0   5  886.17   16.94
  -5   0  -5  884.41   16.63
  -5   0  -6  868.40   16.15
   5   0   6  879.50   15.95
  -5   0  -6  852.40   16.90
   5   0   6  869.84   17.25
  -5   0  -7 1076.98   17.83
   5   0   7 1102.83   18.65
  -5   0  -7 1073.26   19.77
   5   0   7 1087.89   20.06
   5   0   8  398.48   11.87
  -5   0  -8  385.82   10.66
  -5   0  -8  381.83   12.24
  -5   0  -8  366.62   13.67
   5   0   8  399.32   12.78
   5   0   9  513.82   14.20
  -5   0  -9  510.92   16.81
  -5   0  -9  514.54   14.78
   5   0  10  241.32   10.36
   5   0  10  237.66    8.78
  -5   0 -10  234.81   11.89
  -5   0 -10  239.70   10.44
   5   0  11   -0.99    1.47
   5   0  11    1.34    1.06
  -5   0 -11    3.03    1.60
  -5   0 -11    3.43    1.78
   5   0  12   95.09    5.72
  -5   0 -12  106.70    8.75
  -5   0 -12  105.91    7.55
   5   0  13  254.18    9.46
  -5   0 -13  267.37   14.27
   5   0  14  738.16   16.41
  -5   0 -14  750.06   24.59
   5   0  15  421.96   12.62
  -5   0 -15  464.73   19.92
   5   0  16  202.41    8.92
  -5   0 -16  199.51   13.54
   5   0  17  223.79    9.46
  -5   0 -17  240.80   15.29
  -5   0 -18   12.11    3.91
  -5   0 -19   48.21    7.50
  -5   0 -20   56.66    8.41
  -5   0 -21  102.10   11.10
   5   1 -16   64.71    8.89
   5   1 -15   95.11   10.34
   5   1 -14  141.65    8.60
   5   1 -14  144.35   11.98
   5   1 -13   55.90    5.30
   5   1 -13   65.77    5.55
   5   1 -13   61.18    7.58
   5   1 -12   14.91    2.71
   5   1 -12   12.51    3.57
   5   1 -12   15.89    2.66
   5   1 -11   16.36    2.81
   5   1 -11   15.99    3.86
   5   1 -11   20.22    2.88
  -5  -1  11   18.22    3.13
   5   1 -10   16.47    2.87
   5   1 -10   10.15    2.84
   5   1 -10   18.76    2.65
  -5  -1  10   15.45    2.57
   5   1  -9  225.97    9.39
   5   1  -9  225.38   12.04
   5   1  -9  221.80    8.52
  -5  -1   9  233.60    9.45
   5   1  -8  206.85    8.71
  -5  -1   8  226.25    8.80
   5   1  -8  212.20    7.88
   5   1  -8  223.47   11.37
   5   1  -7  230.20    8.93
  -5  -1   7  247.79    8.61
   5   1  -7  253.75    8.15
   5   1  -7  230.88   10.92
   5   1  -6  288.54    9.63
   5   1  -6  276.40    8.03
  -5  -1   6  297.99    8.88
   5   1  -6  269.76   11.15
   5   1  -5   50.91    3.94
  -5  -1   5   55.45    3.61
   5   1  -5   55.72    3.44
   5   1  -5   49.74    4.61
   5   1  -4    3.06    1.21
   5   1  -4    3.36    1.44
  -5  -1   4    4.14    1.09
   5   1  -3   62.93    4.38
  -5  -1   3   59.74    3.39
   5   1  -3   60.10    4.08
   5   1  -2  358.43    9.57
  -5  -1   2  364.71    8.12
   5   1  -2  372.31    9.88
  -5  -1   1  223.13    7.58
   5   1  -1  216.05    6.86
  -5  -1   1  211.09    6.21
   5   1  -1  215.97    7.47
   5   1   0  294.00    7.37
  -5  -1   0  306.41    7.55
  -5  -1   0  313.12    8.95
   5   1   0  294.40    8.75
  -5  -1  -1   94.31    3.89
   5   1   1   97.23    3.97
   5   1   1   97.76    5.11
  -5  -1  -1  105.68    5.29
   5   1   2  337.45    7.17
  -5  -1  -2  315.76    6.80
  -5  -1  -2  338.34    9.54
   5   1   2  325.12    9.41
  -5  -1  -3  760.25   10.58
  -5  -1  -3  754.81   12.28
  -5  -1  -3  758.07   15.84
   5   1   3  783.98   14.87
  -5  -1  -3  761.39   14.57
  -5  -1  -4    0.71    0.54
  -5  -1  -4    0.87    0.82
  -5  -1  -4    0.04    1.21
   5   1   4    1.92    1.26
  -5  -1  -4   -0.07    1.01
  -5  -1  -5   16.38    1.84
  -5  -1  -5   16.81    2.34
   5   1   5   15.47    1.97
  -5  -1  -5   17.51    2.47
   5   1   5   15.59    2.34
  -5  -1  -6   95.35    5.52
   5   1   6   97.63    5.03
   5   1   6   91.79    5.67
  -5  -1  -6   87.42    5.44
   5   1   7  205.56    7.79
  -5  -1  -7  194.10    7.81
   5   1   7  192.72    8.06
   5   1   7  209.70    8.74
  -5  -1  -7  201.40    8.49
   5   1   8   84.99    5.38
   5   1   8   82.80    5.35
   5   1   8   84.50    5.75
  -5  -1  -8   92.26    5.93
   5   1   9  176.58    7.87
   5   1   9  186.56    8.40
  -5  -1  -9  184.56    8.71
   5   1   9  171.89    8.47
   5   1  10    6.47    1.85
   5   1  10    2.89    1.46
  -5  -1 -10    5.03    1.75
   5   1  11   71.08    5.20
  -5  -1 -11   83.43    6.27
  -5  -1 -11   72.62    6.84
   5   1  12    5.65    1.66
  -5  -1 -12    5.59    1.40
  -5  -1 -12    3.67    1.76
   5   1  13   14.79    2.59
  -5  -1 -13   19.21    3.94
   5   1  14   27.32    3.41
  -5  -1 -14   27.25    4.92
   5   1  15   25.64    3.51
  -5  -1 -15   34.22    5.60
   5   1  16   14.96    2.76
  -5  -1 -16   23.83    5.03
   5   1  17    6.53    2.10
  -5  -1 -17    5.23    2.87
   5   1  18    3.50    1.56
  -5  -1 -18    7.13    3.00
  -5  -1 -19    4.45    3.74
  -5  -1 -20   -3.47    3.32
  -5  -1 -21    3.65    1.93
   5   2 -16   66.95    8.96
   5   2 -15  149.57   12.69
   5   2 -14  115.70   10.80
   5   2 -14  113.90    8.08
   5   2 -13  289.67   16.40
   5   2 -13  278.74   12.11
   5   2 -12  140.71   10.89
   5   2 -12  147.55    8.53
  -5  -2  12  155.44    9.41
   5   2 -11   41.49    5.88
   5   2 -11   51.66    4.84
  -5  -2  11   48.87    5.27
   5   2 -10    2.35    2.18
   5   2 -10    3.92    1.58
  -5  -2  10    0.58    1.23
   5   2  -9   33.46    4.53
   5   2  -9   41.18    4.01
  -5  -2   9   39.49    4.22
   5   2  -8  348.88   11.92
  -5  -2   8  368.39   11.98
   5   2  -8  356.88   11.10
   5   2  -8  334.45   13.88
   5   2  -7  588.41   15.02
   5   2  -7  605.03   13.78
  -5  -2   7  615.48   14.71
   5   2  -7  595.38   17.38
   5   2  -6 1049.18   19.50
  -5  -2   6 1088.25   18.37
   5   2  -6 1069.53   17.53
   5   2  -6 1025.47   21.45
   5   2  -5  748.35   15.98
   5   2  -5  736.74   13.85
  -5  -2   5  736.65   14.32
   5   2  -5  682.32   16.33
   5   2  -4 1552.77   22.37
  -5  -2   4 1579.77   19.90
   5   2  -4 1595.94   19.64
   5   2  -4 1543.25   22.76
   5   2  -3  248.42    8.71
  -5  -2   3  252.69    7.67
   5   2  -3  241.82    8.24
   5   2  -2    1.81    0.93
   5   2  -2    2.51    1.13
  -5  -2   2    3.64    0.97
   5   2  -1  284.30    7.25
  -5  -2   1  297.21    8.05
   5   2  -1  289.25    9.07
  -5  -2   0 1007.15   16.70
   5   2   0  981.47   11.93
  -5  -2   0 1002.47   14.86
   5   2   0 1002.01   16.65
  -5  -2  -1 1606.22   13.78
   5   2   1 1600.86   13.64
  -5  -2  -1 1621.39   21.26
  -5  -2  -1 1610.16   24.00
   5   2   1 1612.37   21.16
   5   2   2 2427.59   15.70
  -5  -2  -2 2417.75   15.29
  -5  -2  -2 2499.63   29.32
   5   2   2 2480.47   26.43
  -5  -2  -2 2466.67   26.38
  -5  -2  -3 3957.53   19.66
  -5  -2  -3 4065.81   25.77
  -5  -2  -3 4075.40   37.38
   5   2   3 4032.39   34.21
  -5  -2  -3 4035.54   34.16
  -5  -2  -4 1425.25   13.15
  -5  -2  -4 1454.84   22.04
  -5  -2  -4 1480.56   21.03
   5   2   4 1421.00   20.66
   5   2   5  913.30   13.60
   5   2   5  924.14   17.96
  -5  -2  -5  918.35   17.49
   5   2   5  925.61   17.11
  -5  -2  -5  951.06   17.22
  -5  -2  -6   24.59    2.96
   5   2   6   19.09    2.71
   5   2   6   21.10    2.28
  -5  -2  -6   22.58    2.84
   5   2   6   19.09    2.68
   5   2   7 1020.98   16.70
   5   2   7 1039.77   19.15
  -5  -2  -7 1055.14   19.25
   5   2   7 1011.54   19.02
   5   2   8  630.36   14.16
   5   2   8  668.79   15.67
   5   2   8  656.35   15.78
  -5  -2  -8  671.75   15.87
   5   2   9 1632.49   24.77
   5   2   9 1674.36   26.04
  -5  -2  -9 1619.18   25.44
   5   2  10  513.89   14.24
  -5  -2 -10  525.93   15.04
   5   2  10  540.60   15.29
   5   2  11  643.38   16.26
  -5  -2 -11  669.96   17.48
   5   2  11  705.96   18.18
   5   2  12  465.49   14.16
  -5  -2 -12  502.23   15.66
  -5  -2 -12  485.40   18.07
   5   2  13   58.20    5.20
  -5  -2 -13   72.60    7.41
  -5  -2 -13   59.41    5.66
   5   2  14   87.06    6.50
  -5  -2 -14  104.45    9.07
   5   2  15  166.06    9.14
  -5  -2 -15  172.46   12.19
   5   2  16  452.65   15.37
  -5  -2 -16  480.51   20.81
   5   2  17  284.71   12.49
  -5  -2 -17  312.44   17.33
   5   2  18  265.66   12.23
  -5  -2 -18  272.29   16.66
  -5  -2 -19  174.72   13.75
  -5  -2 -20   62.93    8.52
  -5  -2 -21   10.32    3.67
   5   3 -16   -1.12    2.03
   5   3 -15   19.48    5.10
   5   3 -14   35.32    6.36
   5   3 -14   37.25    4.86
   5   3 -13   26.34    5.19
   5   3 -13   23.37    3.70
   5   3 -12    2.38    1.90
   5   3 -12    2.87    1.40
  -5  -3  12   -1.27    2.24
   5   3 -11  141.00   10.37
   5   3 -11  144.99    8.61
  -5  -3  11  150.68    9.46
   5   3 -10   18.24    2.97
  -5  -3  10   15.24    3.00
   5   3  -9   19.99    3.01
  -5  -3   9   15.42    2.96
   5   3  -8   19.63    2.84
  -5  -3   8   19.21    3.01
  -5  -3   7    1.00    1.17
   5   3  -7    1.85    0.91
   5   3  -6   16.87    2.73
  -5  -3   6   16.34    2.55
   5   3  -6   16.77    2.53
   5   3  -5    4.70    1.55
  -5  -3   5    5.13    1.67
   5   3  -5    5.13    1.55
   5   3  -5    5.48    1.67
   5   3  -4    3.93    1.30
   5   3  -4    4.47    1.46
  -5  -3   4    4.28    1.34
   5   3  -4    0.02    1.05
   5   3  -3  189.18    8.06
  -5  -3   3  188.10    7.28
   5   3  -3  171.23    6.81
   5   3  -2   30.77    3.24
  -5  -3   2   33.93    3.04
   5   3  -2   30.04    2.63
   5   3  -1    1.98    1.57
  -5  -3   1    3.80    1.28
  -5  -3   1    2.80    0.99
   5   3  -1    3.85    0.86
   5   3   0   10.89    2.07
  -5  -3   0    7.65    1.59
  -5  -3   0   10.52    2.18
  -5  -3   0    9.00    1.70
   5   3   0    7.20    0.94
   5   3   1   10.70    0.94
  -5  -3  -1    8.35    1.87
   5   3   1    9.80    1.88
  -5  -3  -1   11.50    1.85
  -5  -3  -2  146.17    4.17
  -5  -3  -2  145.83    7.30
  -5  -3  -2  137.23    6.42
   5   3   2  139.07    6.43
  -5  -3  -3   84.05    5.50
  -5  -3  -3   85.01    3.33
   5   3   3   85.83    5.14
  -5  -3  -3   88.67    5.23
  -5  -3  -4   31.29    1.57
   5   3   4   30.99    3.59
  -5  -3  -4   27.77    3.16
  -5  -3  -4   31.05    3.15
   5   3   4   30.12    3.14
   5   3   5   88.12    3.96
   5   3   5   85.85    5.72
  -5  -3  -5   83.76    5.49
   5   3   5   83.64    5.24
  -5  -3  -5   86.44    5.34
  -5  -3  -6   38.14    3.81
   5   3   6   34.99    2.75
   5   3   6   34.09    3.71
   5   3   6   35.63    3.56
  -5  -3  -6   33.57    3.42
   5   3   7    9.90    2.14
   5   3   7    6.58    1.70
  -5  -3  -7   10.09    1.99
   5   3   8   33.73    3.73
  -5  -3  -8   35.52    3.70
   5   3   8   28.82    3.36
   5   3   9   19.14    2.91
  -5  -3  -9   21.57    3.01
   5   3   9   23.95    3.16
   5   3  10    3.72    1.33
   5   3  10    6.46    2.04
  -5  -3 -10    5.94    1.85
   5   3  11    1.02    1.17
   5   3  11   -0.31    1.25
  -5  -3 -11    1.86    1.19
   5   3  12    7.12    2.11
   5   3  12    0.32    1.37
  -5  -3 -12    3.49    1.86
   5   3  13    3.26    1.58
  -5  -3 -13    3.63    1.32
   5   3  14    1.67    1.37
  -5  -3 -14    5.12    2.53
   5   3  15    1.41    1.50
  -5  -3 -15    1.82    2.08
   5   3  16  102.32    7.87
  -5  -3 -16  111.10   10.04
   5   3  17    9.53    2.69
  -5  -3 -17    7.38    3.74
   5   3  18   29.30    4.47
  -5  -3 -18   23.89    5.20
   5   3  19   16.28    3.45
  -5  -3 -19    9.12    3.66
  -5  -3 -20   48.05    7.46
  -5  -3 -21   18.39    5.06
   5   4 -16   36.33    6.63
   5   4 -15    1.52    1.85
   5   4 -15    2.57    2.66
   5   4 -14   20.60    3.95
   5   4 -13  135.99    9.44
   5   4 -12  292.62   13.39
  -5  -4  11  404.16   16.01
   5   4 -11  370.47   14.57
  -5  -4  10  903.44   23.01
   5   4 -10  902.46   21.85
   5   4  -9  345.51   13.00
  -5  -4   9  386.33   14.38
  -5  -4   8   88.62    6.66
   5   4  -8   88.68    6.35
  -5  -4   7   40.36    4.40
   5   4  -7   35.34    3.88
   5   4  -6   52.04    4.50
  -5  -4   6   53.61    4.79
  -5  -4   5  524.80   13.99
   5   4  -5  494.88   13.41
   5   4  -4  968.80   19.59
  -5  -4   4  993.47   18.54
   5   4  -4 1009.33   18.48
   5   4  -3  975.11   19.18
  -5  -4   3  932.57   19.82
  -5  -4   3  963.68   17.62
   5   4  -3  991.72   17.86
  -5  -4   2 1449.62   24.28
   5   4  -2 1470.21   23.01
  -5  -4   2 1445.35   21.08
   5   4  -1  855.04   17.11
  -5  -4   1  831.74   18.09
   5   4  -1  829.73   11.26
  -5  -4   1  842.52   15.81
  -5  -4   0  456.58   13.31
   5   4   0  436.85    6.38
  -5  -4   0  427.44   11.21
   5   4   0  438.27   12.03
  -5  -4  -1   16.22    2.60
  -5  -4  -1   11.26    1.99
   5   4   1    8.96    1.91
  -5  -4  -1   13.20    2.12
  -5  -4  -2  633.40   15.43
  -5  -4  -2  658.40   14.51
   5   4   2  620.15   15.34
   5   4   2  628.19   14.17
  -5  -4  -3  593.21   13.83
   5   4   3  587.48   14.99
  -5  -4  -3  580.78   14.81
   5   4   3  579.38   13.55
   5   4   4 1765.96   14.51
  -5  -4  -4 1769.16   25.82
   5   4   4 1813.93   26.33
  -5  -4  -4 1830.88   24.32
   5   4   4 1809.01   24.07
   5   4   5 1731.68   25.99
   5   4   5 1719.39   16.31
   5   4   5 1719.55   23.84
  -5  -4  -5 1771.46   24.26
   5   4   6 1154.18   21.56
   5   4   6 1153.03   19.84
  -5  -4  -6 1154.74   19.95
   5   4   7  535.39   14.99
   5   4   7  541.85   13.91
  -5  -4  -7  546.25   13.99
   5   4   8  190.11    9.11
   5   4   8  183.83    8.34
  -5  -4  -8  199.41    8.67
   5   4   9   10.59    2.43
  -5  -4  -9   11.65    2.36
   5   4   9   14.70    2.55
   5   4  10   13.25    2.73
   5   4  10   18.03    2.84
  -5  -4 -10   16.62    2.79
   5   4  11  278.21   11.82
   5   4  11  280.52   11.17
  -5  -4 -11  282.42   11.25
   5   4  12  724.76   19.58
  -5  -4 -12  760.24   18.99
   5   4  12  767.63   19.10
   5   4  13  472.44   16.24
  -5  -4 -13  532.28   16.39
   5   4  14  236.88   11.82
  -5  -4 -14  270.42   12.06
   5   4  15  133.14    9.09
  -5  -4 -15  153.74   11.31
   5   4  16   59.91    6.32
  -5  -4 -16   75.97    8.40
   5   4  17   11.16    2.89
  -5  -4 -17   19.48    4.83
   5   4  18   36.19    5.25
  -5  -4 -18   38.02    6.20
   5   4  19   54.58    6.51
  -5  -4 -19   63.74    8.46
  -5  -4 -20  143.99   12.83
  -5  -4 -21  175.27   14.50
   5   5 -15   -1.49    2.22
   5   5 -14    5.76    2.37
   5   5 -13   -1.03    1.91
   5   5 -12    0.03    1.48
   5   5 -11    2.25    1.67
   5   5 -10    2.99    1.76
  -5  -5  10   -1.07    1.84
  -5  -5   9   73.22    6.69
   5   5  -9   61.92    5.88
  -5  -5   8   92.32    7.16
   5   5  -8   84.69    6.55
  -5  -5   7   29.74    3.91
   5   5  -7   39.99    4.41
  -5  -5   7   41.08    4.60
  -5  -5   6   22.01    3.39
  -5  -5   6   19.35    3.12
   5   5  -6   22.55    3.22
  -5  -5   5    4.42    1.76
  -5  -5   5    3.84    1.46
   5   5  -5    5.87    1.79
  -5  -5   4    3.15    1.46
  -5  -5   4    4.95    1.72
   5   5  -4    3.46    1.43
  -5  -5   3   10.65    2.19
   5   5  -3   11.81    2.49
  -5  -5   3   13.18    2.46
   5   5  -3   10.18    2.09
  -5  -5   2    3.97    1.42
   5   5  -2    2.51    1.17
  -5  -5   2    3.71    1.26
  -5  -5   1  241.80    9.99
   5   5  -1  250.35    9.77
  -5  -5   1  246.95    9.24
  -5  -5   0  104.59    6.54
   5   5   0  103.85    6.23
  -5  -5   0  106.69    5.98
   5   5   1    0.39    1.03
   5   5   1    0.76    1.20
  -5  -5  -1    2.86    1.25
  -5  -5  -1    0.66    0.81
  -5  -5  -2   52.60    4.26
  -5  -5  -2   51.11    4.57
   5   5   2   58.41    4.97
  -5  -5  -2   57.91    4.47
   5   5   2   47.62    4.16
  -5  -5  -3   29.97    3.62
   5   5   3   23.26    2.90
   5   5   3   22.43    3.24
  -5  -5  -3   24.51    2.96
   5   5   4   87.03    2.85
   5   5   4   92.87    6.30
  -5  -5  -4   95.98    5.76
   5   5   4   76.67    5.19
  -5  -5  -5  172.33    4.11
   5   5   5  181.60    8.84
   5   5   5  168.24    4.83
  -5  -5  -5  179.51    7.94
   5   5   5  170.58    7.69
  -5  -5  -6   95.89    3.84
   5   5   6   95.21    6.53
   5   5   6   97.62    5.89
  -5  -5  -6   97.07    5.92
  -5  -5  -7  201.41    6.51
   5   5   7  199.24    9.61
  -5  -5  -7  202.35    8.72
   5   5   7  192.56    8.37
   5   5   8  200.03    9.81
  -5  -5  -8  198.37    7.29
  -5  -5  -8  201.73    8.88
   5   5   8  199.04    8.70
   5   5   9   31.15    4.00
  -5  -5  -9   27.08    3.37
   5   5   9   26.36    3.26
   5   5  10    8.34    2.17
   5   5  10    9.20    2.19
  -5  -5 -10    6.42    1.89
   5   5  11   25.53    3.93
  -5  -5 -11   35.48    4.07
   5   5  11   32.66    3.86
   5   5  12  137.13    8.95
  -5  -5 -12  130.41    7.92
   5   5  12  137.76    8.06
   5   5  13  420.00   16.04
  -5  -5 -13  474.56   15.49
   5   5  13  480.90   15.47
   5   5  14  105.73    8.37
  -5  -5 -14  114.49    7.91
   5   5  15  123.38    9.24
   5   5  16   26.46    4.55
  -5  -5 -16   19.44    4.35
   5   5  17   22.93    4.21
  -5  -5 -17   19.38    4.54
  -5  -5 -18    4.83    3.08
   5   5  18    4.49    2.09
  -5  -5 -18    1.34    2.13
  -5  -5 -19   15.86    4.46
   5   5  19   13.33    3.29
  -5  -5 -19   27.96    5.86
  -5  -5 -20   17.89    4.73
   5   5  20    8.37    3.37
  -5  -5 -20    8.74    3.60
  -5  -5 -21   20.08    5.21
  -5  -5 -21   17.57    5.13
   5   6 -16  173.28   12.72
   5   6 -15  246.94   14.66
   5   6 -14  181.23   12.30
   5   6 -13  110.68    9.34
   5   6 -12   36.77    5.23
  -5  -6  11  110.33    8.00
   5   6 -11  115.84    8.94
  -5  -6  10   85.81    6.88
   5   6 -10   95.57    7.91
  -5  -6   9  439.70   15.25
   5   6  -9  449.18   16.41
  -5  -6   8  531.28   16.48
  -5  -6   8  596.42   18.75
   5   6  -8  579.30   18.05
  -5  -6   7  733.60   19.03
   5   6  -7  729.83   19.55
  -5  -6   7  781.40   20.64
  -5  -6   6  380.29   13.54
   5   6  -6  387.73   13.78
  -5  -6   6  412.08   14.46
  -5  -6   5  195.98    9.58
  -5  -6   5  214.75   10.04
   5   6  -5  193.07    9.42
  -5  -6   4   74.96    5.89
  -5  -6   4   75.05    5.81
   5   6  -4   74.00    5.70
  -5  -6   3  179.82    8.94
   5   6  -3  181.37    9.10
  -5  -6   3  183.54    8.78
   5   6  -3  180.10    8.63
  -5  -6   2  371.67   12.64
   5   6  -2  363.69   12.56
   5   6  -2  360.24   11.95
  -5  -6   2  378.13   12.20
  -5  -6   1  813.61   18.59
   5   6  -1  806.11   18.27
  -5  -6   1  830.60   17.85
   5   6   0 1006.97   19.93
   5   6   0 1006.85   20.47
  -5  -6   0 1034.18   20.93
  -5  -6   0 1022.20   19.53
   5   6   0 1022.76   10.71
   5   6   1 1274.94   21.95
   5   6   1 1233.60   22.70
  -5  -6  -1 1253.88   23.04
   5   6   1 1225.51    8.70
  -5  -6  -1 1265.37   21.63
   5   6   2  924.67   19.81
  -5  -6  -2  913.53   19.82
  -5  -6  -2  915.74   18.50
   5   6   2  920.85   18.40
   5   6   3  448.39   13.95
  -5  -6  -3  442.32   12.67
   5   6   3  434.79   12.59
  -5  -6  -4    4.17    0.63
   5   6   4    4.83    0.65
   5   6   4    3.24    1.68
  -5  -6  -4    3.05    1.31
   5   6   4    6.18    1.78
  -5  -6  -5  184.75    4.63
   5   6   5  181.26    9.12
  -5  -6  -5  201.20    8.62
   5   6   5  186.55    8.23
  -5  -6  -6  360.85    7.62
   5   6   6  386.35   13.63
  -5  -6  -6  359.45   11.62
   5   6   6  360.96   11.56
  -5  -6  -7  391.17    9.05
   5   6   7  383.61   13.83
  -5  -6  -7  385.85   12.18
   5   6   7  396.11   12.20
  -5  -6  -8  362.72    9.76
   5   6   8  334.68   13.18
   5   6   8  352.14   11.70
  -5  -6  -8  364.62   12.07
  -5  -6  -9  241.87    8.83
   5   6   9  229.09   11.24
  -5  -6  -9  251.72   10.23
   5   6   9  244.20    9.93
  -5  -6 -10  430.92   12.81
   5   6  10  399.92   15.17
   5   6  10  438.58   13.60
  -5  -6 -10  436.35   13.81
  -5  -6 -11   33.01    3.87
  -5  -6 -11   30.10    3.80
   5   6  11   27.18    4.19
   5   6  11   31.79    3.80
  -5  -6 -12    2.43    1.56
   5   6  12   -1.74    1.72
  -5  -6 -12   -2.11    1.83
   5   6  12    2.05    1.51
  -5  -6 -13    1.61    1.21
  -5  -6 -13    4.22    1.65
   5   6  13    4.58    1.78
  -5  -6 -14    4.68    2.01
   5   6  14    4.80    2.02
  -5  -6 -14    5.77    2.16
  -5  -6 -15  177.69   11.27
  -5  -6 -16   92.70    8.50
  -5  -6 -17  213.09   13.57
  -5  -6 -17  215.24   14.49
  -5  -6 -18  159.61   12.25
   5   6  18  137.14   11.01
  -5  -6 -18  165.58   13.11
  -5  -6 -19   26.72    5.86
   5   6  19   16.24    4.22
  -5  -6 -19   25.58    5.65
  -5  -6 -20   -1.89    2.78
   5   6  20    3.53    3.13
  -5  -6 -20    0.01    2.29
  -5  -6 -21    7.53    4.02
   5   7 -16   26.19    5.69
   5   7 -15   19.78    4.77
   5   7 -14   36.47    5.84
   5   7 -13   24.99    4.93
   5   7 -12   13.94    3.58
  -5  -7  11    3.11    1.70
   5   7 -11    1.42    1.80
  -5  -7  10    9.49    2.47
   5   7 -10   10.54    2.89
  -5  -7   9   58.22    5.66
   5   7  -9   62.04    6.36
  -5  -7   8   12.10    2.59
   5   7  -8   13.39    3.01
  -5  -7   7   18.86    3.18
  -5  -7   7   24.07    3.94
   5   7  -7   20.60    3.50
  -5  -7   6  121.89    7.75
   5   7  -6  125.19    8.29
  -5  -7   6  143.14    9.00
  -5  -7   5  404.31   13.74
   5   7  -5  404.35   14.37
  -5  -7   5  443.06   15.20
  -5  -7   4  228.42   10.33
  -5  -7   4  243.31   10.95
   5   7  -4  246.31   10.93
  -5  -7   3   55.01    5.08
  -5  -7   3   61.80    5.40
   5   7  -3   55.93    5.16
  -5  -7   2    2.81    1.60
   5   7  -2    3.16    1.59
  -5  -7   2    1.69    0.59
  -5  -7   2    1.63    0.98
   5   7  -2    1.29    1.16
  -5  -7   1    1.17    1.45
   5   7  -1    0.96    1.54
  -5  -7   1    0.35    1.51
   5   7   0   58.53    5.12
   5   7   0   75.41    5.75
  -5  -7   0   65.81    5.52
  -5  -7   0   66.39    5.40
   5   7   0   70.11    3.18
   5   7   1  195.12    9.36
   5   7   1  188.70    8.81
  -5  -7  -1  204.52    9.23
   5   7   1  196.76    4.59
   5   7   2 1098.07   22.29
   5   7   2 1076.70   20.68
   5   7   2 1023.22    9.49
  -5  -7  -2 1090.93   21.26
   5   7   3  153.37    8.48
   5   7   3  152.72    3.81
  -5  -7  -3  154.73    8.04
   5   7   3  148.97    7.67
  -5  -7  -4  428.86    7.02
   5   7   4  419.63   14.17
   5   7   4  414.82   12.68
  -5  -7  -5    7.02    1.13
   5   7   5    4.37    1.60
  -5  -7  -5    6.64    1.64
   5   7   5    6.86    1.71
  -5  -7  -6    2.69    0.86
   5   7   6    0.65    1.21
  -5  -7  -6    2.59    1.26
   5   7   6   -0.65    1.10
  -5  -7  -7  244.10    7.47
   5   7   7  236.70   11.36
  -5  -7  -7  239.73    9.92
   5   7   7  244.57    9.81
  -5  -7  -8   99.42    5.27
  -5  -7  -8   93.14    6.28
   5   7   8   86.51    7.11
   5   7   8   94.39    6.20
  -5  -7  -9  553.81   13.37
   5   7   9  539.21   17.95
  -5  -7  -9  551.79   15.33
   5   7   9  558.48   15.15
  -5  -7 -10  348.70   11.47
   5   7  10  323.30   14.26
  -5  -7 -10  341.67   12.32
   5   7  10  341.03   12.07
  -5  -7 -11  206.14    9.60
   5   7  11  220.94    9.89
  -5  -7 -11  215.39   10.09
  -5  -7 -12  166.34    9.19
   5   7  12  155.78    8.51
  -5  -7 -12  158.82    8.83
  -5  -7 -13  190.95   10.46
   5   7  13  184.00    9.48
  -5  -7 -13  180.04    9.70
  -5  -7 -14   96.08    7.88
  -5  -7 -14  103.03    7.48
   5   7  14  104.58    7.41
  -5  -7 -15   76.40    7.42
  -5  -7 -16  248.36   14.01
  -5  -7 -17  133.38   10.82
  -5  -7 -18  230.99   14.81
  -5  -7 -18  232.76   15.58
  -5  -7 -19  169.50   13.15
  -5  -7 -19  172.71   13.79
  -5  -7 -20  151.00   12.86
   5   7  20  126.20   11.39
  -5  -7 -20  142.88   12.99
   5   7  21    9.24    3.49
  -5  -7 -21    8.60    3.10
   5   8 -16    6.43    3.50
   5   8 -15    4.93    2.65
   5   8 -14   90.05    9.45
   5   8 -13  147.20   11.69
   5   8 -12  136.14   10.81
   5   8 -11  145.59   10.95
  -5  -8  10   82.54    6.71
   5   8 -10   90.98    8.41
  -5  -8   9   10.33    2.66
   5   8  -9    7.64    2.41
  -5  -8   8    1.30    1.24
   5   8  -8    0.99    1.92
  -5  -8   7   33.67    4.31
   5   8  -7   46.78    5.48
  -5  -8   6  263.19   11.47
   5   8  -6  264.90   12.57
  -5  -8   5  335.67   12.89
  -5  -8   5  357.74   14.29
   5   8  -5  356.58   14.17
  -5  -8   4  358.22   13.27
  -5  -8   4  359.79    8.99
  -5  -8   4  392.74   14.63
   5   8  -4  354.88   13.79
  -5  -8   3  294.10    7.05
  -5  -8   3  295.48   11.95
  -5  -8   3  319.82   12.88
   5   8  -3  284.58   12.08
  -5  -8   2  176.34    9.29
  -5  -8   2  172.60    4.44
   5   8  -2  171.85    9.38
  -5  -8   2  168.71    9.23
   5   8  -2  166.88    9.09
   5   8  -1  144.41    8.42
   5   8  -1  134.45    7.93
  -5  -8   1  156.00    8.67
   5   8  -1  146.12    5.61
   5   8   0    5.43    1.72
   5   8   0   10.13    2.31
  -5  -8   0    8.07    2.10
   5   8   0    9.27    1.38
   5   8   1   -1.13    1.41
   5   8   1    0.00    1.05
  -5  -8  -1    0.92    0.98
   5   8   1    2.82    0.83
   5   8   2  234.39   10.75
   5   8   2  244.29   10.29
   5   8   2  231.79    5.70
  -5  -8  -2  235.69   10.39
   5   8   3  405.97   14.31
   5   8   3  386.86    7.42
  -5  -8  -3  407.62   13.65
   5   8   3  388.92   12.82
   5   8   4  643.60   18.29
  -5  -8  -4  654.04   10.23
   5   8   4  632.79   10.24
  -5  -8  -4  666.13   17.55
   5   8   4  643.45   16.34
  -5  -8  -5  351.81    8.02
   5   8   5  340.01   13.68
   5   8   5  336.14   11.71
  -5  -8  -6  592.24   11.29
  -5  -8  -6  598.43   15.85
   5   8   6  578.30   18.05
   5   8   6  570.29   15.21
  -5  -8  -7   97.42    4.98
  -5  -8  -7  105.35    6.75
   5   8   7  102.60    7.85
   5   8   7  102.22    6.49
  -5  -8  -8    8.91    1.75
   5   8   8    8.50    2.67
  -5  -8  -8    9.50    2.14
   5   8   8   13.51    2.49
  -5  -8  -9  314.49   10.38
  -5  -8  -9  300.02   11.54
   5   8   9  315.54   14.32
   5   8   9  313.26   11.50
  -5  -8 -10   95.49    6.23
  -5  -8 -10  112.50    7.22
   5   8  10  100.99    6.68
  -5  -8 -11   62.67    5.36
  -5  -8 -11   56.70    5.21
   5   8  11   62.39    5.36
  -5  -8 -12   98.91    7.14
  -5  -8 -12   97.54    6.99
   5   8  12  100.18    6.87
  -5  -8 -13  152.60    9.45
   5   8  13  142.76    8.40
  -5  -8 -13  135.92    8.41
  -5  -8 -14   17.19    3.46
  -5  -8 -14   17.90    3.26
   5   8  14   16.29    3.11
  -5  -8 -15    2.03    1.38
   5   8  15    2.37    1.44
  -5  -8 -16   55.84    6.83
  -5  -8 -17   37.02    5.80
  -5  -8 -18   33.30    5.88
  -5  -8 -18   29.43    6.02
  -5  -8 -19    3.00    2.48
  -5  -8 -19   10.48    4.16
  -5  -8 -20    5.87    2.97
  -5  -8 -20    3.41    2.48
   5   8  21   16.21    5.07
  -5  -8 -21    9.09    3.82
   5   9 -16   33.38    6.38
   5   9 -15   31.45    6.07
   5   9 -14    5.15    3.05
   5   9 -13   23.77    5.03
   5   9 -12  121.42   10.68
   5   9 -11  147.98   11.39
   5   9 -10  152.40   11.20
  -5  -9   9  233.13   11.03
   5   9  -9  263.45   14.31
  -5  -9   8  150.11    8.86
   5   9  -8  157.28   10.75
  -5  -9   7   25.28    3.78
   5   9  -7   22.58    4.04
  -5  -9   6  110.84    6.16
  -5  -9   6  109.39    7.51
   5   9  -6  114.83    8.71
  -5  -9   5  138.51    6.22
  -5  -9   5  139.55    8.44
   5   9  -5  144.67    9.52
  -5  -9   4  777.15   13.04
   5   9  -4  779.35   21.38
  -5  -9   3  727.12   11.00
   5   9  -3  726.04   20.21
   5   9  -2  489.89   15.47
  -5  -9   2  496.22   16.48
   5   9  -2  452.42   15.67
   5   9  -2  471.84   11.64
   5   9  -1  874.93   21.45
   5   9  -1  906.38   21.06
  -5  -9   1  924.75   22.07
   5   9  -1  859.91   14.76
   5   9   0  302.54   12.35
   5   9   0  298.25   12.32
  -5  -9   0  327.98   13.01
   5   9   0  307.35    8.27
   5   9   1    9.10    2.26
   5   9   1   10.68    2.51
  -5  -9  -1   10.64    2.58
   5   9   1    8.47    1.35
   5   9   2    1.59    1.47
   5   9   2   -0.09    1.03
   5   9   2   -0.08    0.77
  -5  -9  -2    1.65    1.39
   5   9   3  282.10   12.44
   5   9   3  271.91    7.19
  -5  -9  -3  292.74   12.13
   5   9   3  284.88   11.40
   5   9   4  709.08   20.09
  -5  -9  -4  689.44   11.98
   5   9   4  682.68   11.98
  -5  -9  -4  744.60   19.37
   5   9   4  708.20   17.76
   5   9   5  672.32   19.84
  -5  -9  -5  673.87   12.40
  -5  -9  -5  681.65   18.62
   5   9   5  660.47   16.96
   5   9   6 1132.27   26.24
  -5  -9  -6 1125.67   16.91
  -5  -9  -6 1137.80   24.25
   5   9   6 1122.17   21.98
  -5  -9  -7  529.33   12.32
   5   9   7  520.45   18.23
   5   9   7  542.24   15.32
  -5  -9  -8   94.89    5.56
   5   9   8  108.09    8.54
  -5  -9  -8   89.17    6.43
   5   9   8   86.77    6.18
  -5  -9  -9    9.05    2.15
  -5  -9  -9    3.08    1.29
   5   9   9    3.90    1.63
  -5  -9 -10   60.62    5.14
  -5  -9 -10   50.93    5.03
   5   9  10   60.96    5.30
  -5  -9 -11  260.00   11.11
  -5  -9 -11  249.25   11.11
   5   9  11  275.03   11.24
  -5  -9 -12  631.18   18.32
  -5  -9 -12  617.36   17.65
   5   9  12  620.77   17.20
  -5  -9 -13 1093.38   25.44
  -5  -9 -13 1046.20   23.37
   5   9  13 1082.75   23.18
  -5  -9 -14  276.68   13.47
  -5  -9 -14  279.24   12.46
   5   9  14  296.07   12.43
  -5  -9 -15   94.95    8.39
   5   9  15   98.28    7.37
  -5  -9 -16   73.97    8.01
  -5  -9 -17    3.68    2.64
  -5  -9 -18   76.15    8.82
  -5  -9 -19  139.99   12.01
  -5  -9 -19  131.23   12.16
  -5  -9 -20  146.85   12.82
  -5  -9 -20  146.03   13.34
   5  10 -14   15.28    4.43
   5  10 -13   -3.26    2.53
   5  10 -12   16.46    4.47
   5  10 -11   70.39    8.37
   5  10 -10   41.26    6.29
  -5 -10   9   27.88    3.89
   5  10  -9   37.08    5.85
  -5 -10   8   57.70    5.29
   5  10  -8   58.97    6.83
  -5 -10   7  105.59    6.45
   5  10  -7  106.28    9.04
  -5 -10   6   19.82    2.69
   5  10  -6   25.07    4.49
  -5 -10   5   50.96    3.75
   5  10  -5   57.11    6.32
   5  10  -4  226.58   12.12
   5  10  -3    1.84    1.38
   5  10  -3   -1.23    1.42
   5  10  -2   54.57    5.43
   5  10  -2   58.39    5.90
   5  10  -2   54.95    4.27
   5  10  -1   65.58    4.42
   5  10  -1   68.19    6.02
   5  10  -1   63.07    6.08
   5  10   0   27.75    2.77
   5  10   0   32.94    4.35
   5  10   0   28.04    3.97
   5  10   1  120.95    5.50
   5  10   1  134.60    8.63
   5  10   1  133.00    8.42
   5  10   2   27.75    2.62
   5  10   2   27.33    4.12
   5  10   2   23.66    3.49
   5  10   3    3.55    1.08
   5  10   3    2.65    0.56
   5  10   3    1.46    1.32
   5  10   3    2.66    1.53
  -5 -10  -4    0.53    0.70
   5  10   4    0.97    0.85
   5  10   4   -2.16    1.98
   5  10   4   -1.28    1.52
  -5 -10  -5   98.11    5.18
   5  10   5   96.75    5.25
   5  10   5   88.42    7.57
   5  10   5   80.30    6.17
  -5 -10  -6   16.18    2.27
   5  10   6   14.62    3.18
   5  10   6   14.79    2.70
  -5 -10  -7    3.32    1.35
   5  10   7    2.81    1.64
   5  10   7    1.24    0.95
  -5 -10  -8   49.86    4.29
   5  10   8   49.01    4.84
  -5 -10  -9   17.77    2.80
   5  10   9   25.29    3.59
  -5 -10 -10    9.31    2.21
  -5 -10 -10    7.63    1.88
   5  10  10    8.57    2.07
  -5 -10 -11   38.15    4.42
  -5 -10 -11   33.58    4.16
   5  10  11   34.06    4.03
  -5 -10 -12   -0.13    1.29
   5  10  12   -0.92    1.88
  -5 -10 -13    4.65    2.47
  -5 -10 -13    2.96    1.52
   5  10  13    6.68    2.32
  -5 -10 -14    1.03    1.29
   5  10  14   -0.14    1.47
  -5 -10 -15    3.36    2.83
   5  10  15    0.66    1.26
  -5 -10 -16    3.23    2.19
  -5 -10 -17    2.30    2.90
  -5 -10 -18    1.75    2.22
  -5 -10 -19   -4.41    2.03
  -5 -10 -19    5.22    3.71
  -5 -10 -20   -0.21    3.58
   5  11 -13   88.19   10.05
   5  11 -12    4.84    2.96
   5  11 -11   -0.30    2.17
   5  11 -10   86.65    9.18
   5  11  -9  274.44   15.89
  -5 -11   8  392.14   13.17
   5  11  -8  417.50   18.80
  -5 -11   7  428.17   12.81
   5  11  -7  449.85   19.02
  -5 -11   6  431.40   11.89
   5  11  -6  444.15   18.44
   5  11  -5  285.46   14.51
   5  11  -5  288.89   11.99
   5  11  -4    3.62    2.06
   5  11  -4    3.04    1.48
   5  11  -3   39.91    4.86
   5  11  -3   34.65    5.03
   5  11  -3   38.55    4.10
   5  11  -2  387.68   14.73
   5  11  -2  365.75   15.38
   5  11  -2  367.14   11.66
   5  11  -1  494.15   12.98
   5  11  -1  485.59   17.27
   5  11  -1  496.76   16.86
   5  11   0  470.56   12.19
   5  11   0  479.10   16.74
   5  11   0  486.05   16.92
   5  11   1  737.79   14.84
   5  11   1  777.01   21.42
   5  11   1  745.00   20.56
   5  11   2  601.26   13.25
   5  11   2  638.85   19.79
   5  11   2  623.21   18.42
   5  11   3  362.88   10.32
   5  11   3  376.63    6.52
   5  11   3  379.89   14.15
   5  11   3  380.20   15.50
  -5 -11  -4   13.55    2.16
   5  11   4   12.71    1.94
   5  11   4   19.26    3.83
   5  11   4   11.34    2.48
   5  11   5  135.83    6.65
  -5 -11  -5  144.43    6.82
   5  11   5  133.82    9.59
   5  11   5  135.99    8.28
  -5 -11  -6  295.47   10.05
   5  11   6  296.81   10.29
   5  11   6  299.24   14.64
   5  11   6  300.55   12.17
  -5 -11  -7  531.71   13.94
   5  11   7  542.13   20.10
   5  11   7  538.19   16.17
  -5 -11  -8  546.04   14.82
   5  11   8  560.34   16.47
  -5 -11  -9  646.11   16.82
   5  11   9  656.67   17.87
  -5 -11 -10  407.64   14.04
   5  11  10  419.87   14.35
  -5 -11 -11   78.10    6.40
   5  11  11   71.53    6.02
  -5 -11 -12   -1.77    1.76
   5  11  12    2.06    1.49
  -5 -11 -13   40.88    5.28
   5  11  13   41.23    4.64
  -5 -11 -14   93.22    8.20
   5  11  14   84.21    6.69
  -5 -11 -15  212.39   12.93
   5  11  15  235.81   11.27
  -5 -11 -16  324.44   16.52
  -5 -11 -17  184.14   13.18
  -5 -11 -18  103.72   10.28
  -5 -11 -19   37.32    6.89
   5  12 -12    0.92    1.71
   5  12 -11    7.96    3.28
   5  12 -10    0.32    2.55
   5  12  -9    3.47    2.25
   5  12  -8    2.16    2.35
   5  12  -7   32.83    5.54
   5  12  -6    1.04    1.69
   5  12  -6    0.31    1.46
   5  12  -5   18.67    4.19
   5  12  -5   20.02    3.57
   5  12  -4    7.37    2.69
   5  12  -4    2.55    1.45
   5  12  -3    1.43    1.42
   5  12  -3    3.63    2.01
   5  12  -3    0.70    1.08
   5  12  -2    5.96    1.77
   5  12  -2    8.40    2.65
   5  12  -2    6.67    2.05
   5  12  -1   26.58    3.31
   5  12  -1   21.90    3.78
   5  12  -1   23.45    4.01
   5  12   0    0.09    0.92
   5  12   0    1.09    2.02
   5  12   0   -0.27    1.55
   5  12   1    0.46    0.83
   5  12   1    0.89    1.54
   5  12   1   -1.79    2.15
   5  12   2   -0.07    1.24
   5  12   2    1.09    1.96
   5  12   2    1.49    1.33
   5  12   3  182.17    7.95
   5  12   3  199.38    5.45
   5  12   3  181.02   10.18
   5  12   3  219.53   12.33
   5  12   4   58.37    4.59
   5  12   4   59.08    6.54
   5  12   4   53.97    5.57
  -5 -12  -5    7.16    1.65
   5  12   5    5.54    1.56
   5  12   5    5.30    2.43
   5  12   5    6.32    2.16
  -5 -12  -6   17.55    2.67
   5  12   6   12.17    2.29
   5  12   6   18.94    4.16
   5  12   6   14.98    2.98
  -5 -12  -7    2.64    1.36
   5  12   7   -2.02    1.95
   5  12   7   -1.07    1.64
  -5 -12  -8    2.15    1.09
   5  12   8    5.18    1.74
  -5 -12  -9   72.92    5.99
   5  12   9   77.46    6.33
  -5 -12 -10   24.72    3.77
   5  12  10   29.19    4.04
  -5 -12 -11   45.23    5.31
   5  12  11   44.06    4.95
  -5 -12 -12   36.99    4.76
   5  12  12   31.39    4.10
  -5 -12 -13    1.71    1.87
   5  12  13   -2.47    1.98
  -5 -12 -14   16.71    3.51
   5  12  14   14.69    3.03
  -5 -12 -15   37.06    5.72
  -5 -12 -16   29.61    5.50
  -5 -12 -17   58.18    7.76
  -5 -12 -18   22.44    4.97
   5  13 -11  181.17   14.40
   5  13 -10  154.03   12.98
   5  13  -9    9.83    3.70
   5  13  -8    5.17    3.34
   5  13  -7   60.05    7.91
   5  13  -6  230.57   14.53
   5  13  -5  219.80   13.63
   5  13  -5  236.82   11.80
   5  13  -4  519.49   20.64
   5  13  -4  499.11   16.40
   5  13  -3  540.77   18.47
   5  13  -3  540.42   20.56
   5  13  -3  526.14   16.16
   5  13  -2   89.37    6.47
   5  13  -2   88.74    7.66
   5  13  -1   41.90    4.40
   5  13  -1   51.17    5.88
   5  13  -1   43.77    5.71
   5  13   0    7.51    2.09
   5  13   0    6.39    2.34
   5  13   0    8.05    2.65
   5  13   1  269.57   10.51
   5  13   1  275.25   13.44
   5  13   1  292.55   14.23
   5  13   2  485.26   13.93
   5  13   2  483.10   17.45
   5  13   2  509.56   19.01
   5  13   3  462.53   13.60
   5  13   3  481.98    9.34
   5  13   3  471.92   17.02
   5  13   3  490.88   19.01
   5  13   4  418.98   13.13
   5  13   4  473.96    9.96
   5  13   4  465.35   18.80
   5  13   4  440.89   16.16
   5  13   5  255.66   10.47
  -5 -13  -5  287.19   11.07
   5  13   5  257.05   14.34
   5  13   5  248.05   12.08
   5  13   6  136.84    7.89
  -5 -13  -6  137.55    7.80
   5  13   6  134.55   10.57
   5  13   6  134.19    8.89
   5  13   7    0.63    1.37
  -5 -13  -7   -0.66    1.35
   5  13   7    0.69    2.07
  -5 -13  -8   35.22    4.21
   5  13   8   30.33    4.30
  -5 -13  -9   75.36    6.27
   5  13   9   90.30    6.99
  -5 -13 -10  146.46    9.13
   5  13  10  148.18    8.98
  -5 -13 -11  179.77   10.51
   5  13  11  180.42    9.84
  -5 -13 -12  187.26   11.16
   5  13  12  231.41   11.09
  -5 -13 -13  204.00   12.19
   5  13  13  239.38   11.26
  -5 -13 -14   51.92    6.55
  -5 -13 -15    6.50    2.80
  -5 -13 -16   13.19    3.79
  -5 -13 -17   25.11    5.42
  -5 -13 -18   83.86    9.78
   5  14  -9    6.21    2.87
   5  14  -8   22.67    5.20
   5  14  -7    1.98    2.93
   5  14  -6   -0.13    2.07
   5  14  -5   -0.39    2.34
   5  14  -4   47.97    5.68
   5  14  -4   38.55    5.95
   5  14  -3   81.59    7.49
   5  14  -3   78.11    8.24
   5  14  -2   41.38    4.73
   5  14  -2   46.88    5.79
   5  14  -2   41.34    5.78
   5  14  -1   59.48    5.57
   5  14  -1   55.54    6.47
   5  14  -1   56.57    6.67
   5  14   0   55.58    5.17
   5  14   0   49.64    6.13
   5  14   0   57.05    6.52
   5  14   1    1.08    1.66
   5  14   1   -0.26    1.92
   5  14   1    0.07    2.18
   5  14   2   36.79    4.08
   5  14   2   34.23    5.05
   5  14   2   38.18    5.70
   5  14   3   80.28    6.12
   5  14   3   99.34    9.01
   5  14   3   86.93    4.36
   5  14   3   77.75    7.27
   5  14   4   73.12    5.95
   5  14   4   81.45    4.45
   5  14   4   77.13    8.08
   5  14   4   74.03    6.88
  -5 -14  -5  104.89    7.21
   5  14   5   94.89    6.84
   5  14   5  108.09    9.69
   5  14   5  104.21    8.21
  -5 -14  -6  176.22    9.47
   5  14   6  179.43    9.57
   5  14   6  183.66   12.87
   5  14   6  170.54   10.25
  -5 -14  -7   25.69    3.69
   5  14   7   22.85    3.60
   5  14   7   23.19    4.98
   5  14   7   27.79    4.15
  -5 -14  -8    2.37    1.89
   5  14   8   -0.82    1.52
  -5 -14  -9    9.88    2.79
   5  14   9   13.02    3.14
  -5 -14 -10   -2.95    1.79
   5  14  10    2.30    1.90
  -5 -14 -11   29.68    4.50
   5  14  11   30.21    4.16
  -5 -14 -12  112.93    8.97
   5  14  12  129.56    8.46
  -5 -14 -13   88.33    8.32
  -5 -14 -14  126.02   10.21
  -5 -14 -15   53.13    7.02
  -5 -14 -16    6.57    3.19
   5  15  -7   70.99    8.79
   5  15  -6   22.74    5.38
   5  15  -5    5.21    2.47
   5  15  -4   94.64    8.28
   5  15  -4   66.14    8.03
   5  15  -3   25.24    4.34
   5  15  -3   17.08    4.21
   5  15  -2  208.72   12.48
   5  15  -2  189.36   12.77
   5  15  -1  256.04   13.97
   5  15  -1  259.06   14.55
   5  15   0  186.17   12.12
   5  15   0  162.97   11.41
   5  15   1   52.62    6.52
   5  15   1   47.46    6.25
   5  15   2  110.39    9.74
   5  15   2  108.50    8.95
   5  15   3   53.17    6.91
   5  15   3   55.64    6.22
   5  15   4   -0.34    2.44
   5  15   4    0.23    1.60
   5  15   5  117.00   10.36
   5  15   5  106.57    8.51
  -5 -15  -6  232.11   11.35
   5  15   6  217.31   14.52
   5  15   6  206.58   11.64
  -5 -15  -7  263.15   12.27
   5  15   7  264.99   16.46
   5  15   7  252.21   12.69
  -5 -15  -8  147.75    9.41
   5  15   8  139.79    9.37
  -5 -15  -9   95.01    7.82
   5  15   9   95.39    7.64
  -5 -15 -10   22.74    4.11
   5  15  10   19.35    3.56
  -5 -15 -11   -1.80    1.97
   5  15  11   -1.00    1.77
  -5 -15 -12   37.88    5.48
  -5 -15 -13   36.32    5.68
  -5 -15 -14   58.63    7.21
  -5 -15 -15   53.22    7.26
   5  16  -5   17.14    4.73
   5  16  -4   18.85    4.08
   5  16  -4   16.62    4.25
   5  16  -3    1.84    1.74
   5  16  -3   -1.26    3.03
   5  16  -2   57.33    6.88
   5  16  -2   49.89    7.13
   5  16  -1  125.05   10.60
   5  16  -1  122.06   10.04
   5  16   0  180.35   12.28
   5  16   0  161.96   11.82
   5  16   1  192.54   12.91
   5  16   1  169.55   11.64
   5  16   2  208.75   13.58
   5  16   2  207.04   12.80
   5  16   3   90.32    8.29
   5  16   3   90.45    9.35
   5  16   4   19.08    5.08
   5  16   4   17.92    3.94
   5  16   5    5.32    2.72
   5  16   5   15.13    3.79
  -5 -16  -6   49.74    5.61
   5  16   6   46.91    6.99
   5  16   6   53.44    6.23
  -5 -16  -7  117.90    8.71
   5  16   7  138.75   12.32
   5  16   7  115.70    9.01
  -5 -16  -8  209.56   11.71
   5  16   8  226.88   16.27
   5  16   8  221.31   12.14
  -5 -16  -9  302.69   14.42
   5  16   9  342.79   14.73
  -5 -16 -10  127.14    9.68
  -5 -16 -11   60.95    6.89
  -5 -16 -12    3.52    2.61
   5  17  -4   61.82    7.19
   5  17  -3   11.31    3.32
   5  17  -3   15.51    3.90
   5  17  -2   -3.16    2.97
   5  17  -2   -0.11    1.99
   5  17  -1   27.06    5.15
   5  17  -1   24.08    4.83
   5  17   0   23.38    4.76
   5  17   0   25.51    5.38
   5  17   1   47.58    6.81
   5  17   1   50.04    6.83
   5  17   2   84.93    9.16
   5  17   2   67.28    7.70
   5  17   3   30.89    5.79
   5  17   3   29.80    5.31
   5  17   4   26.74    5.35
   5  17   4   25.11    4.72
   5  17   5   11.86    4.34
   5  17   5   11.69    3.53
   5  17   6   -8.52    3.41
   5  17   6    1.53    1.80
  -5 -17  -7    0.34    1.58
   5  17   7    3.63    3.46
   5  17   7    1.38    1.68
  -5 -17  -8   25.80    4.59
   5  17   8   21.76    4.32
   5  18  -2  101.98    9.78
   5  18  -1   58.09    7.58
   5  18  -1   54.93    7.47
   5  18   0   -0.55    2.71
   5  18   0   -1.01    2.58
   5  18   1   43.75    6.35
   5  18   1   56.97    7.51
   5  18   2  110.95   10.68
   5  18   2   99.75    9.44
   5  18   3  250.44   14.67
   5  18   3  274.06   16.93
   5  18   4  233.12   15.85
   5  18   4  230.44   13.86
   5  18   5  166.80   13.78
   5  18   5  152.53   11.19
   5  18   6   88.11    8.54
   5  18   7   37.04    5.47
   5  19  -1    7.49    3.86
   5  19   0    1.44    2.92
   5  19   1    5.46    2.33
   5  19   1   -2.04    2.86
   5  19   2    1.54    1.89
   5  19   2   -0.64    1.85
   5  19   3    5.59    2.92
   5  19   4    7.05    3.65
   5  19   5    5.27    2.92
  -6  15  -7    3.10    2.43
  -6  15  -8   -4.50    3.29
  -6  15  -9    2.26    2.57
  -6  14  -4  274.30   16.36
  -6  14  -5  177.38   11.57
  -6  14  -6   90.70    8.57
  -6  14  -7   25.20    4.93
  -6  14  -8   15.42    4.51
  -6  14  -9    4.35    2.42
  -6  14 -10   30.10    5.76
   6 -13  -1   35.82    6.20
   6 -13   0   26.03    5.19
   6 -13   1   14.27    4.50
  -6  13  -2    6.38    3.84
  -6  13  -3    1.03    3.61
  -6  13  -3    2.91    1.52
  -6  13  -4   12.73    3.69
  -6  13  -4   15.95    3.50
  -6  13  -5   52.56    7.16
  -6  13  -5   37.90    5.34
  -6  13  -6   55.03    7.46
  -6  13  -6   42.81    5.78
  -6  13  -7   79.96    8.82
  -6  13  -7   67.14    7.69
  -6  13  -8   34.84    5.79
  -6  13  -8   28.70    5.25
  -6  13  -9   26.90    5.36
  -6  13 -10   -1.39    2.11
  -6  13 -11    9.90    3.21
   6 -12  -4    3.32    2.59
   6 -12  -3   80.71    9.15
   6 -12  -2  146.54   12.19
   6 -12  -1  305.48   17.35
   6 -12   0  210.35   14.35
   6 -12   1   99.46    9.94
  -6  12  -2   48.41    6.59
  -6  12  -2   44.21    4.76
   6 -12   2   31.81    5.91
  -6  12  -3    5.64    2.21
  -6  12  -3    1.89    1.59
  -6  12  -4   -2.07    2.31
  -6  12  -4   -1.34    1.65
  -6  12  -5   33.53    5.36
  -6  12  -5   32.34    4.71
  -6  12  -6  101.69    9.54
  -6  12  -6   77.05    7.61
  -6  12  -7  119.79   10.49
  -6  12  -7  116.51    9.61
  -6  12  -8  155.69   12.07
  -6  12  -8  143.45   11.15
  -6  12  -9   56.44    8.10
  -6  12  -9   54.52    7.17
  -6  12 -10   43.50    6.68
  -6  12 -11    1.81    3.26
  -6  12 -12    3.15    2.39
  -6  12 -13    3.72    2.48
   6 -11  -6  147.43   12.59
   6 -11  -5  131.10   11.61
   6 -11  -4  124.01   11.53
   6 -11  -3    3.52    2.55
   6 -11  -2    4.80    2.83
   6 -11  -1   46.00    6.65
  -6  11   0  173.10    7.60
   6 -11   0  160.27   12.08
  -6  11  -1  179.52    8.48
   6 -11   1  178.39   12.67
  -6  11  -2  274.84   11.18
   6 -11   2  262.16   15.37
  -6  11  -3  148.43   11.00
  -6  11  -3  135.20    8.33
  -6  11  -4   86.28    8.51
  -6  11  -4   77.18    6.69
  -6  11  -5   43.59    6.30
  -6  11  -5   36.84    4.79
  -6  11  -6    3.47    2.29
  -6  11  -6    6.93    2.32
  -6  11  -7  101.50    9.28
  -6  11  -7   95.94    8.44
  -6  11  -8  187.00   12.77
  -6  11  -8  178.79   12.05
  -6  11  -9  352.41   17.47
  -6  11  -9  341.56   17.21
  -6  11 -10  114.39   10.37
  -6  11 -11  137.98   11.74
  -6  11 -12   19.04    4.56
  -6  11 -13   -2.28    2.89
  -6  11 -14   22.45    5.59
   6 -10  -8   16.39    4.21
   6 -10  -7   42.07    6.58
   6 -10  -6   63.44    8.00
   6 -10  -5   82.62    9.11
   6 -10  -4   11.06    3.32
   6 -10  -3  117.95   10.32
   6 -10  -2    7.53    2.68
   6 -10  -1    0.70    2.15
   6 -10   0    3.75    2.30
  -6  10   0    2.23    1.09
   6 -10   1   60.43    7.24
  -6  10  -1   65.91    4.99
  -6  10  -1   58.16    4.92
   6 -10   2   74.31    7.84
  -6  10  -2   87.08    6.04
  -6  10  -2   79.31    6.10
   6 -10   2   82.42    6.74
  -6  10  -3  103.03    8.91
  -6  10  -3   90.48    6.60
  -6  10  -3   92.65    6.91
   6 -10   3   90.67    7.66
  -6  10  -4  150.06   10.75
  -6  10  -4  141.22    8.65
   6 -10   4  154.17   10.38
  -6  10  -5  146.28   10.55
  -6  10  -5  136.99    8.95
   6 -10   5  144.61   10.52
  -6  10  -6   11.79    3.43
  -6  10  -6    6.69    2.31
  -6  10  -7    1.58    2.15
  -6  10  -7   -0.86    1.87
  -6  10  -8   20.33    4.16
  -6  10  -8   20.67    4.07
  -6  10  -9    7.82    2.87
  -6  10  -9    9.25    3.35
  -6  10 -10    7.76    2.59
  -6  10 -11   31.72    5.73
  -6  10 -12   46.03    7.16
  -6  10 -13   67.03    8.87
  -6  10 -14    3.60    2.53
  -6  10 -15   -0.87    2.37
   6  -9  -9  130.17   11.97
   6  -9  -8    6.05    3.12
   6  -9  -7    2.67    2.07
   6  -9  -6   77.49    8.58
   6  -9  -5  205.33   13.44
   6  -9  -4  170.97   12.08
   6  -9  -3  345.70   16.84
   6  -9  -2  170.16   11.58
   6  -9  -1  184.06   12.00
  -6   9   1  177.08    7.10
   6  -9   0   48.16    6.22
  -6   9   0   57.78    3.91
  -6   9   0   53.17    4.33
   6  -9   1    7.80    2.42
  -6   9  -1   12.06    2.01
  -6   9  -1    9.47    2.08
   6  -9   2   42.43    5.86
  -6   9  -2   42.96    4.15
  -6   9  -2   41.11    4.39
  -6   9  -3  517.10   18.70
   6  -9   3  492.12   19.19
  -6   9  -3  526.74   15.14
  -6   9  -3  511.27   15.70
  -6   9  -4  405.86   16.65
  -6   9  -4  395.57   14.05
  -6   9  -4  377.20   14.01
   6  -9   4  410.68   16.08
  -6   9  -5  338.09   15.21
  -6   9  -5  340.09   13.71
   6  -9   5  331.19   15.14
  -6   9  -6  289.41   14.18
  -6   9  -6  272.55   12.90
  -6   9  -7  144.76   10.15
  -6   9  -7  162.31   10.52
  -6   9  -8   45.15    5.90
  -6   9  -8   40.38    5.44
  -6   9  -9    0.94    2.19
  -6   9  -9   -0.43    2.14
  -6   9 -10   40.14    5.99
  -6   9 -11  226.94   14.56
  -6   9 -12  324.29   17.89
  -6   9 -13  224.46   15.38
  -6   9 -14  121.27   11.65
  -6   9 -15   71.93    9.28
   6  -8 -10   29.91    5.62
   6  -8  -9   -4.17    3.66
   6  -8  -8   19.98    4.54
   6  -8  -7    3.94    2.18
   6  -8  -6    2.28    2.46
   6  -8  -5    4.29    2.57
   6  -8  -4   15.06    3.83
   6  -8  -3   68.06    7.35
  -6   8   3   61.00    2.98
   6  -8  -2   25.81    4.63
  -6   8   2   20.72    2.12
   6  -8  -1   52.77    6.23
  -6   8   1   56.99    2.99
  -6   8   1   56.69    4.01
   6  -8   0   17.32    3.52
  -6   8   0   13.01    1.78
  -6   8   0   19.15    2.62
   6  -8   1    3.42    1.95
  -6   8  -1    6.79    1.65
  -6   8  -1    3.48    1.58
   6  -8   2    6.79    2.39
  -6   8  -2    8.52    1.87
  -6   8  -2    4.14    1.50
   6  -8   3   -0.84    1.87
  -6   8  -3   -0.31    0.94
  -6   8  -3    2.70    1.45
  -6   8  -4   15.45    3.39
  -6   8  -4   13.80    2.54
  -6   8  -4   13.41    2.68
  -6   8  -5   30.58    4.48
  -6   8  -5   30.41    4.12
  -6   8  -5   42.21    4.72
  -6   8  -6    8.44    2.83
  -6   8  -6   10.27    3.10
  -6   8  -7    0.01    2.04
  -6   8  -7   -0.40    1.37
  -6   8  -8   16.59    3.65
  -6   8  -8   22.79    4.20
  -6   8  -9   35.27    5.15
  -6   8  -9   27.20    4.67
  -6   8 -10   49.13    4.03
  -6   8 -10   47.80    6.47
  -6   8 -11    0.26    2.20
  -6   8 -12    1.32    2.27
  -6   8 -13   26.91    5.22
  -6   8 -14    1.80    2.97
  -6   8 -15    3.32    3.42
  -6   8 -16    4.31    3.26
   6  -7 -11    0.43    2.50
   6  -7 -10  176.33   13.45
   6  -7  -9  317.52   17.66
   6  -7  -8  377.34   18.55
   6  -7  -7  530.34   21.31
   6  -7  -6  235.03   13.83
   6  -7  -5   79.69    7.88
   6  -7  -4    6.24    2.46
   6  -7  -3   32.25    4.83
  -6   7   3   39.06    2.46
   6  -7  -2  348.36   15.23
  -6   7   2  335.25    8.44
   6  -7  -1  621.44   19.98
  -6   7   1  589.27    8.59
  -6   7   1  599.61   12.43
   6  -7   0  813.31   22.61
  -6   7   0  823.75   12.95
  -6   7   0  822.00   15.67
   6  -7   1  542.25   18.29
  -6   7  -1  572.89   12.39
  -6   7  -1  563.96   13.77
   6  -7   2  418.71   15.98
  -6   7  -2  410.78   11.61
  -6   7  -2  404.21   12.36
   6  -7   3   45.29    5.23
  -6   7  -3   45.20    4.22
  -6   7  -3   56.52    4.91
  -6   7  -4    0.55    1.33
  -6   7  -4    0.36    0.94
  -6   7  -4    3.21    1.97
  -6   7  -5  160.59    9.81
  -6   7  -5  181.22    9.62
  -6   7  -5  172.33    9.29
  -6   7  -6  428.93   16.03
  -6   7  -6  398.36   15.00
  -6   7  -6  388.43   14.46
  -6   7  -7  589.73   19.10
  -6   7  -7  573.87   18.98
  -6   7  -8  282.04   13.41
  -6   7  -8  287.01   14.01
  -6   7  -9  737.23   23.41
  -6   7 -10  118.73    6.11
  -6   7 -10  115.71    9.64
  -6   7 -11   16.18    2.09
  -6   7 -11   15.33    3.92
  -6   7 -12   11.59    3.98
  -6   7 -13   19.15    4.87
  -6   7 -14  134.19   11.84
  -6   7 -15  224.48   15.62
  -6   7 -16  158.94   13.55
  -6   7 -17   98.63   11.07
   6  -6 -12    2.22    2.27
   6  -6 -11   -0.46    2.53
   6  -6 -10   22.86    4.94
   6  -6  -9   -0.34    2.33
   6  -6  -8    9.18    2.71
   6  -6  -7   36.72    5.78
   6  -6  -6   13.88    3.20
   6  -6  -5   15.52    3.64
   6  -6  -4   91.21    7.91
   6  -6  -3   24.02    4.03
  -6   6   3   35.47    2.48
   6  -6  -2   16.44    3.35
  -6   6   2   14.15    1.81
   6  -6  -1   20.50    3.70
  -6   6   1   20.66    1.45
  -6   6   1   17.04    2.14
   6  -6   0    2.75    2.06
  -6   6   0    1.15    0.74
  -6   6   0   -0.22    0.81
   6  -6   1   45.17    5.16
  -6   6  -1   45.90    5.14
  -6   6  -1   50.30    3.55
  -6   6  -1   51.92    4.11
  -6   6  -2    7.23    2.00
   6  -6   2    8.36    2.43
  -6   6  -2    7.92    1.64
  -6   6  -2    8.19    2.02
  -6   6  -3  121.29    8.36
   6  -6   3  120.73    8.21
  -6   6  -3  120.95    6.75
  -6   6  -3  123.28    7.01
  -6   6  -4   49.33    5.28
  -6   6  -4   35.80    4.73
  -6   6  -4   37.81    4.16
  -6   6  -4   35.79    4.01
  -6   6  -5    0.75    1.11
  -6   6  -5    0.64    1.15
  -6   6  -5   -0.56    1.05
  -6   6  -5   -0.31    1.00
  -6   6  -6    1.25    1.35
  -6   6  -6    4.77    2.00
  -6   6  -6    1.12    0.99
  -6   6  -7   -0.75    1.52
  -6   6  -7   -0.39    1.44
  -6   6  -7   -1.11    1.51
  -6   6  -8   91.02    7.53
  -6   6  -8   85.46    7.61
  -6   6  -9   28.93    4.71
  -6   6 -10  145.79    6.64
  -6   6 -10  129.91   10.14
  -6   6 -11   27.04    2.70
  -6   6 -11   27.57    5.02
  -6   6 -12    2.51    2.36
  -6   6 -13    3.26    3.07
  -6   6 -14   22.90    4.69
  -6   6 -15    1.70    2.76
  -6   6 -16  102.70   10.83
  -6   6 -17   38.25    6.81
  -6   6 -18   35.64    7.03
   6  -5 -12  275.74   17.32
   6  -5 -11   94.36    9.91
   6  -5 -10  141.97   11.76
   6  -5  -9    0.90    2.09
   6  -5  -8   53.50    6.71
   6  -5  -7  154.41   10.83
   6  -5  -6  590.92   20.39
   6  -5  -5  562.42   19.26
   6  -5  -4  958.78   24.38
   6  -5  -3  417.45   15.60
  -6   5   3  415.90    8.69
  -6   5   2   25.68    3.97
   6  -5  -2   31.91    4.32
  -6   5   2   28.51    2.51
  -6   5   1   44.37    4.89
   6  -5  -1   41.23    4.74
  -6   5   1   41.59    1.86
  -6   5   1   42.89    3.32
   6  -5   0   17.78    3.07
  -6   5   0   22.06    3.47
  -6   5   0   24.71    2.07
  -6   5   0   21.11    2.47
  -6   5  -1  212.29   10.44
   6  -5   1  213.22   10.44
  -6   5  -1  214.22    7.14
  -6   5  -1  219.70    8.21
   6  -5   2  603.60   17.29
  -6   5  -2  640.59   17.82
  -6   5  -2  612.59   13.57
  -6   5  -2  593.34   14.06
  -6   5  -3  533.34   16.34
   6  -5   3  528.52   16.25
  -6   5  -3  548.37   14.15
  -6   5  -3  533.62   14.10
  -6   5  -4  473.88   15.27
  -6   5  -4  501.48   15.93
  -6   5  -4  486.05   14.36
  -6   5  -4  479.61   13.90
  -6   5  -5  296.53   12.19
  -6   5  -5  307.94   12.62
  -6   5  -5  293.28   11.93
  -6   5  -5  296.26   11.43
  -6   5  -6  169.83    9.31
  -6   5  -6  190.59   10.11
  -6   5  -6  165.27    9.48
  -6   5  -6  169.02    9.01
  -6   5  -7   29.07    4.09
  -6   5  -7   40.93    4.79
  -6   5  -7   25.75    4.07
  -6   5  -7   33.64    4.27
  -6   5  -8   68.78    6.36
  -6   5  -8   62.87    6.48
  -6   5  -8   71.55    6.40
  -6   5  -9  239.38    8.88
  -6   5  -9  235.95   12.84
  -6   5 -10  268.69    8.90
  -6   5 -10  258.45   13.96
  -6   5 -11  458.24   10.91
  -6   5 -11  465.35   19.30
  -6   5 -12  317.94   16.55
  -6   5 -13  181.28   12.93
  -6   5 -14    7.56    3.04
  -6   5 -15   -0.66    3.16
  -6   5 -16   86.25    9.77
  -6   5 -17  104.65   10.95
  -6   5 -18  111.50   11.54
   6  -4 -13    0.84    1.91
   6  -4 -12    8.93    3.40
   6  -4 -11   22.10    5.06
   6  -4 -10   86.50    9.05
   6  -4  -9  150.72   11.38
   6  -4  -8   44.69    6.02
   6  -4  -7    1.79    1.46
   6  -4  -6   16.10    3.31
   6  -4  -5  218.68   11.56
   6  -4  -4   39.26    4.86
   6  -4  -4   44.00    2.90
   6  -4  -3  312.31   12.91
  -6   4   3  333.55   13.38
  -6   4   3  317.91    7.95
   6  -4  -3  310.95    8.26
   6  -4  -2  474.97   15.49
  -6   4   2  492.51   15.73
  -6   4   2  487.85   10.41
   6  -4  -2  484.74   10.97
  -6   4   1  272.01   11.46
   6  -4  -1  274.64   11.52
  -6   4   1  277.88    4.69
  -6   4   1  295.36    8.54
   6  -4   0  160.95    8.67
  -6   4   0  160.81    8.68
  -6   4   0  167.31    5.30
  -6   4   0  151.80    6.46
  -6   4  -1   -0.46    1.36
   6  -4   1   -0.19    1.12
  -6   4  -1    1.25    0.83
  -6   4  -1    1.07    0.70
  -6   4  -2   42.67    4.43
   6  -4   2   32.34    3.84
  -6   4  -2   41.25    3.56
  -6   4  -2   38.61    3.58
  -6   4  -3  270.21   10.93
   6  -4   3  264.85   10.84
  -6   4  -3  275.22   10.01
  -6   4  -3  280.32    9.94
  -6   4  -4   34.77    4.03
  -6   4  -4   35.10    4.15
  -6   4  -4   35.26    3.81
  -6   4  -4   33.86    3.73
  -6   4  -5  219.31   10.02
  -6   4  -5  210.32    9.89
  -6   4  -5  220.63   10.27
  -6   4  -5  218.54    9.55
  -6   4  -6  543.50   16.03
  -6   4  -6  579.90   16.67
  -6   4  -6  538.97   16.84
  -6   4  -6  550.54   15.74
  -6   4  -7  285.03   11.91
  -6   4  -7  280.36   11.86
  -6   4  -7  261.80   12.33
  -6   4  -7  268.68   11.44
  -6   4  -8  135.42    8.42
  -6   4  -8  119.29    6.44
  -6   4  -8  128.44    8.16
  -6   4  -8  126.00    8.94
  -6   4  -8  122.93    8.07
  -6   4  -9   57.44    4.36
  -6   4  -9   54.56    6.18
  -6   4  -9   54.24    5.44
  -6   4 -10   98.49    5.41
  -6   4 -10  109.85    9.03
  -6   4 -11  241.76    8.09
  -6   4 -11  239.31   13.73
  -6   4 -12  593.87   22.16
  -6   4 -13  436.27   19.60
  -6   4 -14  350.51   18.13
  -6   4 -15    3.77    2.87
  -6   4 -16   -0.80    2.99
  -6   4 -17   17.48    4.48
  -6   4 -18   70.03    9.10
  -6   4 -19  134.81   12.84
   6  -3 -14   -0.50    2.58
   6  -3 -13    0.61    3.12
   6  -3 -12  143.74   12.19
   6  -3 -11  176.02   12.79
   6  -3 -10  214.45   13.69
   6  -3  -9  166.58   11.55
   6  -3  -9  156.30    4.49
   6  -3  -8   95.42    8.45
   6  -3  -8   99.78    3.88
   6  -3  -7  118.17    8.98
   6  -3  -7  118.63    4.50
   6  -3  -6   43.03    5.22
   6  -3  -6   40.26    2.76
   6  -3  -5    4.06    1.76
   6  -3  -5    2.98    0.99
   6  -3  -4  170.43    9.50
  -6   3   4  173.46    9.65
   6  -3  -4  169.88    6.13
   6  -3  -3  275.63   11.74
  -6   3   3  275.48   11.69
   6  -3  -3  281.65    8.18
   6  -3  -2  486.81   14.97
  -6   3   2  495.13   15.06
  -6   3   2  488.57   10.71
   6  -3  -2  487.31   11.13
   6  -3  -1  302.89   11.49
  -6   3   1  296.32   11.29
  -6   3   1  312.11    5.74
   6  -3  -1  304.28    9.14
  -6   3   1  301.49    8.71
   6  -3   0  238.86    9.94
  -6   3   0  235.94    9.94
  -6   3   0  239.94    6.62
   6  -3   0  231.24    8.26
  -6   3   0  238.87    8.06
   6  -3   1   12.56    2.46
  -6   3  -1   12.39    2.39
   6  -3   1   14.79    2.25
  -6   3  -1   13.42    1.91
  -6   3  -1   19.05    2.48
  -6   3  -2  291.78   10.66
   6  -3   2  278.77   10.48
  -6   3  -2  282.56    9.34
  -6   3  -2  278.88    9.35
   6  -3   2  284.74    9.84
   6  -3   3    3.34    1.45
  -6   3  -3    2.39    1.05
   6  -3   3    4.35    1.62
  -6   3  -3    4.14    1.34
  -6   3  -3    4.21    1.57
  -6   3  -4   88.65    6.09
  -6   3  -4   91.71    6.07
  -6   3  -4   83.27    5.92
  -6   3  -4   89.55    5.80
  -6   3  -5  369.75   12.38
  -6   3  -5  390.85   12.61
  -6   3  -5  375.22   13.19
  -6   3  -5  362.26   11.96
  -6   3  -6  171.14    8.62
  -6   3  -6  167.20    8.50
  -6   3  -6  159.34    9.05
  -6   3  -6  185.35    8.96
  -6   3  -7  335.99   12.39
  -6   3  -7  333.83   12.25
  -6   3  -7  337.16   13.79
  -6   3  -7  334.58   12.43
  -6   3  -8  132.85    6.76
  -6   3  -8  140.57    8.13
  -6   3  -8  147.34    9.50
  -6   3  -8  132.70    8.11
  -6   3  -9   21.67    3.46
  -6   3  -9   21.05    2.74
  -6   3  -9   23.21    4.06
  -6   3  -9   28.87    4.09
  -6   3 -10    0.28    0.71
  -6   3 -10    2.24    2.20
  -6   3 -11   19.43    4.11
  -6   3 -12   23.12    4.68
  -6   3 -13   72.50    8.04
  -6   3 -14   82.46    8.66
  -6   3 -15   87.13    9.35
  -6   3 -16   41.86    6.65
  -6   3 -17   26.99    5.44
  -6   3 -18   -0.84    2.70
  -6   3 -19    6.42    3.01
   6  -2 -14   42.72    7.39
   6  -2 -13   62.77    8.36
   6  -2 -12    5.15    2.99
   6  -2 -11   23.72    4.73
   6  -2 -10  149.47   11.36
   6  -2 -10  159.95    6.09
   6  -2  -9   94.04    8.70
   6  -2  -9   92.09    4.67
   6  -2  -8  659.00   21.38
   6  -2  -8  642.33   12.24
   6  -2  -7  266.62   13.11
   6  -2  -7  264.44    7.90
   6  -2  -6  179.71   10.31
   6  -2  -6  176.67    6.53
   6  -2  -5   54.86    5.47
   6  -2  -5   59.98    3.86
   6  -2  -4   -0.40    1.68
   6  -2  -4   -0.54    0.90
   6  -2  -3   29.70    3.81
  -6   2   3   29.91    3.81
   6  -2  -3   32.20    2.87
  -6   2   2  410.57   10.10
  -6   2   2  419.99   13.21
   6  -2  -2  423.76   13.26
  -6   2   2  406.17    5.75
  -6   2   2  405.52    5.07
   6  -2  -2  412.09   10.34
   6  -2  -1  663.49   15.99
  -6   2   1  672.12   16.04
   6  -2  -1  696.71   13.85
  -6   2   1  682.15   10.23
  -6   2   1  681.87   13.28
  -6   2   0  535.45   13.95
   6  -2   0  523.82   13.80
   6  -2   0  540.23   12.53
  -6   2   0  527.36   10.53
  -6   2   0  560.06   12.42
  -6   2  -1  640.32   14.88
   6  -2   1  629.29   14.84
  -6   2  -1  617.05   12.68
   6  -2   1  623.14   13.83
  -6   2  -1  632.73   13.58
   6  -2   2    1.11    1.00
  -6   2  -2    1.07    1.34
   6  -2   2    3.18    1.18
  -6   2  -2    4.09    1.48
  -6   2  -2    4.53    1.74
  -6   2  -3  969.46   18.08
   6  -2   3  991.66   18.42
   6  -2   3  982.63   18.45
  -6   2  -3  990.83   18.01
  -6   2  -3  976.99   18.59
  -6   2  -4  145.49    7.12
  -6   2  -4  146.87    7.39
  -6   2  -4  139.77    7.01
  -6   2  -4  145.32    7.66
   6  -2   4  143.49    7.33
  -6   2  -5   51.05    4.31
  -6   2  -5   47.62    4.27
  -6   2  -5   55.44    4.68
  -6   2  -5   49.79    4.86
   6  -2   5   52.89    4.70
  -6   2  -6  531.89   14.17
  -6   2  -6  511.75   14.24
  -6   2  -6  521.24   14.56
  -6   2  -6  529.29   16.23
   6  -2   6  498.82   14.69
  -6   2  -7  561.73   14.94
  -6   2  -7  548.11   13.98
  -6   2  -7  551.15   15.15
  -6   2  -7  553.77   15.58
  -6   2  -7  522.56   16.91
  -6   2  -8  501.15   14.62
  -6   2  -8  487.52   12.92
  -6   2  -8  488.47   15.19
  -6   2  -8  508.40   17.34
   6  -2   9  614.81   16.99
  -6   2  -9  587.53   13.90
  -6   2  -9  583.42   17.16
  -6   2  -9  578.98   19.23
   6  -2  10  307.01   12.45
  -6   2 -10  295.06    9.71
  -6   2 -10  287.56   14.08
  -6   2 -10  298.36   12.72
  -6   2 -11   31.57    5.01
  -6   2 -12    4.11    2.44
  -6   2 -13  160.44   11.63
  -6   2 -14  289.74   16.09
  -6   2 -15  255.91   15.56
  -6   2 -16  250.71   15.78
  -6   2 -17  272.22   16.96
  -6   2 -18   85.61    9.86
  -6   2 -19   34.56    6.74
   6  -1 -14   73.03    9.05
   6  -1 -13   41.10    6.63
   6  -1 -12   34.62    6.21
   6  -1 -11   15.81    4.11
   6  -1 -11   17.48    2.54
   6  -1 -10    3.19    2.34
   6  -1 -10    0.11    0.88
   6  -1  -9   10.38    3.16
   6  -1  -9    6.64    1.58
   6  -1  -8   12.33    3.24
   6  -1  -8   18.02    2.36
   6  -1  -7  175.87   10.45
   6  -1  -7  169.15    6.89
   6  -1  -6  257.76   11.95
   6  -1  -6  252.21    8.31
   6  -1  -5   80.79    6.44
   6  -1  -5   87.59    4.85
  -6   1   5   80.78    2.55
   6  -1  -4   27.59    3.71
  -6   1   4   26.26    1.53
   6  -1  -4   23.86    2.57
   6  -1  -3    6.19    1.64
  -6   1   3    7.58    2.10
  -6   1   3    8.51    1.00
   6  -1  -3    7.04    1.44
  -6   1   2    0.97    1.07
  -6   1   2    2.53    1.24
   6  -1  -2    3.03    1.29
  -6   1   2    2.26    0.60
   6  -1  -2    2.27    1.00
  -6   1   1    3.62    1.04
   6  -1  -1    4.65    1.48
  -6   1   1    1.50    1.12
  -6   1   1    3.38    0.75
   6  -1  -1    3.41    1.09
  -6   1   0   31.55    3.16
   6  -1   0   34.34    3.40
   6  -1   0   31.43    3.06
  -6   1   0   32.38    3.04
   6  -1   1   18.72    2.42
  -6   1  -1   24.57    2.76
  -6   1  -1   24.99    2.78
   6  -1   1   24.71    2.87
  -6   1  -2 1074.35   17.55
   6  -1   2 1068.94   17.70
   6  -1   2 1070.69   18.47
  -6   1  -2 1114.00   18.52
  -6   1  -3  242.02    8.35
   6  -1   3  231.45    8.26
   6  -1   3  228.97    8.81
  -6   1  -3  238.21    8.81
  -6   1  -4  356.55   10.25
  -6   1  -4  378.72   11.15
  -6   1  -4  385.19   11.51
   6  -1   4  363.38   11.46
  -6   1  -5   13.04    2.11
  -6   1  -5   15.52    2.44
   6  -1   5   14.20    2.44
  -6   1  -5   13.71    2.28
  -6   1  -6   52.78    4.18
  -6   1  -6   49.59    4.26
  -6   1  -6   49.93    4.30
  -6   1  -6   49.03    4.94
  -6   1  -6   57.13    4.78
   6  -1   6   55.38    4.80
  -6   1  -7    6.84    1.56
  -6   1  -7    7.51    1.79
   6  -1   7    5.74    1.69
  -6   1  -7    5.85    1.79
  -6   1  -7    8.37    2.33
   6  -1   8   19.41    2.89
  -6   1  -8   19.42    2.56
   6  -1   8   19.32    3.16
  -6   1  -8   23.05    3.35
  -6   1  -8   17.91    3.30
  -6   1  -9    2.99    1.29
   6  -1   9    0.90    1.12
  -6   1  -9    5.29    1.69
  -6   1  -9    4.73    1.83
   6  -1  10   15.06    2.80
  -6   1 -10   12.17    2.04
  -6   1 -10    7.92    2.47
  -6   1 -10   14.95    2.91
   6  -1  11  103.62    7.36
  -6   1 -11   96.50    8.40
  -6   1 -12    2.89    1.91
  -6   1 -13   26.72    5.00
  -6   1 -14    6.43    2.83
  -6   1 -15   11.71    3.53
  -6   1 -16    1.31    2.76
  -6   1 -17    3.19    3.09
  -6   1 -18   -0.65    2.84
  -6   1 -19    4.50    3.48
  -6   1 -20    1.29    2.18
   6   0 -15   80.37    9.83
   6   0 -14  140.41   12.33
   6   0 -13  131.18   11.44
   6   0 -12  124.14   10.80
   6   0 -11  278.64   15.42
   6   0 -11  289.61   10.68
   6   0 -10  254.02   14.06
   6   0 -10  261.22    8.05
   6   0 -10  263.52    9.99
   6   0  -9   15.07    3.47
   6   0  -9   17.50    2.64
   6   0  -8   20.46    3.87
   6   0  -8   17.21    2.56
  -6   0   8   14.36    1.96
   6   0  -7  197.99   10.76
  -6   0   7  192.97    6.60
   6   0  -7  189.36    7.91
   6   0  -6  262.19   11.71
  -6   0   6  253.04    7.13
   6   0  -6  250.30    8.93
   6   0  -5  889.33   20.38
  -6   0   5  893.92   12.68
   6   0  -5  903.56   16.63
   6   0  -4  783.50   18.13
  -6   0   4  788.94   11.45
   6   0  -4  773.66   15.15
   6   0  -3  478.22   13.38
  -6   0   3  494.67    8.94
   6   0  -3  486.72   11.96
   6   0  -2  294.28    9.96
  -6   0   2  290.48    6.92
   6   0  -2  293.30    9.27
  -6   0   1   23.43    2.65
  -6   0   1   24.04    2.78
   6   0  -1   16.53    2.28
  -6   0   1   21.22    2.00
   6   0  -1   18.16    2.41
  -6   0   0   45.58    3.55
   6   0   0   48.60    3.68
  -6   0   0   50.81    3.90
   6   0   0   47.63    3.83
   6   0   1  604.55   12.36
  -6   0  -1  596.23   12.20
  -6   0  -1  611.95   13.63
   6   0   1  576.81   13.36
  -6   0  -2 1802.69   20.76
   6   0   2 1816.09   21.06
  -6   0  -2 1865.34   24.04
   6   0   2 1826.94   24.21
   6   0   3 1446.76   18.77
  -6   0  -3 1391.91   18.16
  -6   0  -3 1446.97   20.24
   6   0   3 1433.41   21.96
  -6   0  -3 1429.44   21.51
  -6   0  -4 1113.65   16.48
  -6   0  -4 1143.92   18.17
   6   0   4 1132.79   20.05
  -6   0  -4 1158.90   19.93
  -6   0  -5  615.52   12.66
  -6   0  -5  608.49   15.31
  -6   0  -5  605.74   13.59
  -6   0  -5  617.35   14.94
   6   0   5  622.48   15.29
  -6   0  -6  226.60    8.02
  -6   0  -6  214.04    8.39
  -6   0  -6  227.95    9.26
   6   0   6  238.79    9.77
  -6   0  -6  238.63    9.57
  -6   0  -7   11.23    1.94
   6   0   7   13.92    2.39
  -6   0  -7   13.71    2.39
   6   0   7    9.71    2.01
  -6   0  -7   14.46    2.50
  -6   0  -8  175.69    7.99
   6   0   8  177.95    8.20
   6   0   8  169.87    8.78
  -6   0  -8  186.72    9.05
   6   0   9  199.61    9.07
  -6   0  -9  196.41    8.40
   6   0   9  185.52    9.53
  -6   0  -9  187.75    9.42
  -6   0  -9  185.35   10.52
   6   0  10  563.22   15.97
  -6   0 -10  556.60   18.91
  -6   0 -10  554.14   16.62
   6   0  11  413.06   14.32
  -6   0 -11  428.68   17.29
  -6   0 -11  423.75   14.98
   6   0  12  854.35   21.56
  -6   0 -12  803.72   24.68
  -6   0 -13  187.38   12.37
  -6   0 -14  129.98   10.62
  -6   0 -15    1.29    2.14
  -6   0 -16  219.62   14.60
  -6   0 -17  153.88   12.55
  -6   0 -18  145.21   12.61
  -6   0 -19  190.18   14.72
  -6   0 -20  198.16   15.40
   6   1 -15    0.68    2.03
   6   1 -14   -3.79    3.13
   6   1 -13    0.24    3.06
   6   1 -12   13.97    2.83
   6   1 -12   10.64    3.71
   6   1 -11   48.32    4.74
   6   1 -11   41.76    6.10
   6   1 -11   50.82    4.31
   6   1 -10    0.08    1.04
   6   1 -10    1.98    1.78
   6   1 -10    1.00    0.84
  -6  -1  10   -1.69    1.37
   6   1  -9   75.41    5.64
   6   1  -9   74.45    7.21
   6   1  -9   78.54    4.94
  -6  -1   9   76.36    5.37
   6   1  -8    3.43    1.42
   6   1  -8    1.38    1.41
   6   1  -8    3.15    1.12
  -6  -1   8    6.75    1.68
   6   1  -7   -0.22    1.62
   6   1  -7    0.80    1.04
  -6  -1   7    0.35    0.84
   6   1  -6    3.38    1.42
  -6  -1   6    4.71    1.34
   6   1  -6    2.73    1.52
   6   1  -5   11.33    2.01
   6   1  -5    9.42    2.21
  -6  -1   5   11.23    1.66
   6   1  -4  254.80    9.99
  -6  -1   4  256.82    7.60
   6   1  -4  240.55    8.97
   6   1  -3   40.28    3.75
  -6  -1   3   38.69    2.89
   6   1  -3   38.60    3.58
   6   1  -2    1.59    0.96
  -6  -1   2    1.93    0.89
   6   1  -2    0.79    0.95
  -6  -1   1   27.98    3.04
   6   1  -1   25.81    2.64
  -6  -1   1   30.92    2.62
   6   1  -1   28.76    3.13
   6   1   0    1.04    0.67
  -6  -1   0    1.47    0.60
  -6  -1   0    0.07    1.02
   6   1   0    0.66    0.90
   6   1   1   14.35    1.82
  -6  -1  -1   16.14    1.82
  -6  -1  -1   11.97    2.09
   6   1   1   14.61    2.41
   6   1   2  471.22    9.57
  -6  -1  -2  460.90    9.30
  -6  -1  -2  491.07   12.62
   6   1   2  492.85   12.68
  -6  -1  -3    6.96    1.12
  -6  -1  -3    8.26    1.66
  -6  -1  -3    7.29    2.06
  -6  -1  -3    7.58    1.67
   6   1   3    7.41    1.62
  -6  -1  -4   75.87    3.87
  -6  -1  -4   77.79    4.50
  -6  -1  -4   83.55    5.79
   6   1   4   79.00    5.35
  -6  -1  -4   81.08    5.28
  -6  -1  -5   55.28    3.47
  -6  -1  -5   58.07    4.02
  -6  -1  -5   53.92    4.59
   6   1   5   56.06    4.61
  -6  -1  -5   54.83    4.49
  -6  -1  -6  292.19    8.40
  -6  -1  -6  294.28   10.66
  -6  -1  -6  307.65   10.81
   6   1   6  291.29   10.68
  -6  -1  -7    0.56    0.99
   6   1   7    5.04    1.45
   6   1   7    2.21    1.38
  -6  -1  -7    0.78    0.99
  -6  -1  -8    3.35    1.31
   6   1   8    2.79    1.21
   6   1   8    3.67    1.06
  -6  -1  -8    4.07    1.55
   6   1   9    1.76    1.20
   6   1   9    1.38    1.37
  -6  -1  -9   -0.32    1.47
   6   1  10    3.93    1.23
   6   1  10    5.16    1.85
   6   1  10    9.47    2.42
  -6  -1 -10    2.59    1.47
   6   1  11    1.33    1.40
   6   1  11    5.65    1.88
   6   1  11    4.57    1.88
  -6  -1 -11    5.14    1.65
  -6  -1 -11    3.06    1.79
   6   1  12    4.20    2.09
   6   1  12    6.08    1.97
  -6  -1 -12    2.90    2.32
   6   1  13   35.02    4.04
  -6  -1 -13   38.81    5.70
   6   1  14   27.22    3.67
  -6  -1 -14   25.71    4.86
   6   1  15   60.94    5.52
  -6  -1 -15   55.47    7.32
   6   1  16    3.66    1.69
  -6  -1 -16    2.18    2.41
   6   1  17    1.88    1.49
  -6  -1 -17    3.87    3.13
   6   1  18    2.62    1.39
  -6  -1 -18    4.68    2.67
  -6  -1 -19   22.45    5.63
  -6  -1 -20   18.88    5.26
   6   2 -15   59.71    8.50
   6   2 -14   14.94    4.11
   6   2 -13    0.37    1.38
   6   2 -13    5.28    2.60
   6   2 -12   69.20    6.16
   6   2 -12   83.66    6.35
   6   2 -12   71.67    8.10
   6   2 -11  148.06    8.85
   6   2 -11  136.82    7.72
   6   2 -11  120.71   10.00
   6   2 -10  288.62   12.00
  -6  -2  10  306.84   12.03
   6   2 -10  294.03   10.83
   6   2 -10  283.08   14.59
   6   2  -9  511.85   15.53
  -6  -2   9  540.68   15.24
   6   2  -9  534.43   14.14
   6   2  -9  512.10   18.55
   6   2  -8  408.77   13.53
   6   2  -8  426.97   12.08
  -6  -2   8  443.69   13.21
   6   2  -8  411.28   15.78
   6   2  -7  199.31    9.20
   6   2  -7  217.06    8.33
  -6  -2   7  220.23    8.91
   6   2  -7  203.14   10.51
   6   2  -6  123.73    7.08
  -6  -2   6  129.78    6.51
   6   2  -6  125.62    7.79
   6   2  -5  126.64    6.98
  -6  -2   5  132.28    6.26
   6   2  -5  124.41    7.27
   6   2  -4   31.42    3.42
   6   2  -4   28.22    3.28
  -6  -2   4   30.13    2.91
   6   2  -3 1012.82   17.88
  -6  -2   3 1015.23   16.16
   6   2  -3  980.08   18.57
   6   2  -2  726.31   13.97
  -6  -2   2  717.80   13.49
   6   2  -2  751.91   16.04
   6   2  -1  954.15   14.70
  -6  -2   1  952.76   15.46
   6   2  -1  949.05   17.82
  -6  -2   0  731.30   15.50
   6   2   0  699.36   11.54
  -6  -2   0  696.32   13.34
   6   2   0  686.31   15.07
  -6  -2  -1  189.50    5.56
   6   2   1  192.55    5.57
  -6  -2  -1  197.95    8.11
   6   2   1  188.48    7.94
   6   2   2    5.19    0.95
  -6  -2  -2    7.72    1.12
  -6  -2  -2   10.07    2.15
  -6  -2  -2    8.19    1.81
   6   2   2    5.93    1.44
  -6  -2  -3   77.43    3.21
  -6  -2  -3   80.43    4.11
  -6  -2  -3   82.55    5.87
  -6  -2  -3   76.79    5.19
   6   2   3   86.61    5.50
  -6  -2  -4   34.83    2.26
  -6  -2  -4   32.60    2.75
  -6  -2  -4   33.10    3.70
  -6  -2  -4   36.13    3.63
   6   2   4   36.71    3.66
  -6  -2  -5  312.23    7.21
  -6  -2  -5  325.26   11.44
   6   2   5  321.16   10.90
  -6  -2  -5  336.59   11.09
  -6  -2  -6 2082.88   20.41
  -6  -2  -6 2106.94   28.99
   6   2   6 2006.77   22.83
   6   2   6 2100.29   28.43
  -6  -2  -6 2155.82   28.55
   6   2   7 1070.05   17.56
  -6  -2  -7 1088.41   20.91
   6   2   7 1112.69   21.28
  -6  -2  -7 1122.33   21.17
  -6  -2  -8  582.16   15.33
   6   2   8  562.24   13.50
   6   2   8  574.11   15.64
   6   2   8  608.00   16.18
  -6  -2  -8  608.92   16.08
   6   2   9  432.75   12.57
   6   2   9  399.04   13.19
   6   2   9  435.18   14.08
  -6  -2  -9  432.19   13.89
   6   2  10  119.37    7.10
   6   2  10  120.51    7.36
   6   2  10  129.84    7.97
  -6  -2 -10  128.97    7.83
   6   2  11    2.71    1.61
   6   2  11    4.06    1.81
   6   2  11    1.95    1.59
  -6  -2 -11    1.99    1.27
   6   2  12  191.66    9.56
   6   2  12  196.62   10.44
   6   2  13  669.61   18.06
  -6  -2 -13  694.37   23.27
   6   2  14  533.78   16.39
  -6  -2 -14  553.39   21.38
   6   2  15  221.99   10.77
  -6  -2 -15  267.70   15.49
   6   2  16   87.06    6.94
  -6  -2 -16   97.66    9.68
   6   2  17   55.21    5.66
  -6  -2 -17   50.16    7.29
   6   2  18    0.83    1.42
  -6  -2 -18    4.83    2.76
  -6  -2 -19   26.94    5.87
  -6  -2 -20   79.66   10.90
   6   3 -15    1.59    2.12
   6   3 -14    3.29    1.82
   6   3 -14   -1.10    2.47
   6   3 -13   16.09    3.34
   6   3 -13   16.61    3.17
   6   3 -13    8.30    3.22
   6   3 -12   15.67    3.22
   6   3 -12   13.27    3.63
   6   3 -12   16.53    3.10
   6   3 -11   -0.24    1.44
   6   3 -11   -1.22    2.25
   6   3 -11    0.75    1.01
  -6  -3  11    0.58    1.87
   6   3 -10    1.45    1.41
   6   3 -10   -2.07    2.18
   6   3 -10    2.47    1.68
  -6  -3  10    0.05    1.45
   6   3  -9    3.93    1.96
   6   3  -9   -0.80    1.84
   6   3  -9    2.48    1.57
  -6  -3   9    1.74    1.69
   6   3  -8   47.44    4.90
   6   3  -8   47.13    4.42
  -6  -3   8   50.76    4.86
   6   3  -8   46.03    5.40
   6   3  -7   52.17    5.04
  -6  -3   7   48.64    4.57
   6   3  -7   49.07    4.37
   6   3  -7   43.96    4.96
   6   3  -6   52.24    4.94
   6   3  -6   55.67    4.45
  -6  -3   6   59.08    4.75
   6   3  -6   52.11    5.06
   6   3  -5   16.30    2.81
  -6  -3   5   15.77    2.45
   6   3  -5   18.04    3.02
   6   3  -4   12.39    2.48
  -6  -3   4   11.35    2.07
   6   3  -4    9.51    1.94
   6   3  -3   39.99    4.02
  -6  -3   3   33.02    3.23
   6   3  -3   38.05    3.41
   6   3  -2    9.05    2.04
   6   3  -2   13.42    1.95
  -6  -3   2   11.67    2.00
   6   3  -1   65.88    3.62
  -6  -3   1   72.04    4.60
   6   3  -1   72.01    5.16
  -6  -3   0  204.66    8.48
  -6  -3   0  196.76    9.43
   6   3   0  189.16    5.36
  -6  -3   0  203.21    7.67
   6   3   0  196.69    8.37
   6   3   1  235.91    5.21
  -6  -3  -1  241.37   10.34
  -6  -3  -1  241.83    9.27
   6   3   1  232.10    9.06
  -6  -3  -2   64.98    5.33
  -6  -3  -2   59.51    4.71
  -6  -3  -2   56.63    3.03
   6   3   2   60.99    4.71
  -6  -3  -3 1439.40   10.10
  -6  -3  -3 1456.31   15.65
  -6  -3  -3 1479.51   25.13
   6   3   3 1480.92   22.90
  -6  -3  -3 1511.60   23.17
  -6  -3  -4   22.73    1.41
  -6  -3  -4   22.36    2.85
  -6  -3  -4   24.05    3.27
   6   3   4   15.90    2.44
  -6  -3  -5  167.48    4.51
  -6  -3  -5  168.59    8.47
  -6  -3  -5  170.68    8.01
   6   3   5  153.79    7.62
  -6  -3  -6   13.49    2.43
   6   3   6   10.41    1.65
   6   3   6    8.94    2.25
   6   3   6    8.75    1.86
  -6  -3  -6    8.67    2.07
   6   3   7  152.82    6.36
   6   3   7  151.45    8.22
  -6  -3  -7  154.76    8.15
   6   3   7  166.63    8.28
  -6  -3  -7  161.85    8.11
   6   3   8  375.21   10.74
   6   3   8  374.80   12.96
   6   3   8  369.64   12.59
  -6  -3  -8  386.70   12.76
   6   3   9  213.93    8.67
   6   3   9  215.77   10.03
   6   3   9  213.28    9.84
  -6  -3  -9  215.67    9.82
   6   3  10  755.54   19.00
   6   3  10  758.04   18.92
  -6  -3 -10  781.17   19.20
   6   3  11    9.49    2.54
  -6  -3 -11   11.04    2.39
   6   3  11   10.33    2.52
   6   3  12    7.54    2.09
   6   3  12    9.96    2.66
  -6  -3 -12    8.98    2.30
   6   3  13  127.62    8.28
   6   3  14   96.34    7.36
  -6  -3 -14  107.70    9.49
   6   3  15  147.36    9.29
  -6  -3 -15  200.29   13.32
   6   3  16   82.57    7.19
  -6  -3 -16   90.83    9.43
   6   3  17  134.63    9.09
  -6  -3 -17  157.24   12.74
   6   3  18   43.49    5.34
  -6  -3 -18   49.50    7.71
   6   3  19    6.07    2.39
  -6  -3 -19    5.28    3.71
  -6  -3 -20    2.67    2.44
  -6  -3 -21   26.88    6.11
   6   4 -15  134.12   12.20
   6   4 -14  185.21   11.67
   6   4 -14  180.94   13.69
   6   4 -13  184.82   10.90
   6   4 -13  207.44   14.02
   6   4 -12  122.50    8.68
   6   4 -12  123.19   10.44
   6   4 -11   62.57    6.37
   6   4 -11   72.11    7.64
  -6  -4  11   85.82    7.72
   6   4 -11   61.49    5.98
   6   4 -10   38.25    4.89
   6   4 -10   38.29    5.39
   6   4 -10   38.65    4.57
  -6  -4  10   50.26    5.52
   6   4  -9   39.53    4.89
  -6  -4   9   39.67    4.84
   6   4  -9   39.42    4.49
   6   4  -9   38.25    5.12
   6   4  -8  306.47   12.88
  -6  -4   8  334.59   13.04
   6   4  -8  319.02   12.13
   6   4  -8  284.32   12.96
   6   4  -7  409.71   14.53
  -6  -4   7  429.53   14.16
   6   4  -7  432.91   13.67
   6   4  -7  389.79   14.37
   6   4  -6  434.19   14.58
   6   4  -6  430.68   13.21
  -6  -4   6  472.27   14.21
   6   4  -6  417.86   13.91
   6   4  -5  617.80   16.97
   6   4  -5  618.31   15.33
  -6  -4   5  641.62   15.95
   6   4  -5  606.68   15.66
   6   4  -4  371.22   12.80
  -6  -4   4  378.53   11.86
   6   4  -4  366.64   11.26
   6   4  -3   80.49    5.90
  -6  -4   3   87.19    6.65
  -6  -4   3   82.60    5.42
   6   4  -3   81.78    4.89
  -6  -4   2   14.73    2.85
   6   4  -2   14.28    2.63
   6   4  -2   11.99    1.77
  -6  -4   2   12.31    2.18
  -6  -4   1  376.25   13.35
   6   4  -1  368.03    7.96
  -6  -4   1  377.80   11.18
   6   4  -1  371.14   12.04
  -6  -4   0  503.22   15.30
   6   4   0  505.35    7.77
  -6  -4   0  512.36   12.96
   6   4   0  498.27   13.85
  -6  -4  -1  954.20   20.92
  -6  -4  -1  951.35   18.86
   6   4   1  917.15    7.80
  -6  -4  -1  939.67   17.63
   6   4   1  921.95   18.61
  -6  -4  -2  268.13    5.68
  -6  -4  -2  285.15   11.32
  -6  -4  -2  280.76   10.30
   6   4   2  273.63   10.09
  -6  -4  -3 1830.06   28.51
  -6  -4  -3 1839.61   26.32
   6   4   3 1773.48   25.59
  -6  -4  -4  220.52    9.91
  -6  -4  -4  242.13    9.60
   6   4   4  214.54    9.87
   6   4   4  224.15    9.28
  -6  -4  -5   29.48    1.51
  -6  -4  -5   34.69    3.95
  -6  -4  -5   31.21    3.51
   6   4   5   35.20    4.14
   6   4   5   29.10    3.43
  -6  -4  -6   16.33    2.84
   6   4   6   12.39    2.55
   6   4   6   16.86    1.94
  -6  -4  -6   17.21    2.70
   6   4   6   17.61    2.75
   6   4   7   46.29    3.37
   6   4   7   51.17    4.99
  -6  -4  -7   47.66    4.49
   6   4   7   50.51    4.62
   6   4   8  105.77    5.55
   6   4   8  109.08    7.31
  -6  -4  -8  114.26    7.01
   6   4   8  111.92    6.95
   6   4   9  424.01   14.51
   6   4   9  438.36   14.01
  -6  -4  -9  449.50   14.20
   6   4  10  129.47    8.25
   6   4  10  146.67    8.32
  -6  -4 -10  133.71    7.99
   6   4  11  208.28   10.56
   6   4  11  221.96   10.54
  -6  -4 -11  244.10   10.99
   6   4  12  137.48    8.81
   6   4  12  148.37    8.87
  -6  -4 -12  133.13    8.43
   6   4  13   -0.82    1.89
   6   4  13    6.96    2.06
   6   4  14    2.21    1.19
   6   4  15  117.79    8.68
  -6  -4 -15  136.39   11.03
   6   4  16   55.38    6.10
  -6  -4 -16   52.18    7.16
   6   4  17   81.89    7.55
  -6  -4 -17   85.81    9.53
   6   4  18   56.21    6.46
  -6  -4 -18   68.71    8.82
   6   4  19   35.95    5.36
  -6  -4 -19   35.81    6.73
  -6  -4 -20   26.48    5.61
  -6  -4 -21    3.63    4.32
   6   5 -15    3.01    2.23
   6   5 -14   34.64    5.28
   6   5 -14   32.61    5.98
   6   5 -13   26.35    4.54
   6   5 -13   21.66    4.75
   6   5 -12   98.99    8.14
   6   5 -11   42.88    5.30
   6   5 -10  148.90    9.36
  -6  -5   9   12.70    3.00
   6   5  -9    5.22    1.94
   6   5  -8   36.12    4.76
  -6  -5   8   33.57    4.39
   6   5  -8   40.93    4.75
   6   5  -7  106.87    7.73
  -6  -5   7  113.65    8.17
   6   5  -7  116.36    7.57
  -6  -5   7  120.37    7.96
   6   5  -6  298.12   12.63
  -6  -5   6  275.64   12.47
   6   5  -6  298.00   11.63
  -6  -5   6  306.04   12.08
  -6  -5   5  601.03   18.12
   6   5  -5  596.83   17.46
  -6  -5   5  604.69   16.43
   6   5  -5  614.79   16.32
   6   5  -4  446.58   14.68
  -6  -5   4  454.01   15.48
  -6  -5   4  435.39   13.52
   6   5  -4  445.00   13.50
   6   5  -3  469.95   14.72
   6   5  -3  447.74   11.32
  -6  -5   3  487.09   15.81
  -6  -5   3  482.36   13.79
  -6  -5   2  254.40   11.26
   6   5  -2  260.25   10.74
  -6  -5   2  252.65    9.86
   6   5  -2  255.52    7.61
  -6  -5   1   68.99    5.99
   6   5  -1   72.03    5.57
  -6  -5   1   80.96    5.55
   6   5  -1   71.71    3.43
  -6  -5   0    3.89    1.66
   6   5   0    2.63    1.16
   6   5   0    2.71    0.59
  -6  -5   0    2.88    1.43
  -6  -5  -1   81.18    2.52
  -6  -5  -1   85.35    6.41
  -6  -5  -1   82.70    5.62
   6   5   1   78.53    5.68
  -6  -5  -2 1144.88   23.07
  -6  -5  -2 1122.98   21.11
  -6  -5  -2 1137.69   20.67
   6   5   2 1112.03   21.03
  -6  -5  -3  352.16   11.84
   6   5   3  325.63   12.46
  -6  -5  -3  330.81   12.45
   6   5   3  344.44   11.67
  -6  -5  -4  488.06   14.01
   6   5   4  442.86   14.45
  -6  -5  -4  451.98   14.53
   6   5   4  435.90   13.06
   6   5   5   47.41    4.89
  -6  -5  -5   57.30    4.89
  -6  -5  -5   60.09    5.37
   6   5   5   51.27    4.57
  -6  -5  -6    8.75    1.07
   6   5   6    8.53    2.31
   6   5   6    8.62    1.31
  -6  -5  -6    5.61    1.70
   6   5   6    9.17    2.10
  -6  -5  -7   33.64    2.45
   6   5   7   36.21    4.36
   6   5   7   32.06    2.74
  -6  -5  -7   36.50    4.07
   6   5   7   29.03    3.60
   6   5   8   19.79    3.26
  -6  -5  -8   21.17    3.11
   6   5   8   15.29    2.60
   6   5   9  189.78   10.08
  -6  -5  -9  187.84    9.28
   6   5   9  191.23    9.33
   6   5  10  464.09   16.06
  -6  -5 -10  499.20   15.48
   6   5  10  507.45   15.50
   6   5  11  461.06   16.36
   6   5  11  486.28   15.50
  -6  -5 -11  482.86   15.57
   6   5  12  321.41   13.98
   6   5  12  323.50   12.95
  -6  -5 -12  313.98   12.88
   6   5  13  517.62   18.09
   6   5  13  585.09   17.91
   6   5  14    3.69    1.86
   6   5  14    9.07    2.24
   6   5  15   21.82    4.02
   6   5  16  149.15   10.49
  -6  -5 -16  160.49   12.35
   6   5  17   62.73    7.06
  -6  -5 -17   77.72    8.89
   6   5  18  216.44   13.08
  -6  -5 -18  239.75   16.16
   6   5  19  211.90   13.20
  -6  -5 -19  232.72   16.37
   6   5  20  177.53   12.37
  -6  -5 -20  178.71   13.70
  -6  -5 -20  175.33   14.61
  -6  -5 -21   98.53   10.92
  -6  -5 -21   91.87   11.22
   6   6 -15   -5.14    3.22
   6   6 -14   25.67    4.79
   6   6 -13   56.61    6.71
   6   6 -12  113.47    9.14
   6   6 -11   79.02    7.49
   6   6 -10  131.78    9.29
  -6  -6   9   95.25    7.79
   6   6  -9   95.92    7.75
  -6  -6   8   96.30    7.74
  -6  -6   8  106.11    8.16
   6   6  -8   94.01    7.42
  -6  -6   7   14.68    3.14
  -6  -6   7   18.24    3.40
   6   6  -7   17.77    3.05
   6   6  -6   34.58    4.60
  -6  -6   6   28.09    4.19
  -6  -6   6   30.93    4.12
   6   6  -6   25.54    3.77
  -6  -6   5  238.89   11.54
   6   6  -5  226.09   11.15
  -6  -6   5  249.21   11.15
   6   6  -5  235.93   10.68
  -6  -6   4  154.27    9.13
   6   6  -4  161.10    9.25
  -6  -6   4  154.19    8.52
   6   6  -4  142.29    8.11
  -6  -6   3  235.40   11.13
   6   6  -3  223.26   10.58
  -6  -6   3  236.14   10.28
  -6  -6   2  294.61   12.37
   6   6  -2  295.11   11.95
  -6  -6   2  290.65   11.18
  -6  -6   1  142.66    8.48
   6   6  -1  132.45    7.87
  -6  -6   1  155.76    8.13
  -6  -6   0   11.92    2.50
   6   6   0    8.54    2.19
  -6  -6   0   10.18    2.29
   6   6   0    9.53    1.04
  -6  -6  -1   16.38    2.96
   6   6   1   13.92    2.78
  -6  -6  -1   15.34    2.65
  -6  -6  -2  226.73   10.61
   6   6   2  210.49   10.13
  -6  -6  -2  228.85    9.77
   6   6   2  212.55    9.53
   6   6   3  183.96    9.50
  -6  -6  -3  181.94    8.79
  -6  -6  -3  195.03    9.84
   6   6   3  189.67    8.93
  -6  -6  -4  173.01    8.58
   6   6   4  173.43    9.36
   6   6   4  159.35    8.17
   6   6   5  155.21    9.00
  -6  -6  -5  175.44    8.64
   6   6   5  157.27    4.20
   6   6   5  162.92    8.23
  -6  -6  -6  313.62    5.73
   6   6   6  295.52    6.93
   6   6   6  325.38   13.01
  -6  -6  -6  321.31   11.73
   6   6   6  300.05   11.27
  -6  -6  -7   14.49    1.60
  -6  -6  -7   11.68    2.40
   6   6   7   15.17    3.07
   6   6   7   15.66    2.63
  -6  -6  -8   14.15    1.92
   6   6   8   11.99    2.74
  -6  -6  -8   10.15    2.02
   6   6   8   12.49    2.47
  -6  -6  -9   69.50    4.46
   6   6   9   67.91    6.34
  -6  -6  -9   71.57    5.86
   6   6   9   75.82    5.94
  -6  -6 -10   10.58    2.02
   6   6  10    6.42    1.74
  -6  -6 -10   10.43    2.55
   6   6  10    6.76    1.60
  -6  -6 -11   46.40    4.39
   6   6  11   53.38    5.88
   6   6  11   63.18    5.62
  -6  -6 -11   57.50    5.38
  -6  -6 -12    9.56    2.33
   6   6  12    8.83    2.77
  -6  -6 -12   12.11    2.62
   6   6  12   10.41    2.46
  -6  -6 -13   26.82    3.91
   6   6  13   15.04    3.32
   6   6  13   19.93    3.48
  -6  -6 -14   15.96    3.11
   6   6  14   16.55    3.55
   6   6  14   16.38    3.14
  -6  -6 -15   37.90    5.13
   6   6  15   31.36    4.94
   6   6  15   28.68    4.39
  -6  -6 -16    0.40    1.77
   6   6  16   -0.69    2.02
  -6  -6 -17   13.95    3.42
   6   6  17   11.01    2.97
  -6  -6 -17    7.81    3.19
  -6  -6 -18    0.31    2.49
   6   6  18    3.02    2.69
  -6  -6 -18    2.94    2.96
  -6  -6 -19    8.80    3.45
   6   6  19    9.86    3.26
  -6  -6 -19    7.36    3.45
  -6  -6 -20    7.25    3.23
   6   6  20    5.11    3.33
  -6  -6 -20    5.88    3.41
  -6  -6 -21   13.35    3.96
   6   7 -15   57.71    7.39
   6   7 -14   20.98    4.47
   6   7 -13   -2.49    2.64
   6   7 -12   36.14    5.79
   6   7 -11  244.52   13.68
   6   7 -10  184.76   11.63
  -6  -7   9  148.43    9.63
   6   7  -9  143.98    9.88
  -6  -7   8  287.35   13.22
   6   7  -8  286.19   13.47
  -6  -7   7  225.02   11.56
   6   7  -7  200.81   10.98
  -6  -7   6  123.98    8.55
   6   7  -6  116.84    8.16
  -6  -7   6  124.54    8.60
   6   7  -5   14.34    3.25
  -6  -7   5   13.99    2.94
   6   7  -5   14.11    2.99
  -6  -7   5   17.81    3.42
  -6  -7   4  113.61    8.01
   6   7  -4  107.27    7.86
  -6  -7   4  112.17    7.64
   6   7  -4  108.45    7.56
  -6  -7   3  533.31   16.90
   6   7  -3  525.22   16.86
  -6  -7   3  555.97   16.60
  -6  -7   2  699.67   19.37
   6   7  -2  725.73   19.42
  -6  -7   2  715.72   18.40
  -6  -7   1  690.30   19.08
   6   7  -1  632.89   17.75
  -6  -7   1  661.24   17.54
   6   7   0  562.00   16.38
  -6  -7   0  571.18   17.33
  -6  -7   0  575.00   16.15
   6   7   0  563.13    7.94
   6   7   1  296.49   11.71
  -6  -7  -1  299.47   12.52
   6   7   1  299.74   12.36
  -6  -7  -1  307.59   11.79
   6   7   2  408.91   14.50
  -6  -7  -2  392.85   14.36
  -6  -7  -2  405.87   13.55
   6   7   2  403.58   13.54
   6   7   3  282.28   12.11
  -6  -7  -3  281.71   11.39
   6   7   3  276.05   11.08
   6   7   4   94.57    7.12
  -6  -7  -4   94.49    6.52
   6   7   4   88.31    6.31
  -6  -7  -5  807.71    7.10
   6   7   5  788.12    8.19
   6   7   5  801.27   20.83
  -6  -7  -5  824.19   19.23
   6   7   5  796.92   18.65
  -6  -7  -6 1057.94   11.26
   6   7   6 1058.57   24.32
   6   7   6 1031.32   12.35
  -6  -7  -6 1090.42   22.23
   6   7   6 1054.27   21.56
  -6  -7  -7  842.12   12.02
   6   7   7  821.27   21.78
  -6  -7  -7  844.48   19.77
   6   7   7  834.43   19.28
  -6  -7  -8  679.98   12.32
   6   7   8  675.14   20.07
  -6  -7  -8  671.66   17.77
   6   7   8  700.14   17.83
  -6  -7  -9   59.14    4.09
   6   7   9   55.00    5.94
  -6  -7  -9   58.76    5.44
   6   7   9   59.97    5.40
  -6  -7 -10   61.15    4.62
   6   7  10   47.69    5.70
  -6  -7 -10   59.56    5.54
   6   7  10   56.17    5.33
  -6  -7 -11  189.55    8.75
   6   7  11  178.99   11.07
   6   7  11  190.38    9.81
  -6  -7 -11  185.98    9.92
  -6  -7 -12  271.50   11.18
   6   7  12  233.70   12.85
   6   7  12  242.56   11.23
  -6  -7 -12  241.62   11.59
  -6  -7 -13  361.22   13.90
   6   7  13  340.34   15.96
   6   7  13  364.31   14.15
  -6  -7 -14  519.10   17.55
   6   7  14  504.80   19.80
   6   7  14  540.36   17.64
  -6  -7 -15  272.18   13.47
   6   7  15  228.72   13.61
   6   7  15  274.43   12.95
  -6  -7 -16  193.45   12.00
   6   7  16  204.19   13.21
  -6  -7 -17   67.11    7.66
   6   7  17   50.27    6.72
  -6  -7 -18    6.48    3.32
   6   7  18   -0.81    2.56
  -6  -7 -18   -2.72    2.76
  -6  -7 -19   50.17    7.17
   6   7  19   43.85    6.67
  -6  -7 -19   55.11    8.28
  -6  -7 -20   97.23   10.15
   6   7  20   87.51    9.49
  -6  -7 -20   94.61   10.83
   6   7  21   97.04   10.22
  -6  -7 -21   92.95   10.42
   6   8 -15   28.53    5.76
   6   8 -14   18.46    4.72
   6   8 -13    7.21    2.97
   6   8 -12    0.68    2.24
   6   8 -11   -2.06    2.58
   6   8 -10    5.44    2.67
  -6  -8   9   61.44    6.31
   6   8  -9   53.32    6.38
  -6  -8   8   77.29    6.91
   6   8  -8   77.06    7.41
  -6  -8   7   38.63    5.00
   6   8  -7   34.05    4.88
  -6  -8   6  123.14    8.56
   6   8  -6  129.22    9.04
  -6  -8   5    6.38    1.97
   6   8  -5    2.92    1.61
  -6  -8   4   30.76    4.37
   6   8  -4   28.71    4.33
   6   8  -4   29.98    4.24
   6   8  -3   85.65    7.16
  -6  -8   3   94.10    7.41
  -6  -8   3  111.02    7.79
   6   8  -3   95.84    7.26
  -6  -8   2   17.62    1.36
  -6  -8   2   15.41    3.18
   6   8  -2   21.21    3.58
  -6  -8   2   17.05    3.11
  -6  -8   1    5.45    2.00
   6   8  -1    2.79    1.33
  -6  -8   1    7.47    2.05
   6   8  -1    5.95    1.17
   6   8   0   54.82    5.39
  -6  -8   0   59.12    5.77
   6   8   0   46.58    5.12
  -6  -8   0   49.25    4.96
   6   8   0   49.07    2.69
   6   8   1   42.94    4.74
   6   8   1   48.32    5.16
  -6  -8  -1   41.72    4.58
   6   8   1   44.52    2.07
   6   8   2    7.47    2.01
   6   8   2    4.76    1.67
  -6  -8  -2    4.54    1.69
   6   8   2    6.69    0.66
   6   8   3   29.50    4.07
   6   8   3   30.89    3.92
  -6  -8  -3   35.42    4.37
   6   8   4    4.23    1.85
   6   8   4    4.56    1.85
  -6  -8  -4    5.48    1.73
  -6  -8  -5    6.83    0.93
   6   8   5    5.88    0.69
   6   8   5    5.01    1.93
   6   8   5    5.79    1.78
  -6  -8  -6    5.82    1.01
   6   8   6    9.97    2.46
  -6  -8  -6    9.65    2.09
   6   8   6    1.99    0.98
  -6  -8  -7    3.25    0.99
   6   8   7    1.85    1.68
  -6  -8  -7    3.02    1.43
   6   8   7    2.46    1.16
  -6  -8  -8    7.04    1.40
   6   8   8    5.79    2.32
  -6  -8  -8    8.07    2.04
   6   8   8    6.55    1.87
  -6  -8  -9   50.43    3.88
  -6  -8  -9   45.48    4.86
   6   8   9   52.65    6.07
   6   8   9   49.07    4.96
  -6  -8 -10   19.15    2.75
   6   8  10   16.61    3.43
  -6  -8 -10   13.57    2.85
   6   8  10   17.56    3.00
  -6  -8 -11   85.84    5.96
  -6  -8 -11   81.38    6.63
   6   8  11   74.88    7.53
   6   8  11   78.84    6.38
  -6  -8 -12   13.52    2.66
   6   8  12    8.22    2.78
   6   8  12    6.84    1.88
  -6  -8 -13    0.26    1.14
   6   8  13   -0.77    1.66
   6   8  13   -0.72    1.65
  -6  -8 -14   10.03    2.57
   6   8  14    6.42    2.63
   6   8  14   17.55    3.42
  -6  -8 -15    3.37    2.04
   6   8  15    2.46    2.09
   6   8  15    2.92    1.54
  -6  -8 -16    2.94    1.52
   6   8  16    1.36    2.14
   6   8  16    6.81    2.51
  -6  -8 -17   -0.84    1.71
   6   8  17   -2.50    2.94
  -6  -8 -18   31.53    5.52
   6   8  18   31.84    5.92
  -6  -8 -19   20.81    4.82
   6   8  19   19.58    4.80
  -6  -8 -19    9.59    4.23
  -6  -8 -20    9.41    3.45
   6   8  20    4.79    2.96
  -6  -8 -20   -1.12    2.67
   6   8  21    3.98    3.04
   6   9 -15   70.77    8.88
   6   9 -14  129.50   11.56
   6   9 -13  128.05   11.29
   6   9 -12   70.28    8.31
   6   9 -11   26.63    5.00
   6   9 -10    2.11    2.21
   6   9  -9   45.20    6.26
  -6  -9   8  251.12   12.41
   6   9  -8  250.31   13.69
  -6  -9   7  172.99   10.34
   6   9  -7  166.59   10.95
  -6  -9   6  388.60   15.31
   6   9  -6  427.22   16.96
  -6  -9   5  574.35   12.52
  -6  -9   5  561.01   18.25
   6   9  -5  585.03   19.41
  -6  -9   4  349.71    8.58
   6   9  -4  377.37   15.77
  -6  -9   4  351.33   14.39
   6   9  -4  354.47   14.87
  -6  -9   3   14.14    3.03
  -6  -9   3   13.14    1.46
   6   9  -3   11.32    2.87
   6   9  -3   17.87    3.56
   6   9  -2   15.38    3.19
  -6  -9   2   10.78    2.83
   6   9  -2   11.73    1.87
   6   9  -1   22.45    3.73
   6   9  -1   27.98    2.52
   6   9   0  174.00    9.88
   6   9   0  152.50    9.28
   6   9   0  171.02    5.54
   6   9   1  629.24   18.31
   6   9   1  620.53   18.77
  -6  -9  -1  627.28   18.47
   6   9   1  625.50    9.44
   6   9   2  667.91   19.65
   6   9   2  643.31   18.24
   6   9   2  662.55    8.97
  -6  -9  -2  703.96   19.46
   6   9   3  796.54   21.65
   6   9   3  749.51    9.48
  -6  -9  -3  807.23   20.79
   6   9   3  756.82   19.62
   6   9   4  426.42   16.05
  -6  -9  -4  418.11   15.02
   6   9   4  427.27   14.61
  -6  -9  -5   49.27    2.79
   6   9   5   39.43    1.54
   6   9   5   42.65    5.21
   6   9   5   40.18    4.58
  -6  -9  -6   18.23    1.95
   6   9   6   16.35    3.51
   6   9   6   16.40    3.04
  -6  -9  -7   68.77    3.95
  -6  -9  -7   73.31    6.15
   6   9   7   61.02    6.45
   6   9   7   75.59    6.13
  -6  -9  -8  200.20    7.35
  -6  -9  -8  201.83   10.21
   6   9   8  204.24   11.92
   6   9   8  208.13   10.12
  -6  -9  -9  568.76   13.32
  -6  -9  -9  582.13   17.48
   6   9   9  590.33   20.68
   6   9   9  569.45   16.88
  -6  -9 -10  290.65   10.30
   6   9  10  284.97   14.64
  -6  -9 -10  280.74   12.41
   6   9  10  295.34   12.26
  -6  -9 -11  716.53   17.29
   6   9  11  697.80   23.44
   6   9  11  713.92   19.26
  -6  -9 -12  141.92    8.27
   6   9  12  127.26   10.41
   6   9  12  150.28    9.06
  -6  -9 -13   12.94    2.98
   6   9  13   16.06    4.07
   6   9  13   18.62    3.44
  -6  -9 -14   29.33    4.23
   6   9  14   20.10    4.54
   6   9  14   23.07    3.70
  -6  -9 -15   45.10    5.53
   6   9  15   44.17    6.68
   6   9  15   44.03    5.21
  -6  -9 -16  280.23   14.37
   6   9  16  257.93   16.02
   6   9  16  271.97   13.19
  -6  -9 -17  254.90   14.52
   6   9  17  216.63   15.04
  -6  -9 -18  156.73   11.95
   6   9  18  181.62   14.06
  -6  -9 -19   73.61    8.60
   6   9  19   79.16    9.51
  -6  -9 -19   76.10    9.82
  -6  -9 -20   29.15    5.57
   6   9  20   31.64    6.48
  -6  -9 -20   36.53    6.92
   6  10 -14    5.81    2.40
   6  10 -13    9.84    4.72
   6  10 -12    0.38    1.96
   6  10 -11   -1.40    2.15
   6  10 -10   19.94    4.43
   6  10  -9    7.46    3.01
   6  10  -8    0.39    1.82
  -6 -10   7   -0.60    1.53
  -6 -10   7   -1.18    1.35
   6  10  -7   -0.74    1.62
  -6 -10   6   -0.37    0.99
   6  10  -6   -0.63    1.80
  -6 -10   5    8.74    1.61
   6  10  -5    9.78    2.61
  -6 -10   4   23.71    2.19
   6  10  -4   24.61    4.31
   6  10  -4   29.19    4.70
   6  10  -3    6.02    2.39
   6  10  -3    9.02    2.62
   6  10  -3   11.23    2.08
   6  10  -2    4.53    1.37
   6  10  -2    0.28    1.35
   6  10  -1    0.58    0.70
   6  10  -1   -0.72    1.38
   6  10  -1   -0.03    1.29
   6  10   0    1.00    0.72
   6  10   0   -1.64    1.97
   6  10   1   25.80    2.29
   6  10   1   29.74    4.41
   6  10   1   27.37    4.12
   6  10   2   43.42    2.81
   6  10   2   46.68    5.51
   6  10   2   47.17    5.24
   6  10   3    5.90    1.14
   6  10   3    9.73    2.48
   6  10   3    9.36    2.62
   6  10   4  163.38    5.56
   6  10   4  179.29   10.80
   6  10   4  162.69    9.32
  -6 -10  -5   19.91    2.10
   6  10   5   15.66    3.56
   6  10   5   14.75    2.96
  -6 -10  -6   13.01    1.76
   6  10   6   15.78    3.57
   6  10   6   12.21    2.64
  -6 -10  -7   11.73    1.79
   6  10   7   12.23    3.13
   6  10   7   14.96    2.91
  -6 -10  -8   16.03    2.27
   6  10   8   16.81    3.67
   6  10   8   18.32    3.14
  -6 -10  -9    0.08    0.99
   6  10   9   -0.55    2.11
   6  10   9    1.05    1.45
  -6 -10 -10   69.28    5.24
   6  10  10   63.74    7.43
   6  10  10   70.43    6.19
  -6 -10 -11   73.78    5.74
   6  10  11   60.93    7.27
   6  10  11   69.02    6.19
  -6 -10 -12  136.86    8.28
   6  10  12  141.92   11.29
   6  10  12  125.23    8.31
  -6 -10 -13  120.48    8.20
   6  10  13  106.58   10.31
   6  10  13  115.28    8.10
  -6 -10 -14   12.30    3.24
   6  10  14    7.02    2.47
   6  10  14    6.49    1.63
  -6 -10 -15    1.37    1.93
   6  10  15    2.60    2.71
   6  10  15   -4.32    2.42
  -6 -10 -16    1.81    2.31
   6  10  16   -2.77    3.04
   6  10  16    0.31    1.73
   6  10  17   52.10    7.63
  -6 -10 -17   34.90    5.77
   6  10  18   20.11    5.07
  -6 -10 -18   18.27    4.53
   6  10  19   69.34    9.34
  -6 -10 -19   62.29    8.15
  -6 -10 -20   79.37    9.67
   6  11 -13   56.84    8.31
   6  11 -12  134.07   12.10
   6  11 -11  240.55   15.83
   6  11 -10  211.88   14.51
   6  11  -9  122.90   10.98
   6  11  -8  183.69   12.78
   6  11  -7   25.55    4.78
   6  11  -6   94.53    8.74
   6  11  -5  344.26   16.24
   6  11  -4  458.97   18.72
   6  11  -4  442.69   18.02
   6  11  -4  429.70   13.57
   6  11  -3  330.58   15.48
   6  11  -3  367.85   16.03
   6  11  -3  367.89   11.79
   6  11  -2  678.65   15.11
   6  11  -2  692.80   21.84
   6  11  -1  349.95   10.20
   6  11  -1  338.94   15.06
   6  11  -1  356.32   14.97
   6  11   0  105.99    5.32
   6  11   0  114.03    8.61
   6  11   0   98.04    7.98
   6  11   1   -0.08    0.64
   6  11   1   -0.31    1.68
   6  11   1    0.36    1.76
   6  11   2  116.50    5.16
   6  11   2  132.98    8.95
   6  11   2  114.80    8.77
   6  11   3  267.81    7.79
   6  11   3  262.37   13.41
   6  11   3  273.90   12.59
   6  11   4  289.07    8.34
   6  11   4  262.89   13.45
   6  11   4  281.56   12.66
   6  11   5  323.81   15.17
   6  11   5  292.53   12.79
  -6 -11  -6  206.60    7.53
   6  11   6  196.49   12.12
   6  11   6  187.68   10.20
  -6 -11  -7  156.20    6.91
   6  11   7  160.03   11.14
   6  11   7  135.49    8.64
  -6 -11  -8   25.13    2.98
   6  11   8   21.78    4.28
   6  11   8   22.86    3.75
  -6 -11  -9    3.70    1.39
   6  11   9    2.66    2.28
   6  11   9    1.50    1.72
  -6 -11 -10  131.67    7.45
   6  11  10  132.52   10.86
   6  11  10  121.08    8.25
  -6 -11 -11  145.18    8.24
   6  11  11  151.64   11.81
   6  11  11  133.13    8.63
  -6 -11 -12  182.40    9.80
   6  11  12  187.59   13.50
   6  11  12  195.34   10.56
  -6 -11 -13  130.46    8.72
   6  11  13  127.59   11.53
   6  11  13  136.50    8.92
  -6 -11 -14  227.87   12.20
   6  11  14  209.76   15.04
   6  11  14  234.04   11.82
  -6 -11 -15   53.71    6.35
   6  11  15   52.53    8.15
   6  11  15   53.82    5.83
  -6 -11 -16    5.40    2.55
   6  11  16    3.54    2.30
   6  11  16   -0.34    1.49
   6  11  17    1.13    2.09
  -6 -11 -17    0.71    2.45
   6  11  18   35.26    6.94
  -6 -11 -18   27.49    5.35
  -6 -11 -19   32.06    6.00
   6  12 -11    5.23    3.02
   6  12 -10    3.29    2.53
   6  12  -9  105.18   10.32
   6  12  -8   73.06    8.56
   6  12  -7   26.19    5.26
   6  12  -6    0.41    1.90
   6  12  -5    4.98    2.52
   6  12  -5    6.55    2.48
   6  12  -4   32.67    5.44
   6  12  -4   45.66    6.12
   6  12  -4   27.20    3.76
   6  12  -3  141.93    7.79
   6  12  -3  142.39   10.46
   6  12  -2   64.51    4.96
   6  12  -2   75.73    7.15
   6  12  -2   54.51    6.47
   6  12  -1  130.37    6.73
   6  12  -1  149.18   10.42
   6  12  -1  148.22    9.93
   6  12   0   68.37    4.68
   6  12   0   77.21    7.38
   6  12   0   82.59    7.62
   6  12   1   81.27    4.90
   6  12   1   83.63    7.75
   6  12   1   79.16    7.25
   6  12   2   27.38    2.76
   6  12   2   29.35    4.33
   6  12   2   25.90    4.50
   6  12   3    1.35    0.83
   6  12   3    2.85    2.07
   6  12   3    2.72    2.00
   6  12   4   25.43    2.79
   6  12   4   28.27    4.71
   6  12   4   25.99    4.17
   6  12   5  196.34    7.83
   6  12   5  171.68   11.62
   6  12   5  179.83    4.28
   6  12   5  181.54   10.42
  -6 -12  -6  159.85    7.24
   6  12   6  162.47   11.46
   6  12   6  157.21    9.68
  -6 -12  -7  335.63   10.82
   6  12   7  347.75   16.91
   6  12   7  324.71   13.76
  -6 -12  -8  152.94    7.63
   6  12   8  140.94   11.16
   6  12   8  135.42    8.89
  -6 -12  -9  117.37    6.97
   6  12   9  118.52   10.44
   6  12   9  105.29    7.85
  -6 -12 -10   18.66    3.02
   6  12  10   15.23    4.23
   6  12  10   22.86    3.59
  -6 -12 -11    8.23    2.47
   6  12  11    5.60    2.96
   6  12  11    5.49    1.81
  -6 -12 -12  109.81    7.85
   6  12  12  121.32   11.18
   6  12  12  115.36    8.30
  -6 -12 -13  215.88   11.52
   6  12  13  204.69   14.97
   6  12  13  208.75   11.17
  -6 -12 -14  235.48   12.62
   6  12  14  222.28   15.97
   6  12  14  213.98   11.42
  -6 -12 -15  173.18   11.39
   6  12  15  175.39   14.36
   6  12  15  185.76   10.79
   6  12  16   48.45    7.59
  -6 -12 -16   48.31    6.30
  -6 -12 -17   45.97    6.54
  -6 -12 -18    3.64    2.91
   6  13 -10   17.34    4.10
   6  13  -9  149.26   13.00
   6  13  -8  159.64   12.88
   6  13  -7   98.79    9.97
   6  13  -6   92.58    9.46
   6  13  -5   59.74    7.53
   6  13  -4   17.09    4.16
   6  13  -4   27.46    5.00
   6  13  -3   19.98    3.25
   6  13  -3   15.06    3.86
   6  13  -2   49.86    4.71
   6  13  -2   49.90    5.95
   6  13  -2   43.81    5.90
   6  13  -1  135.66    7.33
   6  13  -1  147.85   10.32
   6  13  -1  158.21   11.12
   6  13   0  210.06    8.77
   6  13   0  212.67   12.41
   6  13   0  201.39   12.26
   6  13   1  221.45    8.77
   6  13   1  239.99   13.31
   6  13   1  219.63   12.53
   6  13   2  178.98    7.75
   6  13   2  189.33   11.43
   6  13   2  172.46   11.49
   6  13   3  139.39    6.76
   6  13   3  138.91   10.36
   6  13   3  131.55    9.36
   6  13   4    2.89    1.26
   6  13   4    2.76    2.24
   6  13   4    3.75    1.58
   6  13   5   31.91    3.39
   6  13   5   27.73    1.88
   6  13   5   31.48    5.25
   6  13   5   24.66    4.12
  -6 -13  -6   56.30    4.65
   6  13   6   49.21    6.54
   6  13   6   58.01    6.06
  -6 -13  -7  116.52    6.79
   6  13   7  107.40    9.76
   6  13   7  105.60    8.17
  -6 -13  -8   71.43    5.55
   6  13   8   70.51    8.21
   6  13   8   55.61    5.88
  -6 -13  -9   70.69    5.73
   6  13   9   65.85    8.27
   6  13   9   61.57    6.17
  -6 -13 -10   84.75    6.47
   6  13  10   75.31    8.96
   6  13  10   74.75    6.75
  -6 -13 -11   -0.21    1.74
   6  13  11   -0.13    2.34
   6  13  11    2.66    1.90
  -6 -13 -12   -0.01    1.68
   6  13  12   -0.26    5.22
   6  13  12    1.24    1.52
  -6 -13 -13   14.47    3.35
   6  13  13    7.11    3.49
   6  13  13    5.01    1.82
  -6 -13 -14   63.55    6.70
   6  13  14   59.61    8.72
   6  13  14   74.84    6.76
   6  13  15   25.04    6.01
  -6 -13 -15   20.75    4.36
  -6 -13 -16   79.79    8.29
  -6 -13 -17   10.70    3.93
   6  14  -8   28.17    5.78
   6  14  -7  115.01   11.05
   6  14  -6  145.52   12.22
   6  14  -5  190.69   13.53
   6  14  -4   34.86    5.90
   6  14  -4   31.64    5.60
   6  14  -3  172.75   12.52
   6  14  -2    6.31    2.57
   6  14  -2    5.86    2.71
   6  14  -1   25.61    4.80
   6  14  -1   25.32    4.59
   6  14   0  150.14   10.86
   6  14   0  145.20   10.83
   6  14   1  279.43   14.78
   6  14   1  271.08   14.33
   6  14   2  489.88   19.79
   6  14   2  467.48   18.51
   6  14   3  254.51   14.45
   6  14   3  241.77   13.12
   6  14   4  204.04   13.25
   6  14   4  201.18   11.87
   6  14   5   23.19    4.86
   6  14   5   15.25    3.58
   6  14   6    5.37    2.81
   6  14   6    3.27    1.40
  -6 -14  -7  203.31    9.50
   6  14   7  219.41   14.57
   6  14   7  182.37   11.00
  -6 -14  -8  237.38   10.57
   6  14   8  254.66   15.93
   6  14   8  236.55   12.29
  -6 -14  -9  363.33   13.53
   6  14   9  378.70   19.79
   6  14   9  341.69   14.74
  -6 -14 -10  222.28   10.98
   6  14  10  216.58   15.48
   6  14  10  234.25   12.21
  -6 -14 -11  210.21   11.08
   6  14  11  229.56   16.23
   6  14  11  215.78   11.68
  -6 -14 -12  110.12    8.36
   6  14  12  109.01   11.48
   6  14  12  102.16    8.14
  -6 -14 -13   15.76    3.63
   6  14  13   16.05    4.51
   6  14  13   19.69    3.65
  -6 -14 -14   18.84    4.03
   6  15  -6   30.34    5.35
   6  15  -5   50.81    7.45
   6  15  -5   62.08    8.16
   6  15  -4   38.26    6.18
   6  15  -3   64.34    7.16
   6  15  -3   73.12    8.47
   6  15  -2    8.31    2.54
   6  15  -2   12.06    3.77
   6  15  -1   -1.41    2.38
   6  15  -1   -1.12    2.14
   6  15   0    6.25    2.19
   6  15   0    0.18    2.26
   6  15   1   22.88    4.91
   6  15   1   33.43    5.30
   6  15   2   17.41    4.29
   6  15   2   14.95    3.75
   6  15   3    5.09    2.92
   6  15   3    5.36    2.82
   6  15   4    6.37    3.05
   6  15   4    5.46    2.49
   6  15   5   48.07    6.85
   6  15   5   45.60    5.96
   6  15   6   46.67    6.84
   6  15   6   38.38    5.36
  -6 -15  -7   -1.66    1.65
   6  15   7   -2.05    3.19
   6  15   7   -2.16    1.84
  -6 -15  -8    2.71    1.51
   6  15   8   -0.66    2.12
  -6 -15  -9   23.35    3.60
   6  15   9   30.08    5.67
   6  15   9   26.42    4.35
  -6 -15 -10    3.92    1.88
   6  15  10    1.56    2.69
   6  15  10   -1.13    2.18
  -6 -15 -11   -0.87    1.30
   6  15  11    0.28    2.56
   6  15  11   -0.02    1.94
   6  15  12   17.12    3.79
   6  16  -4  251.76   16.30
   6  16  -3  175.03   13.38
   6  16  -3  198.49   12.94
   6  16  -2  186.44   12.63
   6  16  -2  181.24   13.22
   6  16  -1  112.47    9.90
   6  16  -1  120.04   10.54
   6  16   0   10.97    3.50
   6  16   0    4.84    2.61
   6  16   1   -0.03    2.66
   6  16   1    1.00    2.34
   6  16   2   63.38    7.70
   6  16   2   55.99    6.89
   6  16   3   74.98    7.86
   6  16   3   68.83    8.29
   6  16   4  187.29   13.54
   6  16   4  178.75   11.96
   6  16   5  327.15   18.28
   6  16   5  299.31   15.27
   6  16   6  192.95   14.23
   6  16   6  184.37   11.83
   6  16   7  237.91   16.03
   6  16   7  236.92   13.27
   6  16   8    9.82    3.97
   6  16   8   10.44    2.94
   6  16   9    7.83    3.67
   6  16   9   13.21    3.56
   6  16  10   53.59    6.21
   6  17  -3    2.18    2.42
   6  17  -2    6.51    2.90
   6  17  -2   10.16    3.71
   6  17  -1    0.71    2.33
   6  17  -1    5.11    3.43
   6  17   0   -2.78    2.92
   6  17   0   -1.53    2.70
   6  17   1    1.30    2.43
   6  17   1    2.15    2.13
   6  17   2    0.70    1.95
   6  17   2   -2.73    2.63
   6  17   3    1.20    2.51
   6  17   3   -1.50    2.66
   6  17   4   -1.17    2.72
   6  17   4    2.73    2.75
   6  17   5   -1.12    2.44
   6  17   5   -0.58    2.10
   6  17   6    3.92    2.58
   6  17   6   -0.98    2.99
   6  17   7    0.74    2.06
   6  17   7   -1.88    2.41
   6  17   8   24.16    4.65
   6  17   9   17.91    4.21
   6  18  -2   51.91    7.23
   6  18  -1   99.17    9.94
   6  18   0  185.32   13.74
   6  18   0  172.68   13.26
   6  18   1  209.71   14.30
   6  18   1  195.81   14.16
   6  18   2  175.21   13.54
   6  18   2  155.41   12.18
   6  18   3   40.88    6.62
   6  18   3   42.40    6.13
   6  18   4   -1.60    2.69
   6  18   4    2.00    1.80
   6  18   5   30.06    5.05
   6  18   6   80.65    8.33
   6  18   7  127.94   10.52
   6  18   8  134.44   10.51
   6  19  -1    4.15    3.38
   6  19   0   -2.92    3.15
   6  19   1   18.07    4.79
   6  19   3   44.83    7.14
   6  19   4   15.51    3.87
   6  19   5   18.87    4.65
   6  19   6    0.23    2.08
  -7  14  -8   60.64    7.66
  -7  14  -9   25.81    5.22
  -7  14 -10   55.10    7.82
  -7  13  -6    7.80    2.97
  -7  13  -7   -0.99    2.71
  -7  13  -8  109.48    9.97
  -7  13  -9   39.84    6.70
  -7  13 -10  188.23   13.84
  -7  13 -11   53.00    7.53
   7 -12  -1   11.11    3.92
   7 -12   0   -3.26    3.53
   7 -12   1   -1.89    2.56
  -7  12  -2   20.32    4.29
   7 -12   2   26.98    5.72
  -7  12  -3   22.98    4.72
  -7  12  -4   45.88    6.60
  -7  12  -4   55.67    5.75
  -7  12  -5   20.90    4.40
  -7  12  -5   31.70    4.59
  -7  12  -6   15.92    4.46
  -7  12  -6   13.96    3.83
  -7  12  -7    3.20    1.69
  -7  12  -7    4.86    2.78
  -7  12  -8   11.12    3.52
  -7  12  -8    4.03    2.09
  -7  12  -9    6.26    2.96
  -7  12  -9    1.26    2.25
  -7  12 -10   -2.04    2.92
  -7  12 -11   16.12    4.43
  -7  12 -12   10.58    4.16
   7 -11  -4   55.01    7.94
   7 -11  -3  258.60   16.49
   7 -11  -2  176.19   13.56
   7 -11  -1  209.33   14.45
   7 -11   0  103.75   10.16
   7 -11   1   18.11    4.43
   7 -11   2    6.81    3.14
  -7  11  -3    8.44    2.96
  -7  11  -3   12.83    2.44
  -7  11  -4   67.23    7.83
  -7  11  -4   69.80    6.36
  -7  11  -5  190.03   12.88
  -7  11  -5  182.26   10.63
  -7  11  -6  256.58   15.25
  -7  11  -6  255.57   13.15
  -7  11  -7  203.79   13.78
  -7  11  -7  198.12   12.12
  -7  11  -8  150.07   11.88
  -7  11  -8  145.05   10.82
  -7  11  -9   12.06    4.03
  -7  11  -9    9.76    3.10
  -7  11 -10   -4.33    3.05
  -7  11 -11   13.55    4.30
  -7  11 -12  103.49   10.83
  -7  11 -13  153.43   13.43
   7 -10  -6   -3.10    2.60
   7 -10  -5   -0.05    1.80
   7 -10  -4    2.39    1.96
   7 -10  -3   11.20    3.56
   7 -10  -2    1.43    1.75
   7 -10  -1    5.25    2.23
   7 -10   0   -1.41    1.94
   7 -10   1   24.40    4.88
  -7  10  -2   10.28    2.21
   7 -10   2   12.23    3.23
  -7  10  -3   -3.38    2.64
  -7  10  -3    3.17    1.71
  -7  10  -4   19.64    4.25
  -7  10  -4   27.44    3.95
  -7  10  -5    1.18    2.00
  -7  10  -5   -0.76    1.36
  -7  10  -6    0.04    2.23
  -7  10  -6   -1.29    2.27
  -7  10  -7   14.56    3.98
  -7  10  -7    9.27    2.33
  -7  10  -8    2.32    2.59
  -7  10  -8    0.45    1.83
  -7  10  -9   26.56    5.06
  -7  10  -9   17.34    4.06
  -7  10 -10    1.55    2.14
  -7  10 -11   -1.24    2.12
  -7  10 -12   11.80    3.60
  -7  10 -13    2.98    1.97
  -7  10 -14   -9.14    3.67
   7  -9  -7  234.01   15.73
   7  -9  -6  191.26   14.12
   7  -9  -5  153.56   12.23
   7  -9  -4   23.91    4.93
   7  -9  -3   17.28    4.26
   7  -9  -2   -3.22    2.36
   7  -9  -1  108.78    9.70
   7  -9   0  321.10   16.30
  -7   9   0  296.88    7.97
   7  -9   1  334.90   16.48
  -7   9  -1  331.06    9.93
  -7   9  -1  320.55   11.47
   7  -9   2  394.57   17.89
  -7   9  -2  407.30   12.21
  -7   9  -2  392.80   13.40
  -7   9  -3  209.25   12.61
   7  -9   3  200.66   12.79
  -7   9  -3  202.94    9.37
  -7   9  -3  207.70   10.26
  -7   9  -4   86.86    8.30
  -7   9  -4   75.42    6.23
  -7   9  -5    0.58    1.85
  -7   9  -5   -1.99    1.60
  -7   9  -6   72.99    7.57
  -7   9  -6   77.63    6.86
  -7   9  -7  163.44   11.48
  -7   9  -7  169.96   10.81
  -7   9  -8  262.69   14.55
  -7   9  -8  236.92   13.42
  -7   9  -9  311.74   16.02
  -7   9  -9  260.68   14.59
  -7   9 -10  280.41   15.71
  -7   9 -11  102.03   10.09
  -7   9 -12   25.48    5.46
  -7   9 -13   -1.11    2.24
  -7   9 -14   50.98    8.01
  -7   9 -15   98.45   11.06
   7  -8  -8    4.68    2.54
   7  -8  -7    5.78    1.92
   7  -8  -6    9.26    3.38
   7  -8  -5   13.71    3.94
   7  -8  -4   28.65    5.16
   7  -8  -3   60.79    7.39
   7  -8  -2    3.48    2.31
   7  -8  -1    6.64    2.76
  -7   8   1    9.19    1.82
   7  -8   0   13.59    3.47
  -7   8   0   16.00    1.83
  -7   8   0   12.88    2.41
   7  -8   1   36.94    5.39
  -7   8  -1   44.02    3.50
  -7   8  -1   44.49    4.31
   7  -8   2   17.31    3.74
  -7   8  -2   23.08    2.99
  -7   8  -2   23.32    3.36
   7  -8   3  106.20    9.01
  -7   8  -3  108.56    6.70
  -7   8  -3  100.87    7.00
  -7   8  -4   34.94    5.25
  -7   8  -4   27.75    3.68
  -7   8  -4   31.76    4.11
  -7   8  -5    0.49    1.64
  -7   8  -5    1.67    1.62
  -7   8  -6   -0.66    1.69
  -7   8  -6    4.56    2.23
  -7   8  -7   -2.50    2.28
  -7   8  -7    5.69    2.36
  -7   8  -8   15.69    3.81
  -7   8  -8   14.96    3.59
  -7   8  -9   59.34    6.88
  -7   8  -9   49.10    6.38
  -7   8 -10   44.84    6.36
  -7   8 -11   41.16    6.20
  -7   8 -12   43.19    6.92
  -7   8 -13   31.00    6.30
  -7   8 -14   23.60    5.57
  -7   8 -15   11.06    4.33
  -7   8 -16   -3.93    2.89
   7  -7 -10   92.93   10.48
   7  -7  -9   89.83    9.92
   7  -7  -8    6.68    3.21
   7  -7  -7    7.35    3.10
   7  -7  -6   84.56    8.99
   7  -7  -5  179.27   12.41
   7  -7  -4  252.66   14.38
   7  -7  -3  449.33   18.43
   7  -7  -2  208.55   12.40
  -7   7   2  196.95    6.91
   7  -7  -1  100.69    8.63
  -7   7   1   99.76    5.47
   7  -7   0    6.34    2.50
  -7   7   0    5.97    0.99
  -7   7   0    6.25    1.70
   7  -7   1   10.87    2.93
  -7   7  -1   12.59    1.82
  -7   7  -1   11.56    2.25
   7  -7   2   90.57    7.86
  -7   7  -2   94.95    5.64
  -7   7  -2   97.82    6.42
   7  -7   3  609.90   20.22
  -7   7  -3  585.92   15.16
  -7   7  -3  584.23   16.18
  -7   7  -4  367.93   15.54
  -7   7  -4  364.44   12.91
  -7   7  -4  362.74   13.29
  -7   7  -5  424.56   16.56
  -7   7  -5  394.26   14.36
  -7   7  -5  398.27   14.63
  -7   7  -6  150.49   10.00
  -7   7  -6  150.52    9.53
  -7   7  -7   42.85    5.49
  -7   7  -7   38.61    5.20
  -7   7  -8    9.97    2.99
  -7   7  -8    9.44    3.19
  -7   7  -9   29.60    5.03
  -7   7  -9   36.91    5.49
  -7   7 -10   47.20    4.39
  -7   7 -10   50.72    6.83
  -7   7 -11  217.32   14.06
  -7   7 -12  226.71   14.75
  -7   7 -13   46.69    7.46
  -7   7 -14   39.13    6.98
  -7   7 -15   20.94    5.61
  -7   7 -16    3.68    2.79
   7  -6 -10   62.72    8.14
   7  -6  -9   47.54    7.24
   7  -6  -8   42.58    6.57
   7  -6  -7   30.51    5.41
   7  -6  -6    7.88    2.87
   7  -6  -5   19.11    3.89
   7  -6  -4   32.34    5.05
   7  -6  -3   70.99    7.21
  -7   6   3   65.63    3.68
   7  -6  -2  273.40   13.58
  -7   6   2  285.03    8.45
   7  -6  -1  245.84   12.71
  -7   6   1  236.98    8.32
   7  -6   0  205.51   11.46
  -7   6   0  203.58    5.71
  -7   6   0  204.47    8.17
   7  -6   1   58.91    6.19
  -7   6  -1   51.92    3.61
  -7   6  -1   59.63    4.69
   7  -6   2   11.12    2.87
  -7   6  -2    9.37    1.89
  -7   6  -2   15.63    2.75
   7  -6   3   47.57    5.48
  -7   6  -3   53.27    4.63
  -7   6  -3   58.07    5.11
  -7   6  -4  192.20   10.75
  -7   6  -4  182.86    9.12
  -7   6  -4  184.43    9.32
  -7   6  -5  131.79    8.96
  -7   6  -5  134.31    8.34
  -7   6  -5  136.81    8.30
  -7   6  -6  349.87   14.64
  -7   6  -6  343.25   14.30
  -7   6  -7  440.51   16.55
  -7   6  -7  458.08   17.13
  -7   6  -8   65.79    6.75
  -7   6  -8   75.54    7.36
  -7   6  -9   34.10    4.90
  -7   6  -9   32.82    5.30
  -7   6 -10   31.16    3.64
  -7   6 -10   19.35    4.20
  -7   6 -11   85.89    5.60
  -7   6 -11   82.51    8.57
  -7   6 -12  244.29   15.01
  -7   6 -13  196.84   14.01
  -7   6 -14  186.78   14.02
  -7   6 -15   95.10   10.33
  -7   6 -16   66.59    8.79
  -7   6 -17    2.71    1.65
   7  -5 -11   18.22    4.80
   7  -5 -10   82.79    9.36
   7  -5  -9  143.90   11.87
   7  -5  -8  158.44   11.92
   7  -5  -7  212.29   13.36
   7  -5  -6  134.01   10.23
   7  -5  -5    3.13    2.33
   7  -5  -4    4.64    2.35
   7  -5  -3  208.42   11.68
  -7   5   3  198.05    6.68
   7  -5  -2  252.33   12.52
  -7   5   2  251.01    8.09
   7  -5  -1  208.05   11.15
  -7   5   1  222.23    8.05
   7  -5   0  369.50   14.59
  -7   5   0  368.35    7.62
  -7   5   0  367.19   10.87
  -7   5  -1  166.97    9.74
   7  -5   1  143.27    9.04
  -7   5  -1  162.04    6.30
  -7   5  -1  168.04    7.71
   7  -5   2   75.26    6.57
  -7   5  -2   70.76    6.35
  -7   5  -2   72.84    4.81
  -7   5  -2   71.43    5.29
   7  -5   3   17.94    3.29
  -7   5  -3   16.63    3.23
  -7   5  -3   18.43    2.80
  -7   5  -3   17.22    2.67
  -7   5  -4   11.45    2.62
  -7   5  -4   11.47    2.70
  -7   5  -4   10.52    2.19
  -7   5  -4   12.33    2.28
  -7   5  -5   24.19    3.75
  -7   5  -5   22.33    3.65
  -7   5  -5   31.18    4.11
  -7   5  -5   25.03    3.48
  -7   5  -6  112.58    8.05
  -7   5  -6  110.81    8.00
  -7   5  -6  105.21    7.78
  -7   5  -6  124.72    7.99
  -7   5  -7   68.41    6.47
  -7   5  -7   55.86    6.07
  -7   5  -8   32.27    4.64
  -7   5  -8   20.15    3.75
  -7   5  -9  151.06    8.01
  -7   5  -9  152.20   10.61
  -7   5 -10   -0.70    1.29
  -7   5 -10   -1.25    1.81
  -7   5 -11   55.65    4.49
  -7   5 -11   63.16    7.60
  -7   5 -12    9.95    2.04
  -7   5 -12   10.62    3.13
  -7   5 -13    1.12    2.16
  -7   5 -14   87.26    9.45
  -7   5 -15   42.33    7.03
  -7   5 -16   27.27    5.91
  -7   5 -17   16.60    4.44
  -7   5 -18    0.67    2.87
   7  -4 -12   35.39    6.53
   7  -4 -11    3.17    2.30
   7  -4 -10   16.69    4.03
   7  -4  -9   94.09    9.42
   7  -4  -8  244.83   14.48
   7  -4  -7  164.83   11.36
   7  -4  -6  146.49   10.43
   7  -4  -5  162.55   10.59
   7  -4  -5  176.91    6.06
   7  -4  -4   97.41    7.98
   7  -4  -4   99.52    4.92
   7  -4  -3    0.91    1.85
   7  -4  -3    1.58    0.89
   7  -4  -2    8.49    2.25
  -7   4   2    6.57    1.45
   7  -4  -2   12.85    2.03
  -7   4   1  158.58    9.24
   7  -4  -1  167.04    9.56
  -7   4   1  153.43    3.12
  -7   4   1  148.37    2.97
   7  -4  -1  171.90    7.58
  -7   4   1  171.42    7.11
   7  -4   0  344.01   13.39
  -7   4   0  361.80   13.73
  -7   4   0  355.92    7.87
  -7   4   0  358.33   10.69
   7  -4   0  347.91   11.20
  -7   4  -1  496.40   15.94
   7  -4   1  505.86   16.09
  -7   4  -1  526.49   11.53
  -7   4  -1  501.42   13.04
  -7   4  -2  348.84   13.31
   7  -4   2  358.15   13.38
  -7   4  -2  372.30   10.94
  -7   4  -2  353.44   11.43
  -7   4  -3  193.01   10.02
   7  -4   3  210.29   10.24
  -7   4  -3  200.03    8.81
  -7   4  -3  213.20    9.22
  -7   4  -4  205.13   10.22
  -7   4  -4  205.87   10.15
  -7   4  -4  192.65    9.36
  -7   4  -4  203.69    9.29
  -7   4  -5   22.86    3.46
  -7   4  -5   28.50    3.93
  -7   4  -5   26.41    3.54
  -7   4  -5   22.58    3.56
  -7   4  -6   55.47    5.49
  -7   4  -6   48.50    5.03
  -7   4  -6   56.75    5.85
  -7   4  -6   51.96    5.08
  -7   4  -7  112.86    7.87
  -7   4  -7  122.01    8.15
  -7   4  -7  103.86    7.97
  -7   4  -7  121.34    7.96
  -7   4  -8  222.77   11.24
  -7   4  -8  207.96    9.58
  -7   4  -8  206.55   11.83
  -7   4  -8  220.94   11.15
  -7   4  -9  389.10   12.65
  -7   4  -9  386.31   16.65
  -7   4 -10  303.16   10.93
  -7   4 -10  312.07   15.53
  -7   4 -11  126.80    6.82
  -7   4 -11  124.89   10.16
  -7   4 -12   41.37    3.81
  -7   4 -12   42.39    6.25
  -7   4 -13    1.59    2.63
  -7   4 -14   11.42    3.96
  -7   4 -15  206.37   14.66
  -7   4 -16  132.78   12.16
  -7   4 -17  359.22   20.34
  -7   4 -18  113.32   12.02
   7  -3 -12   85.77    9.80
   7  -3 -11    4.89    2.88
   7  -3 -10   15.67    4.30
   7  -3  -9   -2.25    2.28
   7  -3  -8   68.36    7.47
   7  -3  -7   30.70    4.93
   7  -3  -7   31.50    2.63
   7  -3  -6   51.65    5.99
   7  -3  -6   51.33    3.50
   7  -3  -5  137.09    9.33
   7  -3  -5  137.38    5.95
   7  -3  -4   72.56    6.65
   7  -3  -4   69.49    4.40
   7  -3  -3   87.69    6.98
  -7   3   3   92.21    7.23
   7  -3  -3   81.96    4.90
   7  -3  -2    1.06    1.77
  -7   3   2    3.94    1.73
  -7   3   2    1.34    0.71
   7  -3  -2    0.10    1.22
  -7   3   1    0.16    1.04
   7  -3  -1    4.92    2.43
  -7   3   1    4.08    1.72
  -7   3   1    2.79    0.67
  -7   3   1    1.21    0.40
   7  -3  -1    3.55    1.44
  -7   3   0    1.63    1.10
   7  -3   0    1.06    1.31
  -7   3   0    2.65    1.21
   7  -3   0    1.96    1.03
  -7   3   0    2.33    0.90
  -7   3  -1   15.03    2.65
   7  -3   1   17.63    2.96
   7  -3   1   19.39    2.88
  -7   3  -1   20.42    2.39
  -7   3  -1   18.74    2.61
  -7   3  -2   25.65    3.36
   7  -3   2   25.26    3.43
  -7   3  -2   32.55    3.40
  -7   3  -2   28.89    3.37
   7  -3   2   35.96    3.85
  -7   3  -3  400.36   13.21
   7  -3   3  396.80   13.27
  -7   3  -3  395.40   12.46
  -7   3  -3  409.60   12.50
   7  -3   3  387.13   12.71
  -7   3  -4    8.82    1.83
  -7   3  -4    5.75    1.96
   7  -3   4   12.15    2.51
  -7   3  -4   10.65    2.23
  -7   3  -4    9.77    2.28
  -7   3  -5   94.09    6.67
  -7   3  -5   84.25    6.22
  -7   3  -5   79.94    6.36
  -7   3  -5   91.52    6.38
  -7   3  -6   -0.19    1.03
  -7   3  -6    1.21    1.31
  -7   3  -6    1.40    1.49
  -7   3  -6    0.85    1.35
  -7   3  -7    1.93    1.17
  -7   3  -7   -0.28    1.04
  -7   3  -7    0.69    1.21
  -7   3  -7    2.32    1.56
  -7   3  -8   14.34    2.71
  -7   3  -8   12.29    2.54
  -7   3  -8   10.74    2.54
  -7   3  -8   17.13    3.40
  -7   3  -9   16.35    2.90
  -7   3  -9   13.40    2.35
  -7   3  -9   18.57    3.83
  -7   3 -10   20.76    3.40
  -7   3 -10   19.61    2.77
  -7   3 -10   17.31    3.92
  -7   3 -11   63.18    4.91
  -7   3 -11   66.98    7.32
  -7   3 -12    7.51    3.01
  -7   3 -13    9.72    3.39
  -7   3 -14    3.84    2.24
  -7   3 -15    5.79    3.16
  -7   3 -16    1.52    3.03
  -7   3 -17  -13.36    4.31
  -7   3 -18    1.31    3.18
  -7   3 -19    4.31    3.41
   7  -2 -13  125.89   11.99
   7  -2 -12  170.62   13.48
   7  -2 -11  271.74   16.31
   7  -2 -10  148.70   11.65
   7  -2  -9  143.18   10.98
   7  -2  -8   19.33    4.02
   7  -2  -8   14.39    2.09
   7  -2  -7   -0.05    1.83
   7  -2  -7    0.63    0.88
   7  -2  -6   58.72    6.17
   7  -2  -6   65.87    4.35
   7  -2  -5  352.59   14.45
   7  -2  -5  347.65   10.08
   7  -2  -4  596.05   17.99
   7  -2  -4  575.97   13.13
   7  -2  -3  492.26   15.80
  -7   2   3  506.47   16.11
   7  -2  -3  490.53   12.29
  -7   2   2  558.29   12.99
   7  -2  -2  557.15   16.18
  -7   2   2  589.26   16.75
  -7   2   2  544.40    6.48
  -7   2   2  541.52    7.21
   7  -2  -2  554.50   13.33
  -7   2   1  217.99    8.29
  -7   2   1  227.40   10.04
   7  -2  -1  237.12   10.27
  -7   2   1  220.73    5.38
   7  -2  -1  213.98    8.42
  -7   2   1  221.72    6.30
  -7   2   0  120.32    7.08
   7  -2   0  134.95    7.52
   7  -2   0  125.97    6.60
  -7   2   0  126.02    5.53
  -7   2   0  130.21    6.58
  -7   2  -1    2.76    1.17
   7  -2   1    0.20    0.93
  -7   2  -1   -0.10    0.85
   7  -2   1    0.29    1.01
  -7   2  -1    0.76    0.75
  -7   2  -2  326.46   11.27
   7  -2   2  345.44   11.66
   7  -2   2  320.58   11.11
  -7   2  -2  340.26   10.87
  -7   2  -2  325.26   10.80
  -7   2  -3  222.56    9.24
   7  -2   3  237.42    9.67
   7  -2   3  251.48   10.11
  -7   2  -3  237.92    9.46
  -7   2  -3  245.09    9.83
  -7   2  -4  827.40   17.87
  -7   2  -4  876.95   19.26
   7  -2   4  843.68   18.99
  -7   2  -4  865.44   18.57
  -7   2  -4  859.52   19.41
  -7   2  -5  766.77   17.43
  -7   2  -5  770.65   18.13
  -7   2  -5  775.80   19.51
   7  -2   5  765.19   18.61
  -7   2  -5  771.00   18.06
  -7   2  -6  393.18   12.71
  -7   2  -6  400.21   13.27
  -7   2  -6  404.67   13.53
  -7   2  -6  386.90   14.47
   7  -2   6  399.59   13.87
  -7   2  -7  154.41    8.31
  -7   2  -7  150.48    8.38
  -7   2  -7  148.95    8.13
  -7   2  -7  130.65    8.77
   7  -2   7  143.03    8.61
  -7   2  -7  153.64    8.61
  -7   2  -8    0.66    1.23
  -7   2  -8    0.89    1.42
  -7   2  -8    0.04    1.02
  -7   2  -8    1.33    1.61
  -7   2  -9   54.83    5.20
  -7   2  -9   55.08    4.77
  -7   2  -9   56.65    6.28
  -7   2 -10  139.25    8.50
  -7   2 -10  145.76    7.60
  -7   2 -10  139.92   10.19
  -7   2 -11  409.10   12.61
  -7   2 -11  417.20   18.11
  -7   2 -12  501.53   20.42
  -7   2 -13  281.12   15.79
  -7   2 -14  295.38   16.62
  -7   2 -15   39.09    6.45
  -7   2 -16   -0.33    2.36
  -7   2 -17   29.44    5.77
  -7   2 -18   66.08    9.02
  -7   2 -19  123.85   12.77
   7  -1 -13   -2.03    2.13
   7  -1 -12    2.56    2.59
   7  -1 -11    0.97    2.73
   7  -1 -10   83.02    8.75
   7  -1  -9   74.09    7.74
   7  -1  -9   73.66    4.98
   7  -1  -8    1.78    2.01
   7  -1  -8    0.29    0.81
   7  -1  -7    0.72    1.69
   7  -1  -7   -0.60    0.84
   7  -1  -6   -0.42    1.64
   7  -1  -6   -0.12    1.04
   7  -1  -5    4.72    1.77
   7  -1  -5    6.35    1.76
   7  -1  -4    1.40    1.03
  -7   1   4    0.18    0.33
   7  -1  -4   -0.31    1.00
   7  -1  -3   12.84    2.52
  -7   1   3   11.19    1.15
   7  -1  -3    9.74    1.87
  -7   1   2   -0.21    1.14
  -7   1   2    1.60    2.21
   7  -1  -2    0.03    1.17
  -7   1   2    1.22    0.50
   7  -1  -2    0.35    1.07
  -7   1   1   15.59    2.34
   7  -1  -1   13.10    2.45
  -7   1   1   17.83    2.90
  -7   1   1   18.08    1.81
   7  -1  -1   18.08    2.57
   7  -1   0    3.96    1.63
  -7   1   0    1.55    1.17
  -7   1   0   -0.45    1.07
   7  -1   0    4.05    1.42
  -7   1  -1   10.39    2.00
   7  -1   1    7.92    1.82
  -7   1  -1    5.67    1.35
   7  -1   1   12.49    2.18
  -7   1  -2   74.37    5.02
   7  -1   2   69.92    4.94
   7  -1   2   62.33    4.94
  -7   1  -2   69.62    5.04
  -7   1  -3    5.27    1.50
   7  -1   3    5.34    1.47
   7  -1   3    6.47    1.85
  -7   1  -3    7.25    1.78
  -7   1  -4   40.42    3.78
  -7   1  -4   43.19    4.12
   7  -1   4   38.83    4.03
  -7   1  -4   43.29    4.17
  -7   1  -5    5.76    1.63
  -7   1  -5    6.81    1.81
  -7   1  -5    6.10    1.97
   7  -1   5    4.37    1.84
  -7   1  -6    0.28    0.93
  -7   1  -6   -2.28    1.75
  -7   1  -6    3.22    1.55
   7  -1   6    0.92    1.44
  -7   1  -6    1.08    1.25
  -7   1  -6   -0.51    1.65
  -7   1  -7  105.00    6.37
  -7   1  -7  103.46    6.80
  -7   1  -7  104.73    6.71
  -7   1  -7   97.09    7.45
  -7   1  -7  118.94    7.50
   7  -1   7  105.83    7.21
  -7   1  -8   43.00    4.22
  -7   1  -8   39.72    4.18
   7  -1   8   38.45    4.52
  -7   1  -8   45.37    4.81
  -7   1  -8   41.53    5.09
  -7   1  -9    7.93    2.91
  -7   1  -9    9.35    2.09
   7  -1   9    9.04    2.37
  -7   1  -9    9.51    2.57
  -7   1  -9   10.61    2.83
  -7   1 -10   -0.64    0.93
   7  -1  10   -0.69    1.11
  -7   1 -10   -0.01    1.69
  -7   1 -11    7.78    1.92
  -7   1 -11    8.86    2.41
  -7   1 -12   16.46    4.17
  -7   1 -13  100.98    9.33
  -7   1 -14   21.03    4.78
  -7   1 -15   56.70    7.76
  -7   1 -16   66.99    8.42
  -7   1 -17    7.14    3.16
  -7   1 -18    2.63    3.27
  -7   1 -19   16.79    4.61
   7   0 -14   88.58   10.22
   7   0 -13   19.53    4.83
   7   0 -12    1.39    2.51
   7   0 -11   31.34    5.68
   7   0 -10  144.36   11.02
   7   0 -10  134.80    7.52
   7   0  -9  259.45   14.15
   7   0  -9  280.22   10.52
   7   0  -8  630.35   20.97
   7   0  -8  622.62   15.45
   7   0  -7  555.01   18.73
   7   0  -7  548.97   14.27
  -7   0   7  552.82   10.38
   7   0  -6  131.09    8.77
  -7   0   6  133.07    5.02
   7   0  -6  120.03    6.63
   7   0  -5   55.41    5.44
  -7   0   5   54.19    3.13
   7   0  -5   61.22    4.71
   7   0  -4    8.32    2.06
  -7   0   4    8.43    1.29
   7   0  -4   11.16    2.08
   7   0  -3   16.83    2.77
  -7   0   3   14.06    1.74
   7   0  -3   10.70    2.06
   7   0  -2  311.72   10.96
  -7   0   2  303.03    7.64
   7   0  -2  312.54   10.42
  -7   0   1  439.32   12.35
   7   0  -1  462.68   12.71
  -7   0   1  427.62   12.28
  -7   0   1  429.05    9.38
   7   0  -1  433.50   12.35
  -7   0   0  516.23   12.92
   7   0   0  531.20   13.15
  -7   0   0  559.11   14.03
   7   0   0  528.14   13.75
   7   0   1  601.85   13.51
  -7   0  -1  608.44   13.39
  -7   0  -1  643.37   15.14
   7   0   1  612.83   14.93
   7   0   2  749.71   14.73
  -7   0  -2  724.19   14.31
   7   0   2  751.18   16.82
  -7   0  -2  783.55   16.96
  -7   0  -3  176.75    7.01
   7   0   3  187.26    7.33
  -7   0  -3  191.65    8.54
   7   0   3  184.83    8.55
  -7   0  -4  134.36    6.15
  -7   0  -4  147.17    7.10
   7   0   4  138.19    7.57
  -7   0  -4  134.67    7.30
  -7   0  -5  257.99    8.70
  -7   0  -5  275.32    9.84
  -7   0  -5  262.14   11.05
   7   0   5  261.95   10.60
  -7   0  -5  277.88   10.68
  -7   0  -6  503.91   12.59
  -7   0  -6  463.11   13.06
  -7   0  -6  483.44   14.86
   7   0   6  502.28   15.07
  -7   0  -6  483.52   14.58
  -7   0  -7  620.69   14.47
  -7   0  -7  625.58   16.73
   7   0   7  613.42   17.02
  -7   0  -7  654.89   17.33
  -7   0  -8  457.74   12.89
  -7   0  -8  465.52   14.30
   7   0   8  473.68   15.40
  -7   0  -8  456.52   14.87
  -7   0  -9  323.13   11.88
   7   0   9  315.26   11.78
  -7   0  -9  337.19   13.18
  -7   0  -9  323.25   14.38
   7   0   9  325.35   13.20
  -7   0 -10   28.18    3.61
   7   0  10   30.33    3.87
   7   0  10   24.70    3.92
  -7   0 -10   25.88    4.42
   7   0  11   20.92    3.40
  -7   0 -11   21.92    4.37
  -7   0 -12    0.45    1.81
  -7   0 -13  225.75   13.89
  -7   0 -14  296.57   16.50
  -7   0 -15  243.81   15.38
  -7   0 -16  197.54   14.21
  -7   0 -17   42.59    6.99
  -7   0 -18   86.25   10.09
  -7   0 -19   10.80    3.89
  -7   0 -20    3.90    3.40
   7   1 -14    8.01    3.63
   7   1 -13    4.91    2.83
   7   1 -12    7.81    3.58
   7   1 -11   59.12    7.52
   7   1 -11   61.14    5.58
   7   1 -10   63.56    7.41
   7   1 -10   60.55    5.50
   7   1  -9    1.25    1.47
   7   1  -9    3.15    1.08
   7   1  -8    2.30    1.95
   7   1  -8    0.95    1.05
  -7  -1   8    1.51    0.90
   7   1  -7   33.82    3.90
  -7  -1   7   37.57    3.38
   7   1  -7   37.83    4.97
   7   1  -6   29.46    3.54
  -7  -1   6   35.86    3.17
   7   1  -6   27.49    4.05
   7   1  -5    3.43    1.38
   7   1  -5   -0.09    1.44
  -7  -1   5    2.19    0.99
   7   1  -4  162.60    8.47
  -7  -1   4  153.39    6.11
   7   1  -4  152.11    7.63
   7   1  -3   92.75    6.05
  -7  -1   3   93.03    4.71
   7   1  -3   92.73    5.90
   7   1  -2   70.34    5.03
  -7  -1   2   70.19    4.10
   7   1  -2   72.44    5.21
  -7  -1   1    2.98    1.20
   7   1  -1    0.34    0.74
  -7  -1   1    3.53    1.22
   7   1  -1    0.91    0.90
  -7  -1   0   63.69    4.90
  -7  -1   0   65.85    4.35
   7   1   0   64.45    4.28
  -7  -1   0   67.88    4.20
   7   1   0   66.58    4.98
   7   1   1   63.71    4.08
  -7  -1  -1   67.16    4.14
  -7  -1  -1   60.82    4.83
   7   1   1   66.55    5.06
  -7  -1  -2  266.60    7.84
   7   1   2  277.52    8.15
  -7  -1  -2  275.34   10.23
   7   1   2  265.88   10.09
  -7  -1  -3  545.86   11.06
  -7  -1  -3  554.60   16.46
  -7  -1  -3  560.46   12.87
   7   1   3  540.43   14.61
  -7  -1  -3  572.42   14.94
  -7  -1  -4   62.64    3.78
  -7  -1  -4   70.03    4.64
  -7  -1  -4   67.84    5.73
  -7  -1  -4   72.08    5.49
   7   1   4   69.16    5.39
  -7  -1  -5    0.35    0.70
  -7  -1  -5    0.59    0.94
  -7  -1  -5    2.72    1.63
   7   1   5    3.29    1.26
  -7  -1  -5    1.99    1.32
  -7  -1  -6   39.40    3.26
  -7  -1  -6   38.44    3.64
  -7  -1  -6   43.00    4.52
   7   1   6   36.29    4.10
  -7  -1  -6   31.21    3.82
  -7  -1  -7  561.70   12.79
  -7  -1  -7  595.70   16.47
   7   1   7  578.67   16.41
  -7  -1  -7  590.87   16.38
  -7  -1  -8  766.98   15.81
  -7  -1  -8  826.69   19.27
   7   1   8  807.61   17.46
   7   1   8  785.61   19.65
  -7  -1  -8  812.05   19.70
   7   1   9  491.08   14.18
  -7  -1  -9  496.34   14.92
   7   1   9  489.12   15.89
  -7  -1  -9  521.46   16.26
   7   1  10  381.38   13.05
   7   1  10  360.18   14.00
   7   1  11  160.91    8.95
  -7  -1 -11  162.04   10.85
   7   1  11  179.81   10.26
   7   1  12   42.85    4.98
  -7  -1 -12   38.29    5.68
  -7  -1 -13   14.35    3.74
  -7  -1 -14   38.62    6.06
  -7  -1 -15  163.84   12.51
  -7  -1 -16  233.81   15.45
  -7  -1 -17   66.66    8.94
  -7  -1 -18  251.41   16.86
  -7  -1 -19   91.37   10.56
  -7  -1 -20    5.44    3.16
   7   2 -14   81.07    9.51
   7   2 -13  158.56   12.76
   7   2 -12  173.20   10.06
   7   2 -12  174.71   13.06
   7   2 -11  165.92    9.57
   7   2 -11  136.47   10.89
   7   2 -10   86.87    6.85
   7   2 -10   82.51    8.08
   7   2  -9    0.58    1.33
   7   2  -9    0.53    1.65
   7   2  -8   41.01    4.51
   7   2  -8   42.58    5.32
  -7  -2   8   48.84    4.51
   7   2  -7  105.06    7.88
  -7  -2   7  117.17    6.56
   7   2  -7  116.43    7.42
   7   2  -6  407.80   14.59
  -7  -2   6  422.40   11.90
   7   2  -6  389.15   13.20
   7   2  -5  449.55   14.49
  -7  -2   5  435.82   11.71
   7   2  -5  418.30   13.46
   7   2  -4  427.55   13.25
  -7  -2   4  395.14   10.83
   7   2  -4  411.38   13.10
   7   2  -3  116.36    6.49
  -7  -2   3  116.51    5.79
   7   2  -3  117.88    6.97
   7   2  -2   95.93    5.55
  -7  -2   2   95.65    5.20
   7   2  -2   95.18    6.17
   7   2  -1   -0.38    0.79
  -7  -2   1    0.70    0.71
   7   2  -1    0.80    0.98
  -7  -2   0  172.51    8.22
   7   2   0  166.30    6.25
  -7  -2   0  165.29    6.93
   7   2   0  157.15    7.79
   7   2   1  459.16    9.71
  -7  -2  -1  440.73    9.57
  -7  -2  -1  456.88   13.32
   7   2   1  441.43   13.14
  -7  -2  -2  461.42    9.12
   7   2   2  455.44    9.22
  -7  -2  -2  480.60   13.75
  -7  -2  -2  447.68   15.00
   7   2   2  468.16   13.67
  -7  -2  -3  113.06    4.38
  -7  -2  -3  110.67    5.38
  -7  -2  -3  121.07    7.72
  -7  -2  -3  116.45    6.84
   7   2   3  112.17    6.74
  -7  -2  -4  384.73    8.04
  -7  -2  -4  397.78   10.21
  -7  -2  -4  390.58   13.76
   7   2   4  397.43   12.83
  -7  -2  -4  424.94   13.17
  -7  -2  -5  250.48    6.79
  -7  -2  -5  240.58    8.19
  -7  -2  -5  251.93   11.01
  -7  -2  -5  248.72   10.22
   7   2   5  246.83   10.27
  -7  -2  -6   74.65    4.01
  -7  -2  -6   87.34    6.55
   7   2   6   74.93    5.78
  -7  -2  -6   71.29    5.61
  -7  -2  -7    1.63    0.82
  -7  -2  -7    0.97    1.27
   7   2   7    2.15    1.22
   7   2   8  115.96    6.40
  -7  -2  -8  122.18    7.58
   7   2   8  109.77    7.33
  -7  -2  -8  119.92    7.58
   7   2   9   22.85    3.08
  -7  -2  -9   24.06    3.57
  -7  -2  -9   16.23    2.93
   7   2   9   23.25    3.52
   7   2  10  462.77   14.05
   7   2  10  450.78   15.50
  -7  -2 -10  477.88   15.84
   7   2  11  133.72    7.89
   7   2  11  129.28    8.21
   7   2  11  134.53    8.80
   7   2  12  128.90    8.21
   7   2  12  138.55    8.52
   7   2  12  121.98    8.67
   7   2  13   53.70    5.51
  -7  -2 -13   58.08    6.99
   7   2  14    1.88    1.47
  -7  -2 -14    4.40    3.03
   7   2  15    1.03    1.50
  -7  -2 -15    1.71    2.18
   7   2  16   66.24    6.23
  -7  -2 -16   66.47    8.31
   7   2  17   10.93    2.82
  -7  -2 -17   14.05    4.43
   7   2  18   69.74    6.51
  -7  -2 -18   79.10    9.61
  -7  -2 -19   86.53   10.63
  -7  -2 -20   12.16    4.77
   7   3 -14  -14.35    4.28
   7   3 -13   36.13    6.07
   7   3 -12   76.37    7.04
   7   3 -12   72.45    8.20
   7   3 -11   65.66    6.51
   7   3 -11   74.39    6.06
   7   3 -11   61.83    7.31
   7   3 -10   54.32    5.66
   7   3 -10   61.00    5.31
   7   3 -10   61.31    7.01
   7   3  -9  105.63    7.73
  -7  -3   9  108.77    7.39
   7   3  -9   97.62    8.36
   7   3  -8   15.40    3.08
  -7  -3   8   15.87    2.87
   7   3  -8   17.41    3.55
   7   3  -7   11.48    2.69
  -7  -3   7   14.28    2.71
   7   3  -7   14.27    2.96
   7   3  -6   34.53    4.22
   7   3  -6   31.64    4.13
  -7  -3   6   34.50    3.81
   7   3  -5  290.08   11.35
  -7  -3   5  303.87   10.60
   7   3  -5  296.48   11.83
   7   3  -4  379.66   12.12
  -7  -3   4  384.39   11.57
   7   3  -4  385.71   13.22
   7   3  -3  228.77    8.77
  -7  -3   3  237.43    8.90
   7   3  -3  239.46   10.28
   7   3  -2  366.15   10.17
  -7  -3   2  381.74   11.15
   7   3  -2  375.03   12.62
   7   3  -1   71.71    4.11
  -7  -3   1   62.13    4.53
   7   3  -1   69.94    5.44
  -7  -3   0    0.80    1.16
  -7  -3   0   -0.38    1.35
   7   3   0    1.42    0.71
  -7  -3   0    0.78    0.88
   7   3   0    0.20    1.07
  -7  -3  -1  161.16    8.17
  -7  -3  -1  182.01    9.71
   7   3   1  157.14    4.95
  -7  -3  -1  163.88    7.45
   7   3   1  167.52    8.28
   7   3   2  547.12    8.45
  -7  -3  -2  544.25   16.73
  -7  -3  -2  567.99   15.33
   7   3   2  532.56   14.73
  -7  -3  -3  336.62    6.07
  -7  -3  -3  340.47    8.53
  -7  -3  -3  362.97   13.48
  -7  -3  -3  361.75   12.18
   7   3   3  349.15   12.01
  -7  -3  -4  293.98    5.66
  -7  -3  -4  307.92    8.31
  -7  -3  -4  312.59   12.46
  -7  -3  -4  310.17   11.44
   7   3   4  299.45   11.32
  -7  -3  -5  611.55    8.84
  -7  -3  -5  632.79   17.64
  -7  -3  -5  648.24   16.73
   7   3   5  601.68   16.11
  -7  -3  -6  226.22    6.09
  -7  -3  -6  244.16   11.01
   7   3   6  217.02    9.90
  -7  -3  -6  240.66   10.33
  -7  -3  -7   23.89    2.28
  -7  -3  -7   27.57    3.94
  -7  -3  -7   29.26    3.78
   7   3   7   25.32    3.50
   7   3   8   47.32    3.98
  -7  -3  -8   54.36    5.29
   7   3   8   54.85    5.19
  -7  -3  -8   54.39    5.27
   7   3   9   10.61    2.48
   7   3   9   14.97    2.41
  -7  -3  -9   10.30    2.41
   7   3   9   11.72    2.55
   7   3  10  133.98    7.32
   7   3  10  134.89    8.50
   7   3  10  131.66    8.36
  -7  -3 -10  147.10    8.87
   7   3  11  435.29   14.03
   7   3  11  431.48   15.36
   7   3  11  445.37   15.79
   7   3  12  488.42   15.70
   7   3  12  468.88   16.23
   7   3  12  487.31   16.88
   7   3  13  431.93   15.78
   7   3  13  444.10   16.64
   7   3  14  134.14    8.99
   7   3  15   16.35    3.31
  -7  -3 -15   21.98    4.66
   7   3  16   44.20    5.32
  -7  -3 -16   53.97    7.58
   7   3  17   68.62    6.83
  -7  -3 -17   76.15    9.11
   7   3  18   83.65    7.55
  -7  -3 -18  102.92   10.90
   7   3  19   53.89    6.42
  -7  -3 -19   78.81    9.69
  -7  -3 -20  194.19   15.71
   7   4 -14    4.02    2.45
   7   4 -13   19.90    4.24
   7   4 -13   19.10    4.71
   7   4 -12   42.76    5.60
   7   4 -12   43.00    6.64
   7   4 -11  116.08    8.98
   7   4 -11  127.86    8.52
   7   4 -11  125.23   10.41
   7   4 -10   88.97    7.66
   7   4 -10   84.20    6.83
   7   4 -10   74.84    7.76
   7   4  -9  124.35    8.78
   7   4  -9  133.42    8.21
  -7  -4   9  141.77    8.93
   7   4  -9  120.59    9.22
   7   4  -8   61.59    6.08
  -7  -4   8   61.92    5.71
   7   4  -8   65.78    5.63
   7   4  -8   63.39    6.41
   7   4  -7   42.65    4.98
  -7  -4   7   45.14    4.81
   7   4  -7   39.37    4.80
   7   4  -6    2.04    1.22
  -7  -4   6   -2.15    1.44
   7   4  -6    1.39    1.17
   7   4  -5    8.19    2.32
  -7  -4   5    4.49    1.67
   7   4  -5    7.52    1.93
   7   4  -4    1.09    1.15
   7   4  -4    0.23    1.07
  -7  -4   4    2.82    1.63
  -7  -4   3  239.50   11.90
   7   4  -3  227.90    8.45
  -7  -4   3  228.10    9.34
   7   4  -3  234.98   10.57
   7   4  -2   20.16    3.13
  -7  -4   2   15.24    3.02
   7   4  -2   23.61    2.60
  -7  -4   2   19.80    2.74
  -7  -4   1   76.94    6.55
   7   4  -1   83.37    4.15
  -7  -4   1   79.19    5.44
   7   4  -1   76.06    5.87
  -7  -4   0  197.45   10.41
   7   4   0  199.12    5.53
  -7  -4   0  190.64    8.35
   7   4   0  192.93    9.21
  -7  -4  -1   81.77    6.64
  -7  -4  -1   72.90    5.70
   7   4   1   69.11    2.70
  -7  -4  -1   63.42    5.01
   7   4   1   71.39    5.63
  -7  -4  -2  131.01    4.73
  -7  -4  -2  138.61    8.55
  -7  -4  -2  139.90    7.80
   7   4   2  126.77    7.40
  -7  -4  -3   11.44    1.49
  -7  -4  -3   14.08    2.61
  -7  -4  -3   17.42    3.12
   7   4   3   13.15    2.48
  -7  -4  -4   24.94    3.66
  -7  -4  -4   29.60    3.60
   7   4   4   23.30    3.23
  -7  -4  -5  120.70    2.69
  -7  -4  -5  142.64    8.56
  -7  -4  -5  128.16    7.55
   7   4   5  122.91    7.43
  -7  -4  -6  193.70    4.67
  -7  -4  -6  198.31   10.12
  -7  -4  -6  204.21    9.63
   7   4   6  189.64    9.31
  -7  -4  -7  176.52    9.58
   7   4   7  152.88    9.08
   7   4   7  156.08    6.35
   7   4   7  167.14    8.91
  -7  -4  -7  185.47    9.40
   7   4   8   25.86    2.77
  -7  -4  -8   29.47    3.81
   7   4   8   32.76    4.46
   7   4   8   26.22    3.63
   7   4   9   -1.24    1.78
   7   4   9    1.84    0.96
  -7  -4  -9    1.00    1.82
   7   4   9    0.69    1.48
   7   4  10    3.94    1.23
   7   4  10    5.52    1.86
  -7  -4 -10    1.70    1.17
   7   4  10    3.92    1.77
   7   4  11   -0.54    1.16
   7   4  11   -0.06    1.53
   7   4  11    2.19    1.41
   7   4  12    9.30    2.69
   7   4  12    7.44    2.19
   7   4  12    6.75    1.98
   7   4  13   49.00    5.58
   7   4  13   51.88    5.71
   7   4  14   23.22    4.12
   7   4  14   28.51    4.65
   7   4  15    0.38    1.75
   7   4  16   56.89    6.27
  -7  -4 -16   64.27    8.24
   7   4  17    1.14    1.45
  -7  -4 -17    7.20    4.09
   7   4  18   -2.26    2.03
  -7  -4 -18   -3.51    2.93
   7   4  19    4.93    2.61
  -7  -4 -19   10.16    3.98
  -7  -4 -20    2.77    2.13
   7   5 -14   67.45    7.70
   7   5 -14   78.31    9.40
   7   5 -13   42.91    6.01
   7   5 -13   34.72    6.39
   7   5 -12    0.10    1.76
   7   5 -12    2.55    1.95
   7   5 -12   -0.06    1.91
   7   5 -11    2.95    2.17
   7   5 -11    4.06    1.18
   7   5 -11    8.57    3.06
   7   5 -10  101.50    8.44
   7   5 -10  117.12    8.32
   7   5 -10  114.53    9.49
   7   5  -9  265.94   13.34
   7   5  -9  263.83   12.18
  -7  -5   9  296.01   13.62
   7   5  -9  247.62   13.08
   7   5  -8  462.86   17.12
  -7  -5   8  503.25   17.02
   7   5  -8  466.88   15.76
   7   5  -8  436.83   16.47
   7   5  -7  227.04   11.81
   7   5  -7  238.02   10.98
  -7  -5   7  263.00   11.91
   7   5  -7  238.45   11.57
   7   5  -6  116.03    8.32
  -7  -5   6  118.26    7.73
   7   5  -6  114.52    7.55
   7   5  -5   77.70    6.68
  -7  -5   5   83.56    6.36
   7   5  -5   84.34    6.07
   7   5  -4   -0.72    1.33
  -7  -5   4    1.07    1.24
  -7  -5   4    0.73    1.03
   7   5  -4   -0.46    0.86
   7   5  -3  170.78    9.34
  -7  -5   3  180.60   10.39
   7   5  -3  171.97    7.20
  -7  -5   3  164.18    8.43
  -7  -5   2  352.77   14.29
   7   5  -2  350.62    9.13
  -7  -5   2  351.88   12.08
   7   5  -2  345.71   13.08
  -7  -5   1  478.49   16.46
   7   5  -1  455.05    9.03
  -7  -5   1  460.25   13.74
   7   5  -1  456.17   14.82
  -7  -5   0  286.42   12.71
   7   5   0  278.77    5.70
  -7  -5   0  289.96   10.86
   7   5   0  279.94   11.48
  -7  -5  -1 1044.27   23.82
  -7  -5  -1 1039.58   20.57
   7   5   1 1001.18   21.39
  -7  -5  -2  209.76    4.98
  -7  -5  -2  211.75   10.69
  -7  -5  -2  222.20   10.05
  -7  -5  -2  200.91    9.15
   7   5   2  191.31    9.33
  -7  -5  -3  451.96   15.58
  -7  -5  -3  425.72   13.89
   7   5   3  414.16   13.62
  -7  -5  -4  318.94   12.07
  -7  -5  -4  336.35   13.44
   7   5   4  310.83   11.88
  -7  -5  -5  210.10    9.87
   7   5   5  210.34   10.78
  -7  -5  -5  225.67   11.05
   7   5   5  198.38    9.57
  -7  -5  -6  514.92    5.36
   7   5   6  549.73   17.38
  -7  -5  -6  554.14   17.31
  -7  -5  -6  568.66   16.37
   7   5   6  547.90   15.98
   7   5   7  570.26   11.46
   7   5   7  578.47   18.00
   7   5   7  572.28   16.48
  -7  -5  -7  623.41   17.27
   7   5   8  616.63   12.86
   7   5   8  609.90   18.68
  -7  -5  -8  651.11   17.94
   7   5   8  605.73   17.25
   7   5   9  466.67   12.16
   7   5   9  462.92   16.45
   7   5   9  473.79   15.50
  -7  -5  -9  495.79   15.97
   7   5  10  312.48   10.69
   7   5  10  309.21   13.70
   7   5  10  300.71   12.61
   7   5  11   82.76    7.27
   7   5  11   73.76    6.44
   7   5  12   49.86    5.75
   7   5  12   50.18    5.39
   7   5  13  176.28   10.86
   7   5  13  197.81   10.95
   7   5  14  203.04   11.91
   7   5  14  203.75   11.46
   7   5  15  337.76   15.65
   7   5  15  393.02   16.39
   7   5  16  131.91    9.98
   7   5  17  163.18   11.23
  -7  -5 -17  169.38   13.45
   7   5  18  101.18    9.03
  -7  -5 -18  121.28   11.84
   7   5  19    7.49    3.14
  -7  -5 -19   12.85    3.64
   7   5  20   12.38    3.30
  -7  -5 -20    9.40    4.14
  -7  -5 -21   36.95    6.55
   7   6 -14   26.98    5.29
   7   6 -14   26.93    5.63
   7   6 -13    7.22    2.50
   7   6 -13   14.69    4.14
   7   6 -12   -0.61    1.85
   7   6 -12    0.15    1.73
   7   6 -12    4.72    3.37
   7   6 -11   -0.65    1.96
   7   6 -11   -1.56    1.60
   7   6 -11   -3.08    2.34
   7   6 -10    3.25    1.85
   7   6 -10    4.42    1.64
   7   6 -10    0.74    2.10
   7   6  -9   -1.16    1.74
   7   6  -9    1.30    1.65
   7   6  -9   -1.41    1.50
   7   6  -8   53.82    6.37
   7   6  -8   62.28    6.12
   7   6  -8   43.74    5.27
   7   6  -7   61.47    6.40
   7   6  -7   61.03    5.90
  -7  -6   7   84.55    7.14
   7   6  -7   62.88    5.93
   7   6  -6  142.68    9.46
   7   6  -6  159.59    9.28
  -7  -6   6  176.57    9.96
   7   6  -6  138.16    8.28
   7   6  -5   15.64    3.16
  -7  -6   5   18.48    3.25
   7   6  -5   18.43    2.88
  -7  -6   4    9.55    2.39
   7   6  -4    6.16    1.93
  -7  -6   4    8.72    2.24
   7   6  -4   10.92    2.19
  -7  -6   3   32.24    4.60
   7   6  -3   45.02    5.07
  -7  -6   3   45.58    4.70
   7   6  -3   39.52    3.53
  -7  -6   2    5.97    2.01
   7   6  -2    7.28    2.30
  -7  -6   2    3.25    1.26
   7   6  -2    5.57    1.26
  -7  -6   1   -0.89    1.67
   7   6  -1   -0.79    1.77
  -7  -6   1    0.66    1.44
   7   6  -1    0.48    0.51
   7   6   0   16.75    3.02
  -7  -6   0   17.93    3.23
  -7  -6   0   14.60    2.61
   7   6   0   17.08    1.26
  -7  -6  -1    4.31    0.57
   7   6   1    2.13    1.15
  -7  -6  -1    2.88    1.73
  -7  -6  -1    9.46    2.15
  -7  -6  -2   29.82    4.22
   7   6   2   20.94    3.33
  -7  -6  -2   27.47    3.72
  -7  -6  -3    2.30    1.86
  -7  -6  -3    1.73    0.94
  -7  -6  -3   -0.32    0.94
   7   6   3    0.83    1.12
  -7  -6  -4    4.39    1.88
   7   6   4    4.11    1.74
  -7  -6  -4    4.63    1.58
   7   6   4    3.47    1.25
   7   6   5   12.35    2.74
  -7  -6  -5   21.77    3.28
  -7  -6  -5   13.17    2.93
   7   6   5   18.54    2.96
   7   6   6    8.88    2.52
  -7  -6  -6    2.72    1.06
   7   6   6    5.12    1.92
  -7  -6  -7   35.51    1.94
   7   6   7   33.62    2.64
   7   6   7   38.22    4.80
  -7  -6  -7   38.94    4.37
   7   6   7   38.01    4.38
  -7  -6  -8   14.15    1.69
   7   6   8   17.91    3.41
   7   6   8   14.59    2.04
  -7  -6  -8   19.16    3.32
   7   6   8   22.74    3.51
  -7  -6  -9    0.73    0.66
   7   6   9    3.40    1.88
  -7  -6  -9    0.86    1.33
   7   6   9    0.68    1.07
   7   6   9    0.77    1.19
  -7  -6 -10    7.87    1.79
   7   6  10    7.68    2.47
   7   6  10    3.51    1.63
  -7  -6 -11   36.54    3.71
   7   6  11   33.67    4.86
   7   6  11   28.29    4.17
  -7  -6 -12    0.79    1.08
   7   6  12    1.10    1.50
   7   6  12   -0.91    1.92
   7   6  13    3.67    2.11
   7   6  13   -3.06    2.24
   7   6  14    2.08    1.65
   7   6  14   -2.37    1.88
  -7  -6 -15    2.95    2.22
   7   6  15    2.36    2.14
   7   6  15   -0.41    1.37
  -7  -6 -16   -2.59    2.20
   7   6  16    0.11    1.88
  -7  -6 -17   53.16    6.49
   7   6  17   30.67    4.97
  -7  -6 -18   21.37    4.56
   7   6  18   15.45    4.30
  -7  -6 -18   24.69    6.03
  -7  -6 -19    2.88    2.54
   7   6  19    6.40    3.04
  -7  -6 -19    6.13    3.47
  -7  -6 -20    0.32    2.75
   7   6  20    3.59    3.05
  -7  -6 -20    0.65    2.54
  -7  -6 -21    0.46    2.59
   7   7 -14  114.36   10.50
   7   7 -14  122.35   11.50
   7   7 -13  148.00   11.77
   7   7 -13  151.52   11.35
   7   7 -13  155.86   12.43
   7   7 -12  162.62   12.19
   7   7 -12  154.81   11.25
   7   7 -11  131.21   10.51
   7   7 -11  144.05   10.57
   7   7 -10   47.96    6.32
   7   7 -10   39.28    5.40
   7   7  -9   19.92    4.00
   7   7  -9   26.77    4.36
   7   7  -8    6.69    2.72
   7   7  -8    1.72    1.57
   7   7  -7   96.03    8.37
   7   7  -7  101.62    8.12
   7   7  -6  246.93   12.91
   7   7  -6  255.51   12.29
   7   7  -5  543.84   18.82
  -7  -7   4  364.77   15.28
   7   7  -4  350.18   14.70
  -7  -7   4  376.06   14.39
  -7  -7   3  235.73   12.20
   7   7  -3  227.39   11.64
  -7  -7   3  233.54   11.10
  -7  -7   2  135.29    9.17
   7   7  -2  129.27    8.62
   7   7  -2  136.28    5.64
  -7  -7   2  137.29    8.37
  -7  -7   1    2.66    1.43
   7   7  -1    2.44    1.77
  -7  -7   1    0.63    1.31
   7   7  -1    3.02    0.89
  -7  -7   0    0.45    1.08
   7   7   0    0.25    1.28
   7   7   0    1.01    0.46
   7   7   0    1.49    0.47
  -7  -7   0    2.55    1.53
  -7  -7  -1  180.55   10.42
  -7  -7  -1  181.06    9.39
   7   7   1  190.09   10.06
  -7  -7  -2  722.65   20.59
  -7  -7  -2  705.24   18.61
   7   7   2  668.64   18.48
  -7  -7  -3  683.54   20.05
   7   7   3  706.15   20.30
  -7  -7  -3  672.96   18.18
   7   7   3  654.83   18.14
   7   7   4  862.22   22.50
  -7  -7  -4  891.60   21.14
   7   7   4  884.48   21.01
   7   7   5  329.81   14.06
  -7  -7  -5  341.87   13.18
   7   7   5  341.74   12.97
   7   7   6  125.89    8.86
  -7  -7  -6  140.65    8.53
   7   7   6  126.55    7.96
  -7  -7  -7    9.19    1.02
   7   7   7   14.64    3.36
   7   7   7    8.31    1.29
  -7  -7  -7   11.20    2.67
   7   7   7    7.20    2.10
  -7  -7  -8   74.91    3.54
   7   7   8   68.43    4.04
   7   7   8   69.27    6.71
  -7  -7  -8   65.04    5.92
   7   7   8   66.08    5.95
  -7  -7  -9  389.91    9.39
   7   7   9  382.33   15.87
   7   7   9  375.56   14.05
  -7  -7 -10  674.58   13.91
   7   7  10  654.44   21.10
   7   7  10  662.88   18.91
  -7  -7 -11  395.19   11.81
   7   7  11  368.89   16.20
   7   7  11  378.63   14.56
  -7  -7 -12  446.89   13.69
   7   7  12  464.43   18.44
   7   7  12  473.83   16.66
  -7  -7 -13  147.89    8.52
   7   7  13  150.26   10.77
   7   7  13  131.80    8.97
  -7  -7 -14   41.07    4.91
   7   7  14   28.83    4.89
   7   7  14   47.55    5.56
  -7  -7 -15   -0.21    1.62
   7   7  15    3.13    2.40
   7   7  15    1.30    1.60
  -7  -7 -16   70.17    7.08
   7   7  16   52.20    6.87
   7   7  16   70.32    7.28
  -7  -7 -17   84.80    8.18
   7   7  17   69.52    8.13
  -7  -7 -18  253.43   14.77
   7   7  18  203.37   13.88
  -7  -7 -19  219.03   14.38
   7   7  19  205.03   14.18
  -7  -7 -19  219.62   16.52
  -7  -7 -20  109.12   10.63
   7   7  20  108.60   10.51
  -7  -7 -20  115.79   12.63
  -7  -7 -21   69.33    8.74
   7   8 -14   -1.91    2.59
   7   8 -13   -3.45    2.70
   7   8 -13   -3.48    2.95
   7   8 -12   -3.69    2.77
   7   8 -12    8.09    3.11
   7   8 -11   -0.68    2.05
   7   8 -11   -1.08    1.98
   7   8 -10    6.62    2.93
   7   8 -10    5.61    2.40
   7   8  -9   10.42    3.16
   7   8  -9   18.95    3.88
   7   8  -8    3.02    1.69
   7   8  -8    1.92    1.61
   7   8  -7   11.28    3.22
   7   8  -7    9.61    2.64
   7   8  -6   -0.87    1.79
   7   8  -6   -0.69    2.00
   7   8  -5   20.46    3.84
   7   8  -4   42.57    5.41
  -7  -8   3    2.51    1.94
   7   8  -3    6.08    2.22
  -7  -8   2  187.67   11.11
   7   8  -2  173.65   10.35
   7   8  -1  125.33    8.72
  -7  -8   1  126.84    9.01
  -7  -8   1  129.15    8.42
   7   8  -1  126.11    4.60
  -7  -8   0   16.69    3.37
   7   8   0   18.16    1.40
   7   8   0   13.96    2.88
  -7  -8   0   16.49    3.24
   7   8   0   16.64    1.30
  -7  -8  -1    6.74    2.05
   7   8   1    4.34    1.96
  -7  -8  -1    5.46    1.43
   7   8   2   18.61    3.49
   7   8   2   18.15    3.25
  -7  -8  -2   19.68    3.68
  -7  -8  -2   14.39    2.71
   7   8   3    2.10    1.66
   7   8   3    4.78    1.74
  -7  -8  -3    4.71    2.08
   7   8   4   72.89    6.87
  -7  -8  -4   77.39    6.54
   7   8   4   70.34    6.19
   7   8   5  191.11   11.05
  -7  -8  -5  204.60   10.43
   7   8   5  186.58    9.90
   7   8   6  130.25    9.26
   7   8   6  124.06    8.09
  -7  -8  -7   40.76    2.19
   7   8   7   37.30    5.07
   7   8   7   38.00    2.50
   7   8   7   39.27    4.59
  -7  -8  -8   73.45    3.58
   7   8   8   82.89    7.59
   7   8   8   76.84    4.10
   7   8   8   81.98    6.64
  -7  -8  -9   15.60    1.99
   7   8   9   20.25    3.94
   7   8   9   15.37    3.14
  -7  -8 -10   74.97    4.70
   7   8  10   62.71    6.97
   7   8  10   60.01    5.83
  -7  -8 -11  112.53    6.33
   7   8  11  107.33    9.08
   7   8  11  107.56    7.91
  -7  -8 -12  188.43    8.82
   7   8  12  175.24   11.78
   7   8  12  203.76   11.03
  -7  -8 -13  106.63    7.15
   7   8  13  114.61    9.78
   7   8  13  108.98    8.21
  -7  -8 -14  108.68    7.69
   7   8  14  102.53    9.42
   7   8  14  105.40    8.24
  -7  -8 -15   89.54    7.48
   7   8  15   61.37    7.35
   7   8  15   83.65    7.56
  -7  -8 -16    0.46    1.42
   7   8  16    0.99    2.31
   7   8  16    1.58    1.50
  -7  -8 -17    2.79    2.04
   7   8  17   -0.91    2.34
  -7  -8 -18   30.56    5.30
   7   8  18   21.80    4.69
  -7  -8 -19   92.84    9.28
   7   8  19   89.40    9.87
  -7  -8 -19  105.97   11.69
   7   8  20   76.52    9.15
  -7  -8 -20   85.84    9.33
   7   8  21   92.61   10.44
  -7  -8 -21   89.57   10.00
   7   9 -14   12.00    4.20
   7   9 -13    5.64    2.88
   7   9 -13   -3.01    3.21
   7   9 -12   43.05    6.86
   7   9 -11   83.26    9.07
   7   9 -11   83.51    8.87
   7   9 -10  167.95   12.51
   7   9 -10  183.41   12.66
   7   9  -9  220.97   14.12
   7   9  -9  242.41   14.17
   7   9  -8  279.23   15.45
   7   9  -8  297.45   15.23
   7   9  -7   56.43    6.99
   7   9  -7   64.26    7.02
   7   9  -6    6.89    2.94
   7   9  -6    9.98    3.12
   7   9  -5   12.37    3.14
   7   9  -5   22.10    4.08
  -7  -9   4  287.01    7.77
   7   9  -4  296.76   14.50
  -7  -9   3  422.14    7.56
   7   9  -3  419.21   16.94
   7   9  -2  294.73    8.55
   7   9  -2  306.79   14.15
   7   9  -1  590.57   10.47
   7   9  -1  593.36   19.39
   7   9   0  169.40    4.61
   7   9   0  168.18   10.18
   7   9   1  188.41   10.92
   7   9   1  176.12   10.18
   7   9   2    0.59    1.24
   7   9   2    1.51    1.26
   7   9   3    1.74    1.51
   7   9   3    3.74    1.89
   7   9   4  318.94   14.55
   7   9   4  346.62   13.93
   7   9   5  456.10   17.47
   7   9   5  461.12   15.89
   7   9   6  341.84   15.33
   7   9   6  319.16   13.24
  -7  -9  -7  237.09    5.78
   7   9   7  228.18   12.75
   7   9   7  217.81    5.51
   7   9   7  227.33   11.17
  -7  -9  -8  288.86    7.47
   7   9   8  282.84   14.35
   7   9   8  277.78   12.43
  -7  -9  -9   51.49    3.63
   7   9   9   53.58    6.48
   7   9   9   48.14    5.19
  -7  -9 -10   29.01    3.01
   7   9  10   31.77    5.17
   7   9  10   26.32    3.92
  -7  -9 -11  185.53    8.20
   7   9  11  190.84   12.49
   7   9  11  187.33   10.47
  -7  -9 -12  134.09    7.52
   7   9  12  126.71   10.38
   7   9  12  142.77    9.33
  -7  -9 -13  273.77   11.48
   7   9  13  238.23   14.62
   7   9  13  258.81   12.67
  -7  -9 -14  153.64    9.19
   7   9  14  135.67   11.24
   7   9  14  158.96   10.19
  -7  -9 -15  148.07    9.60
   7   9  15  133.61   11.50
   7   9  15  154.39   10.25
  -7  -9 -16   56.15    6.20
   7   9  16   48.27    7.27
   7   9  16   60.45    6.64
  -7  -9 -17   11.34    3.32
   7   9  17   11.76    4.36
   7   9  17   18.79    4.08
   7   9  18    0.11    2.61
  -7  -9 -18    8.93    2.97
   7   9  19   16.93    4.31
  -7  -9 -19   17.41    4.83
   7   9  20   20.95    5.15
  -7  -9 -20   41.22    6.63
   7  10 -13    7.54    3.30
   7  10 -12    3.70    2.47
   7  10 -11    0.18    2.14
   7  10 -10   14.70    4.20
   7  10  -9   52.75    7.00
   7  10  -9   68.53    7.96
   7  10  -8  121.73   10.54
   7  10  -8  128.34   10.54
   7  10  -7  109.34    9.84
   7  10  -7  118.56    9.89
   7  10  -6   45.58    6.27
   7  10  -6   65.25    7.29
  -7 -10   5   14.58    1.91
   7  10  -5   13.34    3.19
   7  10  -5   14.47    3.65
  -7 -10   4    3.21    0.96
   7  10  -4    0.29    1.77
   7  10  -3   60.18    4.46
   7  10  -3   55.37    6.50
   7  10  -2   95.05    5.08
   7  10  -2  100.51    8.60
   7  10  -1  243.95    7.22
   7  10  -1  218.62   12.18
   7  10   0  163.46    5.15
   7  10   0  179.52   10.89
   7  10   1  132.72    3.89
   7  10   1  148.07    9.72
   7  10   1  138.65    9.59
   7  10   2  218.55    4.01
   7  10   2  226.87   12.53
   7  10   2  231.23   11.97
   7  10   3   15.05    3.06
   7  10   3   17.32    3.79
   7  10   4   46.25    5.91
   7  10   4   57.37    5.87
   7  10   5  148.42   10.46
   7  10   5  151.46    9.47
   7  10   6  170.64   11.21
   7  10   6  177.44   10.16
  -7 -10  -7  285.53    7.06
   7  10   7  306.58   15.15
   7  10   7  274.91    5.89
   7  10   7  292.68   12.92
  -7 -10  -8  380.79    9.17
   7  10   8  357.41   16.61
   7  10   8  363.67   14.48
  -7 -10  -9   26.69    2.72
   7  10   9   17.69    3.98
   7  10   9   18.69    3.38
  -7 -10 -10  380.75   11.04
   7  10  10  373.93   17.70
   7  10  10  377.45   14.92
  -7 -10 -11    0.57    0.90
   7  10  11    1.96    2.16
   7  10  11   -1.42    2.15
  -7 -10 -12    2.75    1.67
   7  10  12    0.28    2.09
   7  10  12    1.43    1.48
  -7 -10 -13   80.48    6.37
   7  10  13   71.61    8.44
   7  10  13   76.40    7.03
  -7 -10 -14  227.12   11.30
   7  10  14  193.16   13.94
   7  10  14  219.72   12.02
  -7 -10 -15  194.70   11.05
   7  10  15  208.49   14.84
   7  10  15  193.15   11.46
  -7 -10 -16  125.44    9.47
   7  10  16  113.77   11.22
   7  10  16  131.85    9.67
  -7 -10 -17   76.59    7.80
   7  10  17   69.65    8.91
   7  10  17   68.43    7.15
   7  10  18   35.11    6.66
  -7 -10 -18   40.93    6.26
   7  10  19    8.18    2.64
  -7 -10 -19   10.44    4.08
   7  11 -12   33.41    6.12
   7  11 -11   13.58    3.57
   7  11 -10    7.48    3.14
   7  11  -9   47.41    6.94
   7  11  -8   58.96    7.73
   7  11  -8   46.17    6.42
   7  11  -7  122.05   10.79
   7  11  -7  146.06   11.34
   7  11  -6   99.23    9.56
   7  11  -6  110.68    9.70
   7  11  -5  105.96    9.62
   7  11  -5  111.26    9.48
   7  11  -4   37.98    4.04
   7  11  -4   31.34    5.11
   7  11  -3    9.29    1.85
   7  11  -3   14.04    3.41
   7  11  -2   21.43    2.69
   7  11  -2   19.04    4.04
   7  11  -1   58.93    3.83
   7  11  -1   58.36    6.58
   7  11   0  103.49    4.62
   7  11   0   98.25    8.36
   7  11   0  118.39    9.16
   7  11   1  198.95    5.78
   7  11   1  192.65   11.40
   7  11   1  203.28   12.00
   7  11   2  245.08    5.86
   7  11   2  254.32   13.45
   7  11   2  254.32   12.93
   7  11   3   87.79    3.41
   7  11   3  105.27    8.85
   7  11   3   93.26    7.82
   7  11   4   22.64    4.32
   7  11   4   19.26    3.69
   7  11   5   36.33    4.90
   7  11   5   37.07    5.29
   7  11   6    2.98    1.75
   7  11   6    3.40    1.80
  -7 -11  -7   57.41    3.54
   7  11   7   48.87    6.48
   7  11   7   45.61    5.44
  -7 -11  -8   71.88    4.35
   7  11   8   67.58    7.62
   7  11   8   71.75    6.60
  -7 -11  -9  120.78    6.06
   7  11   9  104.24    9.56
   7  11   9  115.47    8.40
  -7 -11 -10   51.40    4.28
   7  11  10   53.47    6.94
   7  11  10   52.38    5.75
  -7 -11 -11   26.51    3.34
   7  11  11   26.72    5.30
   7  11  11   27.38    4.37
  -7 -11 -12   14.75    2.55
   7  11  12   18.57    4.85
   7  11  12   17.22    3.39
  -7 -11 -13    0.39    1.27
   7  11  13    0.74    1.52
  -7 -11 -14   -1.46    1.65
   7  11  14    3.41    2.78
   7  11  14   -2.61    2.20
  -7 -11 -15   41.61    5.23
   7  11  15   31.70    6.21
   7  11  15   25.75    4.55
  -7 -11 -16    7.93    2.65
   7  11  16    8.83    3.69
   7  11  16    6.02    2.77
  -7 -11 -17   31.79    5.41
   7  11  17   37.40    6.57
   7  11  17   30.32    4.68
  -7 -11 -18    8.06    3.05
   7  12 -11   39.76    6.86
   7  12 -10   25.84    5.70
   7  12  -9    5.01    2.33
   7  12  -8    4.58    3.00
   7  12  -8   10.87    4.20
   7  12  -7   45.94    6.90
   7  12  -7   42.99    6.63
   7  12  -6  142.67   11.71
   7  12  -6  167.74   12.35
   7  12  -5  218.58   14.16
   7  12  -4  197.70   13.18
   7  12  -3  214.39   13.39
   7  12  -2    9.15    3.21
   7  12  -1   25.08    2.73
   7  12  -1   24.28    4.34
   7  12   0   36.92    3.07
   7  12   0   39.21    5.51
   7  12   0   39.32    5.54
   7  12   1  176.16    6.21
   7  12   1  204.91   12.15
   7  12   1  186.89   11.86
   7  12   2  545.07   10.36
   7  12   2  544.49   20.26
   7  12   2  564.15   19.79
   7  12   3  348.43    8.21
   7  12   3  365.88   16.83
   7  12   3  346.89   15.45
   7  12   4  258.52   14.31
   7  12   4  228.54   12.40
   7  12   5  240.93   13.99
   7  12   5  237.33   12.51
   7  12   6    3.16    2.40
   7  12   6    1.12    1.27
  -7 -12  -7    0.69    0.94
   7  12   7   -0.24    2.17
   7  12   7   -3.98    1.96
  -7 -12  -8    6.09    1.49
   7  12   8    8.25    3.03
   7  12   8    6.40    2.58
  -7 -12  -9  229.58    8.80
   7  12   9  220.80   14.26
   7  12   9  233.56   12.26
  -7 -12 -10  296.72   10.61
   7  12  10  291.25   16.88
   7  12  10  270.87   13.24
  -7 -12 -11  195.83    9.18
   7  12  11  188.15   13.79
   7  12  11  185.34   10.99
  -7 -12 -12  311.41   12.17
   7  12  12  311.63   18.08
   7  12  12  306.46   14.25
  -7 -12 -13  167.49    9.46
   7  12  13  146.31   12.73
   7  12  13  165.02   10.59
  -7 -12 -14   -0.40    1.30
   7  12  14    4.30    2.31
   7  12  14    2.31    2.68
  -7 -12 -15    1.28    1.55
   7  12  15   -2.31    3.11
   7  12  15    2.27    2.46
  -7 -12 -16   34.74    5.27
   7  12  16   30.81    6.36
   7  12  16   31.42    4.86
   7  13  -9   45.02    7.13
   7  13  -8   14.28    4.20
   7  13  -8   13.57    4.21
   7  13  -7    2.15    2.15
   7  13  -7   -0.26    2.40
   7  13  -6    3.05    2.19
   7  13  -6    8.17    3.29
   7  13  -5   45.54    7.02
   7  13  -4   55.24    7.30
   7  13  -3   33.88    5.68
   7  13  -2   38.78    5.85
   7  13  -1    2.51    1.76
   7  13  -1    2.24    1.98
   7  13   0    0.85    1.75
   7  13   0    0.50    1.51
   7  13   1   15.26    3.61
   7  13   1   13.75    3.40
   7  13   2   15.15    3.67
   7  13   2   18.35    3.87
   7  13   3    5.98    2.60
   7  13   3    7.00    2.50
   7  13   4  216.83   13.54
   7  13   4  181.02   11.37
   7  13   5   -0.16    1.79
   7  13   5   -0.14    1.85
   7  13   6    7.39    3.15
   7  13   6    7.29    2.70
   7  13   7   -0.57    2.76
   7  13   7    1.62    1.59
  -7 -13  -8    1.49    1.25
   7  13   8   -1.29    2.80
   7  13   8    2.85    1.33
  -7 -13  -9   -0.06    0.98
   7  13   9    2.75    2.83
   7  13   9   -1.83    2.07
  -7 -13 -10    7.31    1.78
   7  13  10    4.96    2.94
   7  13  10    9.43    2.82
  -7 -13 -11    7.20    2.24
   7  13  11    2.42    2.17
   7  13  11    1.38    1.92
  -7 -13 -12    0.51    1.07
   7  13  12   -2.64    7.39
   7  13  12    3.02    1.72
  -7 -13 -13   16.17    3.15
   7  13  13   16.86    4.98
   7  13  13   13.77    3.34
   7  13  14    4.33    3.00
   7  13  14    9.17    3.28
   7  13  15   -0.97    2.14
   7  14  -7   46.40    7.29
   7  14  -6    1.42    2.20
   7  14  -5   20.30    4.58
   7  14  -4   31.11    5.59
   7  14  -3   65.18    8.06
   7  14  -2  141.04   11.44
   7  14  -1  242.47   14.61
   7  14  -1  226.21   13.58
   7  14   0  264.50   14.99
   7  14   0  266.08   14.85
   7  14   1   50.48    6.73
   7  14   1   42.45    6.25
   7  14   2   26.31    5.20
   7  14   2   21.89    4.42
   7  14   3   25.86    5.11
   7  14   3   32.47    5.19
   7  14   4   84.82    8.85
   7  14   4   78.29    7.72
   7  14   5  120.20   10.71
   7  14   5  123.27    9.58
   7  14   6  355.21   18.44
   7  14   6  344.18   15.82
   7  14   7  476.20   21.52
   7  14   7  445.91   17.83
  -7 -14  -8  282.21   10.47
   7  14   8  306.02   17.59
   7  14   8  286.94   14.34
   7  14   9    6.63    3.02
   7  14   9    5.02    1.94
   7  14  10   53.71    7.81
   7  14  10   51.74    6.25
   7  14  11   52.85    7.86
   7  14  11   48.02    6.04
   7  14  12   85.71   10.08
   7  14  12   86.93    7.86
   7  14  13  126.00   12.58
   7  14  13  131.16    9.82
   7  14  14  242.09   13.15
   7  15  -5   -0.33    2.19
   7  15  -4   -1.18    2.35
   7  15  -3    3.17    2.48
   7  15  -2    0.98    1.82
   7  15  -1   -0.48    2.64
   7  15  -1   -0.24    2.49
   7  15   0    6.85    3.17
   7  15   0    2.36    2.12
   7  15   1   -0.08    3.11
   7  15   1    9.96    3.21
   7  15   2   16.36    4.28
   7  15   2   17.36    4.49
   7  15   3   16.97    4.35
   7  15   3   17.11    4.09
   7  15   4    0.75    1.70
   7  15   4   -0.58    2.22
   7  15   5    4.13    2.71
   7  15   5    1.57    2.30
   7  15   6   13.52    3.70
   7  15   6   19.26    4.90
   7  15   7    2.06    2.77
   7  15   7    1.30    1.68
   7  15   8    2.93    2.54
   7  15   8    2.68    2.39
   7  15   9   58.15    8.31
   7  15   9   51.58    6.51
   7  15  10    3.17    2.10
   7  15  10    2.46    1.72
   7  15  11    3.20    2.33
   7  15  11   13.37    3.55
   7  15  12    1.42    2.18
   7  15  13    6.84    2.52
   7  16  -3   48.27    7.11
   7  16  -2    1.59    2.18
   7  16  -1   40.19    6.54
   7  16  -1   38.94    6.32
   7  16   0  200.52   13.89
   7  16   0  204.63   13.93
   7  16   1  244.26   15.36
   7  16   1  227.34   14.48
   7  16   2  140.42   11.19
   7  16   2  155.55   12.43
   7  16   3  160.48   12.73
   7  16   3  137.26   11.01
   7  16   4  113.29   10.88
   7  16   4  105.75    9.61
   7  16   5   26.45    5.68
   7  16   5   20.89    4.53
   7  16   6   35.79    5.67
   7  16   6   41.39    6.75
   7  16   7  100.82   10.66
   7  16   7   84.19    8.36
   7  16   8  155.23   13.44
   7  16   8  154.89   11.14
   7  16   9  286.97   18.48
   7  16   9  270.79   14.59
   7  16  10  140.78   10.58
   7  16  11  127.91   10.09
   7  17  -2    9.22    3.47
   7  17  -1    5.52    2.33
   7  17   0    4.06    3.24
   7  17   0    0.37    1.91
   7  17   1   15.73    4.20
   7  17   1   36.95    6.16
   7  17   2   55.56    7.55
   7  17   2   54.04    7.37
   7  17   3  112.63   10.90
   7  17   3  115.29   10.38
   7  17   4   48.65    6.87
   7  17   4   51.01    7.55
   7  17   5   19.27    4.23
   7  17   5   17.34    4.40
   7  17   6    0.29    2.72
   7  17   6   10.16    3.48
   7  17   7    6.17    3.50
   7  17   8    9.13    3.05
   7  17   9   24.80    4.85
   7  17  10   75.58    8.02
   7  18  -2   59.08    7.92
   7  18  -1   40.47    6.78
   7  18   0   10.29    3.80
   7  18   1   -0.36    2.26
   7  18   2   32.05    6.57
   7  18   3   75.74    9.36
   7  18   3   84.04    9.08
   7  18   4   88.01    9.30
   7  18   5   76.30    8.55
   7  18   6   45.94    6.68
   7  18   7   19.47    3.95
   7  18   8   -0.96    2.62
   7  18   9    0.11    2.91
  -8  13 -10    5.09    3.39
  -8  13 -11    3.78    3.79
  -8  12  -8   25.94    4.86
  -8  12  -9    9.20    3.00
  -8  12 -10   -6.04    3.48
  -8  12 -11    5.60    3.69
  -8  12 -12   -5.14    3.31
   8 -11  -1    2.64    3.38
   8 -11   0  122.68   11.37
   8 -11   1  233.37   15.71
  -8  11  -2  185.47   13.33
   8 -11   2  196.47   14.38
  -8  11  -3   85.76    9.12
  -8  11  -4   95.46    9.68
  -8  11  -5   61.92    7.71
  -8  11  -6    3.00    1.93
  -8  11  -6    4.63    2.36
  -8  11  -7   12.51    4.00
  -8  11  -7    8.81    2.65
  -8  11  -8   68.28    8.44
  -8  11  -8   66.48    7.41
  -8  11  -9   39.89    6.20
  -8  11 -10  204.78   14.05
  -8  11 -11   93.95    9.88
  -8  11 -12   66.74    8.68
  -8  11 -13   49.28    8.13
   8 -10  -3   13.67    4.09
   8 -10  -2    8.47    3.94
   8 -10  -1    0.16    2.19
   8 -10   0    3.42    2.58
   8 -10   1   26.44    5.75
   8 -10   2   23.46    4.85
  -8  10  -3   43.76    6.45
  -8  10  -4    9.94    3.35
  -8  10  -4   21.33    3.45
  -8  10  -5    4.50    2.78
  -8  10  -5    5.68    2.22
  -8  10  -6   18.15    4.28
  -8  10  -6   12.55    2.64
  -8  10  -7    1.41    1.80
  -8  10  -7   -1.28    2.01
  -8  10  -8   -7.93    3.09
  -8  10  -8    1.03    2.67
  -8  10  -9   12.24    3.52
  -8  10  -9   10.04    3.63
  -8  10 -10   15.99    4.62
  -8  10 -11   42.40    6.56
  -8  10 -12   51.07    7.49
  -8  10 -13   26.45    5.76
  -8  10 -14   10.17    4.20
   8  -9  -5   21.32    4.75
   8  -9  -4   53.91    7.79
   8  -9  -3  115.40   10.84
   8  -9  -2  173.32   12.92
   8  -9  -1  140.03   11.54
   8  -9   0  107.36    9.89
   8  -9   1   46.35    6.47
   8  -9   2    0.99    1.90
  -8   9  -3   54.64    6.91
  -8   9  -3   63.50    5.19
   8  -9   3   71.22    8.25
  -8   9  -4   93.96    8.89
  -8   9  -4  108.33    7.29
  -8   9  -5  194.47   12.77
  -8   9  -5  198.30   10.54
  -8   9  -6  100.58    9.34
  -8   9  -6   97.90    7.98
  -8   9  -7  168.23   12.12
  -8   9  -7  158.07   10.54
  -8   9  -8  100.45    9.49
  -8   9  -8   91.29    8.43
  -8   9  -9   -2.33    2.38
  -8   9  -9    2.15    2.07
  -8   9 -10    6.72    3.56
  -8   9 -11   37.41    6.26
  -8   9 -12  119.32   11.28
  -8   9 -13   71.24    9.10
  -8   9 -14   59.24    8.31
   8  -8  -7   38.05    6.81
   8  -8  -6    1.39    1.81
   8  -8  -5    1.02    2.62
   8  -8  -4    0.53    2.33
   8  -8  -3   45.27    6.85
   8  -8  -2  119.24   10.32
   8  -8  -1   85.91    8.64
   8  -8   0   97.67    9.16
   8  -8   1   88.81    8.59
   8  -8   2   56.92    7.15
  -8   8  -2   59.46    4.43
  -8   8  -2   56.67    5.29
  -8   8  -3    1.54    2.54
   8  -8   3    2.40    2.20
  -8   8  -3    2.92    1.08
  -8   8  -3    0.67    1.67
  -8   8  -4   -0.04    2.39
  -8   8  -4   -1.68    1.78
  -8   8  -5  144.22   10.71
  -8   8  -5  123.17    8.14
  -8   8  -6  254.96   14.25
  -8   8  -6  244.27   12.31
  -8   8  -7  123.76   10.09
  -8   8  -7  106.75    8.62
  -8   8  -8  107.56    9.53
  -8   8  -8  103.90    8.96
  -8   8  -9  112.51   10.00
  -8   8  -9  119.32    9.96
  -8   8 -10   19.90    4.75
  -8   8 -11    3.89    2.61
  -8   8 -12   21.68    5.23
  -8   8 -13  111.52   11.04
  -8   8 -14  160.07   13.67
  -8   8 -15  149.49   13.47
   8  -7  -8   65.18    8.55
   8  -7  -7  137.14   12.04
   8  -7  -6  125.25   11.15
   8  -7  -5   52.13    7.22
   8  -7  -4   10.49    3.40
   8  -7  -3    8.58    3.42
   8  -7  -2   15.58    3.84
   8  -7  -1   68.86    7.44
   8  -7   0  169.34   11.47
  -8   7   0  170.75    8.05
   8  -7   1  120.88    9.73
  -8   7  -1  116.02    5.13
  -8   7  -1  109.43    6.81
   8  -7   2   47.98    6.13
  -8   7  -2   43.09    3.73
  -8   7  -2   45.58    4.59
   8  -7   3   22.06    4.24
  -8   7  -3   25.38    3.06
  -8   7  -3   33.59    4.19
  -8   7  -4  -11.94    3.23
  -8   7  -4   -0.77    1.34
  -8   7  -5   -0.98    2.37
  -8   7  -5    0.19    1.30
  -8   7  -6   33.07    5.09
  -8   7  -6   38.48    5.04
  -8   7  -7   80.78    7.90
  -8   7  -7   75.02    7.13
  -8   7  -8  103.07    8.91
  -8   7  -8   98.52    8.67
  -8   7  -9   32.03    5.35
  -8   7  -9   39.30    5.73
  -8   7 -10   98.12    9.29
  -8   7 -11   11.63    3.60
  -8   7 -12   15.53    4.53
  -8   7 -13   -3.88    3.20
  -8   7 -14   22.44    5.33
  -8   7 -15   18.60    5.31
  -8   7 -16   11.35    4.23
   8  -6  -9    3.65    1.71
   8  -6  -8   26.59    5.44
   8  -6  -7   47.46    6.93
   8  -6  -6  142.05   11.58
   8  -6  -5  258.00   14.98
   8  -6  -4  210.18   13.20
   8  -6  -3   41.43    6.02
   8  -6  -2   32.57    5.16
   8  -6  -1    7.57    2.72
  -8   6   1   10.85    2.08
   8  -6   0  142.48   10.10
  -8   6   0  141.62    4.11
  -8   6   0  149.46    7.51
   8  -6   1  314.20   14.70
  -8   6  -1  317.62    8.52
  -8   6  -1  319.80   11.37
   8  -6   2  349.30   15.44
  -8   6  -2  352.07   10.59
  -8   6  -2  349.34   12.37
   8  -6   3  484.11   18.12
  -8   6  -3  491.35   13.83
  -8   6  -3  455.09   14.61
  -8   6  -4  125.42    9.18
  -8   6  -4  116.78    7.39
  -8   6  -4  107.79    7.43
  -8   6  -5   38.58    5.23
  -8   6  -5   40.09    4.82
  -8   6  -6   32.87    4.81
  -8   6  -6   37.74    4.82
  -8   6  -7   20.31    3.95
  -8   6  -7   21.04    4.10
  -8   6  -8  197.48   11.89
  -8   6  -8  176.80   11.35
  -8   6  -9  250.26   13.54
  -8   6  -9  242.64   13.85
  -8   6 -10  400.90   14.10
  -8   6 -10  402.84   18.48
  -8   6 -11  206.59   13.74
  -8   6 -12  193.19   13.74
  -8   6 -13   12.58    4.09
  -8   6 -14    3.09    2.81
  -8   6 -15    6.43    3.13
  -8   6 -16   62.69    8.73
   8  -5 -10   17.22    4.57
   8  -5  -9   28.84    5.74
   8  -5  -8   -4.54    3.34
   8  -5  -7   16.74    4.32
   8  -5  -6   26.77    5.11
   8  -5  -5   45.70    6.38
   8  -5  -4  117.39    9.52
   8  -5  -3   49.06    6.06
  -8   5   2    2.32    1.42
   8  -5  -2    1.11    1.43
  -8   5   1    2.75    1.25
   8  -5  -1   -0.19    2.00
  -8   5   0    2.64    1.40
   8  -5   0    2.53    1.89
  -8   5   0    3.55    0.94
   8  -5   1   -0.17    1.43
  -8   5  -1   -0.02    0.87
  -8   5  -1   -3.11    1.38
   8  -5   2    7.16    2.15
  -8   5  -2    4.19    1.32
  -8   5  -2    6.54    1.79
   8  -5   3   17.98    3.65
  -8   5  -3   16.16    2.73
  -8   5  -3   13.89    2.64
  -8   5  -4   54.76    5.85
  -8   5  -4   48.00    4.80
  -8   5  -4   50.48    5.08
  -8   5  -5    1.46    1.55
  -8   5  -5    2.35    1.33
  -8   5  -5    0.07    1.74
  -8   5  -6    9.03    2.79
  -8   5  -6    3.48    1.69
  -8   5  -7    9.32    2.67
  -8   5  -7   17.27    3.70
  -8   5  -8    5.42    2.07
  -8   5  -8    4.59    2.03
  -8   5  -9    4.73    1.89
  -8   5  -9    4.15    2.42
  -8   5  -9    6.84    2.94
  -8   5 -10   -1.38    1.32
  -8   5 -10   -4.31    2.51
  -8   5 -11   10.66    2.37
  -8   5 -11    9.22    3.65
  -8   5 -12   -0.97    2.80
  -8   5 -13    0.11    2.81
  -8   5 -14    1.08    2.61
  -8   5 -15    7.47    3.33
  -8   5 -16   -0.78    2.98
  -8   5 -17  -11.15    4.08
   8  -4 -11  107.96   11.10
   8  -4 -10  204.40   14.80
   8  -4  -9  184.80   13.60
   8  -4  -8   98.27    9.95
   8  -4  -7   41.31    6.17
   8  -4  -6    0.92    1.72
   8  -4  -5   43.82    5.89
   8  -4  -4   70.65    7.21
   8  -4  -4   72.09    4.64
   8  -4  -3  739.84   22.23
   8  -4  -3  743.78   15.75
   8  -4  -2  507.62   17.89
  -8   4   2  503.09   12.71
   8  -4  -2  488.13   13.35
   8  -4  -1  377.35   15.15
  -8   4   1  369.17   11.34
   8  -4  -1  372.62   12.12
   8  -4   0  129.85    8.79
  -8   4   0  153.20    5.07
  -8   4   0  151.11    7.57
   8  -4   0  155.62    8.14
  -8   4  -1    0.19    1.04
   8  -4   1    0.90    1.30
  -8   4  -1    0.04    0.77
  -8   4  -2    9.51    2.35
   8  -4   2    9.29    2.36
  -8   4  -2    7.95    1.77
  -8   4  -2    9.35    2.06
  -8   4  -3  126.75    8.37
   8  -4   3  153.47    9.25
  -8   4  -3  147.04    7.74
  -8   4  -3  135.62    7.77
  -8   4  -4  210.52   10.99
  -8   4  -4  210.58   10.76
  -8   4  -4  213.72   10.03
  -8   4  -4  218.94   10.17
  -8   4  -5  772.02   20.94
  -8   4  -5  760.24   20.55
  -8   4  -5  742.49   19.95
  -8   4  -5  753.74   19.44
  -8   4  -6  415.32   15.55
  -8   4  -6  403.03   15.44
  -8   4  -6  391.26   14.92
  -8   4  -7  225.41   11.66
  -8   4  -7  201.98   11.52
  -8   4  -7  220.31   11.31
  -8   4  -8  201.82   11.12
  -8   4  -8  200.64   10.30
  -8   4  -8  183.84   11.41
  -8   4  -9   28.78    4.04
  -8   4  -9   31.07    4.62
  -8   4  -9   27.63    4.66
  -8   4 -10    0.44    1.43
  -8   4 -10   -0.07    1.53
  -8   4 -11  131.84    7.85
  -8   4 -11  142.14   11.16
  -8   4 -12  226.33    9.93
  -8   4 -12  224.15   14.47
  -8   4 -13  353.08   18.58
  -8   4 -14  224.34   15.20
  -8   4 -15  216.19   15.33
  -8   4 -16   89.26   10.27
  -8   4 -17    9.40    3.66
  -8   4 -18   11.33    4.66
   8  -3 -11    1.68    3.60
   8  -3 -10    0.21    2.22
   8  -3  -9   11.99    3.69
   8  -3  -8   52.31    7.03
   8  -3  -7    1.70    2.29
   8  -3  -6    0.01    1.91
   8  -3  -6   -0.42    0.86
   8  -3  -5   -2.32    2.25
   8  -3  -5    0.26    1.11
   8  -3  -4    2.20    1.98
   8  -3  -4    2.62    1.37
   8  -3  -3    1.21    1.75
   8  -3  -3    3.75    1.38
   8  -3  -2   58.53    5.93
  -8   3   2   57.81    4.45
   8  -3  -2   64.22    4.94
  -8   3   1   29.36    3.30
   8  -3  -1   29.86    4.27
  -8   3   1   25.02    3.91
  -8   3   1   27.33    1.76
  -8   3   1   28.33    1.68
   8  -3  -1   22.36    2.92
  -8   3   0    9.24    2.00
  -8   3   0    8.89    2.40
   8  -3   0    7.91    2.29
  -8   3   0    4.14    0.95
   8  -3   0    5.63    1.64
  -8   3  -1    7.10    1.81
   8  -3   1    5.94    1.95
  -8   3  -1    6.73    1.94
   8  -3   1    4.18    1.83
  -8   3  -1    5.49    1.38
  -8   3  -2   -1.31    1.65
   8  -3   2    1.68    1.28
   8  -3   2   -1.52    1.58
  -8   3  -2    0.21    0.84
  -8   3  -2    0.57    1.30
  -8   3  -3    7.35    2.13
   8  -3   3   11.25    2.61
  -8   3  -3   10.31    2.31
   8  -3   3    8.03    2.04
  -8   3  -3    8.27    2.25
  -8   3  -4    2.11    1.25
  -8   3  -4    3.69    1.70
   8  -3   4    5.47    1.91
  -8   3  -4    2.10    1.12
  -8   3  -4    4.18    1.44
  -8   3  -5   72.14    6.25
  -8   3  -5   60.94    5.56
  -8   3  -5   66.62    5.94
  -8   3  -5   71.01    5.90
   8  -3   5   82.17    6.70
  -8   3  -6   31.85    4.15
  -8   3  -6   31.00    4.16
  -8   3  -6   31.42    4.40
  -8   3  -6   34.70    4.42
  -8   3  -7   65.29    6.09
  -8   3  -7   71.58    6.86
  -8   3  -7   83.18    6.68
  -8   3  -8   84.09    6.96
  -8   3  -8   83.72    6.59
  -8   3  -8   85.14    6.84
  -8   3  -8   88.20    7.83
  -8   3  -9   18.64    3.27
  -8   3  -9   16.28    3.02
  -8   3  -9   15.42    3.41
  -8   3 -10   -0.27    1.35
  -8   3 -10    1.08    1.68
  -8   3 -11    0.57    1.11
  -8   3 -11    0.29    1.60
  -8   3 -12   -1.01    1.65
  -8   3 -12    0.45    2.39
  -8   3 -13   18.70    4.76
  -8   3 -14   82.63    9.54
  -8   3 -15   64.55    8.50
  -8   3 -16   44.77    7.31
  -8   3 -17   -2.91    2.99
  -8   3 -18    5.22    3.71
   8  -2 -12   35.39    6.68
   8  -2 -11    3.86    2.57
   8  -2 -10   64.73    7.99
   8  -2  -9   62.44    7.77
   8  -2  -8  233.03   14.03
   8  -2  -7  174.46   11.75
   8  -2  -7  186.61    7.77
   8  -2  -6  214.28   12.32
   8  -2  -6  212.01    8.37
   8  -2  -5  206.47   11.70
   8  -2  -5  206.45    8.46
   8  -2  -4   20.88    3.68
   8  -2  -4   26.26    3.17
   8  -2  -3   12.78    2.74
   8  -2  -3    6.77    1.60
  -8   2   2   33.64    3.51
   8  -2  -2   42.06    4.84
  -8   2   2   46.06    5.08
  -8   2   2   39.04    1.90
  -8   2   2   38.12    1.77
   8  -2  -2   45.77    4.20
  -8   2   1  239.40    9.51
  -8   2   1  237.67   10.88
   8  -2  -1  249.78   11.23
  -8   2   1  241.91    5.94
  -8   2   1  237.89    6.78
   8  -2  -1  233.33    9.61
   8  -2   0  345.26   12.84
  -8   2   0  358.91   13.01
  -8   2   0  350.16   11.61
   8  -2   0  367.57   12.27
  -8   2   0  353.77    9.68
   8  -2   1  487.86   14.97
  -8   2  -1  489.96   14.82
   8  -2   1  500.99   14.62
  -8   2  -1  491.27   13.98
  -8   2  -1  487.49   12.60
   8  -2   2  592.82   16.23
  -8   2  -2  606.13   16.35
   8  -2   2  598.41   16.30
  -8   2  -2  614.91   15.97
  -8   2  -2  612.11   15.23
  -8   2  -3  333.27   12.07
   8  -2   3  368.71   12.74
   8  -2   3  360.16   12.90
  -8   2  -3  331.47   11.94
  -8   2  -3  353.66   12.40
  -8   2  -4   41.29    4.29
  -8   2  -4   40.28    4.47
   8  -2   4   41.70    4.54
  -8   2  -4   35.60    4.25
  -8   2  -4   42.50    4.51
  -8   2  -5   12.74    2.37
  -8   2  -5    8.52    2.14
   8  -2   5   11.83    2.60
  -8   2  -5   12.36    2.57
  -8   2  -5    9.97    2.52
  -8   2  -6   24.28    3.37
  -8   2  -6   24.72    3.63
  -8   2  -6   28.59    3.88
   8  -2   6   27.26    3.96
  -8   2  -6   29.22    4.23
  -8   2  -7  148.22    8.39
  -8   2  -7  142.55    8.56
  -8   2  -7  131.65    8.39
  -8   2  -7  139.70    9.45
   8  -2   7  149.79    9.24
  -8   2  -8  274.80   11.62
  -8   2  -8  268.95   11.95
  -8   2  -8  261.74   11.60
  -8   2  -8  270.76   13.62
  -8   2  -9  357.46   13.69
  -8   2  -9  375.54   13.68
  -8   2  -9  349.94   16.06
  -8   2 -10  292.48   12.67
  -8   2 -10  274.30   11.54
  -8   2 -10  281.66   14.83
  -8   2 -11  139.44    8.17
  -8   2 -11  141.03    8.99
  -8   2 -11  158.83   11.51
  -8   2 -12   29.36    3.76
  -8   2 -12   27.42    4.97
  -8   2 -13    1.91    2.06
  -8   2 -14   56.49    7.92
  -8   2 -15  364.63   19.55
  -8   2 -16   51.90    7.85
  -8   2 -17  332.37   19.64
  -8   2 -18   27.71    6.18
   8  -1 -12    0.69    2.85
   8  -1 -11   13.10    4.00
   8  -1 -10   -1.31    3.44
   8  -1  -9    3.11    2.24
   8  -1  -8    7.32    2.84
   8  -1  -8    7.01    1.85
   8  -1  -7   10.77    2.90
   8  -1  -7   13.36    2.36
   8  -1  -6   48.97    5.93
   8  -1  -6   44.20    4.10
   8  -1  -5  138.99    9.27
   8  -1  -5  131.27    7.06
   8  -1  -4  159.84    9.52
   8  -1  -4  163.37    7.92
   8  -1  -3   19.72    3.36
  -8   1   3   19.55    1.53
   8  -1  -3   16.54    2.61
   8  -1  -2   21.47    3.29
  -8   1   2   18.35    3.15
  -8   1   2   17.43    1.71
   8  -1  -2   20.09    2.82
  -8   1   1   -0.37    1.45
   8  -1  -1    2.83    1.43
  -8   1   1    0.04    1.24
  -8   1   1    1.51    0.64
   8  -1  -1   -1.04    1.52
   8  -1   0   30.57    3.69
  -8   1   0   27.54    3.54
  -8   1   0   28.30    3.38
   8  -1   0   23.57    3.20
   8  -1   1  164.14    8.16
  -8   1  -1  150.02    7.75
   8  -1   1  155.71    8.18
  -8   1  -1  162.86    8.18
   8  -1   2  297.65   10.78
  -8   1  -2  298.19   10.71
  -8   1  -2  305.06   11.36
   8  -1   2  282.42   11.19
  -8   1  -3  159.88    7.83
   8  -1   3  164.56    8.01
   8  -1   3  172.52    8.90
  -8   1  -3  172.81    8.68
  -8   1  -4   62.51    4.90
  -8   1  -4   67.48    5.49
   8  -1   4   63.37    5.72
  -8   1  -4   66.11    5.53
  -8   1  -5   63.51    4.97
  -8   1  -5   76.76    5.86
   8  -1   5   69.00    6.00
  -8   1  -5   67.58    5.68
  -8   1  -5   70.47    6.08
  -8   1  -6    0.41    0.99
  -8   1  -6   -0.52    1.56
  -8   1  -6   -0.83    1.21
   8  -1   6    1.53    1.16
  -8   1  -6    1.09    1.19
  -8   1  -6    1.37    1.28
  -8   1  -7   16.53    2.76
  -8   1  -7   12.78    2.80
  -8   1  -7   14.83    2.76
   8  -1   7   14.95    3.01
  -8   1  -7   12.27    2.98
  -8   1  -8  116.06    7.22
  -8   1  -8  111.80    7.58
   8  -1   8  111.95    8.04
  -8   1  -8   93.04    7.93
  -8   1  -9  185.16    9.38
  -8   1  -9  186.33    9.68
  -8   1  -9  173.56   11.18
   8  -1   9  184.41   10.62
  -8   1 -10  194.96    9.88
  -8   1 -10  187.49    9.61
  -8   1 -10  204.63   12.50
  -8   1 -11  260.44   11.78
  -8   1 -11  247.40   10.95
  -8   1 -11  244.42   14.09
  -8   1 -12   86.92    8.73
  -8   1 -13   36.67    5.95
  -8   1 -14   19.25    4.66
  -8   1 -15   20.12    5.11
  -8   1 -16   47.59    7.54
  -8   1 -17  181.81   14.59
  -8   1 -18  171.45   14.37
  -8   1 -19  104.91   11.89
   8   0 -13   92.23   10.28
   8   0 -12  110.80   10.99
   8   0 -11  130.61   11.46
   8   0 -10  147.34   11.59
   8   0  -9  121.61   10.15
   8   0  -9  115.07    7.05
   8   0  -8    6.16    2.83
   8   0  -8    6.02    1.75
   8   0  -7    2.86    1.74
   8   0  -7    4.69    1.39
   8   0  -6   84.81    7.41
  -8   0   6   79.01    3.49
   8   0  -6   82.59    5.98
   8   0  -5  272.58   12.56
  -8   0   5  266.17    6.73
   8   0  -5  266.97   10.57
   8   0  -4  388.36   14.25
  -8   0   4  384.13    8.42
   8   0  -4  378.34   12.48
   8   0  -3  271.30   11.46
  -8   0   3  272.70    7.35
   8   0  -3  286.77   10.84
   8   0  -2  180.09    8.91
  -8   0   2  162.93    5.92
   8   0  -2  166.53    8.26
  -8   0   1   71.63    5.47
  -8   0   1   82.07    5.87
   8   0  -1   77.97    5.65
  -8   0   1   79.55    4.35
   8   0  -1   83.48    5.87
  -8   0   0   51.49    4.63
  -8   0   0   51.42    4.47
   8   0   0   52.32    4.47
  -8   0   0   49.05    3.56
   8   0   0   53.14    4.74
   8   0   1   27.32    3.22
  -8   0  -1   18.72    2.63
  -8   0  -1   21.15    3.03
   8   0   1   17.50    2.82
  -8   0  -2  220.33    8.53
   8   0   2  232.72    8.85
   8   0   2  225.44    9.95
  -8   0  -2  232.94   10.03
   8   0   3  288.52    9.80
  -8   0  -3  268.37    9.29
   8   0   3  276.92   11.26
  -8   0  -3  293.36   11.33
  -8   0  -4  882.18   16.85
  -8   0  -4  936.96   19.20
  -8   0  -4  936.15   20.55
   8   0   4  911.39   20.73
  -8   0  -5  188.19    7.85
  -8   0  -5  198.63    8.98
  -8   0  -5  212.76   10.82
   8   0   5  199.23    9.88
  -8   0  -5  204.78    9.80
  -8   0  -6   71.02    4.93
  -8   0  -6   71.15    5.47
  -8   0  -6   72.54    6.25
   8   0   6   64.17    5.79
  -8   0  -6   74.69    6.10
  -8   0  -7   10.93    2.17
  -8   0  -7   10.36    2.49
  -8   0  -7   12.06    2.44
   8   0   7   10.56    2.59
  -8   0  -7    8.53    2.33
  -8   0  -8    1.82    1.35
  -8   0  -8   -1.03    0.98
   8   0   8    0.17    1.55
  -8   0  -9   46.01    4.46
  -8   0  -9   40.89    4.66
   8   0   9   36.87    4.71
  -8   0  -9   40.10    5.37
  -8   0 -10   38.55    4.29
  -8   0 -10   46.94    5.00
   8   0  10   38.29    4.86
  -8   0 -10   36.35    5.59
  -8   0 -11  194.53    9.88
  -8   0 -11  196.50   12.51
   8   0  11  204.63   11.69
  -8   0 -12  249.54   14.55
  -8   0 -13   70.54    8.07
  -8   0 -14   14.38    4.37
  -8   0 -15    4.96    2.55
  -8   0 -16    5.13    2.76
  -8   0 -17    6.39    2.94
  -8   0 -18   -1.36    3.12
  -8   0 -19   42.56    7.43
   8   1 -13    5.66    2.49
   8   1 -12   53.77    7.69
   8   1 -11   48.90    7.08
   8   1 -10   71.75    8.28
   8   1  -9  166.55   11.65
   8   1  -9  165.94    9.03
   8   1  -8   93.15    8.31
   8   1  -8   90.99    6.63
   8   1  -7   35.91    4.90
   8   1  -7   36.25    4.24
   8   1  -6    1.94    2.02
  -8  -1   6    3.81    1.19
   8   1  -6    3.18    1.56
   8   1  -5   74.73    6.51
  -8  -1   5   81.37    4.71
   8   1  -5   61.92    5.30
   8   1  -4   63.39    5.70
  -8  -1   4   67.83    4.22
   8   1  -4   69.52    5.52
   8   1  -3  218.26    9.84
  -8  -1   3  219.37    7.54
   8   1  -3  199.68    9.31
   8   1  -2  270.06   10.36
  -8  -1   2  252.88    8.19
   8   1  -2  263.15   10.67
  -8  -1   1  297.75   11.22
   8   1  -1  305.86   10.50
  -8  -1   1  290.34    8.97
   8   1  -1  311.39   11.63
  -8  -1   0  211.75    9.58
  -8  -1   0  203.96    8.20
   8   1   0  190.93    7.93
  -8  -1   0  215.63    7.94
   8   1   0  212.36    9.63
   8   1   1    9.97    1.95
  -8  -1  -1    7.60    1.49
  -8  -1  -1    9.54    2.13
   8   1   1    8.75    2.09
   8   1   2    8.81    1.74
  -8  -1  -2    7.51    1.60
  -8  -1  -2   10.98    2.36
   8   1   2   12.22    2.52
   8   1   3  137.16    6.20
  -8  -1  -3  121.75    5.66
  -8  -1  -3  143.55    9.04
  -8  -1  -3  129.29    6.75
   8   1   3  128.01    7.66
  -8  -1  -3  139.63    7.94
  -8  -1  -4  203.02    7.32
  -8  -1  -4  198.79    8.35
  -8  -1  -4  208.47   10.77
   8   1   4  206.72    9.88
  -8  -1  -4  239.83   10.52
  -8  -1  -5  219.53    7.70
  -8  -1  -5  239.31    9.34
  -8  -1  -5  223.64   11.09
  -8  -1  -5  236.51   10.58
   8   1   5  220.21   10.40
  -8  -1  -6  768.89   14.87
  -8  -1  -6  799.77   17.32
  -8  -1  -6  758.19   20.38
   8   1   6  761.00   19.54
  -8  -1  -6  796.66   19.61
  -8  -1  -7  415.92   11.37
  -8  -1  -7  419.97   14.95
   8   1   7  431.21   15.02
  -8  -1  -7  452.83   15.12
  -8  -1  -8   74.65    5.11
  -8  -1  -8   83.14    6.72
   8   1   8   79.64    6.64
  -8  -1  -9   82.06    5.60
  -8  -1  -9   75.17    6.39
   8   1   9   66.57    6.22
  -8  -1 -10   82.30    5.81
  -8  -1 -10   89.72    6.93
   8   1  10   92.40    6.62
   8   1  10   84.69    7.19
   8   1  11   17.00    2.99
   8   1  11   16.27    3.33
  -8  -1 -12  372.34   17.64
   8   1  12  393.70   16.30
  -8  -1 -13  412.70   19.10
  -8  -1 -14  322.48   17.41
  -8  -1 -15  205.03   14.34
  -8  -1 -16   99.95   10.37
  -8  -1 -17    0.75    2.57
  -8  -1 -18   -0.23    3.06
  -8  -1 -19   42.49    7.57
   8   2 -13    2.56    2.05
   8   2 -12    0.15    2.29
   8   2 -11   29.68    5.52
   8   2 -10   91.80    8.95
   8   2 -10   97.51    7.56
   8   2  -9   26.94    4.88
   8   2  -9   18.17    3.33
   8   2  -8  159.62   10.63
   8   2  -8  154.74    9.10
   8   2  -7   78.69    7.14
  -8  -2   7   85.28    5.66
   8   2  -7   81.92    6.55
   8   2  -6   54.98    5.71
  -8  -2   6   58.84    4.62
   8   2  -6   57.29    5.43
   8   2  -5   28.90    3.80
   8   2  -5   20.39    3.47
  -8  -2   5   24.46    2.97
   8   2  -4   11.31    2.53
  -8  -2   4   10.96    1.91
   8   2  -4    7.55    2.23
   8   2  -3    8.69    1.97
  -8  -2   3    7.01    1.68
   8   2  -3    6.90    1.78
   8   2  -2  230.41    9.11
  -8  -2   2  226.83    8.43
   8   2  -2  232.89   10.29
   8   2  -1  181.52    7.57
  -8  -2   1  168.96    7.32
   8   2  -1  184.40    9.12
  -8  -2   0  158.81    8.47
   8   2   0  154.30    6.62
  -8  -2   0  145.87    6.92
   8   2   0  155.93    8.43
   8   2   1   98.82    5.02
  -8  -2  -1   93.84    6.57
   8   2   1   86.44    6.36
  -8  -2  -2    3.72    1.01
   8   2   2    4.43    0.99
  -8  -2  -2    4.95    1.60
  -8  -2  -2    2.19    1.46
   8   2   2    7.05    2.08
  -8  -2  -3   57.73    3.49
  -8  -2  -3   66.51    4.59
  -8  -2  -3   68.95    6.37
  -8  -2  -3   69.13    5.64
   8   2   3   64.44    5.48
  -8  -2  -4   81.17    4.07
  -8  -2  -4   85.40    5.17
  -8  -2  -4   88.14    7.12
  -8  -2  -4   84.60    6.30
   8   2   4   92.29    6.65
  -8  -2  -5   26.13    2.39
  -8  -2  -5   28.70    4.10
  -8  -2  -5   28.87    3.74
  -8  -2  -5   27.39    3.07
   8   2   5   20.82    3.27
  -8  -2  -6   42.53    3.19
  -8  -2  -6   46.25    5.02
  -8  -2  -6   50.92    5.13
   8   2   6   43.53    4.73
  -8  -2  -7   14.06    1.92
  -8  -2  -7   13.72    2.84
  -8  -2  -7   22.05    3.58
   8   2   7   14.80    2.97
  -8  -2  -8   35.12    3.30
  -8  -2  -8   32.99    4.23
   8   2   8   34.77    4.46
  -8  -2  -9   12.38    2.18
  -8  -2  -9   12.33    2.81
   8   2   9    6.72    2.40
   8   2  10   13.87    2.54
  -8  -2 -10   19.66    3.38
   8   2  10   17.43    3.32
   8   2  11   -4.63    1.71
   8   2  11   -0.82    1.94
   8   2  12    0.83    1.14
   8   2  12   -4.71    2.11
   8   2  13   -1.10    1.40
  -8  -2 -13   -1.22    2.18
  -8  -2 -14    6.25    2.67
  -8  -2 -15    4.86    2.38
  -8  -2 -16   -1.59    3.15
  -8  -2 -17   31.15    6.11
  -8  -2 -18    6.64    3.04
  -8  -2 -19   -1.96    2.90
   8   3 -13   86.07    9.55
   8   3 -12   32.58    6.10
   8   3 -11    9.55    3.50
   8   3 -11    8.90    2.23
   8   3 -10   35.40    5.57
   8   3 -10   35.74    4.74
   8   3  -9   61.36    6.92
   8   3  -9   59.18    6.08
   8   3  -8  179.28   11.02
   8   3  -8  155.32    9.53
   8   3  -7  212.43   11.38
  -8  -3   7  215.36    9.76
   8   3  -7  207.47   10.83
   8   3  -6  291.06   12.66
  -8  -3   6  301.10   11.13
   8   3  -6  290.54   12.59
   8   3  -5  232.45   10.65
  -8  -3   5  221.63    9.35
   8   3  -5  229.92   11.01
   8   3  -4  180.74    8.82
  -8  -3   4  161.32    7.81
   8   3  -4  168.34    9.31
   8   3  -3   14.08    2.89
   8   3  -3   18.32    2.69
  -8  -3   3   12.56    2.29
   8   3  -2   11.31    2.07
  -8  -3   2    9.68    2.20
   8   3  -2   14.23    2.68
   8   3  -1  312.48    9.28
  -8  -3   1  294.08   10.29
   8   3  -1  304.33   12.11
   8   3   0  639.97   12.29
  -8  -3   0  601.02   14.77
   8   3   0  612.82   17.01
  -8  -3  -1  860.34   20.01
  -8  -3  -1  820.24   22.33
   8   3   1  827.84   12.90
  -8  -3  -1  813.56   17.43
   8   3   1  792.53   19.25
   8   3   2  484.11    9.14
  -8  -3  -2  480.02   16.80
  -8  -3  -2  496.93   15.36
   8   3   2  462.50   14.77
  -8  -3  -3  285.81    6.52
  -8  -3  -3  272.27    8.48
  -8  -3  -3  278.99   12.90
  -8  -3  -3  280.11   11.52
   8   3   3  275.06   11.50
  -8  -3  -4   44.50    2.50
  -8  -3  -4   40.14    3.36
  -8  -3  -4   44.85    5.16
  -8  -3  -4   45.47    4.67
   8   3   4   42.60    4.62
  -8  -3  -5   47.26    2.64
  -8  -3  -5   48.22    5.34
  -8  -3  -5   52.99    3.87
  -8  -3  -5   50.90    5.00
   8   3   5   44.44    4.75
  -8  -3  -6  153.74    5.11
  -8  -3  -6  158.66    9.48
   8   3   6  154.36    8.91
  -8  -3  -6  165.45    9.14
  -8  -3  -7  252.99    7.23
  -8  -3  -7  284.21   12.63
  -8  -3  -7  256.82   11.52
   8   3   7  255.98   11.62
  -8  -3  -8  674.78   12.99
  -8  -3  -8  672.89   19.50
   8   3   8  649.45   18.83
  -8  -3  -9  795.49   15.18
  -8  -3  -9  811.22   21.39
   8   3   9  796.38   17.34
   8   3   9  797.04   21.15
   8   3  10  706.86   17.13
   8   3  10  723.33   20.48
   8   3  11  279.03   11.37
   8   3  11  300.88   13.61
   8   3  12   48.39    4.98
   8   3  12   40.79    5.04
   8   3  12   48.18    5.72
   8   3  13   14.29    3.28
   8   3  13   14.97    3.38
   8   3  14   66.49    6.59
   8   3  14   65.49    7.01
   8   3  15  159.15   10.27
  -8  -3 -15  193.32   14.01
   8   3  16  250.78   13.15
  -8  -3 -16  254.89   16.49
   8   3  17  312.27   14.79
  -8  -3 -17  324.68   19.03
   8   3  18  162.87   10.90
  -8  -3 -18  185.60   15.11
   8   3  19  111.71    9.00
  -8  -3 -19  123.84   12.54
   8   4 -14    3.39    2.93
   8   4 -13   28.76    5.48
   8   4 -12    1.39    2.00
   8   4 -12    3.30    3.37
   8   4 -11    0.94    1.75
   8   4 -11   -0.90    2.59
   8   4 -10    4.34    1.59
   8   4 -10    4.97    2.67
   8   4  -9    0.96    1.47
   8   4  -9    0.02    1.89
   8   4  -8   10.38    2.79
   8   4  -8   11.85    2.82
   8   4  -7   11.56    2.96
  -8  -4   7   12.69    2.80
   8   4  -7   12.43    2.90
   8   4  -6   21.28    3.79
  -8  -4   6   21.39    3.37
   8   4  -6   17.48    3.24
   8   4  -5   30.29    4.34
  -8  -4   5   23.93    3.45
   8   4  -5   30.97    3.84
   8   4  -4    9.75    2.68
  -8  -4   4    8.09    2.10
   8   4  -4    7.23    2.03
   8   4  -3   26.31    3.94
  -8  -4   3   25.47    3.42
   8   4  -3   28.78    3.28
   8   4  -2    5.26    1.90
  -8  -4   2    4.81    1.72
   8   4  -2    3.92    1.26
   8   4  -1   38.34    4.41
   8   4  -1   36.70    3.02
  -8  -4   1   35.16    3.93
   8   4   0   62.00    3.45
  -8  -4   0   56.48    4.82
   8   4   0   46.69    4.90
  -8  -4  -1   -0.01    1.45
  -8  -4  -1    1.39    0.97
   8   4   1    1.63    0.57
  -8  -4  -1    1.01    1.27
   8   4   1    4.34    2.07
  -8  -4  -2   14.10    1.86
  -8  -4  -2    7.60    2.03
  -8  -4  -2   14.68    2.84
  -8  -4  -2   11.30    2.38
   8   4   2   12.29    2.65
  -8  -4  -3    7.63    2.22
  -8  -4  -3   13.35    1.82
  -8  -4  -3   16.80    3.05
   8   4   3   11.72    2.79
  -8  -4  -4   34.81    2.91
  -8  -4  -4   31.14    3.96
  -8  -4  -4   28.10    4.22
   8   4   4   29.02    3.91
  -8  -4  -5    4.59    0.59
  -8  -4  -5    7.05    2.12
  -8  -4  -5    3.27    1.02
   8   4   5    3.47    1.61
  -8  -4  -6   16.71    1.32
  -8  -4  -6   24.93    3.93
  -8  -4  -6   16.06    3.07
   8   4   6   19.19    3.27
  -8  -4  -7   22.75    1.89
  -8  -4  -7   25.92    4.05
   8   4   7   17.61    3.08
  -8  -4  -8   23.58    2.18
  -8  -4  -8   23.47    3.67
   8   4   8   22.79    3.63
   8   4   9   14.42    2.38
   8   4   9   13.04    2.98
   8   4  10   17.16    3.46
   8   4  10   13.33    2.45
   8   4  10   16.41    3.33
   8   4  11   66.85    5.49
   8   4  11   52.45    5.92
   8   4  11   55.74    5.87
   8   4  12   26.85    3.60
   8   4  12   18.46    3.62
   8   4  12   18.19    3.58
   8   4  13    1.24    1.80
   8   4  13    4.13    1.72
   8   4  13    3.31    1.62
   8   4  14    7.12    2.32
   8   4  14    4.79    1.93
   8   4  15   -4.60    2.17
   8   4  15   -1.86    2.79
   8   4  16    2.90    1.99
  -8  -4 -16   -5.82    3.52
   8   4  17    9.61    3.05
  -8  -4 -17    8.75    4.17
   8   4  18   30.10    5.01
  -8  -4 -18   21.99    5.59
   8   4  19   11.41    3.39
  -8  -4 -19   16.19    4.93
   8   5 -14   33.56    6.29
   8   5 -13   84.23    9.45
   8   5 -12  153.87   11.12
   8   5 -12  150.78   12.02
   8   5 -11  135.24   10.32
   8   5 -11  138.14   11.05
   8   5 -10   81.64    7.88
   8   5 -10   93.50    8.74
   8   5  -9   58.93    6.59
   8   5  -9   56.60    6.53
   8   5  -8   24.20    4.30
   8   5  -8   22.71    3.89
   8   5  -7    6.05    2.40
  -8  -5   7    6.12    1.86
   8   5  -7    7.97    2.21
   8   5  -6  204.16   11.32
   8   5  -6  211.99   10.49
  -8  -5   6  222.59   10.81
   8   5  -5  301.11   11.62
  -8  -5   5  307.75   12.45
   8   5  -5  304.41   13.59
   8   5  -4  402.28   12.35
  -8  -5   4  393.80   13.76
   8   5  -4  414.19   15.55
   8   5  -3  468.59   12.36
  -8  -5   3  462.45   14.61
   8   5  -3  464.87   16.20
   8   5  -2  326.26    9.27
  -8  -5   2  313.18   11.88
   8   5  -2  330.84   13.53
   8   5  -1  142.91    5.41
  -8  -5   1  154.18    8.35
   8   5  -1  136.43    8.59
   8   5   0   15.97    2.93
   8   5   0   12.33    1.37
  -8  -5   0   10.69    2.36
   8   5   1   18.00    1.20
  -8  -5  -1   16.40    2.88
   8   5   1   25.22    3.78
  -8  -5  -2  328.25    7.46
  -8  -5  -2  347.42   14.72
  -8  -5  -2  363.93   13.70
  -8  -5  -2  352.27   12.67
   8   5   2  333.93   13.12
  -8  -5  -3  341.66   14.42
  -8  -5  -3  336.06    7.57
  -8  -5  -3  360.92   13.67
   8   5   3  362.28   13.66
  -8  -5  -4  974.71   24.33
  -8  -5  -4  973.53   22.33
   8   5   4  956.26   22.21
  -8  -5  -5  345.11   13.40
  -8  -5  -5  363.90   14.95
   8   5   5  363.17   13.71
  -8  -5  -6  240.17   12.12
   8   5   6  238.82   11.27
  -8  -5  -7   44.88    1.98
  -8  -5  -7   50.31    5.63
   8   5   7   39.85    4.60
  -8  -5  -8    0.79    0.46
   8   5   8   -0.91    1.54
   8   5   8   -0.92    1.24
   8   5   9   20.63    3.89
   8   5   9   22.63    2.73
   8   5   9   24.32    3.88
   8   5  10  221.06    8.97
   8   5  10  217.14   11.99
   8   5  10  227.86   11.63
   8   5  11  383.42   12.64
   8   5  11  420.21   16.87
   8   5  11  415.07   15.88
   8   5  12  324.30   12.31
   8   5  12  348.96   15.58
   8   5  12  329.63   14.45
   8   5  13  368.47   13.94
   8   5  13  394.18   16.79
   8   5  13  399.94   16.33
   8   5  14  309.92   15.10
   8   5  14  313.88   14.84
   8   5  15   42.22    5.86
   8   5  15   38.01    5.58
   8   5  16   -1.05    1.46
   8   5  17    2.65    2.19
  -8  -5 -17    1.64    2.15
   8   5  18   64.41    7.30
  -8  -5 -18   85.88   10.04
   8   5  19  168.99   12.22
  -8  -5 -19  183.59   15.17
   8   6 -13    2.67    2.64
   8   6 -13    1.51    2.43
   8   6 -12    0.13    2.17
   8   6 -12    0.97    2.34
   8   6 -11   23.33    4.73
   8   6 -11   15.47    4.11
   8   6 -10   -1.27    2.34
   8   6 -10   -1.42    2.47
   8   6  -9   17.92    3.93
   8   6  -9   26.14    4.40
   8   6  -8    5.41    2.02
   8   6  -8    3.00    1.69
   8   6  -7   41.69    5.61
   8   6  -7   29.63    4.22
   8   6  -6    2.05    2.63
  -8  -6   6    1.36    1.86
   8   6  -6    1.45    1.30
   8   6  -5   21.41    4.06
  -8  -6   5   16.22    3.23
   8   6  -5   15.79    2.73
   8   6  -4   66.45    6.62
   8   6  -4   77.75    5.43
  -8  -6   4   85.27    6.79
   8   6  -3  120.60    6.10
  -8  -6   3  109.27    7.56
   8   6  -3  115.04    8.46
   8   6  -2   22.35    3.82
   8   6  -2   19.08    2.16
  -8  -6   2   23.38    3.56
   8   6  -1   51.56    3.03
  -8  -6   1   49.98    5.02
   8   6  -1   55.95    5.73
   8   6   0    9.08    2.55
  -8  -6   0   10.42    2.37
   8   6   0    7.86    0.92
  -8  -6  -1    0.48    0.51
   8   6   1   -2.09    1.83
  -8  -6  -1   -0.41    1.27
  -8  -6  -2    0.46    0.90
   8   6   2    0.34    1.35
  -8  -6  -3  177.39    9.45
   8   6   3  176.22    9.74
   8   6   4   11.16    2.72
   8   6   5  171.18    9.65
   8   6   6  104.39    8.29
   8   6   6  105.06    7.53
   8   6   7  182.52   11.04
   8   6   7  185.16   10.10
  -8  -6  -8   69.79    2.85
  -8  -6  -8   69.96    2.80
   8   6   8   72.49    7.17
   8   6   8   68.94    4.17
   8   6   8   65.93    6.26
  -8  -6  -9   98.82    4.31
   8   6   9   92.02    5.28
   8   6   9   98.01    8.25
   8   6   9   84.66    7.00
  -8  -6 -10    1.79    0.84
   8   6  10    3.64    1.51
   8   6  10    2.38    1.55
   8   6  10   -0.10    1.55
   8   6  11   43.30    4.15
  -8  -6 -11   45.22    3.88
   8   6  11   44.01    5.68
   8   6  11   42.98    5.24
   8   6  12   67.50    5.63
   8   6  12   64.08    7.02
   8   6  12   56.04    6.09
   8   6  13  132.92    8.22
   8   6  13  122.35    9.66
   8   6  13  147.21    9.88
   8   6  14  217.20   13.08
   8   6  14  233.27   12.76
   8   6  15  170.59   11.89
   8   6  15  204.82   12.30
   8   6  16   13.54    3.64
   8   6  16   19.54    4.28
   8   6  17   12.99    3.55
  -8  -6 -18   -2.00    2.22
   8   6  18    3.89    2.72
  -8  -6 -18   -3.03    3.19
  -8  -6 -19   50.04    6.90
   8   6  19   55.86    7.47
  -8  -6 -19   61.01    9.10
   8   6  20   67.72    8.37
  -8  -6 -20   74.15    8.61
  -8  -6 -21   97.35   10.17
   8   7 -13   18.69    4.51
   8   7 -13   19.76    5.21
   8   7 -12   -4.63    2.91
   8   7 -12   -2.93    3.44
   8   7 -11   22.95    4.79
   8   7 -11   23.67    4.46
   8   7 -11   29.49    5.21
   8   7 -10   39.56    6.04
   8   7 -10   43.11    5.67
   8   7 -10   38.75    5.65
   8   7  -9  305.53   14.71
   8   7  -9  277.38   15.18
   8   7  -8  167.85   10.40
   8   7  -8  172.19   11.71
   8   7  -7  158.52    9.56
   8   7  -7  162.61   11.23
   8   7  -6  160.18    9.03
   8   7  -6  161.44   10.83
   8   7  -5   49.20    4.75
   8   7  -5   46.19    5.74
   8   7  -4    3.14    1.43
   8   7  -4    6.84    2.65
   8   7  -3  159.32    6.90
   8   7  -3  156.98   10.16
   8   7  -2  205.87    6.83
  -8  -7   2  199.01   10.40
   8   7  -2  196.42   11.10
   8   7  -1  365.50    7.48
  -8  -7   1  376.64   14.25
   8   7  -1  343.25   14.59
  -8  -7   0  501.05   16.31
   8   7   0  488.19   17.06
  -8  -7  -1  450.58   15.41
   8   7   1  451.65   16.17
  -8  -7  -2  349.00   13.64
   8   7   2  318.60   13.49
  -8  -7  -3    4.33    1.54
   8   7   3    9.45    2.45
   8   7   4   39.07    4.69
   8   7   5  219.35   12.13
   8   7   5  221.02   11.11
   8   7   6  306.22   14.40
   8   7   6  286.51   12.68
   8   7   7  488.24   18.25
   8   7   7  495.07   16.79
  -8  -7  -8  218.98    4.09
   8   7   8  219.32   12.40
   8   7   8  217.44    7.00
   8   7   8  228.41   11.50
  -8  -7  -9  102.11    4.08
   8   7   9   97.51    5.18
   8   7   9  100.68    8.60
   8   7   9   97.34    7.64
  -8  -7 -10   46.76    3.28
   8   7  10   46.85    3.87
   8   7  10   48.67    6.11
   8   7  10   42.79    5.18
  -8  -7 -11    3.53    1.33
   8   7  11    3.13    1.62
   8   7  11    3.78    1.28
   8   7  11    3.06    2.19
  -8  -7 -12   24.87    3.09
   8   7  12   21.32    4.33
   8   7  12   20.90    3.20
   8   7  12   20.37    3.67
  -8  -7 -13  210.87    9.63
   8   7  13  172.84   11.89
   8   7  13  209.37   11.86
  -8  -7 -14  169.88    9.33
   8   7  14  165.57   11.76
   8   7  14  163.53   10.68
  -8  -7 -15   75.17    6.66
   8   7  15   59.58    7.37
   8   7  15   75.48    7.60
  -8  -7 -16  152.55   10.04
   8   7  16  128.29   10.85
   8   7  16  156.38   11.02
  -8  -7 -17   54.48    6.42
   8   7  17   56.95    7.60
   8   7  17   57.71    7.13
  -8  -7 -18   10.22    3.33
   8   7  18    5.82    3.32
  -8  -7 -19    8.82    4.01
   8   7  19    2.15    2.22
  -8  -7 -19    5.99    3.16
   8   7  20    3.97    3.67
  -8  -7 -20   -1.69    2.77
  -8  -7 -21   11.74    4.59
   8   8 -13   20.78    5.33
   8   8 -12    5.55    2.84
   8   8 -12   -0.03    2.41
   8   8 -12    5.51    3.10
   8   8 -11    1.79    2.16
   8   8 -11   -1.89    2.09
   8   8 -11   -3.54    3.53
   8   8 -10   25.82    5.04
   8   8 -10   18.99    4.11
   8   8 -10   26.00    4.80
   8   8  -9   31.31    5.49
   8   8  -9   24.12    4.57
   8   8  -9   14.75    3.32
   8   8  -8  104.02    8.14
   8   8  -8  110.55    9.92
   8   8  -7   45.40    5.05
   8   8  -7   67.15    7.52
   8   8  -6   26.52    3.80
   8   8  -6   32.51    5.31
   8   8  -5    6.84    2.10
   8   8  -5    3.95    2.78
   8   8  -4   89.04    5.75
   8   8  -4   81.62    7.70
   8   8  -3   -1.09    1.06
   8   8  -3    1.68    1.70
   8   8  -2   31.36    2.67
   8   8  -2   24.39    4.45
   8   8  -1   49.59    2.67
   8   8  -1   56.76    6.11
   8   8   0  255.49   12.68
   8   8   1  190.13   10.87
   8   8   2  204.67   11.18
   8   8   3  249.19   12.15
   8   8   4  103.59    8.51
   8   8   4   92.82    7.45
   8   8   5    0.38    1.78
   8   8   5   -0.38    1.42
   8   8   6   43.33    5.71
   8   8   6   44.01    5.18
   8   8   7  270.74   14.01
   8   8   7  264.65   12.50
   8   8   8  208.29    6.34
   8   8   8  224.34   12.91
   8   8   8  217.14   11.44
  -8  -8  -9  460.55    8.36
   8   8   9  455.78   10.60
   8   8   9  463.84   18.66
   8   8   9  474.15   16.86
  -8  -8 -10  196.01    6.62
   8   8  10  185.32    7.56
   8   8  10  194.22   12.32
   8   8  10  189.82   10.87
  -8  -8 -11  328.24    9.72
   8   8  11  332.28   16.54
   8   8  11  311.63   10.73
   8   8  11  319.49   14.24
  -8  -8 -12    9.99    2.18
   8   8  12   12.59    3.48
   8   8  12    5.63    2.27
  -8  -8 -13   47.97    4.57
   8   8  13   41.79    6.18
   8   8  13   45.60    5.68
  -8  -8 -14  109.12    7.35
   8   8  14  105.50    9.86
   8   8  14  105.51    8.62
  -8  -8 -15    5.86    1.95
   8   8  15    8.27    3.00
   8   8  15    8.46    2.60
  -8  -8 -16  109.96    8.35
   8   8  16   90.10    9.33
   8   8  16  104.65    9.03
  -8  -8 -17  178.80   11.24
   8   8  17  156.63   12.71
   8   8  17  178.49   12.14
   8   8  18  162.37   13.03
  -8  -8 -18  179.45   11.84
   8   8  19   35.46    6.50
  -8  -8 -19   51.04    7.00
   8   8  20   13.75    4.01
  -8  -8 -20   13.53    4.25
   8   9 -12   56.25    7.80
   8   9 -12   52.85    7.34
   8   9 -11   58.38    7.94
   8   9 -11   51.29    7.06
   8   9 -11   64.19    7.71
   8   9 -10    7.85    3.37
   8   9 -10    7.23    2.93
   8   9  -9    1.63    2.11
   8   9  -9    0.05    2.00
   8   9  -8    1.77    2.33
   8   9  -7   83.62    8.65
   8   9  -6  122.51   10.15
   8   9  -5   85.17    8.40
   8   9  -4  105.89    9.09
  -8  -9   3   46.12    2.54
   8   9  -3   54.79    6.57
   8   9  -2   44.07    3.25
   8   9  -2   47.89    5.99
   8   9  -1    7.64    1.14
   8   9  -1    8.09    1.17
   8   9  -1    9.53    2.69
   8   9   0   39.53    5.19
   8   9   1   98.86    8.07
   8   9   2  285.82   13.51
   8   9   3   91.40    8.16
   8   9   3  112.96    8.48
   8   9   4  119.38    9.39
   8   9   4  119.09    8.63
   8   9   5   20.76    4.11
   8   9   5   19.81    3.79
   8   9   6    7.52    2.59
   8   9   6    9.64    2.30
   8   9   7   -0.42    2.04
   8   9   7   -1.42    1.95
  -8  -9  -8    4.33    0.57
   8   9   8    2.68    2.15
   8   9   8    4.42    0.92
   8   9   8    3.39    1.78
  -8  -9  -9  112.78    4.24
   8   9   9  120.42    5.31
   8   9   9  130.95   10.24
   8   9   9  111.68    8.44
  -8  -9 -10   30.56    2.67
   8   9  10   28.23    3.02
   8   9  10   31.67    5.23
   8   9  10   19.55    3.64
  -8  -9 -11  219.16    7.98
   8   9  11  203.66   13.33
   8   9  11  209.81   11.68
  -8  -9 -12   19.01    2.73
   8   9  12   15.73    4.08
   8   9  12   20.07    3.74
  -8  -9 -13   48.50    4.55
   8   9  13   40.83    6.11
   8   9  13   35.52    4.96
  -8  -9 -14   16.75    3.02
   8   9  14   11.72    3.41
   8   9  14    7.75    2.44
  -8  -9 -15    3.32    1.70
   8   9  15   -3.39    2.77
   8   9  15   -2.40    2.46
  -8  -9 -16    5.79    1.84
   8   9  16    6.34    3.13
   8   9  16    6.55    2.88
  -8  -9 -17    2.44    1.62
   8   9  17    3.22    2.93
   8   9  17    3.51    2.42
   8   9  18   43.82    7.08
  -8  -9 -18   50.38    6.47
   8   9  19   16.72    5.30
   8   9  20    2.79    2.50
   8  10 -12   61.43    8.03
   8  10 -11   56.34    7.84
   8  10 -11   52.59    7.39
   8  10 -10   96.30   10.12
   8  10 -10  102.58   10.06
   8  10  -9   53.06    7.45
   8  10  -9   50.23    7.10
   8  10  -8   21.84    4.89
   8  10  -7    3.52    2.38
   8  10  -6   33.50    5.80
   8  10  -5  128.85   10.69
   8  10  -4  391.58   17.99
   8  10  -3   82.50    8.16
   8  10  -2  571.27   11.45
   8  10  -2  589.71   21.16
   8  10  -1   18.40    1.74
   8  10  -1   17.32    3.70
   8  10   0   10.21    0.85
   8  10   0   11.98    3.06
   8  10   1   19.79    3.83
   8  10   2  251.78   13.67
   8  10   2  258.12   13.18
   8  10   3  672.58   22.38
   8  10   3  631.61   20.49
   8  10   4  522.20   19.99
   8  10   4  513.22   18.27
   8  10   5  435.69   18.42
   8  10   5  420.55   16.44
   8  10   6  160.31   11.30
   8  10   6  165.76   10.32
   8  10   7  192.86   12.44
   8  10   7  179.62   10.77
   8  10   8   33.89    2.07
   8  10   8   38.26    5.94
   8  10   8   41.62    5.27
  -8 -10  -9   16.98    1.72
   8  10   9   19.38    2.08
   8  10   9   21.48    4.53
   8  10   9   21.56    3.79
  -8 -10 -10  165.20    6.25
   8  10  10  159.52   11.90
   8  10  10  150.55    6.46
   8  10  10  157.75   10.21
  -8 -10 -11  316.51    9.67
   8  10  11  342.70   17.56
   8  10  11  318.23   14.63
  -8 -10 -12  227.94    9.04
   8  10  12  245.81   15.14
   8  10  12  215.74   12.17
  -8 -10 -13  258.89   10.45
   8  10  13  242.55   15.36
   8  10  13  270.95   13.80
  -8 -10 -14  294.25   11.96
   8  10  14  282.12   16.95
   8  10  14  303.38   14.77
  -8 -10 -15   95.47    7.33
   8  10  15  104.07   10.64
   8  10  15   90.30    8.33
  -8 -10 -16    0.65    1.64
   8  10  16   -1.26    2.68
   8  10  16   -1.57    2.31
   8  10  17   55.27    7.91
   8  10  17   62.78    7.14
   8  10  18   43.86    7.41
   8  10  18   48.74    6.74
   8  11 -11   28.35    5.87
   8  11 -10   56.77    7.67
   8  11  -9   27.02    5.67
   8  11  -9   17.81    4.30
   8  11  -8    3.35    2.55
   8  11  -7    1.34    2.45
   8  11  -6    7.41    2.97
   8  11  -5   -0.96    2.63
   8  11  -4    2.30    2.04
   8  11  -3   21.66    4.56
   8  11  -2    2.18    1.79
   8  11  -1   55.89    6.69
   8  11   0    3.43    0.67
   8  11   0    5.38    2.50
   8  11   1    5.80    2.49
   8  11   2   -0.17    1.61
   8  11   2    1.76    2.14
   8  11   3   21.06    4.44
   8  11   3   20.48    3.84
   8  11   4    5.96    2.26
   8  11   4    7.29    2.60
   8  11   5   58.61    7.03
   8  11   5   60.45    6.51
   8  11   6    8.02    2.97
   8  11   6    4.17    2.08
   8  11   7    5.94    2.89
   8  11   7    5.46    1.90
   8  11   8   -1.16    2.85
   8  11   8    4.95    2.31
  -8 -11  -9   -0.29    0.77
   8  11   9   -0.86    2.26
   8  11   9    0.05    1.69
  -8 -11 -10    2.51    0.92
   8  11  10    2.88    2.44
   8  11  10    1.86    1.68
  -8 -11 -11    5.14    1.59
   8  11  11   -1.20    2.35
   8  11  11    5.57    2.12
  -8 -11 -12    0.25    1.20
   8  11  12   -0.84    2.67
   8  11  12   -0.10    1.76
  -8 -11 -13    2.97    1.14
   8  11  13    1.34    2.57
   8  11  13    3.02    1.70
   8  11  14    2.01    2.68
   8  11  14   -0.36    1.89
   8  11  15    2.13    2.25
   8  11  15    2.62    1.87
   8  11  16    1.03    2.87
   8  11  16   -2.53    2.55
   8  11  17    4.42    2.80
   8  11  17    1.24    2.07
   8  11  18   -1.38    2.37
   8  12 -10   92.32   10.11
   8  12  -9  145.84   12.47
   8  12  -8  176.17   13.85
   8  12  -7  195.64   14.39
   8  12  -6   71.21    8.57
   8  12  -5    7.48    3.15
   8  12  -4    0.68    2.38
   8  12  -3  158.49   11.95
   8  12  -2  170.71   12.20
   8  12  -1  221.18   13.54
   8  12   0  481.25   19.60
   8  12   1  382.37   17.57
   8  12   1  378.91   17.19
   8  12   2   45.44    6.24
   8  12   2   52.87    6.53
   8  12   3   17.32    4.03
   8  12   3   13.75    3.29
   8  12   4   12.99    3.15
   8  12   4   17.04    3.88
   8  12   5  107.91    9.81
   8  12   5   99.68    8.51
   8  12   6  298.00   16.25
   8  12   6  278.93   14.10
   8  12   7  402.32   19.16
   8  12   7  388.71   16.53
   8  12   8  263.27   15.70
   8  12   8  265.29   13.69
   8  12   9  309.97   17.19
   8  12   9  275.25   13.93
   8  12  10  200.62   14.22
   8  12  10  198.98   12.03
   8  12  11   15.18    4.09
   8  12  11   20.74    4.41
   8  12  12    3.17    3.24
   8  12  12   10.60    3.09
   8  12  13   58.67    8.11
   8  12  13   63.56    6.97
   8  12  14  222.29   16.04
   8  12  14  220.29   12.88
   8  12  15  166.68   14.18
   8  12  15  162.69   11.37
   8  12  16  106.35   11.71
   8  12  16  106.47    9.35
   8  12  17  108.59    9.56
   8  13  -6    0.70    2.77
   8  13  -5   -0.64    1.88
   8  13  -4    1.05    2.43
   8  13  -3    0.03    2.07
   8  13  -2    0.87    2.00
   8  13  -1    1.52    2.67
   8  13   0   37.93    5.93
   8  13   1   48.83    6.42
   8  13   1   43.54    6.32
   8  13   2    2.24    2.48
   8  13   2   -0.47    1.58
   8  13   3   -1.17    2.41
   8  13   3    0.28    1.67
   8  13   4    5.31    2.89
   8  13   4   -3.17    2.63
   8  13   5   -0.33    2.77
   8  13   5    4.63    2.39
   8  13   6    0.72    2.17
   8  13   6   -1.54    2.51
   8  13   7   20.44    4.45
   8  13   7   19.17    4.14
   8  13   8   17.35    4.63
   8  13   8   10.83    3.09
   8  13   9   38.13    6.94
   8  13   9   24.54    4.27
   8  13  10  137.95   12.07
   8  13  10  129.55    9.84
   8  13  11   28.88    5.55
   8  13  11   37.87    5.55
   8  13  12    3.72    2.58
   8  13  12    6.34    2.76
   8  13  13    2.16    2.55
   8  13  13    0.44    2.03
   8  13  14    1.67    1.95
   8  13  14    2.65    2.05
   8  13  15   12.75    3.83
   8  13  16   41.55    6.08
   8  14  -5  179.08   14.16
   8  14  -4  144.95   12.31
   8  14  -3   70.57    8.48
   8  14  -2  101.99   10.09
   8  14  -1   -0.06    1.81
   8  14   0   35.79    6.02
   8  14   1  155.43   11.91
   8  14   1  155.10   11.72
   8  14   2  252.40   15.24
   8  14   2  247.95   14.56
   8  14   3  370.79   18.57
   8  14   3  366.96   17.55
   8  14   4  281.02   16.47
   8  14   4  294.25   15.54
   8  14   5  109.43   10.36
   8  14   5  110.16    9.47
   8  14   6   36.76    6.17
   8  14   6   35.19    5.56
   8  14   7    0.82    2.13
   8  14   7   -1.63    2.04
   8  14   8  107.00   10.65
   8  14   8   85.69    8.34
   8  14   9  199.32   14.87
   8  14   9  212.29   12.90
   8  14  10  183.09   14.25
   8  14  10  176.52   11.79
   8  14  11  142.32   12.88
   8  14  11  140.78   10.54
   8  14  12  134.32   12.72
   8  14  12  134.47   10.32
   8  14  13   27.03    5.05
   8  14  14    6.71    2.83
   8  14  15   -0.84    2.41
   8  15  -3   38.63    6.54
   8  15  -2   78.36    9.23
   8  15  -1    3.00    1.58
   8  15   0   -0.79    2.98
   8  15   0    0.44    2.08
   8  15   1   -6.54    2.94
   8  15   1    1.14    2.12
   8  15   2   22.60    5.18
   8  15   2   16.03    4.24
   8  15   3   88.01    9.58
   8  15   3   86.50    8.82
   8  15   4   81.44    9.16
   8  15   4   83.58    8.72
   8  15   5   66.06    8.42
   8  15   5   63.89    7.51
   8  15   6   42.24    6.80
   8  15   6   41.19    6.12
   8  15   7   34.13    6.39
   8  15   7   39.54    5.95
   8  15   8    5.65    3.26
   8  15   8    9.02    3.48
   8  15   9   13.13    3.88
   8  15   9   18.29    4.29
   8  15  10   95.22   10.69
   8  15  10   93.91    8.81
   8  15  11   69.99    7.61
   8  15  12   81.51    8.29
   8  15  13   69.03    7.74
   8  15  14   43.11    6.12
   8  16  -1  113.32   11.01
   8  16   0   53.90    7.34
   8  16   0   57.58    7.64
   8  16   1   39.51    6.77
   8  16   1   36.98    6.05
   8  16   2   -2.72    3.19
   8  16   2   -2.11    1.74
   8  16   3   23.89    4.92
   8  16   3   19.94    4.94
   8  16   4   40.01    6.58
   8  16   4   38.45    5.96
   8  16   5   40.11    6.63
   8  16   5   37.65    5.83
   8  16   6  103.45   10.72
   8  16   6   82.27    8.70
   8  16   7   79.98    9.80
   8  16   7   72.23    8.00
   8  16   8   59.87    8.53
   8  16   8   52.39    6.75
   8  16   9    3.11    2.58
   8  16  10    3.15    2.77
   8  16  11   17.12    4.02
   8  16  12    6.34    3.04
   8  17   0  135.68   12.00
   8  17   1   88.83    9.85
   8  17   2   37.93    6.44
   8  17   2   29.89    5.73
   8  17   3   13.98    4.20
   8  17   3   10.32    4.47
   8  17   4    1.04    2.01
   8  17   4   -1.89    2.00
   8  17   5   32.98    6.42
   8  17   5   32.92    5.73
   8  17   6   72.58    8.32
   8  17   7  128.34   10.98
   8  17   8  130.65   10.88
   8  17   9   89.56    9.22
   8  17  10   73.56    8.29
   8  17  11    9.81    3.75
   8  18   0   32.53    6.64
   8  18   1   38.23    6.79
   8  18   7    6.47    3.59
   8  18   8    2.14    2.65
   8  18   9    4.37    2.79
  -9  11  -9   12.04    4.32
  -9  11 -10    9.06    3.55
  -9  11 -11   -6.46    3.67
  -9  11 -12    1.71    2.91
   9 -10   0  115.56   11.20
   9 -10   1  135.18   11.87
  -9  10  -2   66.14    8.22
   9 -10   2   75.34    8.93
  -9  10  -3   54.07    7.47
  -9  10  -4    1.25    1.94
  -9  10  -5   -3.09    3.26
  -9  10  -6   36.79    6.06
  -9  10  -7   85.99    9.28
  -9  10  -7   88.34    7.96
  -9  10  -8  160.40   11.21
  -9  10  -9  124.23   10.49
  -9  10 -10  102.08    9.88
  -9  10 -11   40.98    6.86
  -9  10 -12    0.10    2.52
  -9  10 -13    5.67    3.68
   9  -9  -3    3.37    2.99
   9  -9  -2    5.89    2.74
   9  -9  -1    0.14    2.18
   9  -9   0   20.52    5.09
   9  -9   1   18.82    4.48
   9  -9   2   27.69    5.55
  -9   9  -3   10.94    3.50
  -9   9  -4   21.46    4.90
  -9   9  -5   -2.78    2.28
  -9   9  -6    6.02    2.64
  -9   9  -6    3.87    1.97
  -9   9  -7    0.05    1.77
  -9   9  -7   -0.77    1.60
  -9   9  -8    3.01    2.46
  -9   9  -8    3.86    2.63
  -9   9  -9   41.36    6.30
  -9   9  -9   39.28    5.78
  -9   9 -10   20.86    4.86
  -9   9 -10   16.37    4.35
  -9   9 -11   24.60    5.65
  -9   9 -12    0.54    2.59
  -9   9 -13    4.20    2.60
  -9   9 -14    0.43    3.38
   9  -8  -5  107.62   10.97
   9  -8  -4  175.42   13.75
   9  -8  -3  112.58   10.69
   9  -8  -2   99.91   10.09
   9  -8  -1   16.30    4.35
   9  -8   0    3.59    1.88
   9  -8   1   41.38    6.38
   9  -8   2   74.50    8.35
  -9   8  -3  260.43   14.93
   9  -8   3  249.20   14.86
  -9   8  -4  205.73   13.34
  -9   8  -4  199.15    9.63
  -9   8  -5  240.11   14.36
  -9   8  -5  258.00   11.77
  -9   8  -6   91.97    8.93
  -9   8  -6   92.95    7.63
  -9   8  -7   15.74    3.90
  -9   8  -7   17.04    3.67
  -9   8  -8    8.13    2.84
  -9   8  -8   13.22    3.77
  -9   8  -9   83.50    8.87
  -9   8  -9   83.51    8.52
  -9   8 -10  171.43   12.60
  -9   8 -10  156.18   11.96
  -9   8 -11  163.09   12.77
  -9   8 -12  146.74   12.52
  -9   8 -13  123.40   11.94
  -9   8 -14   73.79    9.49
   9  -7  -6   -4.32    2.93
   9  -7  -5    0.12    2.21
   9  -7  -4    8.18    3.40
   9  -7  -3   -1.81    2.72
   9  -7  -2   13.39    3.92
   9  -7  -1    6.72    3.11
   9  -7   0    2.14    1.93
   9  -7   1    4.08    2.36
   9  -7   2    4.54    2.75
  -9   7  -3    2.42    2.03
  -9   7  -3    0.27    0.99
   9  -7   3   -1.22    1.97
  -9   7  -4   18.49    4.30
  -9   7  -4   16.21    2.95
  -9   7  -5    0.12    1.83
  -9   7  -5   -6.02    2.08
  -9   7  -6    2.18    1.83
  -9   7  -6   -0.20    1.82
  -9   7  -7    1.17    1.67
  -9   7  -7    2.03    1.71
  -9   7  -8    1.68    1.99
  -9   7  -8    1.22    1.64
  -9   7  -9   -0.38    2.39
  -9   7  -9   -0.01    1.71
  -9   7 -10    9.81    3.03
  -9   7 -10   15.64    3.66
  -9   7 -11   -2.22    2.88
  -9   7 -12    1.86    2.55
  -9   7 -13   11.37    4.06
  -9   7 -14    0.30    2.63
  -9   7 -15   14.72    4.77
   9  -6  -7   92.77    9.86
   9  -6  -6   48.93    7.15
   9  -6  -5   10.74    3.62
   9  -6  -4   15.45    4.30
   9  -6  -3   95.33    9.18
   9  -6  -2  346.94   17.04
   9  -6  -1  174.91   11.89
   9  -6   0  304.92   15.37
   9  -6   1  164.10   11.13
  -9   6  -1  132.63    7.86
   9  -6   2   35.34    5.23
  -9   6  -2   26.34    2.86
  -9   6  -2   30.75    3.92
  -9   6  -3    0.62    1.02
   9  -6   3   -0.96    2.02
  -9   6  -4   25.70    4.58
  -9   6  -4   26.51    3.60
  -9   6  -5  154.91   10.86
  -9   6  -5  172.47    9.66
  -9   6  -6  358.24   16.44
  -9   6  -6  317.76   14.00
  -9   6  -7  329.70   15.86
  -9   6  -7  327.83   15.03
  -9   6  -8  230.40   13.43
  -9   6  -8  215.84   12.76
  -9   6  -9  150.74   11.09
  -9   6  -9  123.26   10.15
  -9   6 -10    0.10    1.77
  -9   6 -11    2.17    2.56
  -9   6 -12   95.92   10.02
  -9   6 -13  166.78   14.18
  -9   6 -14  163.54   13.63
  -9   6 -15  102.21   11.12
  -9   6 -16  108.26   11.75
   9  -5  -8    8.54    2.87
   9  -5  -7    1.48    1.80
   9  -5  -6    1.63    2.30
   9  -5  -5    3.66    2.65
   9  -5  -4   -2.85    2.29
   9  -5  -3    2.13    2.29
   9  -5  -2   -0.52    1.65
   9  -5  -1   38.53    5.40
  -9   5   0   25.18    3.47
   9  -5   0   34.33    5.08
  -9   5  -1   17.76    3.03
   9  -5   1   22.15    4.23
  -9   5  -1   17.32    2.17
   9  -5   2    2.85    1.86
  -9   5  -2    2.62    1.23
  -9   5  -2   -1.09    1.08
   9  -5   3    0.20    2.23
  -9   5  -3    3.84    1.69
  -9   5  -3    0.70    1.19
  -9   5  -4   -0.21    2.09
  -9   5  -4    3.15    1.86
  -9   5  -5    3.66    1.94
  -9   5  -5    3.59    1.65
  -9   5  -6   19.80    3.82
  -9   5  -6   20.52    3.70
  -9   5  -7   99.31    8.59
  -9   5  -7  101.87    8.36
  -9   5  -8  106.41    9.00
  -9   5  -8  107.41    9.03
  -9   5  -9   53.75    6.58
  -9   5  -9   49.64    6.54
  -9   5 -10   61.09    6.25
  -9   5 -10   68.38    7.79
  -9   5 -11   -2.69    2.74
  -9   5 -12    1.26    2.50
  -9   5 -13   27.36    5.81
  -9   5 -14   25.22    5.53
  -9   5 -15   22.98    5.58
  -9   5 -16    9.34    3.49
   9  -4  -9   -3.25    2.91
   9  -4  -8   24.59    5.43
   9  -4  -7  116.03   10.57
   9  -4  -6  200.56   13.38
   9  -4  -5  130.18   10.53
   9  -4  -4  213.22   13.00
   9  -4  -3   18.82    3.91
   9  -4  -3   18.94    2.78
   9  -4  -2   41.14    5.55
   9  -4  -2   37.12    4.06
   9  -4  -1   64.18    6.57
  -9   4   1   57.18    4.96
   9  -4  -1   53.09    4.96
   9  -4   0  159.35   10.29
  -9   4   0  153.63    4.47
  -9   4   0  170.65    4.98
  -9   4   0  162.25    8.36
   9  -4   0  168.49    9.07
   9  -4   1  235.49   12.15
  -9   4  -1  243.16    7.91
  -9   4  -1  249.39   10.63
   9  -4   2  189.84   10.85
  -9   4  -2  183.23    8.00
  -9   4  -2  168.72    8.96
   9  -4   3  450.62   16.60
  -9   4  -3  452.31   13.84
  -9   4  -3  453.99   15.01
  -9   4  -4  175.10   10.54
  -9   4  -4  163.00    9.00
  -9   4  -5   52.65    5.88
  -9   4  -5   52.29    5.45
  -9   4  -6    0.39    1.66
  -9   4  -6    2.65    1.36
  -9   4  -7   10.72    2.77
  -9   4  -7    9.27    2.90
  -9   4  -8  163.66   10.56
  -9   4  -8  149.37   10.57
  -9   4  -9   90.79    8.12
  -9   4  -9   97.84    7.64
  -9   4  -9  105.20    9.33
  -9   4 -10  339.78   13.97
  -9   4 -10  346.30   17.18
  -9   4 -11  121.95    8.28
  -9   4 -11  150.98   11.77
  -9   4 -12  130.00   11.26
  -9   4 -13   54.61    7.81
  -9   4 -14    2.76    3.58
  -9   4 -15    6.72    2.95
  -9   4 -16   79.99   10.06
  -9   4 -17   52.29    8.15
   9  -3 -10   13.33    4.19
   9  -3  -9   -4.63    3.02
   9  -3  -8    7.26    3.32
   9  -3  -7    5.94    3.16
   9  -3  -6   -1.74    2.68
   9  -3  -5   71.66    7.56
   9  -3  -4   55.38    6.37
   9  -3  -4   46.14    4.32
   9  -3  -3  152.43   10.24
   9  -3  -3  140.05    7.57
   9  -3  -2   27.18    4.22
   9  -3  -2   26.20    3.40
  -9   3   1    1.41    1.33
   9  -3  -1    0.69    1.66
  -9   3   1    0.97    0.33
  -9   3   1    0.25    0.32
   9  -3  -1    0.64    1.44
  -9   3   0   -1.43    1.66
   9  -3   0   -0.48    1.35
  -9   3   0    0.34    0.67
  -9   3   0   -0.02    0.65
   9  -3   0   -1.32    1.78
   9  -3   1   22.20    3.70
  -9   3  -1   21.84    3.23
   9  -3   1   24.68    3.52
  -9   3  -1   22.99    2.73
   9  -3   2  108.98    7.85
  -9   3  -2   95.78    7.35
  -9   3  -2  109.69    6.48
  -9   3  -2  105.86    7.11
   9  -3   2   93.58    6.98
  -9   3  -3  142.38    8.81
   9  -3   3  143.29    8.96
  -9   3  -3  147.33    8.20
  -9   3  -3  152.20    8.67
   9  -3   3  140.24    8.77
  -9   3  -4  356.18   14.52
  -9   3  -4  343.86   13.77
  -9   3  -4  336.37   13.08
   9  -3   4  352.76   14.13
  -9   3  -5  129.42    8.79
  -9   3  -5  115.07    7.97
  -9   3  -5  115.58    8.17
   9  -3   5  120.50    8.53
  -9   3  -6  148.07    9.38
  -9   3  -6  150.92    9.18
  -9   3  -6  151.73    9.73
  -9   3  -7   16.27    2.95
  -9   3  -7   17.79    3.56
  -9   3  -7   18.70    3.80
  -9   3  -8    2.96    1.47
  -9   3  -8    2.57    1.81
  -9   3  -9   76.14    7.09
  -9   3  -9   66.57    6.46
  -9   3  -9   58.14    6.86
  -9   3 -10  107.15    7.85
  -9   3 -10   92.39    9.03
  -9   3 -11  209.19   10.81
  -9   3 -11  190.16   13.00
  -9   3 -12  143.34    8.81
  -9   3 -12  143.78   11.73
  -9   3 -13  151.97   12.40
  -9   3 -14  106.41   10.84
  -9   3 -15   53.57    8.11
  -9   3 -16    0.48    2.16
  -9   3 -17   78.10    9.83
   9  -2 -11  100.79   10.73
   9  -2 -10  185.52   14.00
   9  -2  -9   94.57    9.69
   9  -2  -8    9.69    3.41
   9  -2  -7    6.35    2.85
   9  -2  -6   25.31    4.78
   9  -2  -5   61.05    6.79
   9  -2  -5   52.84    4.66
   9  -2  -4   22.09    3.87
   9  -2  -4   24.96    3.31
   9  -2  -3  187.92   10.94
   9  -2  -3  192.58    9.15
   9  -2  -2  111.33    8.21
   9  -2  -2  102.32    6.76
  -9   2   1  104.43    6.76
   9  -2  -1  110.48    7.93
  -9   2   1  108.44    7.81
  -9   2   1   96.94    4.29
  -9   2   1  102.59    3.97
   9  -2  -1  102.53    6.87
  -9   2   0   60.31    5.21
   9  -2   0   70.29    6.24
  -9   2   0   67.81    6.11
  -9   2   0   63.80    4.33
  -9   2   0   59.84    3.53
   9  -2   0   64.29    5.58
   9  -2   1    3.87    1.73
  -9   2  -1    1.86    1.12
  -9   2  -1   -0.25    1.70
   9  -2   1    4.06    1.80
  -9   2  -1    3.39    1.37
  -9   2  -2   -3.57    1.58
   9  -2   2   -0.95    1.29
  -9   2  -2   -1.89    1.87
   9  -2   2   -1.29    1.77
  -9   2  -2   -0.21    1.09
   9  -2   3  257.98   11.27
  -9   2  -3  237.01   10.76
   9  -2   3  255.06   11.59
  -9   2  -3  247.47   11.03
  -9   2  -3  229.95   10.35
  -9   2  -4    1.38    1.66
  -9   2  -4   -2.03    2.42
   9  -2   4    0.62    1.29
  -9   2  -4    4.28    1.91
  -9   2  -4    5.26    1.98
  -9   2  -5  528.12   15.93
  -9   2  -5  547.44   17.27
  -9   2  -5  538.93   17.58
   9  -2   5  571.18   18.07
  -9   2  -6   98.17    7.01
  -9   2  -6  109.28    7.83
  -9   2  -6   99.18    7.93
   9  -2   6  109.50    8.13
  -9   2  -7   83.96    6.57
  -9   2  -7   75.06    6.62
  -9   2  -7   83.84    7.58
   9  -2   7   95.26    7.85
  -9   2  -8   64.79    5.93
  -9   2  -8   69.72    6.48
  -9   2  -8   58.09    5.98
  -9   2  -8   64.37    6.93
   9  -2   8   72.97    6.95
  -9   2  -9    6.04    1.99
  -9   2  -9    5.84    1.76
  -9   2  -9   11.69    3.30
  -9   2 -10    4.98    2.04
  -9   2 -10    0.65    1.28
  -9   2 -10   -0.27    1.79
  -9   2 -11   48.96    5.37
  -9   2 -11   46.49    6.52
  -9   2 -12  138.44    8.68
  -9   2 -12  136.36   11.39
  -9   2 -13   34.76    4.34
  -9   2 -13   46.55    6.95
  -9   2 -14   44.34    7.36
  -9   2 -15    4.18    3.06
  -9   2 -16    0.82    2.32
  -9   2 -17    3.69    2.91
  -9   2 -18    4.38    4.08
   9  -1 -11   18.78    4.67
   9  -1 -10   92.09    9.69
   9  -1  -9  111.76   10.44
   9  -1  -8  120.02   10.44
   9  -1  -7   91.91    8.78
   9  -1  -6   35.20    5.07
   9  -1  -6   38.29    4.17
   9  -1  -5    8.43    2.52
   9  -1  -5    5.95    1.86
   9  -1  -4   76.46    7.06
   9  -1  -4   77.57    5.89
   9  -1  -3  141.75    9.22
  -9   1   3  122.22    3.50
   9  -1  -3  137.28    7.86
  -9   1   3  115.68    3.72
   9  -1  -2  301.12   12.86
  -9   1   2  309.10    7.15
   9  -1  -2  313.64   11.99
  -9   1   2  299.95    7.81
  -9   1   1  356.16   12.56
  -9   1   1  352.79   13.50
   9  -1  -1  372.01   13.72
  -9   1   1  362.84    8.73
   9  -1  -1  350.47   12.80
  -9   1   0  259.20   10.90
   9  -1   0  261.38   11.23
  -9   1   0  249.86   11.01
  -9   1   0  250.47    7.85
   9  -1   0  252.23   10.98
   9  -1   1  297.81   11.75
  -9   1  -1  281.81   11.36
  -9   1  -1  300.31   11.81
   9  -1   1  298.40   12.12
   9  -1   2   55.77    5.02
  -9   1  -2   51.93    4.75
  -9   1  -2   44.55    4.67
   9  -1   2   59.04    5.50
  -9   1  -3    1.91    1.38
   9  -1   3    1.43    1.22
  -9   1  -3    0.27    1.60
   9  -1   3    3.82    1.40
  -9   1  -4   30.12    3.66
  -9   1  -4   23.54    3.30
  -9   1  -4   24.60    3.78
   9  -1   4   31.07    4.18
  -9   1  -4   21.59    3.40
  -9   1  -5  315.01   11.57
  -9   1  -5  313.28   12.47
   9  -1   5  326.70   13.49
  -9   1  -5  326.75   13.58
  -9   1  -6  379.17   12.87
  -9   1  -6  399.25   14.23
   9  -1   6  393.89   15.16
  -9   1  -6  358.43   14.79
  -9   1  -7  506.21   15.13
  -9   1  -7  526.60   16.62
  -9   1  -7  503.38   18.18
   9  -1   7  528.70   17.94
  -9   1  -8  501.22   15.36
  -9   1  -8  481.30   16.13
  -9   1  -8  504.20   17.50
  -9   1  -8  486.62   18.54
   9  -1   8  506.80   17.93
  -9   1  -9  247.13   11.10
  -9   1  -9  240.83   11.91
  -9   1  -9  236.77   13.47
   9  -1   9  261.36   13.30
  -9   1 -10   76.29    6.44
  -9   1 -10   78.67    6.82
  -9   1 -10   78.07    8.08
   9  -1  10   58.59    6.50
  -9   1 -11    1.28    1.07
  -9   1 -11    2.45    1.08
  -9   1 -11   -1.23    2.49
  -9   1 -12   24.72    3.65
  -9   1 -12   28.06    5.29
  -9   1 -13  207.17   14.42
  -9   1 -14  204.45   14.72
  -9   1 -15  374.28   20.23
  -9   1 -16  113.98   11.58
  -9   1 -17   40.83    7.39
  -9   1 -18   32.25    6.40
   9   0 -12   -0.88    2.55
   9   0 -11   -2.53    2.42
   9   0 -10    3.37    2.52
   9   0  -9    3.32    2.91
   9   0  -8  121.66   10.14
   9   0  -7   23.46    4.54
   9   0  -7   26.69    3.59
   9   0  -6   43.79    5.80
   9   0  -6   39.30    4.33
   9   0  -5   45.16    5.58
   9   0  -5   42.54    4.54
   9   0  -4   15.04    2.91
   9   0  -4   15.63    2.85
   9   0  -3   10.26    2.51
  -9   0   3    5.24    1.10
   9   0  -3    5.20    1.88
   9   0  -2    6.55    2.25
  -9   0   2    4.07    1.05
   9   0  -2    3.56    1.61
  -9   0   1    5.93    1.72
   9   0  -1   13.50    2.60
  -9   0   1    4.26    1.04
   9   0  -1    7.48    2.17
  -9   0   0   28.16    3.76
  -9   0   0   28.60    3.58
   9   0   0   33.04    3.95
  -9   0   0   27.28    2.82
   9   0   0   26.10    3.58
   9   0   1   15.51    2.69
  -9   0  -1   11.55    2.35
  -9   0  -1   12.90    2.45
   9   0   1   14.08    2.68
   9   0   2    4.74    1.67
  -9   0  -2    3.75    1.56
  -9   0  -2    2.05    1.31
   9   0   2    1.62    1.62
  -9   0  -3   63.35    4.87
   9   0   3   72.11    5.26
   9   0   3   63.87    5.79
  -9   0  -3   65.30    5.75
  -9   0  -4   29.22    3.29
  -9   0  -4   36.07    4.19
  -9   0  -4   34.40    4.33
   9   0   4   32.59    4.32
  -9   0  -5    6.15    1.67
  -9   0  -5    8.81    2.26
   9   0   5   11.58    2.86
  -9   0  -6    3.26    1.24
  -9   0  -6    7.91    2.13
   9   0   6    2.41    1.59
  -9   0  -7    2.62    1.19
  -9   0  -7    2.79    1.50
   9   0   7    5.00    1.98
  -9   0  -8   22.74    3.15
  -9   0  -8   23.11    4.07
   9   0   8   25.41    4.08
  -9   0  -9   26.86    3.65
  -9   0  -9   20.64    3.61
   9   0   9   18.89    3.58
  -9   0  -9   21.14    4.29
  -9   0 -10    3.48    1.84
  -9   0 -10    2.50    1.78
   9   0  10    2.37    1.78
  -9   0 -10    7.38    2.92
  -9   0 -11    4.18    1.52
  -9   0 -11    3.69    1.57
   9   0  11    1.56    1.81
  -9   0 -11    1.65    2.58
  -9   0 -12    3.65    1.37
  -9   0 -12    6.80    2.25
  -9   0 -12    0.11    1.91
  -9   0 -13    3.64    2.24
  -9   0 -14    2.14    2.13
  -9   0 -15    2.44    2.96
  -9   0 -16   13.16    4.54
  -9   0 -17   14.62    4.58
  -9   0 -18    1.41    1.89
   9   1 -12  106.76   10.71
   9   1 -11   27.06    5.61
   9   1 -10    9.28    3.73
   9   1  -9    0.20    1.97
   9   1  -8   58.36    7.17
   9   1  -8   61.60    5.70
   9   1  -7  177.04   11.36
   9   1  -7  179.31    9.66
   9   1  -6  358.92   15.36
   9   1  -6  345.32   13.44
   9   1  -5  477.70   16.93
   9   1  -5  448.60   15.17
   9   1  -4  185.10   10.08
  -9  -1   4  183.93    7.05
   9   1  -4  174.10    9.44
   9   1  -3  148.83    8.62
  -9  -1   3  149.29    6.47
   9   1  -3  133.03    8.24
   9   1  -2   12.77    2.56
  -9  -1   2   12.72    2.13
   9   1  -2   15.50    2.78
   9   1  -1    3.93    1.56
  -9  -1   1    4.08    1.40
   9   1  -1    4.97    2.19
  -9  -1   0  226.93   10.51
   9   1   0  238.72    9.53
  -9  -1   0  219.03    8.38
   9   1   0  228.76   10.68
  -9  -1  -1  381.61   13.74
   9   1   1  393.53   11.81
  -9  -1  -1  382.37   11.60
  -9  -1  -1  366.35   11.20
   9   1   1  387.34   13.95
   9   1   2  522.00   13.14
  -9  -1  -2  507.16   12.80
  -9  -1  -2  549.59   16.59
   9   1   2  523.16   16.34
  -9  -1  -3  562.85   13.15
  -9  -1  -3  612.31   15.77
  -9  -1  -3  603.63   17.49
   9   1   3  576.80   17.26
  -9  -1  -4  396.86   10.92
  -9  -1  -4  411.07   12.89
   9   1   4  399.86   14.63
  -9  -1  -5  114.26    5.95
  -9  -1  -5  116.95    6.97
   9   1   5  124.21    8.34
  -9  -1  -6   51.61    4.08
  -9  -1  -6   47.64    4.49
   9   1   6   55.05    5.61
  -9  -1  -7   77.98    5.16
  -9  -1  -7   82.19    6.08
   9   1   7   78.90    6.95
  -9  -1  -8  240.87    9.37
   9   1   8  252.65   12.42
  -9  -1  -9  452.24   13.40
  -9  -1  -9  452.68   16.57
   9   1   9  467.42   17.12
  -9  -1 -10  670.09   16.95
  -9  -1 -10  695.31   20.54
   9   1  10  717.37   21.84
  -9  -1 -11  446.42   14.32
  -9  -1 -11  459.72   16.61
   9   1  11  441.85   17.48
  -9  -1 -12  154.30    8.74
  -9  -1 -12  183.58   12.94
   9   1  12  191.65   11.98
  -9  -1 -13   28.66    5.37
  -9  -1 -14   -0.19    3.24
  -9  -1 -15   16.86    4.45
  -9  -1 -16   71.23    9.11
  -9  -1 -17  133.75   12.66
  -9  -1 -18  263.60   18.30
   9   2 -12    0.19    3.01
   9   2 -11   -5.78    3.15
   9   2 -10    2.11    2.53
   9   2  -9    0.06    1.89
   9   2  -9   -2.00    1.82
   9   2  -8    5.96    2.77
   9   2  -8    5.11    2.09
   9   2  -7    5.88    2.21
   9   2  -7    7.87    2.10
   9   2  -6    3.66    1.99
   9   2  -6    0.65    1.19
   9   2  -5    1.93    1.72
   9   2  -5    0.22    1.37
   9   2  -4    0.97    1.38
  -9  -2   4    0.68    1.06
   9   2  -4   -1.57    1.41
   9   2  -3   24.86    3.46
  -9  -2   3   24.88    3.11
   9   2  -3   30.97    4.25
   9   2  -2    8.65    2.00
  -9  -2   2    6.60    1.58
   9   2  -2    9.07    2.40
   9   2  -1   15.94    2.42
  -9  -2   1   15.86    2.46
   9   2  -1   15.08    2.92
  -9  -2   0   -0.01    1.29
   9   2   0   -0.11    1.19
  -9  -2   0    0.80    1.02
  -9  -2  -1    2.89    1.23
   9   2   1    5.98    1.62
  -9  -2  -1    3.93    1.50
   9   2   1    7.44    2.32
   9   2   2    0.90    0.89
  -9  -2  -2   -0.63    0.95
  -9  -2  -2   -1.74    1.86
   9   2   2    3.14    1.88
  -9  -2  -3   -0.46    0.84
  -9  -2  -3    1.70    0.97
   9   2   3    0.19    1.46
  -9  -2  -4  118.20    5.33
  -9  -2  -4  127.41    6.79
   9   2   4  139.55    8.69
  -9  -2  -5   -1.46    1.25
  -9  -2  -5   -0.49    1.02
   9   2   5    0.88    1.31
  -9  -2  -6    1.68    0.96
  -9  -2  -6    0.79    0.99
   9   2   6    1.90    1.20
  -9  -2  -7    0.12    0.78
   9   2   7   -1.62    1.84
  -9  -2  -8    2.53    1.14
   9   2   8    2.59    1.74
  -9  -2  -9   37.24    3.67
   9   2   9   35.21    4.96
  -9  -2 -10   66.06    5.12
   9   2  10   76.44    7.18
  -9  -2 -11   97.15    6.42
   9   2  11   90.82    7.93
   9   2  12   -0.01    1.65
   9   2  13   40.71    5.73
   9   2  14   -0.29    1.97
  -9  -2 -14   -0.21    2.51
  -9  -2 -15    0.66    2.42
  -9  -2 -16    0.28    2.97
  -9  -2 -17   21.59    5.68
  -9  -2 -18   47.70    7.73
   9   3 -12   64.29    8.38
   9   3 -11  121.71   10.92
   9   3 -10  223.26   14.04
   9   3  -9   80.86    8.28
   9   3  -9   76.43    7.15
   9   3  -8   78.56    7.67
   9   3  -8   68.78    6.74
   9   3  -7   11.79    2.90
   9   3  -7   11.62    2.77
   9   3  -6    2.17    1.91
   9   3  -6    3.70    1.46
   9   3  -5   57.02    5.57
  -9  -3   5   55.50    4.84
   9   3  -5   56.82    5.85
   9   3  -4  227.37   10.43
  -9  -3   4  236.36    9.78
   9   3  -4  217.72   11.15
   9   3  -3  479.32   14.12
  -9  -3   3  478.72   13.68
   9   3  -3  449.98   15.84
   9   3  -2  363.43   11.53
  -9  -3   2  343.17   11.59
   9   3  -2  362.11   14.09
   9   3  -1  346.92   10.51
  -9  -3   1  324.81   11.32
   9   3  -1  343.89   13.67
   9   3   0  213.48    7.67
  -9  -3   0  201.01    8.99
   9   3   0  206.56   10.54
   9   3   1   57.22    3.82
  -9  -3  -1   56.04    4.85
   9   3   1   57.18    5.56
   9   3   2   18.31    2.04
   9   3   2   24.17    3.66
  -9  -3  -3  156.32    7.01
   9   3   3  154.50    9.20
  -9  -3  -4  251.84    6.59
  -9  -3  -4  260.41    9.09
   9   3   4  267.91   12.12
  -9  -3  -5  330.80    7.50
  -9  -3  -5  333.51   10.41
   9   3   5  352.94   13.96
  -9  -3  -6  155.52    5.38
   9   3   6  151.27    9.33
  -9  -3  -7  278.63    7.68
   9   3   7  288.07   13.00
  -9  -3  -8  366.13    9.49
   9   3   8  351.18   14.52
  -9  -3  -9   77.35    4.81
   9   3   9   75.41    6.88
  -9  -3 -10   34.22    3.43
   9   3  10   29.33    4.56
  -9  -3 -11   48.49    4.29
   9   3  11   56.71    5.19
   9   3  11   52.53    6.10
   9   3  12  323.19   13.08
   9   3  12  332.41   15.40
   9   3  13  315.00   15.36
   9   3  14  161.99   11.39
  -9  -3 -15  233.06   15.75
  -9  -3 -16   73.44    9.24
  -9  -3 -17   16.31    5.45
  -9  -3 -18   -4.01    3.26
   9   4 -12   -3.84    3.61
   9   4 -11    6.52    3.14
   9   4 -10    2.66    1.83
   9   4 -10    4.49    2.43
   9   4  -9   25.71    4.46
   9   4  -9   30.19    5.32
   9   4  -8   27.68    4.65
   9   4  -8   25.04    4.34
   9   4  -7   -0.91    1.53
   9   4  -7   -0.12    1.43
   9   4  -6   12.22    3.08
   9   4  -6   17.54    3.26
   9   4  -5    5.41    2.27
  -9  -4   5   15.35    3.02
   9   4  -5   13.97    2.94
   9   4  -4   11.17    2.91
  -9  -4   4    8.52    2.10
   9   4  -4    8.58    2.26
   9   4  -3    5.89    2.18
   9   4  -3    3.29    1.23
  -9  -4   3    4.51    1.73
   9   4  -2  125.24    6.42
  -9  -4   2  123.16    7.38
   9   4  -2  124.15    8.56
   9   4  -1   70.13    4.44
  -9  -4   1   66.64    5.55
   9   4  -1   69.90    6.31
   9   4   0   57.83    3.72
  -9  -4   0   59.77    5.23
   9   4   0   58.17    5.84
   9   4   1   33.77    2.52
  -9  -4  -1   36.37    4.09
   9   4   1   40.14    4.86
  -9  -4  -2    7.72    1.62
  -9  -4  -2    6.36    1.89
   9   4   2    7.68    2.11
  -9  -4  -3    0.79    0.84
   9   4   3    0.82    1.23
  -9  -4  -4   12.66    1.93
   9   4   4   17.22    3.28
   9   4   5    4.35    1.99
  -9  -4  -6  102.69    3.22
   9   4   6  107.12    7.97
  -9  -4  -7  257.62    5.95
   9   4   7  278.60   12.89
  -9  -4  -8  101.63    4.35
   9   4   8   90.68    7.51
  -9  -4  -9   36.01    2.97
   9   4   9   33.46    4.74
  -9  -4 -10   25.74    2.74
   9   4  10   20.07    3.57
   9   4  11   21.76    3.35
   9   4  11   18.06    3.70
   9   4  12   13.17    2.60
   9   4  12   15.46    3.57
   9   4  13  109.80    9.02
   9   4  14  206.50   12.58
   9   4  14  223.42   13.16
   9   4  15   87.74    8.36
   9   4  15   90.10    8.55
   9   4  16  114.64    9.61
  -9  -4 -16  122.82   11.70
   9   4  17   30.78    5.12
  -9  -4 -17   37.97    7.10
   9   4  18   40.63    6.03
  -9  -4 -18   56.90    8.61
   9   4  19   -1.98    2.20
   9   5 -12   13.88    4.46
   9   5 -11   -0.34    2.35
   9   5 -11   -3.02    2.39
   9   5 -10    4.59    3.02
   9   5 -10    7.12    2.59
   9   5  -9   27.02    4.60
   9   5  -9   26.06    4.50
   9   5  -8  212.94   12.02
   9   5  -8  190.70   11.88
   9   5  -7  223.85   11.73
   9   5  -7  230.39   12.86
   9   5  -6  240.93   11.52
   9   5  -6  233.91   12.74
   9   5  -5  104.46    7.06
  -9  -5   5   87.79    6.88
   9   5  -5   84.89    7.68
   9   5  -4    3.26    2.25
  -9  -5   4    6.00    2.24
   9   5  -4    5.78    1.61
   9   5  -3    3.03    1.71
   9   5  -3    0.97    0.94
  -9  -5   3   -0.82    1.68
   9   5  -2   54.18    3.99
  -9  -5   2   51.93    5.10
   9   5  -2   58.80    6.03
   9   5  -1  181.75    6.49
  -9  -5   1  188.14    9.57
   9   5  -1  163.81    9.94
   9   5   0  341.47    7.65
  -9  -5   0  355.64   13.11
   9   5   0  352.70   14.52
   9   5   1  379.85    6.39
  -9  -5  -1  401.99   14.01
   9   5   1  406.91   15.42
  -9  -5  -2  383.43    9.12
  -9  -5  -2  387.35   13.89
   9   5   2  386.33   14.93
  -9  -5  -3  179.12    6.20
  -9  -5  -3  182.20    9.68
   9   5   3  181.96   10.42
   9   5   4    5.16    2.15
   9   5   5   37.92    4.85
   9   5   6   27.58    4.25
   9   5   7  293.49   13.25
  -9  -5  -8  192.03    4.61
   9   5   8  190.41   10.89
  -9  -5  -9  294.85    7.35
   9   5   9  285.99   13.45
  -9  -5 -10  266.89    8.09
   9   5  10  259.16   13.04
   9   5  11   50.39    6.27
   9   5  11   52.79    4.77
   9   5  11   58.85    6.39
   9   5  12    4.47    1.68
   9   5  12    6.68    3.14
   9   5  12    0.46    2.02
   9   5  13   -1.36    1.94
   9   5  13    4.13    1.75
   9   5  13    0.53    1.54
   9   5  14   15.47    3.79
   9   5  14   10.75    2.97
   9   5  15  104.27    9.19
   9   5  15  120.24    9.76
   9   5  16   49.58    6.68
   9   5  16   67.70    7.69
   9   5  17   84.32    8.66
   9   5  18   18.57    4.63
  -9  -5 -18   17.17    5.03
   9   5  19    5.98    2.93
   9   6 -11   23.78    4.89
   9   6 -11   13.22    3.84
   9   6 -10    3.48    2.11
   9   6 -10    1.04    1.92
   9   6  -9    6.82    2.78
   9   6  -9   -2.87    2.28
   9   6  -8   -2.96    1.98
   9   6  -8   -0.39    2.46
   9   6  -7   63.22    6.18
   9   6  -7   55.82    6.76
   9   6  -6  114.45    7.80
   9   6  -6  108.00    8.97
   9   6  -5  172.63    8.90
   9   6  -5  152.45   10.55
   9   6  -4   99.95    6.31
   9   6  -4   95.83    8.23
   9   6  -3  144.61    6.85
  -9  -6   3  141.26    8.78
   9   6  -3  129.59    9.37
   9   6  -2   -1.37    2.51
  -9  -6   2    0.46    1.39
   9   6  -2    0.10    0.66
   9   6  -1   39.41    5.13
   9   6  -1   41.91    2.82
  -9  -6   1   38.76    4.57
   9   6   0   90.40    3.13
  -9  -6   0   96.39    7.18
   9   6   0   95.86    7.83
  -9  -6  -1  182.33    5.55
  -9  -6  -1  198.24   10.31
   9   6   1  190.71   10.86
  -9  -6  -2  349.98    7.34
  -9  -6  -2  365.97   14.01
   9   6   2  373.02   15.04
   9   6   3  377.31   15.06
   9   6   4  465.07   16.70
   9   6   5  199.47   10.97
   9   6   6   -0.84    1.72
   9   6   7   38.85    5.05
   9   6   8  119.91    8.70
  -9  -6  -9  208.31    5.10
  -9  -6  -9  206.84    5.02
   9   6   9  201.72   12.34
   9   6   9  200.91   11.33
  -9  -6 -10  324.63    8.17
   9   6  10  317.04   15.58
   9   6  10  318.15   10.54
   9   6  10  310.20   14.38
   9   6  11  303.59   10.96
  -9  -6 -11  321.43    9.49
   9   6  11  332.05   16.12
   9   6  11  306.61   14.49
   9   6  12  119.90    7.34
   9   6  12  104.90    9.23
   9   6  12  111.90    8.95
   9   6  13   98.54    7.05
   9   6  13   97.12    8.98
   9   6  13  105.48    8.92
   9   6  14    6.31    2.77
   9   6  14    2.55    1.73
   9   6  15    0.50    2.30
   9   6  15    3.63    1.80
   9   6  16   77.27    8.37
   9   6  16   71.36    7.88
   9   6  17  122.31   10.77
   9   6  17  126.73   10.80
   9   6  18  206.77   14.07
   9   6  19  144.02   11.84
  -9  -6 -19  153.78   11.50
   9   6  20   73.39    8.68
   9   7 -12   52.52    7.28
   9   7 -11   38.50    6.40
   9   7 -10   83.34    8.85
   9   7  -9   12.22    3.07
   9   7  -9    9.45    3.22
   9   7  -8    1.23    1.62
   9   7  -8   -1.93    2.60
   9   7  -7    8.76    2.59
   9   7  -7    5.60    2.44
   9   7  -6   36.05    4.39
   9   7  -6   37.21    5.55
   9   7  -5  159.11    8.46
   9   7  -5  159.57   11.07
   9   7  -4  149.00    7.42
   9   7  -4  144.29   10.35
   9   7  -3  140.35    6.53
   9   7  -3  136.70    9.95
   9   7  -2   23.37    2.47
   9   7  -2   20.73    4.18
   9   7  -1   32.79    2.21
   9   7  -1   32.27    4.86
  -9  -7   0    4.36    0.82
   9   7   0    7.95    2.52
   9   7   1   17.59    3.91
   9   7   2   58.62    6.23
   9   7   3    6.05    2.49
   9   7   4  287.38   13.50
   9   7   5    2.85    2.06
   9   7   6   26.52    4.14
   9   7   7    9.48    2.45
   9   7   8    0.52    1.81
   9   7   8   -2.42    2.14
   9   7   9    1.32    1.70
   9   7   9    1.90    1.51
  -9  -7 -10   68.43    3.33
   9   7  10   71.49    4.88
   9   7  10   61.81    7.38
   9   7  10   53.84    6.07
  -9  -7 -11    1.00    1.09
   9   7  11    1.13    1.91
   9   7  11   -0.93    1.55
   9   7  11    2.84    2.14
  -9  -7 -12  142.21    6.67
   9   7  12  132.35    7.58
   9   7  12  137.58   10.87
   9   7  12  148.01   10.36
  -9  -7 -13   19.67    2.94
   9   7  13   15.34    3.28
   9   7  13   12.20    3.80
   9   7  13   12.07    3.55
  -9  -7 -14    1.60    1.30
   9   7  14   -0.36    1.89
   9   7  14   -2.16    3.01
  -9  -7 -15    1.83    1.83
   9   7  15   -1.78    2.14
   9   7  15   -2.21    2.43
  -9  -7 -16   30.70    4.40
   9   7  16   28.78    5.41
   9   7  16   27.88    5.06
  -9  -7 -17    1.38    1.65
   9   7  17    3.92    2.62
   9   7  17    0.52    1.74
  -9  -7 -18   -1.40    2.06
   9   7  18    2.54    3.19
   9   7  19    3.79    2.90
   9   7  20    1.72    2.53
   9   8 -12   23.42    5.65
   9   8 -11   62.85    7.99
   9   8 -10  105.52   10.26
   9   8  -9  186.74   13.31
   9   8  -8   62.38    7.80
   9   8  -7   10.32    2.66
   9   8  -7    6.28    2.82
   9   8  -6    5.41    2.04
   9   8  -6    0.41    1.76
   9   8  -5   59.49    5.17
   9   8  -5   52.18    6.57
   9   8  -4  112.94    6.36
   9   8  -4  129.83   10.19
   9   8  -3  339.25    9.76
   9   8  -3  349.88   16.23
   9   8  -2  184.08    6.14
   9   8  -2  195.86   12.14
   9   8  -1  389.82    6.33
  -9  -8   1  358.28    4.85
   9   8  -1  415.47   17.26
   9   8   0  251.56   13.28
   9   8   1    4.24    2.22
   9   8   2   -0.20    1.77
   9   8   3  121.41    9.04
   9   8   4  303.77   14.13
   9   8   5  564.48   19.17
   9   8   6  463.17   19.03
   9   8   6  438.88   16.91
   9   8   7  425.52   18.47
   9   8   7  438.04   17.02
   9   8   8  340.34   16.55
   9   8   8  341.85   15.03
   9   8   9   88.38    8.72
   9   8   9   98.19    8.21
  -9  -8 -10   15.55    1.44
   9   8  10    6.29    2.69
   9   8  10   17.12    2.30
   9   8  10   12.85    3.10
  -9  -8 -11   87.76    4.29
   9   8  11   80.75    5.33
   9   8  11   92.30    9.09
   9   8  11   94.57    8.22
  -9  -8 -12  601.33   13.05
   9   8  12  556.14   14.93
   9   8  12  589.62   22.79
   9   8  12  592.79   20.75
  -9  -8 -13  277.62    9.93
   9   8  13  263.04   15.54
   9   8  13  272.03   14.27
  -9  -8 -14  313.77   11.57
   9   8  14  296.51   16.84
   9   8  14  336.86   16.06
  -9  -8 -15  110.19    7.41
   9   8  15  109.56   10.48
   9   8  15  109.76    9.48
  -9  -8 -16   65.73    6.17
   9   8  16   68.74    8.58
   9   8  16   75.68    8.17
   9   8  17    3.96    2.87
   9   8  17    0.17    2.18
   9   8  18   11.84    4.23
   9   8  18    7.90    3.18
   9   8  19   46.86    7.46
   9   8  20   95.30   10.52
   9   9 -10    7.47    3.61
   9   9  -9    7.57    3.67
   9   9  -8    6.69    2.87
   9   9  -7   11.30    3.38
   9   9  -6    5.49    2.16
   9   9  -5   -0.26    1.18
   9   9  -5   -0.50    2.32
   9   9  -4   12.49    2.24
   9   9  -4   20.47    4.49
   9   9  -3    3.22    1.08
   9   9  -3    1.53    1.84
   9   9  -2    1.65    0.72
   9   9  -2    2.79    2.38
   9   9  -1   15.08    1.02
   9   9  -1   24.63    4.66
   9   9   0    4.35    2.22
   9   9   1   -1.06    1.95
   9   9   2   -3.11    2.47
   9   9   3   14.65    3.60
   9   9   4   -1.30    2.13
   9   9   5   19.93    4.26
   9   9   5   23.84    4.09
   9   9   6    2.03    1.85
   9   9   6   -0.21    1.65
   9   9   7    7.47    2.81
   9   9   7    9.75    2.80
   9   9   8   35.63    5.67
   9   9   8   37.45    5.33
   9   9   9    1.36    2.68
   9   9   9    0.73    1.83
  -9  -9 -10    0.89    0.44
   9   9  10    2.65    2.74
   9   9  10   -3.29    2.58
  -9  -9 -11    2.20    0.84
   9   9  11    0.92    2.14
   9   9  11   -2.69    2.73
  -9  -9 -12   17.94    2.31
   9   9  12   10.41    2.65
   9   9  12   10.05    2.99
  -9  -9 -13   13.87    2.24
   9   9  13   15.23    3.98
   9   9  13   13.45    3.32
   9   9  14   14.89    4.19
   9   9  14   10.95    3.29
   9   9  15    7.44    3.65
   9   9  15    4.33    2.15
   9   9  16    0.99    2.53
   9   9  16   -1.54    2.70
   9   9  17   -0.22    2.46
   9   9  17   -1.71    2.46
   9   9  18    8.04    3.79
   9   9  18    6.75    3.21
   9   9  19   -2.24    3.17
   9  10  -9   59.02    7.83
   9  10  -8  165.40   13.01
   9  10  -7  251.53   15.83
   9  10  -6  164.79   12.67
   9  10  -5   89.28    9.19
   9  10  -4   38.11    5.71
   9  10  -3    1.77    2.33
   9  10  -2    9.50    3.31
   9  10  -1  301.76   15.53
   9  10   0  322.17   15.84
   9  10   1  361.67   16.65
   9  10   2  283.40   14.55
   9  10   3  148.23   10.43
   9  10   4    6.40    2.63
   9  10   5    4.69    2.41
   9  10   5   -0.20    1.65
   9  10   6   65.31    7.53
   9  10   6   55.49    6.33
   9  10   7  193.37   12.97
   9  10   7  191.58   11.81
   9  10   8  314.19   16.78
   9  10   8  289.42   14.39
   9  10   9  406.21   19.29
   9  10   9  418.69   17.37
   9  10  10  217.72   14.36
   9  10  10  230.52   13.01
   9  10  11  118.88   10.85
   9  10  11  113.99    9.29
   9  10  12   24.88    5.39
   9  10  12   19.83    4.08
   9  10  13   -0.78    2.43
   9  10  13   -2.59    2.06
   9  10  14   11.83    4.10
   9  10  14   16.72    3.86
   9  10  15  117.34   11.61
   9  10  15  120.16    9.99
   9  10  16  100.11   10.66
   9  10  16   88.83    8.67
   9  10  17  119.64   11.91
   9  10  17  120.61   10.41
   9  10  18  119.76   12.23
   9  10  18  129.63   11.03
   9  11  -8    1.77    1.97
   9  11  -7    3.51    2.72
   9  11  -6    7.67    3.48
   9  11  -5    9.06    3.08
   9  11  -4   30.73    5.66
   9  11  -3    0.24    1.94
   9  11  -2    0.81    2.13
   9  11  -1   -0.35    2.05
   9  11   0    1.11    2.15
   9  11   1    7.44    2.99
   9  11   2   63.36    7.17
   9  11   3   25.90    4.81
   9  11   4   34.09    5.67
   9  11   4   23.36    4.35
   9  11   5    5.34    3.18
   9  11   5    2.88    2.06
   9  11   6    3.91    2.05
   9  11   6    4.30    2.25
   9  11   7   11.24    3.68
   9  11   7   14.79    3.58
   9  11   8   56.72    7.54
   9  11   8   51.57    6.34
   9  11   9   13.19    3.92
   9  11   9   18.28    4.16
   9  11  10  128.03   11.34
   9  11  10  114.07    9.40
   9  11  11   18.89    4.94
   9  11  11   12.69    3.24
   9  11  12   25.42    5.76
   9  11  12   24.66    4.40
   9  11  13    4.61    2.93
   9  11  13    2.76    2.33
   9  11  14   -0.64    2.18
   9  11  14   -3.13    3.04
   9  11  15   -2.43    2.90
   9  11  15   -3.30    2.63
   9  11  16    3.13    2.68
   9  11  16    2.14    2.28
   9  11  17   30.46    5.67
   9  11  18   37.20    6.08
   9  12  -6   38.46    6.44
   9  12  -5  124.17   11.60
   9  12  -4  195.01   13.92
   9  12  -3  290.04   16.79
   9  12  -2  152.53   11.97
   9  12  -1   34.81    6.01
   9  12   0   12.35    3.77
   9  12   1   18.01    4.15
   9  12   2  170.83   12.07
   9  12   3  259.57   15.47
   9  12   3  247.78   14.18
   9  12   4  340.15   17.83
   9  12   4  329.88   16.29
   9  12   5  155.38   12.12
   9  12   5  163.08   11.38
   9  12   6  154.34   12.24
   9  12   6  165.92   11.56
   9  12   7   57.39    7.58
   9  12   7   45.65    6.15
   9  12   8    0.35    3.35
   9  12   8    3.41    2.33
   9  12   9    7.02    3.17
   9  12   9    8.42    3.08
   9  12  10  112.93   11.15
   9  12  10  104.47    9.26
   9  12  11  150.17   12.84
   9  12  11  153.63   11.19
   9  12  12  195.67   14.89
   9  12  12  175.10   11.96
   9  12  13  141.70   13.28
   9  12  13  153.29   11.24
   9  12  14   68.36    9.14
   9  12  14   50.08    6.58
   9  12  15    2.71    2.41
   9  12  15    6.78    2.86
   9  12  16   14.03    3.72
   9  12  17   27.03    5.05
   9  12  18   11.77    4.13
   9  13  -5   18.84    4.90
   9  13  -4   41.36    6.73
   9  13  -3   21.13    5.25
   9  13  -2  111.63   10.51
   9  13  -1   90.26    9.37
   9  13   0   50.39    6.94
   9  13   1    9.65    3.25
   9  13   2    0.97    1.87
   9  13   3   62.46    7.49
   9  13   3   64.45    8.07
   9  13   4   50.21    6.81
   9  13   4   47.43    7.07
   9  13   5   50.60    7.24
   9  13   5   56.00    7.07
   9  13   6   78.37    9.09
   9  13   6   81.56    8.34
   9  13   7  179.64   13.61
   9  13   7  181.19   12.24
   9  13   8   73.47    8.86
   9  13   8   64.69    7.33
   9  13   9   27.04    5.33
   9  13   9   17.39    4.13
   9  13  10    1.10    2.88
   9  13  10    0.25    3.80
   9  13  11   42.32    7.09
   9  13  11   37.89    5.74
   9  13  12   51.81    8.02
   9  13  12   44.43    6.18
   9  13  13  110.52   11.68
   9  13  13  108.61    9.65
   9  13  14   93.66    9.07
   9  13  15   70.09    8.00
   9  13  16   66.06    7.79
   9  13  17    4.11    2.95
   9  14  -3   44.04    7.06
   9  14  -2   35.72    5.98
   9  14  -1  147.90   12.15
   9  14   0  136.85   11.61
   9  14   1   44.22    6.77
   9  14   2   31.19    5.50
   9  14   2   16.61    4.36
   9  14   3   11.13    3.71
   9  14   3   11.12    3.77
   9  14   4    2.09    2.56
   9  14   4   -0.78    1.98
   9  14   5   17.86    4.46
   9  14   5   20.86    4.45
   9  14   6  113.78   11.18
   9  14   6  105.53    9.67
   9  14   7  133.80   12.12
   9  14   7  114.66   10.01
   9  14   8   79.95    9.49
   9  14   8   81.05    8.43
   9  14   9   49.92    7.73
   9  14   9   30.45    5.24
   9  14  10   16.82    4.83
   9  14  10   16.60    4.06
   9  14  11    2.94    3.15
   9  14  11    1.48    2.21
   9  14  12   -2.28    2.17
   9  14  13   16.50    4.14
   9  14  14   10.84    3.42
   9  14  15   35.40    5.66
   9  14  16   25.76    5.16
   9  15   0  112.97   10.80
   9  15   1  161.70   12.77
   9  15   2  177.52   13.87
   9  15   2  170.48   13.07
   9  15   3  171.67   13.58
   9  15   3  177.56   13.08
   9  15   4  120.71   11.62
   9  15   4  122.26   10.81
   9  15   5    8.68    3.33
   9  15   5    1.99    3.26
   9  15   6   24.05    5.57
   9  15   6   24.44    5.18
   9  15   7   54.45    7.87
   9  15   7   54.70    7.02
   9  15   8  259.21   17.30
   9  15   8  248.95   14.83
   9  15   9  264.33   17.87
   9  15   9  270.14   15.56
   9  15  10  220.34   14.13
   9  15  11   91.70    9.20
   9  15  12    4.35    2.92
   9  15  13    1.34    2.18
   9  15  14   21.12    4.79
   9  16   2   12.23    4.32
   9  16   3   16.75    4.43
   9  16   3   13.51    3.90
   9  16   4    0.93    1.96
   9  16   4   -2.65    2.77
   9  16   5    5.73    3.70
   9  16   5   -1.80    2.39
   9  16   6   -1.56    2.34
   9  16   6    3.12    1.87
   9  16   7    1.21    2.55
   9  16   8    3.00    1.76
   9  16   9    1.16    1.87
   9  16  10    1.46    1.93
   9  16  11   21.92    5.03
   9  16  12   -0.30    2.32
   9  16  13   11.91    4.09
   9  17   8    4.54    2.43
   9  17   9    4.24    2.60
   9  17  10   79.66    8.94
 -10  10 -11   64.81    8.89
 -10  10 -12  105.24   10.92
  10  -9   0   -1.39    2.53
  10  -9   1   -0.90    1.97
  10  -9   2    5.24    3.25
 -10   9  -9   -1.64    2.52
 -10   9 -10    0.89    2.30
 -10   9 -11    1.64    2.99
 -10   9 -12    6.95    2.98
 -10   9 -13   13.62    4.59
  10  -8  -2   99.98   10.39
  10  -8  -1  155.34   12.74
  10  -8   0  169.15   13.07
  10  -8   1  173.89   13.17
  10  -8   2  160.51   12.57
 -10   8  -3   35.29    6.01
 -10   8  -4    3.72    2.38
 -10   8  -5   -3.26    2.44
 -10   8  -6   51.63    7.16
 -10   8  -7  119.64   10.71
 -10   8  -7  128.63    9.50
 -10   8  -8  194.53   13.76
 -10   8  -8  190.44   12.16
 -10   8  -9  176.24   13.31
 -10   8  -9  151.62   11.58
 -10   8 -10   63.15    8.13
 -10   8 -10   56.19    7.49
 -10   8 -11   33.41    6.70
 -10   8 -12    5.59    3.47
 -10   8 -13   10.10    3.91
 -10   8 -14   19.45    5.14
  10  -7  -4    8.77    3.50
  10  -7  -3    2.46    2.48
  10  -7  -2    2.23    1.99
  10  -7  -1    2.21    2.08
  10  -7   0   31.14    5.40
  10  -7   1   49.59    6.82
  10  -7   2   22.91    4.60
 -10   7  -3   68.98    8.02
  10  -7   3   54.98    7.25
 -10   7  -4   11.36    3.48
 -10   7  -5   24.73    4.86
 -10   7  -6   -3.78    2.78
 -10   7  -6    1.97    1.88
 -10   7  -7   43.26    6.33
 -10   7  -7   41.12    5.37
 -10   7  -8   79.38    8.62
 -10   7  -8   52.42    6.38
 -10   7  -9   32.67    5.90
 -10   7  -9   34.78    5.50
 -10   7 -10   62.03    7.81
 -10   7 -10   54.63    7.29
 -10   7 -11   24.37    5.27
 -10   7 -12   10.19    4.02
 -10   7 -13    2.64    3.17
 -10   7 -14    2.11    1.93
  10  -6  -5  114.73   11.06
  10  -6  -4  153.28   12.39
  10  -6  -3  104.27   10.11
  10  -6  -2   35.50    5.93
  10  -6  -1   28.37    5.80
  10  -6   0    6.08    2.60
  10  -6   1   61.11    7.15
  10  -6   2   60.15    7.18
 -10   6  -3  110.39    9.66
  10  -6   3  108.53    9.51
 -10   6  -4  128.00   10.25
 -10   6  -4  114.01    7.30
 -10   6  -5  154.85   11.32
 -10   6  -5  143.74    8.87
 -10   6  -6   56.36    7.00
 -10   6  -6   61.16    6.24
 -10   6  -7    2.57    1.98
 -10   6  -7    2.35    1.27
 -10   6  -8    0.70    1.79
 -10   6  -8    4.91    2.47
 -10   6  -9   55.40    7.09
 -10   6  -9   40.33    6.08
 -10   6 -10   56.75    7.40
 -10   6 -10   49.58    7.04
 -10   6 -11   67.16    8.31
 -10   6 -12   78.80    9.19
 -10   6 -13   75.35    9.34
 -10   6 -14   31.81    6.34
 -10   6 -15   20.32    5.54
  10  -5  -7    3.21    2.69
  10  -5  -6    3.45    2.99
  10  -5  -5    8.18    3.58
  10  -5  -4   47.88    6.95
  10  -5  -3  119.39   10.36
  10  -5  -2  123.48   10.38
  10  -5  -1   57.52    7.04
  10  -5   0   20.56    4.24
  10  -5   1   -1.36    1.96
  10  -5   2   14.10    3.50
 -10   5  -3   17.12    3.86
 -10   5  -3   22.50    3.17
  10  -5   3   25.79    4.54
 -10   5  -4  149.21   10.73
 -10   5  -4  155.36    8.72
 -10   5  -5  177.79   11.65
 -10   5  -5  168.32    9.86
 -10   5  -6  157.03   11.12
 -10   5  -6  160.91   10.18
 -10   5  -7   68.04    7.23
 -10   5  -7   69.25    7.03
 -10   5  -8   39.95    5.76
 -10   5  -8   43.25    5.77
 -10   5  -9   10.16    3.20
 -10   5  -9   10.08    2.86
 -10   5 -10   42.01    6.36
 -10   5 -11   29.36    5.72
 -10   5 -12  163.16   12.98
 -10   5 -13  157.16   13.16
 -10   5 -14  104.94   11.12
 -10   5 -15   65.33    9.33
 -10   5 -16    3.09    3.22
  10  -4  -8   53.07    8.03
  10  -4  -7   22.07    5.20
  10  -4  -6   23.26    5.01
  10  -4  -5    8.13    3.33
  10  -4  -4    0.19    1.97
  10  -4  -3   15.42    3.91
  10  -4  -2   88.10    8.61
  10  -4  -1   42.80    5.79
  10  -4   0   79.29    7.70
  10  -4   1   47.83    5.97
 -10   4  -2    2.09    1.09
  10  -4   2    6.01    1.92
 -10   4  -3    3.05    1.33
  10  -4   3    5.06    2.14
 -10   4  -4   80.87    7.76
 -10   4  -4   81.35    6.44
 -10   4  -5   10.17    3.43
 -10   4  -5   11.19    2.89
 -10   4  -6  152.49   10.45
 -10   4  -6  132.82    9.33
 -10   4  -7   33.74    4.96
 -10   4  -7   28.61    4.61
 -10   4  -8   13.35    3.47
 -10   4  -8   19.48    4.18
 -10   4  -9   20.27    4.15
 -10   4  -9   31.69    5.28
 -10   4 -10   -0.22    2.78
 -10   4 -11    6.14    2.96
 -10   4 -12   14.47    3.80
 -10   4 -13    2.18    3.28
 -10   4 -14   -1.19    2.83
 -10   4 -15    4.75    3.32
 -10   4 -16   44.17    7.50
  10  -3  -9   58.44    8.36
  10  -3  -8   90.07    9.79
  10  -3  -7   64.02    8.03
  10  -3  -6  138.87   11.40
  10  -3  -5   45.69    6.38
  10  -3  -4    2.58    1.83
  10  -3  -3    0.80    1.65
  10  -3  -3   -1.83    2.04
  10  -3  -2   28.95    4.75
  10  -3  -2   27.15    3.80
  10  -3  -1  152.83   10.31
  10  -3  -1  153.53    8.97
  10  -3   0  186.52   11.12
 -10   3   0  191.78    9.83
  10  -3   0  177.50    9.91
 -10   3  -1  226.27   10.81
  10  -3   1  214.66   11.77
 -10   3  -1  228.71    8.25
  10  -3   1  234.62   11.62
  10  -3   2  147.62    9.57
 -10   3  -2  152.34    7.78
  10  -3   2  153.12    9.52
  10  -3   3   91.12    7.57
 -10   3  -3   95.29    6.79
  10  -3   3   94.34    7.74
 -10   3  -4   -0.49    1.71
  10  -3   4    2.00    1.59
 -10   3  -5   17.22    3.43
  10  -3   5   17.25    3.75
 -10   3  -5   24.53    4.07
 -10   3  -6  129.11    9.31
 -10   3  -6  124.66    9.08
 -10   3  -7  248.91   12.97
 -10   3  -7  263.15   13.73
 -10   3  -8  358.08   15.78
 -10   3  -8  330.17   16.10
 -10   3  -9  210.65   12.28
 -10   3  -9  185.84   12.47
 -10   3 -10  188.33   12.97
 -10   3 -11   46.17    6.64
 -10   3 -12    8.80    2.91
 -10   3 -13   10.30    4.37
 -10   3 -14   36.73    6.90
 -10   3 -15  178.40   14.56
 -10   3 -16  132.70   12.71
  10  -2  -9   15.11    4.47
  10  -2  -8   -0.31    2.18
  10  -2  -7   44.66    6.67
  10  -2  -6   30.78    5.52
  10  -2  -5   17.04    4.26
  10  -2  -4   -0.45    2.14
  10  -2  -4    2.18    1.42
  10  -2  -3   10.59    3.25
  10  -2  -3    8.48    2.22
  10  -2  -2    3.72    2.21
  10  -2  -2   -0.52    1.88
  10  -2  -1   -1.53    1.75
 -10   2   1   -4.76    2.37
  10  -2  -1   -2.41    2.14
  10  -2   0    0.57    1.23
 -10   2   0    3.76    1.44
  10  -2   0    4.42    1.74
 -10   2   0    3.90    1.15
  10  -2   1   27.39    4.12
  10  -2   1   20.88    3.63
 -10   2  -1   24.28    2.99
 -10   2  -2    6.40    2.33
  10  -2   2   12.16    2.94
  10  -2   2   10.03    2.75
 -10   2  -2    4.36    1.67
 -10   2  -3   17.90    3.22
  10  -2   3   26.04    4.01
  10  -2   3   19.73    3.55
 -10   2  -3   26.72    3.71
 -10   2  -4   17.67    3.35
 -10   2  -4   19.22    3.67
  10  -2   4   12.03    2.98
 -10   2  -4   11.96    3.03
 -10   2  -5    3.88    1.77
 -10   2  -5    4.65    1.95
  10  -2   5    2.62    1.39
 -10   2  -5    1.81    1.40
 -10   2  -6    6.72    2.17
 -10   2  -6   16.07    3.40
  10  -2   6   15.30    3.27
 -10   2  -6    6.40    2.76
 -10   2  -7    2.43    1.75
 -10   2  -7    2.88    1.63
  10  -2   7    2.04    1.78
 -10   2  -7    4.03    2.28
 -10   2  -8   10.91    2.63
 -10   2  -8    5.29    2.13
  10  -2   8    4.82    2.26
 -10   2  -8    6.51    2.56
 -10   2  -9    4.85    2.96
 -10   2 -10    1.82    2.22
 -10   2 -11    0.13    1.96
 -10   2 -12   17.66    4.22
 -10   2 -13    1.96    2.43
 -10   2 -14   -0.06    2.91
 -10   2 -15    3.07    2.13
 -10   2 -16    0.50    2.72
 -10   2 -17   25.28    6.00
  10  -1 -10   63.12    8.50
  10  -1  -9    9.74    3.86
  10  -1  -8    8.97    3.85
  10  -1  -7   71.27    8.15
  10  -1  -6   82.36    8.44
  10  -1  -5  118.50    9.51
  10  -1  -5  118.77    7.76
  10  -1  -4  308.70   14.66
  10  -1  -4  271.82   11.82
  10  -1  -3  231.49   12.30
  10  -1  -3  241.55   11.23
  10  -1  -2  176.45   10.38
  10  -1  -2  159.55    9.19
  10  -1  -1   16.02    3.18
 -10   1   1   18.40    3.21
  10  -1  -1   17.62    3.00
 -10   1   1   16.61    2.28
  10  -1   0   -1.30    1.73
 -10   1   0   -1.56    1.00
  10  -1   0   -0.79    1.45
 -10   1   0   -0.84    1.14
 -10   1  -1   48.88    5.09
  10  -1   1   55.61    5.48
 -10   1  -1   60.87    4.40
  10  -1   1   61.96    5.98
 -10   1  -1   55.64    4.86
  10  -1   2  287.20   11.95
 -10   1  -2  278.41   11.63
  10  -1   2  283.72   12.82
 -10   1  -2  274.24   11.21
  10  -1   3  455.53   14.97
 -10   1  -3  433.76   14.33
 -10   1  -3  468.50   16.17
  10  -1   3  445.41   16.23
 -10   1  -3  432.87   14.84
 -10   1  -4  464.53   14.75
 -10   1  -4  486.82   16.47
  10  -1   4  494.60   17.39
 -10   1  -4  468.81   16.13
 -10   1  -5  208.09    9.88
 -10   1  -5  220.68   11.13
  10  -1   5  208.10   11.49
 -10   1  -5  205.36   11.24
 -10   1  -6  194.45    9.64
 -10   1  -6  186.08   10.33
  10  -1   6  201.23   11.50
 -10   1  -6  183.98   11.04
 -10   1  -7   16.23    2.92
 -10   1  -7   16.03    3.25
  10  -1   7   27.12    5.22
 -10   1  -7   20.91    3.93
 -10   1  -8    0.50    1.40
 -10   1  -8    3.63    1.77
  10  -1   8    7.17    2.63
 -10   1  -8    3.45    2.08
 -10   1  -9  110.88    7.72
 -10   1  -9   88.42    8.52
  10  -1   9  114.02    9.21
 -10   1 -10  190.68   10.28
 -10   1 -10  198.42   13.13
  10  -1  10  210.40   12.72
 -10   1 -11  300.68   16.75
 -10   1 -12  310.86   17.54
 -10   1 -13  203.80   14.50
 -10   1 -14   45.13    7.17
 -10   1 -15    9.68    3.81
 -10   1 -16    6.37    3.84
 -10   1 -17   35.02    6.96
  10   0 -10   -3.22    3.50
  10   0  -9    2.18    2.32
  10   0  -8    1.00    2.19
  10   0  -7    9.45    3.15
  10   0  -6    3.19    1.69
  10   0  -5    0.21    1.48
  10   0  -5   -0.12    1.10
  10   0  -4    8.61    2.92
  10   0  -4    8.68    2.42
  10   0  -3   17.31    3.34
  10   0  -3   15.60    3.38
  10   0  -2   14.84    3.15
  10   0  -2   12.68    2.90
  10   0  -1    4.74    1.91
 -10   0   1    3.87    1.17
  10   0  -1    5.07    2.19
  10   0   0    5.28    1.72
 -10   0   0    4.24    1.88
 -10   0   0    4.80    1.17
  10   0   0    2.86    1.34
  10   0   1    2.89    1.44
 -10   0  -1    2.36    1.28
 -10   0  -1    1.89    1.17
  10   0   1   -0.92    2.36
  10   0   2   -0.76    1.60
 -10   0  -2   -1.85    1.49
  10   0   2   -2.97    2.52
  10   0   3   91.92    6.35
 -10   0  -3   81.26    5.83
 -10   0  -3   93.70    7.03
  10   0   3   95.32    7.47
 -10   0  -4   33.33    3.84
 -10   0  -4   37.05    4.52
  10   0   4   33.76    4.64
 -10   0  -5   11.86    2.44
 -10   0  -5    8.62    2.35
  10   0   5   11.61    2.88
 -10   0  -6   39.62    4.13
 -10   0  -6   49.62    5.22
  10   0   6   46.39    5.73
 -10   0  -7   32.05    3.89
 -10   0  -7   27.42    3.98
  10   0   7   23.31    4.05
 -10   0  -8    2.21    1.61
  10   0   8    0.17    1.46
 -10   0  -8   -2.89    2.30
 -10   0  -9   -1.82    1.91
  10   0   9    0.03    1.82
 -10   0  -9    0.96    1.55
 -10   0 -10   -0.85    1.40
  10   0  10    1.16    1.80
 -10   0 -10   -0.73    1.78
 -10   0 -11    5.03    2.32
  10   0  11    3.18    1.69
 -10   0 -11    7.71    2.86
 -10   0 -12   53.47    5.76
 -10   0 -12   34.34    5.93
 -10   0 -13   43.14    6.73
 -10   0 -14   49.08    7.52
 -10   0 -15   26.33    5.61
 -10   0 -16    1.53    2.09
 -10   0 -17    2.77    3.13
  10   1 -11   59.36    8.22
  10   1 -10   83.57    9.47
  10   1  -9  188.66   13.30
  10   1  -8   46.95    6.67
  10   1  -7   96.77    8.85
  10   1  -6   55.97    6.50
  10   1  -6   63.31    6.19
  10   1  -5    1.44    1.76
  10   1  -5   -0.28    1.19
  10   1  -4   75.27    6.82
  10   1  -4   67.89    6.23
  10   1  -3  154.60    9.31
  10   1  -3  153.73    9.42
  10   1  -2  318.41   12.80
  10   1  -2  326.45   13.63
  10   1  -1  369.66   13.07
 -10  -1   1  346.67   10.72
  10   1  -1  351.92   14.15
  10   1   0  289.37   11.19
 -10  -1   0  271.74    9.78
  10   1   0  248.41   11.90
  10   1   1  162.21    8.11
 -10  -1  -1  148.18    7.52
  10   1   1  156.16    9.55
  10   1   2   35.70    3.72
 -10  -1  -2   33.67    3.57
  10   1   2   34.63    4.57
 -10  -1  -3    0.44    1.03
 -10  -1  -3   -1.85    2.08
  10   1   3   -1.10    1.78
 -10  -1  -4    1.32    1.04
 -10  -1  -4   -0.50    2.17
  10   1   4    1.53    1.83
 -10  -1  -5  276.43    9.68
 -10  -1  -5  287.27   11.56
  10   1   5  280.42   13.19
 -10  -1  -6  288.44   10.02
 -10  -1  -6  275.58   11.56
  10   1   6  278.82   13.40
 -10  -1  -7  255.99    9.61
 -10  -1  -7  272.21   11.58
  10   1   7  267.14   13.29
 -10  -1  -8  262.08   10.01
  10   1   8  284.34   13.93
 -10  -1  -9  136.79    7.57
  10   1   9  144.33   10.14
 -10  -1 -10   43.49    4.50
  10   1  10   48.80    6.06
 -10  -1 -11   19.46    3.16
  10   1  11   18.65    4.14
 -10  -1 -11   15.53    3.75
 -10  -1 -12   40.84    4.68
  10   1  12   32.31    5.25
 -10  -1 -12   30.01    5.69
 -10  -1 -13   74.38    6.66
 -10  -1 -13   82.48    9.10
  10   1  13   84.83    8.56
 -10  -1 -14   67.42    8.74
 -10  -1 -15  114.94   11.48
 -10  -1 -16  120.26   12.16
 -10  -1 -17   41.83    7.38
  10   2 -11   -8.13    3.92
  10   2 -10    7.22    4.81
  10   2  -9   -6.31    3.12
  10   2  -8   58.66    7.30
  10   2  -7   29.50    4.90
  10   2  -7   36.31    4.89
  10   2  -6   14.77    3.35
  10   2  -6    9.44    2.40
  10   2  -5    8.54    2.64
  10   2  -5    7.95    2.48
  10   2  -4    2.51    1.41
  10   2  -4    0.85    1.31
  10   2  -3    4.84    1.95
  10   2  -3   10.35    2.71
  10   2  -2   13.25    2.70
 -10  -2   2   11.07    2.30
  10   2  -2   12.38    2.71
  10   2  -1  129.01    7.35
 -10  -2   1  116.52    6.70
  10   2  -1  115.32    8.30
  10   2   0   80.74    5.56
 -10  -2   0   81.55    5.79
  10   2   0   79.19    6.95
  10   2   1  128.97    6.71
 -10  -2  -1  113.73    6.92
  10   2   1  132.16    8.87
  10   2   2   78.63    5.13
 -10  -2  -2   87.96    6.27
  10   2   2   77.75    6.89
 -10  -2  -3   85.70    5.06
 -10  -2  -3   86.39    6.10
  10   2   3   83.91    7.17
 -10  -2  -4  116.45    5.71
 -10  -2  -4  129.40    7.36
  10   2   4  108.01    8.19
 -10  -2  -5   -0.14    1.09
 -10  -2  -5    1.55    1.10
  10   2   5    0.70    1.41
 -10  -2  -6   29.82    2.91
 -10  -2  -6   36.07    4.03
  10   2   6   26.80    4.11
 -10  -2  -7   30.44    3.00
  10   2   7   32.92    4.92
 -10  -2  -8  142.86    6.77
  10   2   8  140.50    9.82
 -10  -2  -9  261.30    9.57
  10   2   9  276.64   13.86
 -10  -2 -10  224.85    9.34
  10   2  10  230.30   12.83
 -10  -2 -11   18.81    3.15
  10   2  11   20.24    4.36
 -10  -2 -12    2.65    1.60
  10   2  12    2.89    2.13
 -10  -2 -13   14.99    3.09
  10   2  13   16.64    3.94
 -10  -2 -13   10.72    3.88
 -10  -2 -14   85.43    9.64
  10   2  14   87.06    8.70
 -10  -2 -15   59.58    8.42
 -10  -2 -16   88.25   10.29
 -10  -2 -17  140.34   13.35
 -10  -2 -18   67.03    9.56
  10   3 -10    2.53    2.30
  10   3  -9   -1.81    3.03
  10   3  -8   30.12    4.89
  10   3  -8   36.49    5.11
  10   3  -7   85.90    7.74
  10   3  -7   89.90    7.94
  10   3  -6  147.80    9.81
  10   3  -6  134.34    9.46
  10   3  -5  118.33    8.33
  10   3  -5  103.65    8.30
  10   3  -4  105.23    7.42
  10   3  -4   87.92    7.56
  10   3  -3   24.39    3.40
  10   3  -3   24.48    4.18
  10   3  -2   -1.40    1.19
 -10  -3   2    0.27    1.31
  10   3  -2    0.22    1.34
  10   3  -1    0.03    0.82
 -10  -3   1    0.68    1.26
  10   3  -1    0.98    1.25
  10   3   0   49.08    4.05
 -10  -3   0   52.60    4.93
  10   3   0   51.39    5.80
  10   3   1  170.63    7.01
 -10  -3  -1  165.54    8.72
  10   3   1  161.94   10.00
 -10  -3  -2  290.06   10.42
  10   3   2  291.36    8.67
 -10  -3  -2  287.11   11.63
  10   3   2  288.38   13.22
 -10  -3  -3  289.30   10.29
  10   3   3  278.95   13.15
 -10  -3  -4   10.25    1.52
 -10  -3  -4   11.83    2.22
  10   3   4   10.06    2.70
 -10  -3  -5    1.61    0.87
 -10  -3  -5    0.85    1.23
  10   3   5    3.20    1.94
 -10  -3  -6    4.28    1.10
  10   3   6    8.16    2.51
 -10  -3  -7    4.03    0.96
  10   3   7    6.28    2.31
 -10  -3  -8   47.16    3.46
  10   3   8   46.21    5.74
 -10  -3  -9   53.42    4.07
  10   3   9   56.29    6.26
 -10  -3 -10  197.86    8.11
  10   3  10  199.76   12.10
 -10  -3 -11   60.24    4.87
  10   3  11   53.20    6.40
 -10  -3 -12   63.04    5.30
  10   3  12   61.54    7.17
 -10  -3 -13   14.93    2.81
  10   3  13   16.51    3.89
  10   3  14    5.80    3.02
  10   3  15    2.25    1.98
 -10  -3 -15    0.29    2.31
 -10  -3 -16    5.91    3.11
 -10  -3 -17   26.21    6.27
 -10  -3 -18   40.53    7.34
  10   4  -9   -1.76    2.50
  10   4  -9   -3.03    2.85
  10   4  -8    0.28    2.05
  10   4  -8    2.49    1.60
  10   4  -7   10.33    3.08
  10   4  -7    9.90    2.84
  10   4  -6   33.75    4.65
  10   4  -6   30.46    4.70
  10   4  -5  133.92    8.53
  10   4  -5  130.79    9.56
  10   4  -4  189.83    9.54
  10   4  -4  173.48   10.83
  10   4  -3  233.88    9.92
 -10  -4   3  202.35    9.88
  10   4  -3  225.04   12.23
  10   4  -2   74.78    5.24
 -10  -4   2   61.16    5.50
  10   4  -2   62.21    6.52
  10   4  -1   73.64    4.83
 -10  -4   1   66.52    5.72
  10   4  -1   61.06    6.33
  10   4   0    0.24    0.81
 -10  -4   0   -0.45    1.15
  10   4   0    1.87    1.58
  10   4   1   53.29    3.46
 -10  -4  -1   47.20    4.86
  10   4   1   49.89    5.68
 -10  -4  -2  258.69    9.12
 -10  -4  -2  264.57   11.52
  10   4   2  259.16   12.85
 -10  -4  -3  321.81   10.05
 -10  -4  -3  339.12   13.21
  10   4   3  325.21   14.34
 -10  -4  -4  497.14   12.59
  10   4   4  504.27   17.84
  10   4   5  145.03    9.72
 -10  -4  -6  177.12    4.37
  10   4   6  177.99   10.90
 -10  -4  -7   23.75    1.82
  10   4   7   27.67    4.35
 -10  -4  -8    0.47    0.68
  10   4   8    1.49    1.71
 -10  -4  -9   99.81    4.66
  10   4   9   96.05    8.19
 -10  -4 -10  108.51    5.46
  10   4  10  107.18    8.79
 -10  -4 -11  241.85    8.84
  10   4  11  242.50   13.40
 -10  -4 -12  178.59    8.21
  10   4  12  177.35   11.75
  10   4  13  110.82    9.50
  10   4  14  107.94    9.67
  10   4  15   20.83    4.57
  10   4  16    8.09    3.46
 -10  -4 -16    4.89    3.08
 -10  -4 -17   99.87   11.44
  10   5  -9   32.58    5.31
  10   5  -8   21.71    4.54
  10   5  -7   -1.91    2.29
  10   5  -7   -0.72    1.66
  10   5  -6    6.36    2.33
  10   5  -6    5.71    2.36
  10   5  -5   44.46    4.91
  10   5  -5   36.26    5.39
  10   5  -4    4.78    1.72
  10   5  -4    7.60    2.53
  10   5  -3   24.00    3.06
 -10  -5   3   19.91    3.56
  10   5  -3   16.82    3.52
  10   5  -2   59.49    4.36
 -10  -5   2   48.34    5.03
  10   5  -2   47.24    5.80
  10   5  -1   26.34    2.68
 -10  -5   1   28.68    4.00
  10   5  -1   26.00    4.19
  10   5   0   21.35    2.16
 -10  -5   0   20.45    3.32
  10   5   0   20.26    3.92
 -10  -5  -1    2.85    1.15
 -10  -5  -1    3.23    1.83
  10   5   1    3.65    2.47
 -10  -5  -2    5.28    1.38
  10   5   2    4.66    2.28
 -10  -5  -3   13.02    1.98
  10   5   3    9.41    2.56
  10   5   4    5.10    2.54
  10   5   5  134.60    9.47
  10   5   6   19.43    3.81
  10   5   7   69.63    6.99
  10   5   8   47.94    5.89
 -10  -5  -9    2.16    0.67
  10   5   9   -0.93    2.49
 -10  -5 -10    1.48    0.71
  10   5  10    1.46    1.95
 -10  -5 -11   15.09    2.04
  10   5  11    9.13    2.75
  10   5  12    0.85    1.66
  10   5  13   10.57    3.29
  10   5  14    2.15    2.09
  10   5  15    1.92    2.62
  10   5  16   13.04    3.81
  10   6 -10   72.30    8.27
  10   6  -9   82.14    8.66
  10   6  -8   92.77    9.11
  10   6  -7  182.39   12.30
  10   6  -6   54.99    6.76
  10   6  -5    8.56    2.17
  10   6  -5    6.48    2.02
  10   6  -4   33.86    3.90
  10   6  -4   38.82    5.66
  10   6  -3   65.14    4.72
  10   6  -3   55.55    6.58
  10   6  -2  361.56    9.87
  10   6  -2  350.31   15.92
  10   6  -1  308.17    7.84
  10   6  -1  325.50   15.18
  10   6   0  252.63    5.45
  10   6   0  259.41   13.50
 -10  -6  -1  244.58    7.30
  10   6   1  246.70   13.00
 -10  -6  -2   47.91    3.16
  10   6   2   48.25    5.83
  10   6   3   24.13    4.29
  10   6   4   45.19    5.64
  10   6   5  132.35    9.54
  10   6   6  486.71   18.22
  10   6   7  615.75   20.46
  10   6   8  269.61   13.80
  10   6   9  165.25   10.93
 -10  -6 -10   33.41    2.11
 -10  -6 -10   30.51    1.99
  10   6  10   38.34    5.55
 -10  -6 -11    1.81    0.81
  10   6  11    0.21    1.96
  10   6  12   11.94    2.40
  10   6  12   16.62    3.82
  10   6  13  179.39   12.76
  10   6  13  201.20   12.71
  10   6  14  185.92   13.07
  10   6  14  215.53   13.49
  10   6  15  210.88   14.10
  10   6  15  229.28   14.16
  10   6  16  107.51   10.33
  10   6  16  118.17   10.46
  10   6  17   98.88   10.08
  10   6  17  108.18   10.13
  10   6  18   10.79    4.11
  10   6  19   14.06    4.49
  10   7 -10    4.29    3.21
  10   7  -9    2.14    2.69
  10   7  -8   23.41    4.93
  10   7  -7    3.44    3.11
  10   7  -6    6.19    2.46
  10   7  -5    6.07    2.65
  10   7  -4    1.97    1.97
  10   7  -3   -1.80    2.44
  10   7  -2   11.98    2.83
  10   7  -1    8.37    2.82
 -10  -7   0    3.64    0.88
  10   7   0    8.09    2.93
 -10  -7  -1   21.16    1.67
  10   7   1   17.59    3.84
  10   7   2    2.43    2.34
  10   7   3   13.75    3.29
  10   7   4   27.15    4.59
  10   7   5   18.96    4.10
  10   7   6    8.67    2.80
  10   7   7   23.37    4.24
  10   7   8    5.17    2.10
  10   7   9   25.92    4.55
  10   7  10    0.30    2.03
  10   7  11    8.27    2.83
  10   7  11    8.49    2.81
  10   7  12   -0.12    2.13
  10   7  12   -3.98    2.48
  10   7  13    6.98    2.57
  10   7  13    6.67    2.75
  10   7  14    2.53    2.78
  10   7  14    9.81    3.26
  10   7  15   10.43    4.27
  10   7  15    8.03    3.20
  10   7  16   25.39    5.19
  10   7  16   38.63    6.11
  10   7  17   -3.04    2.31
  10   7  17    0.95    1.79
  10   7  18   19.20    4.61
  10   7  18   28.78    5.50
  10   7  19    0.27    2.82
  10   7  20   -2.32    3.89
  10   8 -10   -1.96    2.35
  10   8  -9  -10.34    3.59
  10   8  -8   86.05    9.29
  10   8  -7  204.49   13.90
  10   8  -6  145.46   11.48
  10   8  -5  177.83   12.61
  10   8  -4  122.51   10.36
  10   8  -3   99.87    9.22
  10   8  -2    1.98    2.17
  10   8  -1   -0.60    2.51
  10   8   0  197.24   12.40
  10   8   1  197.89   12.31
  10   8   2  424.37   17.78
  10   8   3  222.54   12.92
  10   8   4  308.45   15.05
  10   8   5   38.11    5.53
  10   8   6   24.52    4.38
  10   8   7    8.15    2.95
  10   8   8   76.37    7.67
  10   8   9  207.12   13.83
  10   8   9  205.90   12.42
  10   8  10  280.94   16.10
  10   8  10  296.92   14.96
  10   8  11  237.83   14.97
  10   8  11  239.90   13.74
  10   8  12   62.39    7.89
  10   8  12   71.25    7.60
  10   8  13   50.71    7.21
  10   8  13   50.64    6.71
  10   8  14    1.83    2.90
  10   8  14   -1.58    2.36
  10   8  15    3.80    3.09
  10   8  15   -1.31    2.77
  10   8  16   65.60    8.43
  10   8  16   51.56    7.03
  10   8  17   57.62    8.15
  10   8  17   88.63    9.38
  10   8  18   92.14   10.09
  10   8  18  101.81   10.03
  10   8  19   55.89    8.27
  10   8  20   46.59    7.97
  10   9  -9   -0.29    3.69
  10   9  -8    0.71    2.14
  10   9  -7    1.89    1.71
  10   9  -6    0.02    1.74
  10   9  -5    3.20    2.81
  10   9  -4   31.70    5.79
  10   9  -3    2.21    1.86
  10   9  -2    9.84    3.35
  10   9  -1   12.23    3.81
  10   9   0   -2.51    2.82
  10   9   1    1.64    1.77
  10   9   2   21.18    4.30
  10   9   3  131.51   10.12
  10   9   4   28.21    4.93
  10   9   5   36.31    7.07
  10   9   6    7.07    2.74
  10   9   7   14.43    3.52
  10   9   8   -0.31    2.23
  10   9   8   -0.93    2.58
  10   9   9   40.08    6.27
  10   9   9   41.31    5.96
  10   9  10    6.73    3.31
  10   9  10    4.78    2.37
  10   9  11  211.89   14.48
  10   9  11  240.59   13.86
  10   9  12   20.84    4.93
  10   9  12   32.62    5.36
  10   9  13  121.50   11.29
  10   9  13  122.54   10.13
  10   9  14   30.14    5.71
  10   9  14   20.74    4.34
  10   9  15    6.19    3.13
  10   9  15    2.25    2.24
  10   9  16    6.06    3.17
  10   9  16   -0.93    1.92
  10   9  17   24.81    5.90
  10   9  17   19.39    4.99
  10   9  18   40.08    7.23
  10   9  18   43.47    6.57
  10  10  -7   17.25    4.53
  10  10  -6    5.32    2.21
  10  10  -5   32.23    5.62
  10  10  -4   81.35    8.86
  10  10  -3   96.38    9.57
  10  10  -2  265.73   15.47
  10  10  -1  181.86   12.65
  10  10   0   91.70    8.99
  10  10   1    7.91    2.90
  10  10   2    8.05    3.22
  10  10   3   43.36    6.03
  10  10   4   71.73    7.68
  10  10   5  184.00   11.98
  10  10   6  214.00   12.97
  10  10   7  172.31   12.90
  10  10   7  181.00   11.90
  10  10   8   40.88    6.54
  10  10   8   45.69    6.26
  10  10   9    2.52    2.49
  10  10   9    2.80    1.91
  10  10  10   12.14    3.45
  10  10  10   10.14    3.14
  10  10  11    7.07    4.06
  10  10  11    4.68    1.94
  10  10  12  117.07   11.45
  10  10  12  107.28    9.48
  10  10  13   68.50    8.95
  10  10  13   74.07    8.04
  10  10  14   50.48    7.68
  10  10  14   45.59    6.65
  10  10  15   62.75    8.77
  10  10  15   50.87    7.02
  10  10  16    5.03    2.63
  10  10  16    7.41    3.24
  10  10  17    3.63    3.02
  10  10  17    4.20    2.70
  10  10  18   -1.31    3.22
  10  11  -6   25.25    5.76
  10  11  -5    3.89    3.46
  10  11  -4    5.15    2.90
  10  11  -3   63.33    8.01
  10  11  -2  125.45   11.15
  10  11  -1   92.00    9.40
  10  11   0  241.29   14.81
  10  11   1   68.48    7.83
  10  11   2   17.21    4.21
  10  11   3    3.24    2.42
  10  11   4    3.26    2.05
  10  11   5   68.66    7.75
  10  11   6  212.22   14.59
  10  11   6  226.59   13.68
  10  11   7  114.91   11.09
  10  11   7  110.86    9.54
  10  11   8  169.93   13.21
  10  11   8  170.57   11.87
  10  11   9  119.97   11.22
  10  11   9  112.60    9.67
  10  11  10   17.88    4.82
  10  11  10    9.00    3.41
  10  11  11    4.04    2.23
  10  11  11    3.41    2.35
  10  11  12   42.09    7.04
  10  11  12   30.29    5.44
  10  11  13   92.10   10.30
  10  11  13   84.95    8.60
  10  11  14   95.52   10.70
  10  11  14   94.47    9.21
  10  11  15   88.80   10.47
  10  11  15  105.47    9.87
  10  11  16  140.44   11.42
  10  11  17   62.58    7.91
  10  12  -4    3.73    2.12
  10  12  -3    3.05    2.65
  10  12  -2    4.98    2.21
  10  12  -1   45.25    6.72
  10  12   0   36.08    6.11
  10  12   1   67.95    8.00
  10  12   2   77.39    8.65
  10  12   3   13.52    3.59
  10  12   4   30.60    5.34
  10  12   5   10.19    3.43
  10  12   5   17.54    4.12
  10  12   6   -2.11    3.02
  10  12   6    2.24    2.20
  10  12   7   50.75    7.58
  10  12   7   49.39    6.70
  10  12   8   28.75    5.60
  10  12   8   33.52    5.68
  10  12   9   39.89    6.73
  10  12   9   32.95    5.56
  10  12  10   56.80    8.20
  10  12  10   54.07    6.98
  10  12  11   10.23    3.74
  10  12  11    2.17    2.31
  10  12  12   -2.61    3.06
  10  12  12   -3.53    2.55
  10  12  13    2.93    2.47
  10  12  13    4.46    2.37
  10  12  14    1.60    2.19
  10  12  15    0.52    2.30
  10  12  16    4.17    2.42
  10  12  17   12.84    4.33
  10  13  -2   20.25    4.60
  10  13  -1    6.21    3.18
  10  13   0   41.60    6.71
  10  13   1  138.53   11.61
  10  13   2  193.11   13.66
  10  13   3  237.39   14.92
  10  13   4  182.76   12.93
  10  13   5   24.01    5.84
  10  13   5   25.50    5.01
  10  13   6   21.53    4.95
  10  13   6   30.96    5.51
  10  13   7   21.16    5.40
  10  13   7   23.01    4.63
  10  13   8  121.30   11.66
  10  13   8  142.96   11.30
  10  13   9  198.16   15.02
  10  13   9  217.07   13.93
  10  13  10  144.22   13.01
  10  13  10  140.99   11.28
  10  13  11  224.31   16.32
  10  13  11  254.46   15.13
  10  13  12   49.58    6.87
  10  13  13   39.33    5.89
  10  13  14    0.43    2.00
  10  13  15    2.78    2.53
  10  13  16   60.27    7.88
  10  14   0   -0.06    2.51
  10  14   1   -0.82    2.02
  10  14   2   -9.41    3.37
  10  14   3    1.05    1.95
  10  14   4    0.53    2.13
  10  14   4    1.80    2.18
  10  14   5    3.98    2.15
  10  14   5    3.40    1.74
  10  14   6    3.40    1.89
  10  14   6   11.99    3.57
  10  14   7    9.98    3.91
  10  14   7    8.62    3.36
  10  14   8   -0.79    3.30
  10  14   8    3.54    2.11
  10  14   9    1.87    3.14
  10  14   9    4.68    2.38
  10  14  10  -10.82    3.47
  10  14  11   12.73    3.79
  10  14  12    3.60    1.86
  10  14  13    2.98    2.37
  10  14  14   -4.59    3.54
  10  15   4   74.39    8.75
  10  15   4  103.70   11.16
  10  15   5  178.04   14.46
  10  15   5  161.67   12.75
  10  15   6  153.61   13.59
  10  15   6  139.28   11.76
  10  15   7   86.41    9.26
  10  15   8  102.66   10.21
  10  15   9    7.25    2.87
  10  15  10    1.98    2.07
  10  15  11   89.58    9.41
  10  15  12   56.36    7.48
  11  -8   1    5.95    2.52
  11  -8   2    7.11    2.88
 -11   8 -11   31.85    5.86
 -11   8 -12   23.86    5.44
 -11   8 -13   29.35    6.25
  11  -7  -2   75.23    9.13
  11  -7  -1   83.40    9.46
  11  -7   0   50.41    7.20
  11  -7   1    8.41    2.93
  11  -7   2    0.23    2.97
 -11   7  -3   -8.93    3.29
 -11   7  -4   11.64    3.33
 -11   7  -5   36.58    6.11
 -11   7  -6  105.24   10.03
 -11   7  -7  169.21   12.86
 -11   7  -8   95.15    9.75
 -11   7  -9   12.63    4.07
 -11   7  -9   17.37    4.52
 -11   7 -10    4.27    2.99
 -11   7 -11    4.23    3.41
 -11   7 -12    4.89    2.25
 -11   7 -13   72.03    9.17
 -11   7 -14   54.27    8.62
  11  -6  -3   17.08    4.79
  11  -6  -2   31.91    5.82
  11  -6  -1    8.28    3.53
  11  -6   0   28.58    5.43
  11  -6   1   45.42    6.75
  11  -6   2   53.08    7.21
 -11   6  -3    5.57    2.45
 -11   6  -4   -2.64    1.87
 -11   6  -5   13.68    3.76
 -11   6  -6    2.74    2.11
 -11   6  -7   -1.94    2.58
 -11   6  -7   -0.08    1.55
 -11   6  -8   26.97    4.98
 -11   6  -8   22.96    4.61
 -11   6  -9   42.36    6.48
 -11   6  -9   22.92    5.10
 -11   6 -10    4.34    2.46
 -11   6 -10    5.67    2.93
 -11   6 -11    3.16    3.42
 -11   6 -12    5.56    2.97
 -11   6 -13   -0.16    2.21
 -11   6 -14   -2.85    3.28
  11  -5  -5   74.64    8.95
  11  -5  -4   78.78    9.24
  11  -5  -3   24.55    5.17
  11  -5  -2    2.42    2.48
  11  -5  -1   23.97    4.81
  11  -5   0   68.47    8.05
  11  -5   1  112.56    9.95
  11  -5   2  133.91   10.76
 -11   5  -3  156.43   11.56
 -11   5  -4   78.00    8.29
 -11   5  -5   38.42    6.00
 -11   5  -6    3.63    2.19
 -11   5  -6    3.72    1.71
 -11   5  -7   39.69    5.92
 -11   5  -7   34.52    5.16
 -11   5  -8   74.28    8.24
 -11   5  -8   80.24    7.91
 -11   5  -9  128.27   10.87
 -11   5  -9  117.03   10.20
 -11   5 -10  157.98   12.03
 -11   5 -10  149.95   11.96
 -11   5 -11  109.57   10.40
 -11   5 -12   40.84    7.14
 -11   5 -13   10.58    3.97
 -11   5 -14    0.28    2.53
 -11   5 -15   38.83    7.28
  11  -4  -6   13.12    5.02
  11  -4  -5   13.98    3.90
  11  -4  -4    2.69    2.04
  11  -4  -3    1.11    2.27
  11  -4  -2   33.54    5.76
  11  -4  -1   -2.55    2.53
  11  -4   0    3.63    2.01
  11  -4   1   12.31    3.44
  11  -4   2    9.86    3.30
 -11   4  -3    0.55    1.86
  11  -4   3    1.40    2.50
 -11   4  -4    8.36    3.09
 -11   4  -5   -0.28    1.74
 -11   4  -5   -1.02    1.93
 -11   4  -6   15.26    3.74
 -11   4  -6    9.83    2.97
 -11   4  -7   -0.17    1.97
 -11   4  -7    3.25    1.89
 -11   4  -8    2.46    1.97
 -11   4  -8   -2.37    2.16
 -11   4  -9   -3.44    2.58
 -11   4  -9   -1.22    1.93
 -11   4 -10    4.19    2.85
 -11   4 -11    1.17    2.17
 -11   4 -12    3.73    3.51
 -11   4 -13    4.00    2.99
 -11   4 -14   -9.95    4.00
 -11   4 -15   -2.24    2.71
  11  -3  -7    7.32    4.33
  11  -3  -6    6.64    3.34
  11  -3  -5   75.24    8.60
  11  -3  -4  141.78   11.39
  11  -3  -3  178.12   12.36
  11  -3  -2  142.06   10.77
  11  -3  -1  177.53   11.76
  11  -3  -1  190.56   10.67
  11  -3   0   44.02    5.86
  11  -3   0   44.99    5.37
  11  -3   1    4.36    2.24
  11  -3   1    4.41    2.21
  11  -3   2   18.19    3.64
  11  -3   2   12.55    3.01
 -11   3  -3   88.01    8.10
  11  -3   3   95.87    8.33
 -11   3  -3   88.24    6.48
  11  -3   3  100.22    8.44
 -11   3  -4  180.84   11.57
 -11   3  -4  179.17   10.00
  11  -3   4  188.37   11.67
 -11   3  -5  171.38   11.27
 -11   3  -5  185.28   10.80
 -11   3  -6  178.72   11.55
 -11   3  -6  169.94   10.87
 -11   3  -7  107.51    9.02
 -11   3  -7  103.80    8.93
 -11   3  -8   12.70    3.33
 -11   3  -8   22.20    4.18
 -11   3  -9    1.35    1.96
 -11   3  -9    1.94    2.85
 -11   3 -10   42.47    6.53
 -11   3 -11  102.66   10.19
 -11   3 -12  144.67   12.61
 -11   3 -13  181.74   14.29
 -11   3 -14   98.06   11.14
 -11   3 -15   45.80    7.53
 -11   3 -16   -3.34    2.42
  11  -2  -8   -0.56    2.41
  11  -2  -7    0.02    2.06
  11  -2  -6   14.41    3.69
  11  -2  -5    5.80    2.72
  11  -2  -4   -1.54    2.59
  11  -2  -3    2.32    1.75
  11  -2  -2   27.25    4.89
  11  -2  -2   21.12    3.81
  11  -2  -1   18.43    3.94
  11  -2  -1   17.32    3.34
  11  -2   0   15.57    3.31
  11  -2   0   15.89    3.42
  11  -2   1   17.53    3.46
  11  -2   1   11.00    2.81
  11  -2   2    2.22    1.39
  11  -2   2    3.22    1.68
 -11   2  -2    5.66    2.14
  11  -2   3    1.24    1.42
 -11   2  -3    0.26    1.70
  11  -2   3   -0.98    2.07
 -11   2  -3    1.08    1.31
 -11   2  -4   -2.29    2.22
  11  -2   4    0.48    1.76
 -11   2  -4   -0.22    1.44
 -11   2  -5   14.03    3.46
  11  -2   5   17.82    3.83
 -11   2  -5   13.35    3.56
 -11   2  -6   88.77    7.93
 -11   2  -6   69.89    7.00
  11  -2   6   85.22    8.05
 -11   2  -7   26.22    4.66
  11  -2   7   28.61    4.88
 -11   2  -7   28.34    4.82
 -11   2  -8   17.11    3.74
  11  -2   8   19.88    4.32
 -11   2  -8   22.30    4.30
 -11   2  -9    7.82    2.93
 -11   2  -9   11.05    3.56
 -11   2 -10   -4.12    2.59
 -11   2 -11    2.24    2.70
 -11   2 -12   44.34    7.38
 -11   2 -13   40.49    7.17
 -11   2 -14   60.84    8.54
 -11   2 -15   63.46    9.08
 -11   2 -16   10.67    4.39
  11  -1  -8  148.08   12.40
  11  -1  -7   69.23    8.32
  11  -1  -6   79.83    8.71
  11  -1  -5   31.21    5.20
  11  -1  -4    0.66    1.64
  11  -1  -3    3.92    2.20
  11  -1  -3    1.31    1.70
  11  -1  -2  102.09    8.35
  11  -1  -2   92.24    7.52
  11  -1  -1  101.66    8.16
  11  -1  -1   88.24    7.44
  11  -1   0  164.54   10.05
  11  -1   0  158.88   10.05
  11  -1   1  188.72   10.47
  11  -1   1  168.95   10.43
 -11   1  -1  164.39    8.40
  11  -1   2   70.05    6.38
  11  -1   2   68.90    6.82
 -11   1  -2   56.39    5.32
 -11   1  -3   19.99    3.38
 -11   1  -3   25.05    4.09
  11  -1   3   26.79    4.19
 -11   1  -3   16.04    2.99
 -11   1  -4    0.33    1.43
  11  -1   4    1.78    1.46
 -11   1  -4   -2.50    1.73
 -11   1  -5   28.98    4.05
 -11   1  -5   22.31    3.82
  11  -1   5   28.54    4.52
 -11   1  -5   17.98    3.57
 -11   1  -6   45.29    5.15
 -11   1  -6   40.46    5.20
  11  -1   6   41.52    5.65
 -11   1  -6   39.28    5.46
 -11   1  -7   94.09    7.21
 -11   1  -7  103.49    8.23
 -11   1  -7   92.40    8.41
  11  -1   7  103.46    8.93
 -11   1  -8  101.15    7.63
 -11   1  -8  101.66    8.25
 -11   1  -8   90.91    8.64
  11  -1   8  106.13    9.19
 -11   1  -9  126.25   10.49
  11  -1   9  135.89   10.58
 -11   1 -10   71.30    8.30
  11  -1  10   82.53    8.49
 -11   1 -11   47.48    7.25
 -11   1 -12   -0.39    3.19
 -11   1 -13    3.34    2.99
 -11   1 -14   20.67    5.22
 -11   1 -15   23.93    5.74
 -11   1 -16   65.01    9.28
  11   0  -8    6.45    3.69
  11   0  -7   32.53    5.83
  11   0  -6   43.79    6.17
  11   0  -5   37.19    5.41
  11   0  -4   24.45    4.23
  11   0  -4   24.63    4.05
  11   0  -3    5.87    2.20
  11   0  -3   10.34    2.70
  11   0  -2    1.79    1.69
  11   0  -2    1.15    1.64
  11   0  -1   25.09    3.92
  11   0  -1   17.94    3.24
  11   0   0   62.76    5.97
  11   0   0   49.86    5.64
 -11   0  -1   76.28    6.47
  11   0   1   81.35    6.56
  11   0   1   66.77    6.60
  11   0   2   90.89    6.74
 -11   0  -2   79.07    6.34
  11   0   2   82.09    7.39
 -11   0  -3  120.12    7.52
 -11   0  -3  126.76    8.64
  11   0   3  137.61    9.64
 -11   0  -4  104.35    6.91
 -11   0  -4  116.41    8.27
  11   0   4  121.53    9.18
 -11   0  -5   -2.39    1.71
 -11   0  -5   -2.36    2.25
  11   0   5   -2.39    2.07
 -11   0  -6   -2.05    1.87
 -11   0  -6   -1.67    1.71
  11   0   6   -1.29    1.97
 -11   0  -7   59.90    5.31
 -11   0  -7   61.31    6.15
  11   0   7   53.20    6.37
 -11   0  -7   48.05    6.07
 -11   0  -8   81.82    6.37
 -11   0  -8   84.96    7.29
  11   0   8   75.67    7.77
 -11   0  -8   87.43    8.44
 -11   0  -9  102.51    7.21
 -11   0  -9  100.69    9.25
  11   0   9  112.04    9.61
 -11   0 -10  144.77    8.82
 -11   0 -10  124.84   10.69
  11   0  10  151.34   11.23
 -11   0 -11   58.08    7.67
  11   0  11   81.02    8.49
  11   0  12   58.30    7.36
 -11   0 -12   64.47    8.25
 -11   0 -13    2.53    2.63
 -11   0 -14   -1.94    3.31
 -11   0 -15   39.51    7.23
 -11   0 -16   85.29   10.44
  11   1  -7   21.57    4.84
  11   1  -6   26.17    4.96
  11   1  -5  101.00    8.62
  11   1  -5   81.96    7.30
  11   1  -4  136.28    9.47
  11   1  -4  136.97    9.37
  11   1  -3   63.65    6.32
  11   1  -3   56.62    6.14
  11   1  -2   82.94    6.85
  11   1  -2   73.08    6.96
  11   1  -1    2.77    1.54
  11   1  -1    1.98    1.93
  11   1   0    6.93    2.15
  11   1   0    5.29    2.00
  11   1   1   27.28    3.54
  11   1   1   21.91    4.02
 -11  -1  -2   43.04    4.38
  11   1   2   51.55    4.83
 -11  -1  -2   53.24    4.95
  11   1   2   47.26    5.68
 -11  -1  -3   32.23    3.67
 -11  -1  -3   29.10    4.05
  11   1   3   31.97    4.91
 -11  -1  -4   46.95    4.37
 -11  -1  -4   52.71    5.30
  11   1   4   48.47    5.88
 -11  -1  -5   32.69    3.54
 -11  -1  -5   39.01    4.63
  11   1   5   45.62    5.73
 -11  -1  -6   74.25    5.32
 -11  -1  -6   74.65    6.36
  11   1   6   79.12    7.59
 -11  -1  -7   21.49    2.92
 -11  -1  -7   23.52    3.67
  11   1   7   17.36    3.76
 -11  -1  -8    0.20    1.33
  11   1   8   -1.85    2.51
 -11  -1  -9   29.70    3.73
  11   1   9   42.72    5.90
  11   1  10   22.06    4.45
 -11  -1 -11   67.19    7.98
  11   1  11   90.65    8.84
  11   1  12   18.77    4.47
 -11  -1 -12   11.60    3.74
  11   1  13   58.69    7.45
 -11  -1 -13   54.61    7.78
 -11  -1 -14    9.62    3.52
 -11  -1 -15    0.95    2.35
 -11  -1 -16   -4.55    3.03
  11   2  -6   -1.33    1.65
  11   2  -5   30.26    4.53
  11   2  -5   26.48    4.65
  11   2  -4  157.27    9.79
  11   2  -4  148.08   10.09
  11   2  -3  222.41   11.07
  11   2  -3  194.43   11.53
  11   2  -2  128.61    8.09
  11   2  -2  105.89    8.50
  11   2  -1   50.76    4.95
  11   2  -1   31.20    4.69
  11   2   0   19.60    3.11
  11   2   0   14.77    3.28
  11   2   1    1.34    1.01
 -11  -2  -1   -1.45    1.64
  11   2   1   -1.61    2.23
 -11  -2  -2   32.41    4.12
  11   2   2   34.41    3.69
 -11  -2  -2   40.32    4.62
  11   2   2   32.34    4.70
 -11  -2  -3  138.74    8.15
  11   2   3  134.14    9.65
 -11  -2  -4  119.81    6.18
 -11  -2  -4  128.79    7.86
  11   2   4  147.90   10.12
 -11  -2  -5  226.11    8.26
 -11  -2  -5  230.92   10.46
  11   2   5  231.24   12.69
 -11  -2  -6  123.58    6.12
 -11  -2  -6  139.71    8.20
  11   2   6  139.85   10.14
 -11  -2  -7  100.12    5.63
  11   2   7  103.56    8.70
 -11  -2  -8   87.94    5.50
  11   2   8   86.99    8.23
  11   2   9   12.36    3.40
  11   2  10   22.82    4.34
  11   2  11   99.52    9.23
  11   2  12  182.39   12.64
 -11  -2 -13  158.67   12.94
  11   2  13  159.62   12.07
 -11  -2 -14   99.27   10.73
  11   2  14  124.89   10.99
 -11  -2 -15   60.48    8.44
 -11  -2 -16   18.01    5.72
 -11  -2 -17   -1.84    3.13
  11   3  -6    4.79    2.29
  11   3  -5    2.04    2.06
  11   3  -4    7.14    2.43
  11   3  -4    2.25    1.63
  11   3  -3    4.25    1.94
  11   3  -3    1.66    1.55
  11   3  -2   24.41    3.43
  11   3  -2   25.31    4.35
  11   3  -1   50.71    4.53
  11   3  -1   44.18    5.65
  11   3   0   65.05    4.93
 -11  -3   0   56.21    5.39
  11   3   0   67.14    6.95
  11   3   1   39.95    3.68
 -11  -3  -1   35.44    4.26
  11   3   1   43.63    5.58
 -11  -3  -2    7.70    2.15
 -11  -3  -2    5.60    1.94
  11   3   2    5.48    2.45
 -11  -3  -3    2.04    1.14
 -11  -3  -3   -1.76    1.97
  11   3   3   -1.00    2.25
 -11  -3  -4    3.38    1.48
  11   3   4    3.75    1.50
 -11  -3  -5   25.68    2.43
 -11  -3  -5   24.89    3.36
  11   3   5   29.78    4.87
 -11  -3  -6   25.04    2.57
 -11  -3  -6   28.70    3.73
  11   3   6   24.36    4.23
  11   3   7    2.81    2.24
  11   3   8    1.28    1.91
  11   3   9    7.62    2.62
  11   3  10    0.89    1.97
  11   3  11    1.61    1.73
  11   3  12    7.46    3.09
  11   3  13    2.16    2.12
  11   3  14    1.59    1.78
  11   3  15    2.32    1.95
 -11  -3 -15    0.01    2.26
 -11  -3 -16   -0.81    3.05
 -11  -3 -17    2.87    3.66
  11   4  -7  108.76    9.48
  11   4  -6  102.93    9.07
  11   4  -5   20.73    4.18
  11   4  -4   11.31    3.74
  11   4  -3    2.06    1.94
  11   4  -2   26.12    3.30
  11   4  -2   35.55    5.27
  11   4  -1  178.38    7.81
  11   4  -1  169.12   11.10
  11   4   0  205.27    7.80
 -11  -4   0  211.87   10.59
  11   4   0  214.03   12.37
  11   4   1  251.29    7.89
 -11  -4  -1  241.67   11.45
  11   4   1  242.73   13.19
 -11  -4  -2  255.63    9.77
  11   4   2  231.10   12.79
 -11  -4  -3  104.90    6.21
  11   4   3  120.16    9.27
 -11  -4  -4   19.89    2.87
  11   4   4   15.83    3.53
 -11  -4  -5   24.15    2.99
  11   4   5   19.61    3.70
  11   4   6   65.88    7.16
  11   4   7  266.39   14.03
  11   4   8  288.34   14.72
  11   4   9  231.77   13.44
  11   4  10  168.36   11.67
  11   4  11   25.55    4.77
  11   4  12    7.48    2.80
  11   4  13   14.19    3.72
  11   4  14   98.49    9.60
  11   4  15  185.22   13.32
 -11  -4 -16  142.53   13.52
  11   4  16  149.49   12.20
  11   5  -8   -6.69    3.48
  11   5  -7    4.88    2.60
  11   5  -6    0.65    1.98
  11   5  -5    5.76    2.63
  11   5  -4   -2.63    2.46
  11   5  -3    2.50    1.64
  11   5  -2    4.33    2.59
  11   5  -1   18.03    4.03
  11   5   0    0.81    1.90
 -11  -5  -1    0.82    1.05
  11   5   1    0.46    1.62
 -11  -5  -2    2.02    1.29
  11   5   2   -0.51    2.00
 -11  -5  -3   10.86    1.94
  11   5   3   15.09    3.83
 -11  -5  -4   14.18    2.24
  11   5   4   12.01    3.37
  11   5   5   20.74    4.03
  11   5   6   -2.08    2.25
  11   5   7   17.61    4.05
  11   5   8   45.15    5.99
  11   5   9   19.04    3.92
  11   5  10   26.05    4.78
  11   5  11    2.95    1.68
  11   5  12    8.25    2.83
  11   5  13   10.68    3.49
  11   5  14    0.35    1.75
  11   5  15   20.67    4.72
  11   5  16   25.60    5.11
  11   5  17   12.55    4.40
  11   6  -8   -4.53    2.94
  11   6  -7   17.22    4.30
  11   6  -6   48.35    6.58
  11   6  -5  175.37   12.25
  11   6  -4  264.82   14.96
  11   6  -3  118.98   10.02
  11   6  -2   47.96    6.39
  11   6  -1   15.10    3.56
 -11  -6   0    2.33    1.11
  11   6   0    0.93    2.06
 -11  -6  -1  102.87    5.19
  11   6   1  114.91    9.42
 -11  -6  -2  190.09    6.84
  11   6   2  209.04   12.72
  11   6   3  198.60   12.31
  11   6   4  211.54   12.75
  11   6   5  112.44    9.21
  11   6   6   88.49    8.27
  11   6   7   10.90    3.46
  11   6   8   10.46    3.30
  11   6   9   66.03    7.35
  11   6  10  117.84    9.92
  11   6  11  197.69   12.86
  11   6  12  105.38    9.65
  11   6  13   73.66    8.09
  11   6  14   11.30    3.40
  11   6  15   13.08    3.55
  11   6  16   -1.77    2.24
  11   6  17  104.97   10.38
  11   7  -9    8.86    4.08
  11   7  -8    5.26    3.17
  11   7  -7    1.85    2.01
  11   7  -6   -0.81    2.56
  11   7  -5    8.22    3.54
  11   7  -4    7.91    2.75
  11   7  -3   73.21    8.12
  11   7  -2   40.11    6.02
  11   7  -1   60.47    7.20
  11   7   0   21.01    4.35
  11   7   1    0.11    1.62
  11   7   2   -0.97    1.96
  11   7   3   27.71    4.96
  11   7   4   44.38    6.19
  11   7   5  127.31   10.11
  11   7   6   60.21    7.02
  11   7   7   22.03    4.45
  11   7   8    3.17    1.77
  11   7   9   -1.75    2.21
  11   7  10   22.89    4.37
  11   7  11   18.77    4.29
  11   7  12  172.85   12.23
  11   7  13   41.73    6.34
  11   7  14   44.89    6.60
  11   7  15   51.74    7.17
  11   7  16   33.72    5.94
  11   7  17    4.84    2.99
  11   7  18   12.09    4.10
  11   7  19   31.62    6.37
  11   8  -8   52.23    7.45
  11   8  -7   85.08    9.28
  11   8  -6    0.34    1.75
  11   8  -5   10.36    3.84
  11   8  -4    0.48    1.98
  11   8  -3   29.80    5.36
  11   8  -2  129.82   10.80
  11   8  -1  202.55   13.38
  11   8   0   81.45    8.40
  11   8   1   45.15    6.25
  11   8   2    5.53    2.19
  11   8   3   18.70    4.22
  11   8   4    3.28    2.11
  11   8   5   79.15    7.99
  11   8   6   86.74    8.57
  11   8   7  127.08   10.26
  11   8   8  151.11   11.14
  11   8   9   52.02    6.83
  11   8  10   10.18    3.60
  11   8  11   -4.34    3.81
  11   8  12   -0.59    2.85
  11   8  13   11.33    3.43
  11   8  14   67.63    8.61
  11   8  14   66.50    7.78
  11   8  15   38.36    6.78
  11   8  15   47.84    6.84
  11   8  16    5.97    3.00
  11   8  16    9.11    3.44
  11   8  17   10.51    4.23
  11   8  18    0.69    2.67
  11   9  -7   66.42    8.49
  11   9  -6   56.20    7.96
  11   9  -5    7.01    2.66
  11   9  -4    7.49    2.86
  11   9  -3   28.52    5.26
  11   9  -2   13.02    3.56
  11   9  -1  153.42   11.84
  11   9   0   49.55    6.78
  11   9   1  161.99   11.97
  11   9   2   80.17    8.44
  11   9   3   23.67    4.98
  11   9   4    4.58    2.69
  11   9   5   -2.24    2.67
  11   9   6   29.72    5.34
  11   9   7   71.60    7.94
  11   9   8  240.83   14.20
  11   9   9  164.18   11.89
  11   9  10   36.86    5.73
  11   9  11   50.46    6.80
  11   9  12    4.39    3.22
  11   9  12    1.23    2.17
  11   9  13    2.21    3.31
  11   9  13    1.39    2.01
  11   9  14   94.66   10.45
  11   9  14  111.49   10.15
  11   9  15  168.82   14.05
  11   9  15  177.48   13.18
  11   9  16  102.28   11.16
  11   9  16  110.31   10.55
  11   9  17   51.42    8.39
  11  10  -5   35.50    6.29
  11  10  -4   50.81    7.32
  11  10  -3   20.49    4.63
  11  10  -2    3.87    2.36
  11  10  -1   14.57    3.71
  11  10   0   61.44    7.63
  11  10   1   26.11    5.56
  11  10   2   32.20    5.62
  11  10   3   60.45    7.48
  11  10   4    9.21    3.28
  11  10   5   27.31    5.00
  11  10   6    0.15    2.21
  11  10   7    0.35    1.70
  11  10   8   10.13    3.37
  11  10   9   17.47    4.12
  11  10  10    5.23    2.72
  11  10  10    8.16    3.46
  11  10  11   32.36    6.25
  11  10  11   21.57    4.60
  11  10  12    5.49    2.79
  11  10  12   -4.19    2.89
  11  10  13   11.93    3.75
  11  10  13    6.33    3.16
  11  10  14    1.29    1.84
  11  10  14   -0.06    2.21
  11  10  15   -7.59    3.43
  11  10  15    1.56    2.44
  11  10  16    5.69    2.98
  11  11  -3  107.48   10.87
  11  11  -2   96.17   10.00
  11  11  -1   45.90    7.00
  11  11   0   -1.48    2.92
  11  11   1   28.18    5.31
  11  11   2  100.37    9.88
  11  11   3  128.40   10.90
  11  11   4  161.80   12.27
  11  11   5  195.52   13.44
  11  11   6   61.63    7.69
  11  11   7   16.30    4.37
  11  11   8    2.56    2.52
  11  11   9   30.84    5.93
  11  11   9   35.10    5.82
  11  11  10  193.89   14.90
  11  11  10  178.20   12.93
  11  11  11  177.88   14.40
  11  11  11  164.22   12.33
  11  11  12  153.41   13.71
  11  11  12  145.19   11.67
  11  11  13   85.44   10.12
  11  11  13   80.37    8.83
  11  11  14   47.04    6.91
  11  11  15    3.49    2.76
  11  12  -1   -3.37    3.22
  11  12   0   -0.08    2.29
  11  12   1    3.17    2.60
  11  12   2   -1.85    2.10
  11  12   3   13.30    3.67
  11  12   4    2.35    2.90
  11  12   5    2.86    2.03
  11  12   6    3.49    2.69
  11  12   7    4.82    2.70
  11  12   8   -0.90    2.89
  11  12   8    2.92    2.02
  11  12   9   10.31    3.92
  11  12   9    8.89    3.27
  11  12  10    3.48    2.41
  11  12  10    3.55    2.50
  11  12  11   23.51    6.23
  11  12  11    9.18    2.98
  11  12  12   -4.07    2.57
  11  12  13    1.44    1.63
  11  12  14    2.22    2.41
  11  13   2   17.35    4.38
  11  13   3    2.68    2.07
  11  13   4   30.72    5.55
  11  13   5   79.88    8.96
  11  13   6  162.09   12.70
  11  13   7  142.93   13.11
  11  13   7  143.09   11.86
  11  13   8  122.75   12.29
  11  13   8  140.61   11.83
  11  13   9   16.26    5.26
  11  13   9   17.57    4.42
  11  13  10    0.69    1.79
  11  13  11    4.09    2.02
  11  13  12   29.38    5.67
  12  -6  -1    4.70    2.84
  12  -6   0   -1.43    3.16
  12  -6   1    0.35    2.65
  12  -6   2   -3.89    1.95
 -12   6 -11   -0.01    2.74
 -12   6 -12   11.25    3.60
 -12   6 -13    3.00    2.33
  12  -5  -3   79.72    9.64
  12  -5  -2   77.75    9.16
  12  -5  -1  113.38   10.59
  12  -5   0   68.82    8.11
  12  -5   1   21.72    4.56
 -12   5  -2    6.83    2.78
  12  -5   2    4.08    3.26
 -12   5  -3   -1.49    3.07
 -12   5  -4   70.72    8.16
 -12   5  -5   74.43    8.40
 -12   5  -6  157.33   12.10
 -12   5  -7  121.84   10.75
 -12   5  -8   61.38    7.77
 -12   5  -9   18.86    4.69
 -12   5  -9    7.88    2.89
 -12   5 -10    4.22    2.60
 -12   5 -10    1.10    2.34
 -12   5 -11    4.14    2.49
 -12   5 -12   21.04    5.15
 -12   5 -13   45.16    7.44
 -12   5 -14   73.96   10.21
  12  -4  -4    1.17    2.91
  12  -4  -3    2.55    2.54
  12  -4  -2    0.53    2.23
  12  -4  -1   18.06    4.73
  12  -4   0    0.34    2.50
  12  -4   1   20.75    4.66
  12  -4   2   10.92    3.78
 -12   4  -3    7.37    3.02
 -12   4  -4    0.82    2.04
 -12   4  -5   13.52    3.90
 -12   4  -6    8.61    3.23
 -12   4  -7   24.91    4.81
 -12   4  -8   15.37    3.92
 -12   4  -8    5.01    2.40
 -12   4  -9    9.14    2.90
 -12   4  -9   10.45    3.23
 -12   4 -10   12.84    3.72
 -12   4 -11   -0.98    2.71
 -12   4 -12    5.54    3.16
 -12   4 -13   12.11    4.02
 -12   4 -14   44.11    7.74
  12  -3  -4   53.23    7.61
  12  -3  -3   -2.09    3.55
  12  -3  -2   -1.28    2.79
  12  -3  -1   22.26    5.00
  12  -3   0   39.56    6.04
  12  -3   1  118.30    9.66
  12  -3   1  106.79    8.81
  12  -3   2  126.88    9.81
  12  -3   2  131.62   10.04
 -12   3  -3   98.75    9.12
  12  -3   3   93.46    8.59
 -12   3  -4    4.27    2.44
 -12   3  -5   31.58    5.07
 -12   3  -6   17.66    3.48
 -12   3  -6   26.82    4.65
 -12   3  -7    3.98    2.07
 -12   3  -7    6.98    2.88
 -12   3  -8   63.53    7.49
 -12   3  -8   53.55    6.90
 -12   3  -9   72.37    7.95
 -12   3  -9   51.09    6.99
 -12   3 -10   85.99    9.29
 -12   3 -11   26.81    5.42
 -12   3 -12   27.73    6.30
 -12   3 -13    3.20    2.40
 -12   3 -14   -1.20    2.02
  12  -2  -4   19.35    4.96
  12  -2  -3   25.45    5.29
  12  -2  -2    4.63    2.87
  12  -2  -1   15.07    3.71
  12  -2   0    5.98    2.77
  12  -2   0    1.07    1.68
  12  -2   1   16.92    3.66
  12  -2   1    8.57    2.74
  12  -2   2   65.20    6.74
  12  -2   2   47.96    6.01
 -12   2  -3   77.03    7.78
  12  -2   3   64.68    7.13
 -12   2  -4   74.34    7.65
  12  -2   4   72.29    7.64
 -12   2  -5   89.49    8.41
 -12   2  -5   88.00    7.75
  12  -2   5   86.82    8.53
 -12   2  -6   -0.20    2.24
  12  -2   6    4.39    2.62
 -12   2  -6    0.30    1.99
 -12   2  -7    4.06    2.21
  12  -2   7    4.29    2.24
 -12   2  -7    7.89    2.88
 -12   2  -8   17.02    4.29
 -12   2  -8   17.70    4.18
 -12   2  -9   52.74    6.71
 -12   2  -9   49.31    6.80
 -12   2 -10   29.50    5.88
 -12   2 -11  122.48   11.31
 -12   2 -12   39.02    6.75
 -12   2 -13   53.33    8.05
 -12   2 -14   -4.36    3.40
 -12   2 -15   13.04    4.03
  12  -1  -3   86.97    8.44
  12  -1  -2   16.75    3.77
  12  -1  -1   45.09    5.85
  12  -1  -1   41.38    5.59
  12  -1   0    3.03    1.71
  12  -1   0    0.01    1.81
  12  -1   1    6.33    2.58
  12  -1   1    0.84    1.68
  12  -1   2    4.15    1.78
  12  -1   2    2.16    2.00
 -12   1  -3    8.74    2.91
  12  -1   3   11.19    2.90
 -12   1  -4   60.82    6.72
  12  -1   4   39.72    5.67
 -12   1  -4   58.84    6.22
 -12   1  -5   18.59    3.96
  12  -1   5   19.58    4.17
 -12   1  -5   19.88    4.08
 -12   1  -6   31.69    4.75
  12  -1   6   35.33    5.62
 -12   1  -6   34.43    5.19
 -12   1  -7   16.65    3.69
  12  -1   7   16.07    3.73
 -12   1  -7   21.80    4.32
 -12   1  -8    7.45    2.73
  12  -1   8    8.06    3.43
 -12   1  -8   14.16    3.80
  12  -1   9    4.69    1.86
 -12   1  -9    7.42    2.70
  12  -1  10    7.73    2.79
 -12   1 -10   11.82    3.86
 -12   1 -11   15.27    4.19
 -12   1 -12    6.17    3.02
 -12   1 -13   11.48    3.99
 -12   1 -14   20.24    5.67
 -12   1 -15    1.11    2.71
  12   0  -2  177.97   10.99
  12   0  -2  146.03   10.09
  12   0  -1  105.48    8.27
  12   0  -1   81.43    7.68
  12   0   0   91.81    7.51
  12   0   0   80.51    7.71
  12   0   1   10.87    2.66
  12   0   1   15.45    3.27
  12   0   2    6.63    2.41
 -12   0  -2   -0.26    1.67
  12   0   2    4.10    2.22
 -12   0  -3   -0.91    2.19
  12   0   3    1.36    1.83
 -12   0  -3    1.99    1.85
 -12   0  -4   69.29    6.80
  12   0   4   67.07    7.39
 -12   0  -4   70.64    6.89
 -12   0  -5   86.38    7.51
  12   0   5   93.21    8.73
 -12   0  -5   98.37    8.47
 -12   0  -6  181.23   10.92
  12   0   6  203.58   12.77
 -12   0  -6  174.77   11.47
 -12   0  -7  139.39    9.67
  12   0   7  152.63   11.29
 -12   0  -7  147.28   10.85
 -12   0  -8   41.50    5.43
  12   0   8   58.41    7.39
 -12   0  -8   40.95    5.98
  12   0   9   22.96    4.65
 -12   0  -9   20.49    4.51
  12   0  10    3.23    3.09
 -12   0 -10   -1.50    2.57
  12   0  11   26.51    5.18
 -12   0 -11   17.76    4.65
 -12   0 -12   68.79    8.82
 -12   0 -13  110.22   11.22
 -12   0 -14  111.94   11.71
 -12   0 -15   78.95   10.13
  12   1  -3    1.95    2.10
  12   1  -2    8.92    3.03
  12   1  -1   27.14    4.53
  12   1   0   11.60    3.38
  12   1   1   29.05    3.85
  12   1   1   21.89    4.18
  12   1   2    5.54    2.47
 -12  -1  -2    7.01    2.29
  12   1   2    3.32    2.04
 -12  -1  -3    4.76    1.79
  12   1   3   -1.33    2.07
 -12  -1  -4   -0.02    1.83
  12   1   4   -9.53    3.13
 -12  -1  -5   12.84    2.92
  12   1   5   10.16    3.39
 -12  -1  -6    1.90    1.92
  12   1   6    1.98    1.80
 -12  -1  -7    2.81    1.55
  12   1   7   -0.81    2.16
  12   1   8    1.27    2.54
  12   1   9   -1.31    2.20
 -12  -1  -9    2.23    2.28
  12   1  10   -2.18    2.29
 -12  -1 -10   -2.06    1.93
  12   1  11   -0.71    2.66
 -12  -1 -11   -0.25    2.57
  12   1  12    2.58    2.62
 -12  -1 -12   -3.70    3.63
  12   1  13   -1.81    2.70
 -12  -1 -13   -0.42    2.35
 -12  -1 -14   10.38    3.94
 -12  -1 -15   -3.94    3.24
  12   2  -4   68.25    7.30
  12   2  -3   11.16    2.98
  12   2  -2    6.23    2.56
  12   2  -1   35.38    5.18
  12   2   0   64.06    7.08
  12   2   1  135.07   10.14
 -12  -2  -2  171.05    9.68
  12   2   2  183.89   11.89
 -12  -2  -3  104.95    7.53
  12   2   3  105.35    9.04
 -12  -2  -4   66.30    5.93
  12   2   4   64.25    7.07
 -12  -2  -5   14.04    3.24
  12   2   5    7.46    2.66
 -12  -2  -6    6.49    2.03
  12   2   6    4.80    2.05
  12   2   7   29.30    5.13
  12   2   8  104.53    9.46
  12   2   9  230.89   13.91
  12   2  10  198.70   13.21
  12   2  11  101.94    9.84
  12   2  12   48.96    6.96
 -12  -2 -12   48.63    7.41
  12   2  13   -2.53    2.71
 -12  -2 -13   -2.90    2.50
  12   2  14    4.04    1.87
 -12  -2 -14   -0.69    2.85
 -12  -2 -15   29.14    6.43
  12   3  -4   -0.02    2.19
  12   3  -3    0.18    1.68
  12   3  -2    4.06    2.68
  12   3  -1    1.43    2.31
  12   3   0   -1.88    2.22
  12   3   1    1.95    1.85
 -12  -3  -2    2.98    1.62
  12   3   2   -0.75    2.77
 -12  -3  -3   10.93    2.43
  12   3   3    9.57    2.89
 -12  -3  -4    1.67    1.37
  12   3   4   -1.22    1.70
 -12  -3  -5   10.56    2.43
  12   3   5    4.54    2.14
 -12  -3  -6    3.01    1.78
  12   3   6    0.82    1.97
  12   3   7   -4.33    2.92
  12   3   8   16.24    3.98
  12   3   9    5.91    2.64
  12   3  10    9.48    3.26
  12   3  11   55.00    7.35
  12   3  12   78.21    8.63
  12   3  13   19.85    4.65
  12   3  14    4.67    2.55
 -12  -3 -14    2.64    3.11
  12   3  15   -0.72    2.24
 -12  -3 -15    2.64    2.16
  12   4  -5   56.94    7.15
  12   4  -4   72.88    7.99
  12   4  -3  100.98    9.24
  12   4  -2   67.40    7.46
  12   4  -1   65.60    7.50
  12   4   0    5.17    2.81
 -12  -4  -1    0.45    1.08
  12   4   1    1.42    2.32
 -12  -4  -2    4.18    1.35
  12   4   2    3.55    2.22
 -12  -4  -3   79.76    5.90
  12   4   3   85.08    8.36
 -12  -4  -4  127.64    7.37
  12   4   4  136.13   10.53
 -12  -4  -5  186.62    8.86
  12   4   5  187.07   12.34
  12   4   6  171.74   11.82
  12   4   7   69.72    7.70
  12   4   8   -3.27    2.92
  12   4   9   -2.72    1.83
  12   4  10   18.33    4.32
  12   4  11   67.91    7.98
  12   4  12   79.97    8.76
  12   4  13  104.80   10.15
  12   4  14   67.64    8.48
  12   4  15   35.79    6.49
  12   5  -6    1.20    2.61
  12   5  -5    8.62    3.07
  12   5  -4    2.93    2.10
  12   5  -3    7.49    3.05
  12   5  -2   60.78    7.44
  12   5  -1    5.82    2.50
  12   5   0   30.93    5.31
  12   5   1   26.42    4.75
  12   5   2    3.36    2.51
 -12  -5  -3    0.44    1.21
  12   5   3    2.52    2.42
 -12  -5  -4   33.50    3.54
  12   5   4   32.86    5.37
  12   5   5   55.68    6.84
  12   5   6  131.88   10.51
  12   5   7   41.16    6.21
  12   5   8   61.70    7.43
  12   5   9   32.41    5.40
  12   5  10   -2.18    2.93
  12   5  11   16.64    3.85
  12   5  12   17.95    4.55
  12   5  13   37.16    6.09
  12   5  14  119.98   10.95
  12   5  15   72.77    8.78
  12   6  -7   37.61    6.34
  12   6  -6   64.44    7.96
  12   6  -5   29.07    5.19
  12   6  -4    2.31    2.23
  12   6  -3    3.17    2.82
  12   6  -2   28.37    5.23
  12   6  -1   41.68    6.28
  12   6   0   94.86    9.10
  12   6   1   73.09    8.01
  12   6   2   21.30    4.29
  12   6   3   10.29    3.17
  12   6   4    2.01    2.58
  12   6   5   19.77    4.39
  12   6   6   29.83    5.18
  12   6   7   61.98    7.50
  12   6   8   89.49    8.79
  12   6   9  108.19   10.06
  12   6  10   27.00    5.39
  12   6  11    3.77    2.48
  12   6  12   -0.79    2.38
  12   6  13   28.97    5.44
  12   6  14    1.76    1.83
  12   6  15    7.14    3.44
  12   7  -7   48.61    7.37
  12   7  -6   33.74    6.10
  12   7  -5   51.03    7.11
  12   7  -4   18.55    4.62
  12   7  -3    4.17    1.75
  12   7  -2    3.17    2.55
  12   7  -1    1.83    2.07
  12   7   0   98.66    9.52
  12   7   1  122.05   10.50
  12   7   2  104.72    9.91
  12   7   3  103.83    9.68
  12   7   4   64.74    7.72
  12   7   5   -1.37    2.85
  12   7   6    1.11    2.29
  12   7   7   49.33    6.78
  12   7   8  190.12   12.94
  12   7   9  183.20   12.81
  12   7  10  163.72   12.27
  12   7  11   45.29    6.61
  12   7  12   81.10    8.89
  12   7  13    6.96    2.83
  12   7  14    1.23    1.81
  12   8  -5   20.27    4.60
  12   8  -4   35.50    6.40
  12   8  -3   38.38    6.34
  12   8  -2    7.90    3.33
  12   8  -1    0.55    1.90
  12   8   0    1.87    2.75
  12   8   1   15.86    4.27
  12   8   2   21.99    4.86
  12   8   3    8.43    3.22
  12   8   4    2.03    2.77
  12   8   5    0.35    2.02
  12   8   6   43.20    6.17
  12   8   7   -0.47    2.47
  12   8   8  -12.32    3.76
  12   8   9    1.89    1.88
  12   8  10   18.99    4.35
  12   8  11   13.32    3.60
  12   8  12    0.27    1.87
  12   8  13    8.50    3.07
  12   8  14    5.58    2.53
  12   9  -4   69.56    8.74
  12   9  -3  114.26   11.11
  12   9  -2   82.91    9.26
  12   9  -1   77.84    8.95
  12   9   0    7.00    3.14
  12   9   1   -9.84    3.43
  12   9   2   20.78    4.68
  12   9   3  100.20    9.87
  12   9   4   84.20    8.92
  12   9   5  164.32   12.41
  12   9   6  138.60   11.52
  12   9   7   44.79    6.69
  12   9   8   18.53    4.39
  12   9   9   -8.11    3.16
  12   9  10   38.08    6.33
  12   9  11   75.80    8.64
  12   9  12  112.68   10.57
  12   9  13  186.20   13.69
  12  10  -2    3.94    2.92
  12  10  -1    3.24    2.41
  12  10   0    2.11    1.97
  12  10   1   -0.77    2.85
  12  10   2   -2.49    2.89
  12  10   3    0.90    1.72
  12  10   4    7.28    3.11
  12  10   5   -1.35    2.36
  12  10   6    2.14    2.67
  12  10   7    3.18    2.49
  12  10   8   -1.94    2.24
  12  10   9    0.93    2.11
  12  10  10   10.93    3.86
  12  10  11    0.01    1.99
  12  10  12    0.18    2.22
  12  11   1  156.69   12.90
  12  11   2   87.02    9.56
  12  11   3   30.22    5.78
  12  11   4   -0.42    1.92
  12  11   5    2.58    1.86
  12  11   6   57.52    7.65
  12  11   7  160.10   12.54
  12  11   8  179.16   13.31
  12  11   9  113.48   10.60
  12  11  10   44.86    6.95
  12  11  11   15.81    3.89
  12  12   6    1.21    2.16
  12  12   7   12.72    4.27
 -13   4  -4   99.83    9.67
 -13   4  -5   42.86    6.46
 -13   4  -6   72.43    8.31
 -13   4  -7    1.48    1.93
 -13   4  -8   -2.85    2.81
 -13   4  -9    4.99    2.93
 -13   4 -11   23.46    5.29
 -13   4 -12   62.07    8.53
 -13   4 -13   53.66    8.42
 -13   3  -2    1.71    2.61
 -13   3  -3    0.45    2.27
 -13   3  -4   10.70    3.60
 -13   3  -5   -1.33    2.56
 -13   3  -6   33.31    5.69
 -13   3  -7   22.60    4.93
 -13   3  -8    8.34    3.21
 -13   3  -9   -2.67    1.89
 -13   3 -10    2.95    2.56
 -13   3 -11    0.46    3.18
 -13   3 -12    2.82    2.26
 -13   3 -13   15.92    4.89
 -13   2  -2   33.74    5.68
  13  -2   2   35.92    5.82
 -13   2  -3    1.04    2.13
  13  -2   3    2.16    2.20
 -13   2  -4    5.35    2.60
  13  -2   4    7.06    2.87
 -13   2  -5   26.37    5.03
  13  -2   5   34.57    5.85
 -13   2  -6   61.31    7.24
  13  -2   6   85.47    9.16
 -13   2  -7  119.78   10.13
 -13   2  -8   77.07    8.44
 -13   2  -8   65.28    7.93
 -13   2  -9   68.36    7.89
 -13   2  -9   62.65    7.85
 -13   2 -10   30.47    5.95
 -13   2 -11   -1.32    3.07
 -13   2 -12    3.06    2.62
 -13   2 -13   68.69    9.35
 -13   2 -14   66.83    9.83
  13  -1   1   -2.84    2.81
 -13   1  -2   -1.23    2.31
  13  -1   2    0.07    2.18
 -13   1  -3    8.48    3.29
  13  -1   3    2.10    2.15
 -13   1  -4    6.56    2.97
  13  -1   4    5.21    3.16
 -13   1  -5   -2.21    2.55
  13  -1   5   -2.36    2.74
 -13   1  -6    0.41    1.83
  13  -1   6    4.41    3.43
 -13   1  -7    5.27    2.76
  13  -1   7    1.08    1.89
 -13   1  -7    2.54    1.89
 -13   1  -8    3.93    2.68
  13  -1   8    0.25    2.19
 -13   1  -8    3.90    2.94
  13  -1   9   -6.05    2.92
 -13   1  -9    0.46    2.33
 -13   1 -10    1.91    2.82
 -13   1 -11    3.82    3.54
 -13   1 -12    7.43    3.67
 -13   1 -13    7.48    3.45
 -13   1 -14   14.19    4.95
  13   0   0   15.98    3.83
  13   0   1   46.52    6.21
 -13   0  -2   77.36    7.62
  13   0   2   90.06    8.84
 -13   0  -3   97.73    8.41
  13   0   3  107.28    9.69
 -13   0  -4  149.70   10.31
  13   0   4  151.04   11.42
 -13   0  -5   42.18    5.72
  13   0   5   54.62    7.13
 -13   0  -6    3.41    1.90
  13   0   6   -2.05    2.99
 -13   0  -6   -1.55    2.03
 -13   0  -7   -2.03    2.42
  13   0   7   -0.30    2.79
 -13   0  -7   -0.44    2.66
 -13   0  -8   19.71    3.98
  13   0   8   23.14    5.22
 -13   0  -8   11.05    2.90
  13   0   9   86.12    9.40
 -13   0  -9   67.25    8.27
 -13   0 -10   65.20    8.24
  13   0  10   77.54    8.81
 -13   0 -11   89.84   10.09
  13   0  11  133.53   11.84
 -13   0 -12   38.22    7.04
 -13   0 -13   71.47    9.54
 -13   0 -14   11.11    4.10
  13   1  -1   -0.26    1.91
  13   1   0   -1.60    2.17
 -13  -1  -1   -3.38    2.33
  13   1   1    0.35    2.05
 -13  -1  -2    4.89    2.37
  13   1   2   -3.40    3.07
 -13  -1  -3    1.86    1.92
  13   1   3    3.97    2.16
 -13  -1  -4   17.88    3.63
  13   1   4   22.66    4.88
 -13  -1  -5   35.76    5.16
  13   1   5   39.41    6.07
 -13  -1  -6    3.51    2.26
  13   1   6    2.43    1.99
 -13  -1  -7   -2.83    2.43
  13   1   7   -3.68    2.92
 -13  -1  -7   -0.35    1.92
  13   1   8   -5.12    2.84
 -13  -1  -8   -0.12    2.50
  13   1   9    9.78    3.26
 -13  -1  -9    2.21    2.75
  13   1  10   23.81    5.19
 -13  -1 -10   21.29    4.83
  13   1  11   27.77    5.70
 -13  -1 -11   23.54    5.51
  13   1  12   36.07    6.50
 -13  -1 -12   10.02    3.68
 -13  -1 -13   21.38    5.40
 -13  -1 -14   -1.41    2.62
  13   2  -2   88.69    8.67
  13   2  -1   69.53    7.85
  13   2   0   83.94    8.53
 -13  -2  -1   14.42    3.27
  13   2   1   15.14    3.62
 -13  -2  -2   -0.96    1.68
  13   2   2   -2.60    2.67
 -13  -2  -3   22.04    3.82
  13   2   3   15.96    4.11
 -13  -2  -4   45.24    5.20
  13   2   4   48.13    6.77
 -13  -2  -5   54.53    5.72
  13   2   5   65.10    7.75
 -13  -2  -6  144.51    9.34
  13   2   6  131.47   10.88
  13   2   7  156.63   11.88
  13   2   8   56.42    7.48
  13   2   9   11.13    3.41
  13   2  10    4.40    2.75
  13   2  11   13.65    4.13
 -13  -2 -11    6.88    3.06
  13   2  12   37.34    6.53
 -13  -2 -12   36.27    6.73
 -13  -2 -13   51.87    7.93
 -13  -2 -14   81.69   10.12
  13   3  -3   16.37    4.43
  13   3  -2   12.05    3.97
  13   3  -1   16.82    4.37
  13   3   0   37.00    5.75
  13   3   1   14.40    3.79
  13   3   2    2.73    1.83
 -13  -3  -3    2.11    1.18
  13   3   3   -3.74    2.97
 -13  -3  -4    2.20    1.37
  13   3   4    4.26    2.92
 -13  -3  -5   19.25    3.45
  13   3   5   15.47    4.22
 -13  -3  -6   30.77    4.24
  13   3   6   19.07    4.47
  13   3   7   92.41    9.33
  13   3   8   49.12    7.06
  13   3   9   39.08    6.39
  13   3  10   40.82    6.43
  13   3  11   14.62    4.17
  13   3  12    0.01    2.08
 -13  -3 -14   44.79    7.41
  13   4  -3    8.74    3.52
  13   4  -2    3.92    2.64
  13   4  -1   28.43    5.38
  13   4   0   28.22    5.49
  13   4   1   62.64    7.57
  13   4   2   43.11    6.25
  13   4   3   62.70    7.53
  13   4   4   17.50    4.18
  13   4   5    0.90    2.36
  13   4   6   35.14    5.70
  13   4   7   16.42    4.02
  13   4   8   46.89    6.82
  13   4   9   27.72    5.12
  13   4  10   12.81    4.01
  13   4  11    4.73    2.31
  13   4  12    6.29    2.94
  13   5  -4   51.06    7.31
  13   5  -3   29.22    5.25
  13   5  -2    9.68    2.95
  13   5  -1    5.16    3.04
  13   5   0    1.31    2.34
  13   5   1   38.09    6.02
  13   5   2  139.30   11.25
  13   5   3  131.51   10.97
  13   5   4  148.75   11.76
  13   5   5   57.24    7.28
  13   5   6   -1.23    2.25
  13   5   7    0.81    2.69
  13   5   8   40.17    6.33
  13   5   9   88.51    9.31
  13   5  10  140.36   11.77
  13   5  11  220.15   14.81
  13   5  12   58.00    7.82
  13   6  -4   11.23    3.53
  13   6  -3   13.63    3.53
  13   6  -2    9.28    3.18
  13   6  -1    7.61    3.06
  13   6   0    1.08    1.75
  13   6   1   -0.67    2.13
  13   6   2    1.17    2.05
  13   6   3    5.54    3.95
  13   6   4    0.35    1.89
  13   6   5   -1.19    2.13
  13   6   6    3.63    1.89
  13   6   7    0.59    2.33
  13   6   8   -4.24    2.90
  13   6   9   -1.69    2.89
  13   6  10   -1.84    2.69
  13   6  11    4.49    3.02
  13   6  12   -1.30    2.66
  13   7  -3   32.12    6.16
  13   7  -2  137.59   11.92
  13   7  -1   56.77    7.61
  13   7   0  141.59   11.77
  13   7   1   11.15    3.88
  13   7   2   -0.16    2.14
  13   7   3   23.05    5.10
  13   7   4   61.82    7.82
  13   7   5   99.55   10.00
  13   7   6  118.02   10.78
  13   7   7  125.05   11.07
  13   7   8   94.29    9.75
  13   7   9   36.50    6.24
  13   7  10    1.71    2.53
  13   7  11   33.63    6.27
  13   8  -1    2.37    2.84
  13   8   0   10.95    3.99
  13   8   1    1.85    1.66
  13   8   2    3.98    2.16
  13   8   3   10.91    3.78
  13   8   4    8.59    3.14
  13   8   5    2.95    2.33
  13   8   6   -0.20    2.35
  13   8   7   -0.71    1.94
  13   8   8    9.33    3.44
  13   8   9    5.30    2.43
  13   8  10   -3.34    3.60
  13   9   2  115.47   11.08
  13   9   3   88.10    9.62
  13   9   4   71.11    8.77
  13   9   5   -1.18    2.33
  13   9   6    2.41    3.31
  13   9   7   59.28    7.89
  13   9   8   97.18   10.20
 -14   2  -2   32.31    6.06
 -14   2  -3   51.08    7.18
 -14   2  -4   81.60    8.61
  14  -2   4   78.77    9.02
 -14   2  -5   77.16    8.31
  14  -2   5   89.86    9.63
 -14   2  -6   33.46    5.85
 -14   2  -7   26.86    5.15
 -14   2  -8   -1.46    3.33
 -14   2 -12   58.09    9.10
 -14   1  -1   -3.15    2.98
 -14   1  -2    8.91    3.63
 -14   1  -3    1.79    2.27
  14  -1   3   -0.60    2.53
 -14   1  -4   23.95    4.76
  14  -1   4   20.14    4.49
 -14   1  -5   25.83    4.96
  14  -1   5   17.66    4.85
 -14   1  -6    5.72    2.72
  14  -1   6    5.46    2.24
 -14   1  -7   21.96    4.91
  14  -1   7   25.37    5.35
 -14   1  -8   15.32    4.36
  14  -1   8    5.07    3.39
 -14   1 -10   -1.20    3.36
 -14   1 -11   11.01    4.19
 -14   1 -12   21.68    5.56
  14   0   2   11.04    4.24
 -14   0  -3   -0.37    2.89
  14   0   3    2.44    2.74
 -14   0  -4   -7.11    3.35
  14   0   4    2.76    2.72
 -14   0  -5   11.97    3.82
  14   0   5   16.27    4.21
 -14   0  -6   51.54    6.54
  14   0   6   56.97    7.58
 -14   0  -7   66.77    7.46
  14   0   7   50.90    7.39
  14   0   8   74.49    8.99
 -14   0  -9   29.00    6.09
 -14   0 -10    3.35    2.66
 -14   0 -11    2.96    2.73
 -14   0 -12    8.57    4.11
 -14   0 -13    6.04    3.94
  14   1   1   48.91    6.82
  14   1   2   37.99    6.28
  14   1   3   17.97    4.70
  14   1   4   11.76    3.60
  14   1   5    1.36    2.12
 -14  -1  -6    8.77    3.28
  14   1   6    3.80    2.94
 -14  -1  -7   35.01    5.46
  14   1   7   39.97    6.53
  14   1   8   56.85    7.84
 -14  -1  -8   43.64    6.98
 -14  -1  -9   68.14    8.67
 -14  -1 -10   55.07    8.08
 -14  -1 -11   30.82    6.27
 -14  -1 -12    0.29    1.94
 -14  -1 -13   -4.28    3.40
  14   2   0    0.65    2.36
  14   2   1   12.70    3.86
  14   2   2   32.03    5.78
  14   2   3   28.65    5.31
  14   2   4   16.42    3.83
  14   2   5    1.68    2.92
  14   2   6    5.39    2.21
  14   2   7    0.22    2.42
  14   2   8    0.86    2.20
 -14  -2  -9    5.68    2.74
 -14  -2 -10   11.28    4.05
 -14  -2 -11   13.53    4.24
 -14  -2 -12   11.62    3.60
  14   3  -1   24.28    5.21
  14   3   0    6.04    2.81
  14   3   1    3.07    2.74
  14   3   2   22.28    4.69
  14   3   3   72.83    8.42
  14   3   4   95.14    9.97
  14   3   5   72.40    8.61
  14   3   6   18.72    4.66
  14   3   7   29.57    5.39
  14   3   8   -0.95    2.30
 -14  -3 -12   97.48   11.03
  14   4  -1    1.61    2.61
  14   4   0    5.60    3.68
  14   4   1    3.46    3.14
  14   4   2    0.49    2.13
  14   4   3   -5.54    3.72
  14   4   4   -4.56    2.85
  14   4   5   -1.02    2.43
  14   4   6    7.31    2.88
  14   4   7   13.81    4.20
  14   4   8    2.33    2.55
  14   5  -1   82.05    9.26
  14   5   0   74.64    8.83
  14   5   1   72.61    8.68
  14   5   2   23.32    5.03
  14   5   3    1.19    2.39
  14   5   4   -1.45    2.75
  14   5   5   17.41    4.26
  14   5   6   66.96    8.46
  14   5   7  108.89   10.53
  14   6   2    2.01    2.70
  14   6   3    6.22    3.28
  14   6   4   -1.85    2.73
  14   6   5    2.37    2.81
 -15  -2 -10   -2.57    2.93
   0   0   0    0.00    0.00


TITL Er-K_auto in P-1
REM P-1 (#2 in standard setting)
CELL 0.71073  11.197867  14.512975  16.673287  86.6850  70.8554  76.5100
ZERR   35.00   0.000144   0.000212   0.000229   0.0012   0.0012   0.0012
LATT  1
SFAC C H N O Eu
UNIT 35.00 35.00 35.00 35.00 35.00
REM  CrysAlisPro recorded range (K): Min=290.7; max=290.8; aver:290.8
TEMP 18
TREF
HKLF 4
END
_computing_structure_solution     'SHELXT 2018/2 (Sheldrick, 2018)'
;
_shelx_hkl_checksum   36285

