 
data_er959
 
_audit_creation_method            'SHELXL-2018/3'
_shelx_SHELXL_version_number      '2018/3'
_chemical_name_systematic         ?
_chemical_name_common             ?
_chemical_melting_point           ?
_chemical_formula_moiety          ?
_chemical_formula_sum
 'C H Cd N O S' 
_chemical_formula_weight          187.49

loop_
 _atom_type_symbol
 _atom_type_description
 _atom_type_scat_dispersion_real
 _atom_type_scat_dispersion_imag
 _atom_type_scat_source
 'C'  'C'   0.0027   0.0018
 'International Tables Vol C Tables 4.2.6.8 and 6.1.1.4'
 'H'  'H'   0.0000   0.0000
 'International Tables Vol C Tables 4.2.6.8 and 6.1.1.4'
 'N'  'N'   0.0051   0.0037
 'International Tables Vol C Tables 4.2.6.8 and 6.1.1.4'
 'O'  'O'   0.0094   0.0069
 'International Tables Vol C Tables 4.2.6.8 and 6.1.1.4'
 'S'  'S'   0.1230   0.1390
 'International Tables Vol C Tables 4.2.6.8 and 6.1.1.4'
 'Cd'  'Cd'  -0.8902   1.3364
 'International Tables Vol C Tables 4.2.6.8 and 6.1.1.4'
 
_space_group_crystal_system       triclinic
_space_group_IT_number            2
_space_group_name_H-M_alt         'P -1'
_space_group_name_Hall            '-P 1'
 
_shelx_space_group_comment
;
The symmetry employed for this shelxl refinement is uniquely defined
by the following loop, which should always be used as a source of
symmetry information in preference to the above space-group names.
They are only intended as comments.
;
 
loop_
 _space_group_symop_operation_xyz
 'x, y, z'
 '-x, -y, -z'
 
_cell_length_a                    9.2240(18)
_cell_length_b                    13.660(3)
_cell_length_c                    14.747(3)
_cell_angle_alpha                 68.29(3)
_cell_angle_beta                  89.20(3)
_cell_angle_gamma                 72.13(3)
_cell_volume                      1632.6(7)
_cell_formula_units_Z             15
_cell_measurement_temperature     293(2)
_cell_measurement_reflns_used     ?
_cell_measurement_theta_min       ?
_cell_measurement_theta_max       ?
 
_exptl_crystal_description        ?
_exptl_crystal_colour             ?
_exptl_crystal_density_meas       ?
_exptl_crystal_density_method     ?
_exptl_crystal_density_diffrn     2.861          
_exptl_crystal_F_000              1290
_exptl_transmission_factor_min    ?
_exptl_transmission_factor_max    ?
_exptl_crystal_size_max           ?
_exptl_crystal_size_mid           ?
_exptl_crystal_size_min           ?
_exptl_absorpt_coefficient_mu     6.165
_shelx_estimated_absorpt_T_min    ?
_shelx_estimated_absorpt_T_max    ?
_exptl_absorpt_correction_type    ?
_exptl_absorpt_correction_T_min   ?
_exptl_absorpt_correction_T_max   ?
_exptl_absorpt_process_details    ?
_exptl_absorpt_special_details    ?
_diffrn_ambient_temperature       293(2)
_diffrn_radiation_wavelength      0.7527
_diffrn_radiation_type            ?
_diffrn_source                    ?
_diffrn_measurement_device_type   ?
_diffrn_measurement_method        ?
_diffrn_detector_area_resol_mean  ?
_diffrn_reflns_number             15434
_diffrn_reflns_av_unetI/netI      0.0258
_diffrn_reflns_av_R_equivalents   0.0178
_diffrn_reflns_limit_h_min        -12
_diffrn_reflns_limit_h_max        12
_diffrn_reflns_limit_k_min        -16
_diffrn_reflns_limit_k_max        16
_diffrn_reflns_limit_l_min        -20
_diffrn_reflns_limit_l_max        20
_diffrn_reflns_theta_min          1.584
_diffrn_reflns_theta_max          30.982
_diffrn_reflns_theta_full         26.848
_diffrn_measured_fraction_theta_max   0.888
_diffrn_measured_fraction_theta_full  0.913
_diffrn_reflns_Laue_measured_fraction_max    0.888
_diffrn_reflns_Laue_measured_fraction_full   0.913
_diffrn_reflns_point_group_measured_fraction_max   0.888
_diffrn_reflns_point_group_measured_fraction_full  0.913
_reflns_number_total              7779
_reflns_number_gt                 7191
_reflns_threshold_expression      'I > 2\s(I)'
_reflns_Friedel_coverage          0.000
_reflns_Friedel_fraction_max      .
_reflns_Friedel_fraction_full     .
 
_reflns_special_details
;
 Reflections were merged by SHELXL according to the crystal
 class for the calculation of statistics and refinement.
 
 _reflns_Friedel_fraction is defined as the number of unique
 Friedel pairs measured divided by the number that would be
 possible theoretically, ignoring centric projections and
 systematic absences.
;
 
_computing_data_collection        ?
_computing_cell_refinement        ?
_computing_data_reduction         ?
_computing_structure_solution     'SHELXT 2014/5 (Sheldrick, 2014)'
_computing_structure_refinement 'SHELXL-2018/3 (Sheldrick, 2018)'
_computing_molecular_graphics     ?
_computing_publication_material   ?
_refine_special_details           ?
_refine_ls_structure_factor_coef  Fsqd
_refine_ls_matrix_type            full
_refine_ls_weighting_scheme       calc
_refine_ls_weighting_details
'w=1/[\s^2^(Fo^2^)+(0.1000P)^2^] where P=(Fo^2^+2Fc^2^)/3'
_atom_sites_solution_primary      ?
_atom_sites_solution_secondary    ?
_atom_sites_solution_hydrogens    geom
_refine_ls_hydrogen_treatment     constr
_refine_ls_extinction_method      none
_refine_ls_extinction_coef        .
_refine_ls_number_reflns          7779
_refine_ls_number_parameters      481
_refine_ls_number_restraints      0
_refine_ls_R_factor_all           0.0399
_refine_ls_R_factor_gt            0.0366
_refine_ls_wR_factor_ref          0.1289
_refine_ls_wR_factor_gt           0.1244
_refine_ls_goodness_of_fit_ref    1.153
_refine_ls_restrained_S_all       1.153
_refine_ls_shift/su_max           5.931
_refine_ls_shift/su_mean          0.114
 
loop_
 _atom_site_label
 _atom_site_type_symbol
 _atom_site_fract_x
 _atom_site_fract_y
 _atom_site_fract_z
 _atom_site_U_iso_or_equiv
 _atom_site_adp_type
 _atom_site_occupancy
 _atom_site_site_symmetry_order  
 _atom_site_calc_flag
 _atom_site_refinement_flags_posn
 _atom_site_refinement_flags_adp
 _atom_site_refinement_flags_occupancy
 _atom_site_disorder_assembly
 _atom_site_disorder_group
Cd01 Cd 0.79212(2) 0.51839(2) 0.53152(2) 0.01854(8) Uani 1 1 d . . . . .
S002 S 1.10460(7) 0.22518(6) 1.04249(4) 0.02421(14) Uani 1 1 d . . . . .
S003 S 0.19235(7) 0.47444(5) 0.08438(4) 0.02239(13) Uani 1 1 d . . . . .
O004 O -0.00260(19) 0.60122(16) -0.47848(12) 0.0221(3) Uani 1 1 d . . . . .
O005 O 0.7467(2) 0.63305(17) 0.37271(12) 0.0258(4) Uani 1 1 d . . . . .
O006 O 0.62527(19) 0.50868(16) 0.40578(12) 0.0218(3) Uani 1 1 d . . . . .
O007 O -0.0989(2) 0.54221(17) -0.33707(13) 0.0251(4) Uani 1 1 d . . . . .
O008 O 0.5529(2) 0.62424(17) 0.56111(14) 0.0256(4) Uani 1 1 d . . . . .
N1 N 0.7955(2) 0.23352(18) 0.79767(14) 0.0202(4) Uani 1 1 d . . . . .
N009 N 0.7755(2) 0.36278(19) 0.65264(15) 0.0221(4) Uani 1 1 d . . . . .
C1 C 0.8593(2) -0.13043(19) 1.23902(16) 0.0180(4) Uani 1 1 d . . . . .
H1 H 0.830114 -0.164872 1.201952 0.022 Uiso 1 1 calc R U . . .
N00A N 0.8814(2) -0.02872(19) 1.20733(15) 0.0225(4) Uani 1 1 d . . . . .
O00C O -0.3082(3) 0.84265(19) -0.22958(16) 0.0356(4) Uani 1 1 d . . . . .
N00D N 0.5254(2) 0.65615(18) 0.09291(13) 0.0185(4) Uani 1 1 d . . . . .
N00E N 0.3136(2) 0.52630(19) 0.11053(14) 0.0211(4) Uani 1 1 d . . . . .
N00F N 0.1686(2) 0.53316(18) -0.03419(14) 0.0206(4) Uani 1 1 d . . . . .
N00G N 0.2006(2) 0.67112(19) -0.24037(14) 0.0203(4) Uani 1 1 d . . . . .
N00H N 1.0090(2) 0.24874(19) 0.94138(15) 0.0234(4) Uani 1 1 d . . . . .
O00I O -0.3482(3) 0.6934(2) -0.30422(18) 0.0396(5) Uani 1 1 d . . . . .
N00K N 1.0397(2) 0.13380(19) 1.12024(15) 0.0231(4) Uani 1 1 d . . . . .
N2 N 0.9288(3) -0.0963(2) 1.36791(17) 0.0323(5) Uani 1 1 d . . . . .
N3 N 0.6064(2) 0.7296(2) 0.07611(15) 0.0230(4) Uani 1 1 d . . . . .
N4 N 0.2185(3) 0.7428(2) -0.33161(15) 0.0260(4) Uani 1 1 d . . . . .
C00M C 0.7182(2) 0.2073(2) 0.73627(16) 0.0178(4) Uani 1 1 d . . . . .
H00M H 0.681475 0.147446 0.751433 0.021 Uiso 1 1 calc R U . . .
C00N C -0.0127(3) 0.5913(2) -0.38975(17) 0.0206(4) Uani 1 1 d . . . . .
C00P C 0.1145(2) 0.6089(2) -0.24770(16) 0.0192(4) Uani 1 1 d . . . . .
H00P H 0.086827 0.556282 -0.195977 0.023 Uiso 1 1 calc R U . . .
C00Q C 0.6648(2) 0.5875(2) 0.34551(16) 0.0198(4) Uani 1 1 d . . . . .
C00R C 0.0761(3) 0.6388(2) -0.34637(17) 0.0210(5) Uani 1 1 d . . . . .
C00S C 0.6629(3) 0.7118(2) 0.16482(17) 0.0219(5) Uani 1 1 d . . . . .
H00S H 0.723659 0.749858 0.176775 0.026 Uiso 1 1 calc R U . . .
C00T C 0.5333(2) 0.5940(2) 0.19019(16) 0.0189(4) Uani 1 1 d . . . . .
H00T H 0.488292 0.538946 0.218176 0.023 Uiso 1 1 calc R U . . .
C00U C 0.2605(2) 0.5972(2) -0.05950(16) 0.0182(4) Uani 1 1 d . . . . .
C00V C 0.6208(2) 0.6285(2) 0.23920(17) 0.0198(4) Uani 1 1 d . . . . .
C00W C 0.2789(2) 0.6658(2) -0.15645(16) 0.0187(4) Uani 1 1 d . . . . .
C00X C 0.7458(3) 0.0933(2) 0.93928(17) 0.0220(5) Uani 1 1 d . . . . .
H00X H 0.681283 0.083763 0.897641 0.026 Uiso 1 1 calc R U . . .
C00Y C 0.8292(3) 0.3273(2) 0.74645(17) 0.0222(5) Uani 1 1 d . . . . .
H00Y H 0.881182 0.361203 0.772449 0.027 Uiso 1 1 calc R U . . .
C00Z C 0.3437(2) 0.5934(2) 0.02430(16) 0.0181(4) Uani 1 1 d . . . . .
C011 C 0.9203(2) 0.1830(2) 0.96465(17) 0.0206(4) Uani 1 1 d . . . . .
C012 C 0.8583(3) 0.0387(2) 1.10636(16) 0.0208(4) Uani 1 1 d . . . . .
C013 C 0.3788(3) 0.7242(2) -0.16509(16) 0.0206(4) Uani 1 1 d . . . . .
H013 H 0.393203 0.768318 -0.227591 0.025 Uiso 1 1 calc R U . . .
N014 N -0.3218(3) 0.9849(2) -0.3724(2) 0.0392(6) Uani 1 1 d . . . . .
C015 C 0.9377(3) 0.1167(2) 1.06808(17) 0.0212(4) Uani 1 1 d . . . . .
C016 C 0.4455(2) 0.6568(2) 0.01153(16) 0.0180(4) Uani 1 1 d . . . . .
C017 C 0.7649(3) 0.0273(2) 1.04190(17) 0.0231(5) Uani 1 1 d . . . . .
H017 H 0.713315 -0.024324 1.065526 0.028 Uiso 1 1 calc R U . . .
C018 C 0.1448(3) 0.7209(2) -0.39466(17) 0.0251(5) Uani 1 1 d . . . . .
H018 H 0.139073 0.755522 -0.462565 0.030 Uiso 1 1 calc R U . . .
C019 C 0.8189(2) 0.1696(2) 0.90037(17) 0.0208(4) Uani 1 1 d . . . . .
C01A C 0.7088(3) 0.2875(2) 0.65060(18) 0.0242(5) Uani 1 1 d . . . . .
H01A H 0.660598 0.292346 0.593378 0.029 Uiso 1 1 calc R U . . .
C01B C -0.3656(3) 0.9410(3) -0.2832(2) 0.0310(6) Uani 1 1 d . . . . .
C01C C 0.4607(2) 0.7203(2) -0.08303(16) 0.0204(4) Uani 1 1 d . . . . .
H01C H 0.526772 0.761963 -0.093190 0.024 Uiso 1 1 calc R U . . .
C01D C 0.8898(3) -0.1672(2) 1.33514(19) 0.0284(5) Uani 1 1 d . . . . .
H01D H 0.885101 -0.236058 1.377341 0.034 Uiso 1 1 calc R U . . .
C01E C 0.9227(3) -0.0109(3) 1.28593(19) 0.0313(6) Uani 1 1 d . . . . .
H01E H 0.943846 0.052590 1.282743 0.038 Uiso 1 1 calc R U . . .
C01F C -0.4865(5) 1.0165(4) -0.2486(4) 0.0634(13) Uani 1 1 d . . . . .
H01B H -0.570639 1.059878 -0.299528 0.095 Uiso 1 1 calc R U . . .
H01F H -0.444492 1.065252 -0.233064 0.095 Uiso 1 1 calc R U . . .
H01G H -0.522108 0.972708 -0.191145 0.095 Uiso 1 1 calc R U . . .
C01G C -0.1956(6) 0.9137(4) -0.4046(4) 0.0653(13) Uani 1 1 d . . . . .
H01H H -0.145127 0.959011 -0.450980 0.098 Uiso 1 1 calc R U . . .
H01I H -0.235698 0.874899 -0.435123 0.098 Uiso 1 1 calc R U . . .
H01J H -0.123551 0.860753 -0.348871 0.098 Uiso 1 1 calc R U . . .
C01H C -0.3983(7) 1.0987(4) -0.4435(3) 0.0699(13) Uani 1 1 d . . . . .
H01K H -0.323984 1.127084 -0.481110 0.105 Uiso 1 1 calc R U . . .
H01L H -0.446532 1.145410 -0.409099 0.105 Uiso 1 1 calc R U . . .
H01M H -0.474422 1.097942 -0.486742 0.105 Uiso 1 1 calc R U . . .
 
loop_
 _atom_site_aniso_label
 _atom_site_aniso_U_11
 _atom_site_aniso_U_22
 _atom_site_aniso_U_33
 _atom_site_aniso_U_23
 _atom_site_aniso_U_13
 _atom_site_aniso_U_12
Cd01 0.02077(11) 0.02310(14) 0.01220(11) -0.00356(8) 0.00050(6) -0.01166(7)
S002 0.0239(3) 0.0280(3) 0.0201(3) -0.0055(2) 0.0036(2) -0.0122(2)
S003 0.0257(3) 0.0271(3) 0.0164(3) -0.0053(2) 0.0011(2) -0.0151(2)
O004 0.0259(8) 0.0257(10) 0.0166(7) -0.0084(6) -0.0009(6) -0.0102(6)
O005 0.0285(8) 0.0346(11) 0.0159(8) -0.0050(7) -0.0007(6) -0.0181(7)
O006 0.0221(7) 0.0261(10) 0.0178(8) -0.0064(7) 0.0019(6) -0.0112(6)
O007 0.0240(8) 0.0325(11) 0.0230(8) -0.0102(7) 0.0024(6) -0.0155(7)
O008 0.0246(8) 0.0284(10) 0.0243(9) -0.0083(7) 0.0023(6) -0.0118(7)
N1 0.0206(8) 0.0215(11) 0.0156(9) -0.0035(7) 0.0024(7) -0.0076(7)
N009 0.0238(9) 0.0241(11) 0.0163(9) -0.0047(8) 0.0040(7) -0.0086(7)
C1 0.0216(9) 0.0145(11) 0.0150(9) -0.0015(7) 0.0034(7) -0.0072(7)
N00A 0.0259(9) 0.0226(11) 0.0169(9) -0.0032(8) 0.0037(7) -0.0103(8)
O00C 0.0415(11) 0.0346(12) 0.0323(10) -0.0118(9) 0.0049(8) -0.0159(9)
N00D 0.0192(8) 0.0244(11) 0.0138(8) -0.0070(7) 0.0019(6) -0.0101(7)
N00E 0.0221(8) 0.0263(11) 0.0162(8) -0.0073(7) 0.0014(7) -0.0105(7)
N00F 0.0230(9) 0.0236(11) 0.0171(9) -0.0068(7) 0.0024(7) -0.0116(7)
N00G 0.0221(8) 0.0264(11) 0.0140(8) -0.0068(7) 0.0006(7) -0.0110(7)
N00H 0.0224(9) 0.0256(12) 0.0196(9) -0.0050(8) 0.0042(7) -0.0091(8)
O00I 0.0354(10) 0.0493(15) 0.0436(13) -0.0253(11) 0.0097(9) -0.0173(10)
N00K 0.0217(9) 0.0252(11) 0.0196(9) -0.0052(8) 0.0031(7) -0.0080(7)
N2 0.0456(13) 0.0308(13) 0.0197(10) -0.0046(9) 0.0022(9) -0.0177(10)
N3 0.0254(9) 0.0301(12) 0.0183(9) -0.0082(8) 0.0031(7) -0.0169(8)
N4 0.0329(10) 0.0321(13) 0.0158(9) -0.0054(8) -0.0001(8) -0.0191(9)
C00M 0.0222(9) 0.0192(12) 0.0122(9) -0.0038(8) 0.0018(7) -0.0097(8)
C00N 0.0207(9) 0.0227(13) 0.0178(10) -0.0070(8) -0.0010(7) -0.0072(8)
C00P 0.0189(9) 0.0248(13) 0.0164(10) -0.0087(8) 0.0010(7) -0.0096(8)
C00Q 0.0173(9) 0.0253(13) 0.0153(9) -0.0055(8) -0.0002(7) -0.0077(8)
C00R 0.0200(9) 0.0293(14) 0.0160(10) -0.0093(9) 0.0015(8) -0.0104(9)
C00S 0.0220(10) 0.0299(14) 0.0167(10) -0.0088(9) -0.0002(8) -0.0124(9)
C00T 0.0190(9) 0.0214(12) 0.0158(9) -0.0053(8) 0.0007(7) -0.0080(8)
C00U 0.0190(9) 0.0214(12) 0.0167(10) -0.0087(8) 0.0026(7) -0.0082(8)
C00V 0.0178(9) 0.0254(13) 0.0163(10) -0.0071(8) 0.0000(7) -0.0081(8)
C00W 0.0188(9) 0.0240(12) 0.0142(9) -0.0075(8) 0.0020(7) -0.0082(8)
C00X 0.0204(9) 0.0236(12) 0.0175(10) -0.0036(8) 0.0026(8) -0.0064(8)
C00Y 0.0223(10) 0.0235(13) 0.0174(10) -0.0029(8) 0.0044(8) -0.0087(8)
C00Z 0.0176(9) 0.0225(12) 0.0160(9) -0.0080(8) 0.0020(7) -0.0081(8)
C011 0.0196(9) 0.0215(12) 0.0171(10) -0.0039(8) 0.0044(7) -0.0063(8)
C012 0.0221(9) 0.0210(12) 0.0159(10) -0.0042(8) 0.0038(8) -0.0059(8)
C013 0.0223(9) 0.0254(13) 0.0144(9) -0.0057(8) 0.0016(7) -0.0103(8)
N014 0.0492(14) 0.0338(15) 0.0361(13) -0.0118(11) 0.0120(11) -0.0176(11)
C015 0.0210(9) 0.0218(12) 0.0171(10) -0.0051(8) 0.0033(8) -0.0048(8)
C016 0.0169(9) 0.0230(12) 0.0154(9) -0.0078(8) 0.0007(7) -0.0076(8)
C017 0.0244(10) 0.0228(13) 0.0188(10) -0.0032(9) 0.0053(8) -0.0093(8)
C018 0.0312(11) 0.0309(15) 0.0155(10) -0.0060(9) -0.0005(8) -0.0167(10)
C019 0.0199(9) 0.0224(12) 0.0163(10) -0.0036(8) 0.0044(8) -0.0064(8)
C01A 0.0277(11) 0.0266(13) 0.0182(10) -0.0069(9) 0.0045(8) -0.0108(9)
C01B 0.0290(12) 0.0334(16) 0.0394(15) -0.0185(12) 0.0096(10) -0.0167(10)
C01C 0.0198(9) 0.0253(13) 0.0177(10) -0.0076(9) 0.0024(7) -0.0106(8)
C01D 0.0267(11) 0.0288(14) 0.0211(11) -0.0010(10) 0.0021(9) -0.0077(9)
C01E 0.0455(15) 0.0317(16) 0.0179(11) -0.0062(10) 0.0024(10) -0.0182(11)
C01F 0.059(2) 0.050(2) 0.099(4) -0.043(2) 0.048(2) -0.0263(18)
C01G 0.085(3) 0.063(3) 0.066(3) -0.036(2) 0.051(2) -0.036(2)
C01H 0.098(4) 0.046(3) 0.052(2) 0.0042(18) -0.012(2) -0.032(2)
 
_geom_special_details
;
 All esds (except the esd in the dihedral angle between two l.s. planes)
 are estimated using the full covariance matrix.  The cell esds are taken
 into account individually in the estimation of esds in distances, angles
 and torsion angles; correlations between esds in cell parameters are only
 used when they are defined by crystal symmetry.  An approximate (isotropic)
 treatment of cell esds is used for estimating esds involving l.s. planes.
;
 
loop_
 _geom_bond_atom_site_label_1
 _geom_bond_atom_site_label_2
 _geom_bond_distance
 _geom_bond_site_symmetry_2
 _geom_bond_publ_flag
Cd01 O005 2.242(2) . ?
Cd01 N009 2.262(2) . ?
Cd01 O007 2.3652(19) 1_656 ?
Cd01 O008 2.373(2) . ?
Cd01 O004 2.451(2) 2_665 ?
Cd01 O004 2.4639(19) 1_656 ?
Cd01 O006 2.4924(19) . ?
Cd01 C00Q 2.700(2) . ?
Cd01 C00N 2.756(2) 1_656 ?
S002 N00K 1.616(2) . ?
S002 N00H 1.616(2) . ?
S003 N00E 1.613(2) . ?
S003 N00F 1.617(2) . ?
O004 C00N 1.270(3) . ?
O005 C00Q 1.265(3) . ?
O006 C00Q 1.268(3) . ?
O007 C00N 1.269(3) . ?
N1 C00Y 1.353(3) . ?
N1 C00M 1.368(3) . ?
N1 C019 1.421(3) . ?
N009 C00Y 1.330(3) . ?
N009 C01A 1.360(3) . ?
C1 C01D 1.318(3) . ?
C1 N00A 1.371(3) . ?
C1 H1 0.9300 . ?
N00A C01E 1.351(3) . ?
N00A C012 1.409(3) . ?
O00C C01B 1.225(4) . ?
N00D C00T 1.359(3) . ?
N00D N3 1.377(3) . ?
N00D C016 1.413(3) . ?
N00E C00Z 1.349(3) . ?
N00F C00U 1.351(3) . ?
N00G C00P 1.360(3) . ?
N00G N4 1.383(3) . ?
N00G C00W 1.408(3) . ?
N00H C011 1.344(3) . ?
N00K C015 1.349(3) . ?
N2 C01E 1.321(3) . ?
N2 C01D 1.366(4) . ?
N3 C00S 1.322(3) . ?
N4 C018 1.328(3) . ?
C00M C01A 1.313(3) . ?
C00M H00M 0.9300 . ?
C00N C00R 1.466(3) . ?
C00P C00R 1.377(3) . ?
C00P H00P 0.9300 . ?
C00Q C00V 1.471(3) . ?
C00R C018 1.415(4) . ?
C00S C00V 1.409(3) . ?
C00S H00S 0.9300 . ?
C00T C00V 1.377(3) . ?
C00T H00T 0.9300 . ?
C00U C00W 1.432(3) . ?
C00U C00Z 1.440(3) . ?
C00W C013 1.370(3) . ?
C00X C019 1.360(3) . ?
C00X C017 1.426(3) . ?
C00X H00X 0.9300 . ?
C00Y H00Y 0.9300 . ?
C00Z C016 1.429(3) . ?
C011 C019 1.437(3) . ?
C011 C015 1.438(3) . ?
C012 C017 1.373(3) . ?
C012 C015 1.419(3) . ?
C013 C01C 1.411(3) . ?
C013 H013 0.9300 . ?
N014 C01B 1.343(4) . ?
N014 C01H 1.468(5) . ?
N014 C01G 1.469(5) . ?
C016 C01C 1.375(3) . ?
C017 H017 0.9300 . ?
C018 H018 0.9300 . ?
C01A H01A 0.9300 . ?
C01B C01F 1.494(4) . ?
C01C H01C 0.9300 . ?
C01D H01D 0.9300 . ?
C01E H01E 0.9300 . ?
C01F H01B 0.9629 . ?
C01F H01F 0.9630 . ?
C01F H01G 0.9629 . ?
C01G H01H 0.9609 . ?
C01G H01I 0.9609 . ?
C01G H01J 0.9609 . ?
C01H H01K 0.9605 . ?
C01H H01L 0.9605 . ?
C01H H01M 0.9605 . ?
 
loop_
 _geom_angle_atom_site_label_1
 _geom_angle_atom_site_label_2
 _geom_angle_atom_site_label_3
 _geom_angle
 _geom_angle_site_symmetry_1
 _geom_angle_site_symmetry_3
 _geom_angle_publ_flag
O005 Cd01 N009 149.72(8) . . ?
O005 Cd01 O007 127.29(7) . 1_656 ?
N009 Cd01 O007 82.95(8) . 1_656 ?
O005 Cd01 O008 90.11(8) . . ?
N009 Cd01 O008 90.31(8) . . ?
O007 Cd01 O008 86.33(7) 1_656 . ?
O005 Cd01 O004 84.71(7) . 2_665 ?
N009 Cd01 O004 88.20(7) . 2_665 ?
O007 Cd01 O004 106.33(6) 1_656 2_665 ?
O008 Cd01 O004 166.96(6) . 2_665 ?
O005 Cd01 O004 79.96(7) . 1_656 ?
N009 Cd01 O004 126.77(7) . 1_656 ?
O007 Cd01 O004 54.71(6) 1_656 1_656 ?
O008 Cd01 O004 114.36(6) . 1_656 ?
O004 Cd01 O004 76.55(7) 2_665 1_656 ?
O005 Cd01 O006 55.57(7) . . ?
N009 Cd01 O006 94.56(7) . . ?
O007 Cd01 O006 167.94(6) 1_656 . ?
O008 Cd01 O006 81.87(7) . . ?
O004 Cd01 O006 85.33(6) 2_665 . ?
O004 Cd01 O006 133.37(6) 1_656 . ?
O005 Cd01 C00Q 27.73(7) . . ?
N009 Cd01 C00Q 122.14(8) . . ?
O007 Cd01 C00Q 153.99(7) 1_656 . ?
O008 Cd01 C00Q 86.76(7) . . ?
O004 Cd01 C00Q 83.09(7) 2_665 . ?
O004 Cd01 C00Q 106.41(7) 1_656 . ?
O006 Cd01 C00Q 27.90(7) . . ?
O005 Cd01 C00N 103.40(7) . 1_656 ?
N009 Cd01 C00N 106.33(8) . 1_656 ?
O007 Cd01 C00N 27.34(7) 1_656 1_656 ?
O008 Cd01 C00N 100.07(7) . 1_656 ?
O004 Cd01 C00N 92.78(7) 2_665 1_656 ?
O004 Cd01 C00N 27.43(6) 1_656 1_656 ?
O006 Cd01 C00N 158.97(7) . 1_656 ?
C00Q Cd01 C00N 131.08(8) . 1_656 ?
N00K S002 N00H 100.61(12) . . ?
N00E S003 N00F 100.96(11) . . ?
C00N O004 Cd01 123.83(15) . 2_665 ?
C00N O004 Cd01 89.19(14) . 1_454 ?
Cd01 O004 Cd01 103.45(7) 2_665 1_454 ?
C00Q O005 Cd01 96.72(14) . . ?
C00Q O006 Cd01 85.19(14) . . ?
C00N O007 Cd01 93.74(15) . 1_454 ?
C00Y N1 C00M 110.1(2) . . ?
C00Y N1 C019 129.7(2) . . ?
C00M N1 C019 120.0(2) . . ?
C00Y N009 C01A 104.2(2) . . ?
C00Y N009 Cd01 125.03(18) . . ?
C01A N009 Cd01 130.69(17) . . ?
C01D C1 N00A 102.7(2) . . ?
C01D C1 H1 128.6 . . ?
N00A C1 H1 128.7 . . ?
C01E N00A C1 109.1(2) . . ?
C01E N00A C012 130.7(2) . . ?
C1 N00A C012 120.2(2) . . ?
C00T N00D N3 111.98(19) . . ?
C00T N00D C016 129.6(2) . . ?
N3 N00D C016 118.39(19) . . ?
C00Z N00E S003 106.67(16) . . ?
C00U N00F S003 106.55(16) . . ?
C00P N00G N4 111.84(19) . . ?
C00P N00G C00W 129.4(2) . . ?
N4 N00G C00W 118.6(2) . . ?
C011 N00H S002 106.92(17) . . ?
C015 N00K S002 106.62(17) . . ?
C01E N2 C01D 103.0(2) . . ?
C00S N3 N00D 104.15(19) . . ?
C018 N4 N00G 104.2(2) . . ?
C01A C00M N1 102.8(2) . . ?
C01A C00M H00M 128.6 . . ?
N1 C00M H00M 128.6 . . ?
O004 C00N O007 122.0(2) . . ?
O004 C00N C00R 119.5(2) . . ?
O007 C00N C00R 118.5(2) . . ?
O004 C00N Cd01 63.37(13) . 1_454 ?
O007 C00N Cd01 58.91(13) . 1_454 ?
C00R C00N Cd01 173.75(17) . 1_454 ?
N00G C00P C00R 106.8(2) . . ?
N00G C00P H00P 126.6 . . ?
C00R C00P H00P 126.6 . . ?
O005 C00Q O006 122.3(2) . . ?
O005 C00Q C00V 116.6(2) . . ?
O006 C00Q C00V 121.1(2) . . ?
O005 C00Q Cd01 55.54(12) . . ?
O006 C00Q Cd01 66.92(12) . . ?
C00V C00Q Cd01 170.02(16) . . ?
C00P C00R C018 105.1(2) . . ?
C00P C00R C00N 126.4(2) . . ?
C018 C00R C00N 128.5(2) . . ?
N3 C00S C00V 112.3(2) . . ?
N3 C00S H00S 123.9 . . ?
C00V C00S H00S 123.8 . . ?
N00D C00T C00V 106.6(2) . . ?
N00D C00T H00T 126.7 . . ?
C00V C00T H00T 126.7 . . ?
N00F C00U C00W 127.4(2) . . ?
N00F C00U C00Z 112.8(2) . . ?
C00W C00U C00Z 119.8(2) . . ?
C00T C00V C00S 104.9(2) . . ?
C00T C00V C00Q 128.6(2) . . ?
C00S C00V C00Q 126.5(2) . . ?
C013 C00W N00G 120.8(2) . . ?
C013 C00W C00U 117.6(2) . . ?
N00G C00W C00U 121.6(2) . . ?
C019 C00X C017 122.1(2) . . ?
C019 C00X H00X 119.0 . . ?
C017 C00X H00X 118.9 . . ?
N009 C00Y N1 108.5(2) . . ?
N009 C00Y H00Y 125.7 . . ?
N1 C00Y H00Y 125.7 . . ?
N00E C00Z C00U 113.0(2) . . ?
N00E C00Z C016 126.4(2) . . ?
C00U C00Z C016 120.6(2) . . ?
N00H C011 C019 128.6(2) . . ?
N00H C011 C015 112.8(2) . . ?
C019 C011 C015 118.5(2) . . ?
C017 C012 N00A 121.3(2) . . ?
C017 C012 C015 118.2(2) . . ?
N00A C012 C015 120.3(2) . . ?
C00W C013 C01C 122.7(2) . . ?
C00W C013 H013 118.7 . . ?
C01C C013 H013 118.7 . . ?
C01B N014 C01H 124.2(3) . . ?
C01B N014 C01G 118.8(3) . . ?
C01H N014 C01G 117.0(3) . . ?
N00K C015 C012 125.8(2) . . ?
N00K C015 C011 113.0(2) . . ?
C012 C015 C011 121.1(2) . . ?
C01C C016 N00D 121.1(2) . . ?
C01C C016 C00Z 117.5(2) . . ?
N00D C016 C00Z 121.4(2) . . ?
C012 C017 C00X 121.1(2) . . ?
C012 C017 H017 119.4 . . ?
C00X C017 H017 119.5 . . ?
N4 C018 C00R 112.0(2) . . ?
N4 C018 H018 124.0 . . ?
C00R C018 H018 124.0 . . ?
C00X C019 N1 119.9(2) . . ?
C00X C019 C011 118.9(2) . . ?
N1 C019 C011 121.2(2) . . ?
C00M C01A N009 114.3(2) . . ?
C00M C01A H01A 122.8 . . ?
N009 C01A H01A 122.8 . . ?
O00C C01B N014 122.2(3) . . ?
O00C C01B C01F 119.7(3) . . ?
N014 C01B C01F 118.1(3) . . ?
C016 C01C C013 121.9(2) . . ?
C016 C01C H01C 119.1 . . ?
C013 C01C H01C 119.0 . . ?
C1 C01D N2 114.8(3) . . ?
C1 C01D H01D 122.6 . . ?
N2 C01D H01D 122.6 . . ?
N2 C01E N00A 110.4(3) . . ?
N2 C01E H01E 124.8 . . ?
N00A C01E H01E 124.8 . . ?
C01B C01F H01B 109.7 . . ?
C01B C01F H01F 109.9 . . ?
H01B C01F H01F 109.2 . . ?
C01B C01F H01G 109.7 . . ?
H01B C01F H01G 109.2 . . ?
H01F C01F H01G 109.2 . . ?
N014 C01G H01H 109.6 . . ?
N014 C01G H01I 109.6 . . ?
H01H C01G H01I 109.4 . . ?
N014 C01G H01J 109.5 . . ?
H01H C01G H01J 109.4 . . ?
H01I C01G H01J 109.4 . . ?
N014 C01H H01K 109.5 . . ?
N014 C01H H01L 109.5 . . ?
H01K C01H H01L 109.4 . . ?
N014 C01H H01M 109.5 . . ?
H01K C01H H01M 109.4 . . ?
H01L C01H H01M 109.4 . . ?
 
loop_
 _geom_torsion_atom_site_label_1
 _geom_torsion_atom_site_label_2
 _geom_torsion_atom_site_label_3
 _geom_torsion_atom_site_label_4
 _geom_torsion
 _geom_torsion_site_symmetry_1
 _geom_torsion_site_symmetry_2
 _geom_torsion_site_symmetry_3
 _geom_torsion_site_symmetry_4
 _geom_torsion_publ_flag
C01D C1 N00A C01E -0.3(3) . . . . ?
C01D C1 N00A C012 -179.5(2) . . . . ?
N00F S003 N00E C00Z -0.81(19) . . . . ?
N00E S003 N00F C00U 1.05(18) . . . . ?
N00K S002 N00H C011 -0.68(18) . . . . ?
N00H S002 N00K C015 0.57(19) . . . . ?
C00T N00D N3 C00S -0.4(3) . . . . ?
C016 N00D N3 C00S 178.0(2) . . . . ?
C00P N00G N4 C018 -1.5(3) . . . . ?
C00W N00G N4 C018 174.0(2) . . . . ?
C00Y N1 C00M C01A -0.2(3) . . . . ?
C019 N1 C00M C01A 175.3(2) . . . . ?
Cd01 O004 C00N O007 -100.1(2) 2_665 . . . ?
Cd01 O004 C00N O007 5.6(2) 1_454 . . . ?
Cd01 O004 C00N C00R 80.6(3) 2_665 . . . ?
Cd01 O004 C00N C00R -173.7(2) 1_454 . . . ?
Cd01 O004 C00N Cd01 -105.70(15) 2_665 . . 1_454 ?
Cd01 O007 C00N O004 -5.9(3) 1_454 . . . ?
Cd01 O007 C00N C00R 173.47(19) 1_454 . . . ?
N4 N00G C00P C00R 0.9(3) . . . . ?
C00W N00G C00P C00R -174.0(2) . . . . ?
Cd01 O005 C00Q O006 5.3(2) . . . . ?
Cd01 O005 C00Q C00V -172.89(17) . . . . ?
Cd01 O006 C00Q O005 -4.7(2) . . . . ?
Cd01 O006 C00Q C00V 173.4(2) . . . . ?
N00G C00P C00R C018 0.1(3) . . . . ?
N00G C00P C00R C00N 178.2(2) . . . . ?
O004 C00N C00R C00P -159.4(2) . . . . ?
O007 C00N C00R C00P 21.3(4) . . . . ?
O004 C00N C00R C018 18.3(4) . . . . ?
O007 C00N C00R C018 -161.0(3) . . . . ?
N00D N3 C00S C00V 0.0(3) . . . . ?
N3 N00D C00T C00V 0.7(3) . . . . ?
C016 N00D C00T C00V -177.5(2) . . . . ?
S003 N00F C00U C00W -179.8(2) . . . . ?
S003 N00F C00U C00Z -1.0(2) . . . . ?
N00D C00T C00V C00S -0.7(2) . . . . ?
N00D C00T C00V C00Q -179.7(2) . . . . ?
N3 C00S C00V C00T 0.5(3) . . . . ?
N3 C00S C00V C00Q 179.5(2) . . . . ?
O005 C00Q C00V C00T 180.0(2) . . . . ?
O006 C00Q C00V C00T 1.8(4) . . . . ?
O005 C00Q C00V C00S 1.2(4) . . . . ?
O006 C00Q C00V C00S -177.0(2) . . . . ?
C00P N00G C00W C013 170.2(2) . . . . ?
N4 N00G C00W C013 -4.5(3) . . . . ?
C00P N00G C00W C00U -8.1(4) . . . . ?
N4 N00G C00W C00U 177.2(2) . . . . ?
N00F C00U C00W C013 179.9(2) . . . . ?
C00Z C00U C00W C013 1.1(3) . . . . ?
N00F C00U C00W N00G -1.8(4) . . . . ?
C00Z C00U C00W N00G 179.5(2) . . . . ?
C01A N009 C00Y N1 0.3(3) . . . . ?
Cd01 N009 C00Y N1 178.53(14) . . . . ?
C00M N1 C00Y N009 0.0(3) . . . . ?
C019 N1 C00Y N009 -175.1(2) . . . . ?
S003 N00E C00Z C00U 0.3(2) . . . . ?
S003 N00E C00Z C016 -179.77(19) . . . . ?
N00F C00U C00Z N00E 0.4(3) . . . . ?
C00W C00U C00Z N00E 179.3(2) . . . . ?
N00F C00U C00Z C016 -179.5(2) . . . . ?
C00W C00U C00Z C016 -0.6(3) . . . . ?
S002 N00H C011 C019 -177.2(2) . . . . ?
S002 N00H C011 C015 0.6(2) . . . . ?
C01E N00A C012 C017 -155.5(3) . . . . ?
C1 N00A C012 C017 23.5(3) . . . . ?
C01E N00A C012 C015 27.7(4) . . . . ?
C1 N00A C012 C015 -153.3(2) . . . . ?
N00G C00W C013 C01C -179.3(2) . . . . ?
C00U C00W C013 C01C -1.0(3) . . . . ?
S002 N00K C015 C012 176.75(19) . . . . ?
S002 N00K C015 C011 -0.3(2) . . . . ?
C017 C012 C015 N00K -176.2(2) . . . . ?
N00A C012 C015 N00K 0.7(4) . . . . ?
C017 C012 C015 C011 0.6(3) . . . . ?
N00A C012 C015 C011 177.5(2) . . . . ?
N00H C011 C015 N00K -0.2(3) . . . . ?
C019 C011 C015 N00K 177.8(2) . . . . ?
N00H C011 C015 C012 -177.4(2) . . . . ?
C019 C011 C015 C012 0.6(3) . . . . ?
C00T N00D C016 C01C -175.1(2) . . . . ?
N3 N00D C016 C01C 6.8(3) . . . . ?
C00T N00D C016 C00Z 6.2(4) . . . . ?
N3 N00D C016 C00Z -171.9(2) . . . . ?
N00E C00Z C016 C01C 179.9(2) . . . . ?
C00U C00Z C016 C01C -0.2(3) . . . . ?
N00E C00Z C016 N00D -1.4(4) . . . . ?
C00U C00Z C016 N00D 178.5(2) . . . . ?
N00A C012 C017 C00X -177.9(2) . . . . ?
C015 C012 C017 C00X -1.1(4) . . . . ?
C019 C00X C017 C012 0.4(4) . . . . ?
N00G N4 C018 C00R 1.6(3) . . . . ?
C00P C00R C018 N4 -1.1(3) . . . . ?
C00N C00R C018 N4 -179.1(2) . . . . ?
C017 C00X C019 N1 -179.8(2) . . . . ?
C017 C00X C019 C011 0.9(4) . . . . ?
C00Y N1 C019 C00X 164.9(2) . . . . ?
C00M N1 C019 C00X -9.7(3) . . . . ?
C00Y N1 C019 C011 -15.7(4) . . . . ?
C00M N1 C019 C011 169.7(2) . . . . ?
N00H C011 C019 C00X 176.3(2) . . . . ?
C015 C011 C019 C00X -1.3(3) . . . . ?
N00H C011 C019 N1 -3.1(4) . . . . ?
C015 C011 C019 N1 179.3(2) . . . . ?
N1 C00M C01A N009 0.4(3) . . . . ?
C00Y N009 C01A C00M -0.5(3) . . . . ?
Cd01 N009 C01A C00M -178.58(17) . . . . ?
C01H N014 C01B O00C 172.9(3) . . . . ?
C01G N014 C01B O00C -3.1(5) . . . . ?
C01H N014 C01B C01F -8.2(5) . . . . ?
C01G N014 C01B C01F 175.8(4) . . . . ?
N00D C016 C01C C013 -178.3(2) . . . . ?
C00Z C016 C01C C013 0.4(3) . . . . ?
C00W C013 C01C C016 0.2(4) . . . . ?
N00A C1 C01D N2 0.5(3) . . . . ?
C01E N2 C01D C1 -0.5(3) . . . . ?
C01D N2 C01E N00A 0.3(3) . . . . ?
C1 N00A C01E N2 0.0(3) . . . . ?
C012 N00A C01E N2 179.1(2) . . . . ?
 
_refine_diff_density_max    0.844
_refine_diff_density_min   -1.492
_refine_diff_density_rms    0.099

_shelx_res_file
;
TITL er959_a.res in P-1
    er959.res
    created by SHELXL-2018/3 at 12:49:48 on 01-Dec-2022
REM Old TITL er959 in P-1
REM SHELXT solution in P-1
REM R1 0.079, Rweak 0.010, Alpha 0.039, Orientation as input
REM Formula found by SHELXT: C34 N10 O6 S2 Cd
CELL 0.7527 9.224 13.66 14.747 68.287 89.198 72.13
ZERR 15 0.0018 0.0027 0.003 0.03 0.03 0.03
LATT 1
SFAC C H N O S Cd
DISP C 0.0027 0.0018 12.944
DISP Cd -0.8902 1.3364 6011.3492
DISP H 0 0 0.6262
DISP N 0.0051 0.0037 22.4473
DISP O 0.0094 0.0069 37.6033
DISP S 0.123 0.139 624.6015
UNIT 15 15 15 15 15 15
ACTA
L.S. 4
PLAN  33
CONF
BOND $H
list 4
fmap 2
MORE -1
REM <olex2.extras>
REM <HklSrc "%.\\er959.hkl">
REM </olex2.extras>
WGHT    0.100000
FVAR       0.72659
CD01  6    0.792121    0.518387    0.531520    11.00000    0.02077    0.02310 =
         0.01220   -0.00356    0.00050   -0.01166
S002  5    1.104604    0.225181    1.042486    11.00000    0.02391    0.02800 =
         0.02009   -0.00551    0.00362   -0.01223
S003  5    0.192355    0.474440    0.084383    11.00000    0.02568    0.02709 =
         0.01644   -0.00528    0.00111   -0.01507
O004  4   -0.002603    0.601218   -0.478478    11.00000    0.02587    0.02567 =
         0.01657   -0.00842   -0.00086   -0.01024
O005  4    0.746745    0.633046    0.372706    11.00000    0.02853    0.03464 =
         0.01591   -0.00498   -0.00068   -0.01809
O006  4    0.625270    0.508677    0.405777    11.00000    0.02209    0.02606 =
         0.01780   -0.00636    0.00186   -0.01122
O007  4   -0.098893    0.542212   -0.337068    11.00000    0.02396    0.03251 =
         0.02303   -0.01015    0.00243   -0.01548
O008  4    0.552929    0.624240    0.561105    11.00000    0.02460    0.02844 =
         0.02434   -0.00829    0.00231   -0.01176
N1    3    0.795478    0.233517    0.797665    11.00000    0.02057    0.02155 =
         0.01564   -0.00354    0.00237   -0.00756
N009  3    0.775511    0.362780    0.652642    11.00000    0.02382    0.02409 =
         0.01626   -0.00472    0.00403   -0.00859
C1    1    0.859317   -0.130433    1.239021    11.00000    0.02162    0.01446 =
         0.01496   -0.00148    0.00339   -0.00719
AFIX  43
H1    2    0.830114   -0.164872    1.201952    11.00000   -1.20000
AFIX   0
N00A  3    0.881410   -0.028723    1.207335    11.00000    0.02586    0.02264 =
         0.01686   -0.00324    0.00366   -0.01033
O00C  4   -0.308180    0.842650   -0.229579    11.00000    0.04153    0.03458 =
         0.03232   -0.01176    0.00488   -0.01590
N00D  3    0.525432    0.656149    0.092914    11.00000    0.01919    0.02436 =
         0.01384   -0.00704    0.00187   -0.01015
N00E  3    0.313554    0.526297    0.110530    11.00000    0.02207    0.02626 =
         0.01621   -0.00733    0.00141   -0.01049
N00F  3    0.168622    0.533156   -0.034186    11.00000    0.02301    0.02364 =
         0.01706   -0.00677    0.00245   -0.01162
N00G  3    0.200634    0.671124   -0.240375    11.00000    0.02209    0.02638 =
         0.01397   -0.00676    0.00057   -0.01100
N00H  3    1.008957    0.248736    0.941383    11.00000    0.02242    0.02562 =
         0.01957   -0.00495    0.00417   -0.00907
O00I  4   -0.348170    0.693413   -0.304218    11.00000    0.03545    0.04927 =
         0.04355   -0.02535    0.00966   -0.01735
N00K  3    1.039703    0.133801    1.120244    11.00000    0.02172    0.02515 =
         0.01960   -0.00515    0.00308   -0.00800
N2    3    0.928818   -0.096343    1.367912    11.00000    0.04556    0.03082 =
         0.01970   -0.00456    0.00223   -0.01771
N3    3    0.606413    0.729616    0.076108    11.00000    0.02540    0.03005 =
         0.01831   -0.00817    0.00305   -0.01694
N4    3    0.218473    0.742763   -0.331605    11.00000    0.03290    0.03214 =
         0.01578   -0.00536   -0.00006   -0.01906
C00M  1    0.718212    0.207255    0.736265    11.00000    0.02215    0.01920 =
         0.01216   -0.00381    0.00183   -0.00965
AFIX  43
H00M  2    0.681475    0.147446    0.751433    11.00000   -1.20000
AFIX   0
C00N  1   -0.012723    0.591300   -0.389748    11.00000    0.02070    0.02268 =
         0.01783   -0.00701   -0.00104   -0.00724
C00P  1    0.114479    0.608902   -0.247699    11.00000    0.01888    0.02484 =
         0.01642   -0.00872    0.00103   -0.00959
AFIX  43
H00P  2    0.086827    0.556282   -0.195977    11.00000   -1.20000
AFIX   0
C00Q  1    0.664784    0.587542    0.345507    11.00000    0.01729    0.02530 =
         0.01534   -0.00551   -0.00024   -0.00772
C00R  1    0.076062    0.638768   -0.346372    11.00000    0.02005    0.02932 =
         0.01601   -0.00926    0.00148   -0.01037
C00S  1    0.662949    0.711765    0.164820    11.00000    0.02199    0.02990 =
         0.01666   -0.00880   -0.00024   -0.01239
AFIX  43
H00S  2    0.723659    0.749858    0.176775    11.00000   -1.20000
AFIX   0
C00T  1    0.533258    0.593998    0.190185    11.00000    0.01904    0.02143 =
         0.01578   -0.00530    0.00069   -0.00800
AFIX  43
H00T  2    0.488292    0.538946    0.218176    11.00000   -1.20000
AFIX   0
C00U  1    0.260479    0.597161   -0.059500    11.00000    0.01905    0.02141 =
         0.01670   -0.00870    0.00263   -0.00818
C00V  1    0.620769    0.628459    0.239202    11.00000    0.01785    0.02536 =
         0.01628   -0.00707   -0.00004   -0.00810
C00W  1    0.278878    0.665771   -0.156450    11.00000    0.01880    0.02401 =
         0.01415   -0.00746    0.00198   -0.00817
C00X  1    0.745827    0.093254    0.939284    11.00000    0.02036    0.02364 =
         0.01746   -0.00359    0.00258   -0.00639
AFIX  43
H00X  2    0.681283    0.083763    0.897641    11.00000   -1.20000
AFIX   0
C00Y  1    0.829196    0.327268    0.746448    11.00000    0.02229    0.02348 =
         0.01735   -0.00293    0.00436   -0.00871
AFIX  43
H00Y  2    0.881182    0.361203    0.772449    11.00000   -1.20000
AFIX   0
C00Z  1    0.343680    0.593401    0.024301    11.00000    0.01762    0.02248 =
         0.01599   -0.00802    0.00198   -0.00813
C011  1    0.920268    0.183035    0.964647    11.00000    0.01962    0.02154 =
         0.01705   -0.00392    0.00438   -0.00634
C012  1    0.858279    0.038689    1.106358    11.00000    0.02212    0.02098 =
         0.01593   -0.00420    0.00377   -0.00588
C013  1    0.378767    0.724246   -0.165090    11.00000    0.02227    0.02536 =
         0.01440   -0.00566    0.00163   -0.01029
AFIX  43
H013  2    0.393203    0.768318   -0.227591    11.00000   -1.20000
AFIX   0
N014  3   -0.321794    0.984918   -0.372417    11.00000    0.04921    0.03379 =
         0.03606   -0.01184    0.01196   -0.01756
C015  1    0.937731    0.116668    1.068080    11.00000    0.02096    0.02177 =
         0.01714   -0.00515    0.00329   -0.00480
C016  1    0.445545    0.656788    0.011528    11.00000    0.01688    0.02295 =
         0.01544   -0.00783    0.00069   -0.00756
C017  1    0.764949    0.027285    1.041896    11.00000    0.02439    0.02280 =
         0.01878   -0.00320    0.00526   -0.00932
AFIX  43
H017  2    0.713315   -0.024324    1.065526    11.00000   -1.20000
AFIX   0
C018  1    0.144801    0.720908   -0.394662    11.00000    0.03119    0.03089 =
         0.01554   -0.00598   -0.00047   -0.01668
AFIX  43
H018  2    0.139073    0.755522   -0.462565    11.00000   -1.20000
AFIX   0
C019  1    0.818938    0.169591    0.900372    11.00000    0.01990    0.02236 =
         0.01631   -0.00356    0.00442   -0.00644
C01A  1    0.708801    0.287457    0.650603    11.00000    0.02765    0.02661 =
         0.01825   -0.00686    0.00449   -0.01078
AFIX  43
H01A  2    0.660598    0.292346    0.593378    11.00000   -1.20000
AFIX   0
C01B  1   -0.365568    0.941024   -0.283177    11.00000    0.02903    0.03340 =
         0.03937   -0.01853    0.00959   -0.01669
C01C  1    0.460653    0.720339   -0.083027    11.00000    0.01978    0.02532 =
         0.01773   -0.00756    0.00239   -0.01057
AFIX  43
H01C  2    0.526772    0.761963   -0.093190    11.00000   -1.20000
AFIX   0
C01D  1    0.889802   -0.167208    1.335138    11.00000    0.02669    0.02879 =
         0.02105   -0.00103    0.00214   -0.00767
AFIX  43
H01D  2    0.885101   -0.236058    1.377341    11.00000   -1.20000
AFIX   0
C01E  1    0.922716   -0.010866    1.285925    11.00000    0.04550    0.03170 =
         0.01787   -0.00619    0.00243   -0.01824
AFIX  43
H01E  2    0.943846    0.052590    1.282743    11.00000   -1.20000
AFIX   0
C01F  1   -0.486511    1.016457   -0.248642    11.00000    0.05866    0.05002 =
         0.09950   -0.04273    0.04802   -0.02635
AFIX 137
H01B  2   -0.570639    1.059878   -0.299528    11.00000   -1.50000
H01F  2   -0.444492    1.065252   -0.233064    11.00000   -1.50000
H01G  2   -0.522108    0.972708   -0.191145    11.00000   -1.50000
AFIX   0
C01G  1   -0.195612    0.913729   -0.404639    11.00000    0.08456    0.06334 =
         0.06610   -0.03645    0.05052   -0.03609
AFIX 137
H01H  2   -0.145127    0.959011   -0.450980    11.00000   -1.50000
H01I  2   -0.235698    0.874899   -0.435123    11.00000   -1.50000
H01J  2   -0.123551    0.860753   -0.348871    11.00000   -1.50000
AFIX   0
C01H  1   -0.398298    1.098675   -0.443487    11.00000    0.09824    0.04572 =
         0.05215    0.00423   -0.01187   -0.03249
AFIX 137
H01K  2   -0.323984    1.127084   -0.481110    11.00000   -1.50000
H01L  2   -0.446532    1.145410   -0.409099    11.00000   -1.50000
H01M  2   -0.474422    1.097942   -0.486742    11.00000   -1.50000
AFIX   0
HKLF 4




REM  er959_a.res in P-1
REM wR2 = 0.1289, GooF = S = 1.153, Restrained GooF = 1.153 for all data
REM R1 = 0.0366 for 7191 Fo > 4sig(Fo) and 0.0399 for all 7779 data
REM 481 parameters refined using 0 restraints

END

WGHT      0.0644      1.9011

REM Highest difference peak  0.844,  deepest hole -1.492,  1-sigma level  0.099
Q1    1   0.7172  0.1981  0.7608  11.00000  0.05    0.84
Q2    1   0.7000  0.2303  0.7118  11.00000  0.05    0.79
Q3    1   0.8224 -0.1171  1.2323  11.00000  0.05    0.76
Q4    1   0.5019  0.5836  0.5829  11.00000  0.05    0.72
Q5    1   0.5568  0.6501  0.6087  11.00000  0.05    0.70
Q6    1   0.7073  0.5760  0.4612  11.00000  0.05    0.64
Q7    1  -0.2571  0.6441 -0.2975  11.00000  0.05    0.63
Q8    1   0.8644  0.5175  0.4563  11.00000  0.05    0.61
Q9    1   0.7356  0.5133  0.6107  11.00000  0.05    0.54
Q10   1   0.8755  0.4575  0.5261  11.00000  0.05    0.53
Q11   1  -0.3350  0.7534 -0.2788  11.00000  0.05    0.50
Q12   1   0.8964  0.4638  0.5973  11.00000  0.05    0.50
Q13   1   0.6928  0.5861  0.5350  11.00000  0.05    0.49
Q14   1   0.8197  0.4612  0.4772  11.00000  0.05    0.47
Q15   1   0.8060  0.4063  0.5393  11.00000  0.05    0.45
Q16   1   0.0959  0.6105 -0.2931  11.00000  0.05    0.44
Q17   1   0.7263  0.4940  0.4909  11.00000  0.05    0.44
Q18   1   0.9402  0.4788  0.5621  11.00000  0.05    0.42
Q19   1   0.7947  0.5641  0.5888  11.00000  0.05    0.42
Q20   1   0.7783  0.4316  0.5899  11.00000  0.05    0.41
Q21   1   0.0254  0.6197 -0.3697  11.00000  0.05    0.40
Q22   1   0.7781  0.6272  0.5348  11.00000  0.05    0.39
Q23   1   0.6245  0.6228  0.2877  11.00000  0.05    0.39
Q24   1   0.2742  0.6250 -0.1092  11.00000  0.05    0.39
Q25   1   0.5797  0.6149  0.2239  11.00000  0.05    0.37
Q26   1   0.3914  0.6217  0.0199  11.00000  0.05    0.36
Q27   1   0.6004  0.5919  0.4295  11.00000  0.05    0.36
Q28   1   0.8560  0.5156  0.5868  11.00000  0.05    0.35
Q29   1   0.8227  0.4663  0.6196  11.00000  0.05    0.35
Q30   1   0.8121  0.5590  0.3868  11.00000  0.05    0.33
Q31   1   0.9217  0.1549  1.0213  11.00000  0.05    0.33
Q32   1   0.8630  0.1839  0.9212  11.00000  0.05    0.33
Q33   1   0.3041  0.6041 -0.0210  11.00000  0.05    0.33
;
_shelx_res_checksum   51746

_shelx_hkl_file
;
   0   0  -1   29.46    1.50
   0   0   1   25.75    1.44
   0   0   2 2543.03   63.65
   0   0  -3  585.40   15.65
   0   0   3  578.19   15.54
   0   0  -4  309.57    9.38
   0   0   4  296.20    8.99
   0   0  -5  949.96   25.03
   0   0   5  958.84   25.19
   0   0  -6  796.81   21.47
   0   0   6  725.79   19.64
   0   0  -7 4956.22  124.46
   0   0   7 5163.75  129.45
   0   0  -8   12.93    3.38
   0   0   8   15.98    3.33
   0   0  -9   54.16    4.38
   0   0   9   50.83    4.44
   0   0 -10 1245.16   32.96
   0   0  10 1163.04   30.85
   0   0 -11  547.34   15.87
   0   0  11  563.76   16.31
   0   0 -12  180.89    7.10
   0   0  12  190.94    7.55
   0   0 -13  420.82   12.87
   0   0  13  420.05   12.65
   0   0 -14 1254.04   33.07
   0   0  14 1224.07   32.18
   0   0  15  302.30    9.99
   0   0  16 1297.87   33.96
   0   0  16 1322.29   34.62
   0   0  17  378.26   11.71
   0   0  17  375.66   11.82
   0   0  18  318.95   10.10
   0   0  18  343.42   11.10
   0  -1  18  547.23   15.70
   0  -1  18  547.56   15.76
   0  -1  17  639.78   17.87
   0  -1  17  612.04   17.37
   0  -1  16  544.51   15.81
   0  -1  16  544.45   15.65
   0  -1  15  938.86   25.19
   0  -1  15  980.48   26.41
   0  -1  14  718.02   19.98
   0  -1  13  691.94   19.59
   0   1 -13  731.34   20.31
   0  -1  12  600.94   17.37
   0   1 -12  626.46   17.76
   0  -1  11  486.58   14.37
   0   1 -11  505.00   15.09
   0  -1  10  337.81   10.65
   0   1 -10  340.20   10.76
   0  -1   9  147.32    6.21
   0   1  -9  161.25    6.55
   0  -1   8  133.62    5.83
   0   1  -8  148.60    6.05
   0  -1   7 1327.84   34.68
   0   1  -7 1378.89   36.01
   0  -1   6 2453.69   62.26
   0   1  -6 2455.36   62.37
   0  -1   5 1586.97   40.89
   0   1  -5 1573.65   40.40
   0  -1   4  356.35   10.49
   0   1  -4  348.19   10.27
   0  -1   3 2905.92   73.08
   0   1  -3 2814.92   70.80
   0  -1  -3  319.22    9.16
   0   1   3  337.92    9.65
   0  -1  -4   42.28    3.50
   0   1   4   45.83    3.72
   0  -1  -5  203.64    6.88
   0   1   5  208.58    7.10
   0  -1  -6   29.96    3.50
   0   1   6   20.64    3.33
   0  -1  -7    6.88    3.27
   0   1   7    6.88    3.05
   0  -1  -8  120.24    5.66
   0   1   8  126.46    5.60
   0  -1  -9  491.74   14.32
   0   1   9  459.72   13.26
   0  -1 -10   49.61    4.27
   0   1  10   47.89    4.05
   0  -1 -11 1179.13   31.18
   0   1  11 1200.77   31.74
   0  -1 -12  400.02   12.26
   0   1  12  407.28   12.43
   0  -1 -13 1088.13   29.08
   0   1  13 1177.46   31.30
   0  -1 -14 1074.25   28.69
   0   1  14 1049.84   28.19
   0  -1 -15  441.13   13.26
   0   1  15  470.26   14.04
   0   1  16 1285.11   33.63
   0   1  17   51.99    4.55
   0   1  17   67.36    5.22
   0   1  18  794.04   21.70
   0   1  18  773.51   20.97
   0   1  19   10.71    4.22
   0  -2  17  422.88   12.87
   0  -2  17  430.81   13.04
   0  -2  16  624.80   17.59
   0  -2  16  633.12   17.87
   0  -2  15  551.94   15.98
   0  -2  15  566.54   16.09
   0  -2  14  289.37    9.77
   0  -2  14  289.70    9.88
   0  -2  13  352.07   11.32
   0  -2  13  338.15   10.88
   0  -2  12   90.95    5.38
   0   2 -12   85.23    4.99
   0  -2  11 1110.32   29.58
   0   2 -11 1106.44   29.58
   0  -2  10  459.89   13.65
   0   2 -10  520.09   15.20
   0  -2   9   90.39    4.99
   0   2  -9   93.83    4.99
   0  -2   8  439.30   12.98
   0   2  -8  416.72   12.37
   0  -2   7  610.93   16.87
   0   2  -7  661.42   18.42
   0  -2   6  485.41   13.82
   0   2  -6  521.31   14.70
   0  -2   5 3294.34   83.01
   0   2  -5 3384.23   85.29
   0  -2   4 1394.98   35.90
   0   2  -4 1341.71   34.57
   0  -2   3 3005.80   75.63
   0   2  -3 2873.19   72.25
   0  -2  -2 1669.64   41.84
   0   2   2 1679.08   42.12
   0  -2  -3 1537.03   38.90
   0   2   3 1650.22   41.67
   0  -2  -4   47.28    3.44
   0   2   4   35.57    3.16
   0  -2  -5    1.83    2.66
   0   2   5    3.16    2.66
   0  -2  -6  902.24   23.86
   0   2   6  900.58   23.80
   0  -2  -7  375.77   11.32
   0   2   7  350.91   10.60
   0  -2  -8    7.93    3.11
   0   2   8    7.99    3.44
   0  -2  -9  567.65   16.09
   0   2   9  552.33   15.70
   0  -2 -10   25.86    3.77
   0   2  10   32.57    3.94
   0  -2 -11  671.96   18.76
   0   2  11  704.15   19.81
   0  -2 -12 2038.64   52.49
   0   2  12 2008.68   51.83
   0  -2 -13  902.24   24.47
   0   2  13  939.42   25.47
   0  -2 -14  358.18   11.21
   0   2  14  365.11   11.43
   0  -2 -15  652.54   18.42
   0   2  15  695.82   19.14
   0  -2 -16  558.21   16.09
   0   2  16  582.07   16.59
   0   2  17  331.88   10.43
   0   2  18  728.01   19.86
   0   2  18  736.89   20.48
   0   2  19   50.66    4.77
   0   2  19   65.92    5.33
   0  -3  17   89.50    6.05
   0  -3  17   93.16    6.55
   0  -3  16  840.09   22.92
   0  -3  16  821.23   22.47
   0  -3  15  325.00   10.65
   0  -3  15  337.15   10.99
   0  -3  14  411.67   12.54
   0  -3  14  438.19   13.21
   0  -3  13   69.08    4.72
   0  -3  13   61.87    4.94
   0  -3  12   82.12    5.33
   0  -3  12   76.80    5.22
   0  -3  11    4.44    3.72
   0  -3  11    5.88    3.38
   0  -3  10  289.70    9.77
   0   3 -10  244.59    8.82
   0  -3   9  115.42    5.72
   0   3  -9  126.40    5.94
   0  -3   8   73.13    4.72
   0   3  -8   84.06    4.88
   0  -3   7  334.98   10.38
   0   3  -7  336.65   10.43
   0  -3   6  699.15   19.09
   0   3  -6  736.89   20.03
   0  -3   5 3521.29   88.61
   0   3  -5 3759.89   94.72
   0  -3   4 1313.41   33.96
   0   3  -4 1404.41   36.07
   0  -3   3 4823.05  120.63
   0   3  -3 4727.61  118.19
   0  -3   1  542.62   14.26
   0  -3   1  513.05   13.54
   0  -3   0  324.66    8.66
   0  -3   0  324.61    8.60
   0  -3  -1  208.08    5.55
   0   3   1  202.98    5.44
   0  -3  -3  448.29   11.99
   0   3   3  467.54   12.37
   0  -3  -4  252.31    7.55
   0   3   4  250.14    7.44
   0  -3  -5   20.92    2.89
   0   3   5   23.31    3.00
   0  -3  -6 1610.27   41.28
   0   3   6 1678.52   42.89
   0  -3  -7  130.18    5.44
   0   3   7  121.57    5.33
   0  -3  -8 1013.22   26.86
   0   3   8 1004.34   26.58
   0  -3  -9  376.99   11.49
   0   3   9  406.17   12.04
   0  -3 -10 1131.96   29.96
   0   3  10 1154.16   30.35
   0  -3 -11   48.33    4.44
   0   3  11   54.32    4.00
   0  -3 -12 1227.40   32.41
   0   3  12 1189.12   31.35
   0  -3 -13  426.59   12.98
   0   3  13  423.27   12.71
   0  -3 -14 1844.99   47.72
   0   3  14 1908.24   49.22
   0  -3 -15 1470.44   38.51
   0   3  15 1443.25   37.95
   0  -3 -16  504.83   14.87
   0   3  16  518.59   15.09
   0  -3 -17  325.72   10.71
   0   3  17  333.48   10.49
   0   3  18  223.90    8.16
   0   3  18  221.45    7.93
   0   3  19  136.33    6.49
   0   3  19  133.95    6.27
   0  -4  16  918.89   24.75
   0  -4  16  923.88   25.03
   0  -4  15  297.97   10.04
   0  -4  15  307.74   10.15
   0  -4  14  403.01   12.26
   0  -4  14  416.72   12.82
   0  -4  13  148.65    6.66
   0  -4  13  140.11    6.33
   0  -4  12   67.42    4.99
   0  -4  12   69.97    4.94
   0  -4  11   50.72    4.66
   0  -4  11   50.00    4.49
   0  -4  10  433.14   13.21
   0  -4  10  441.58   13.32
   0  -4   9  930.54   25.19
   0  -4   9  956.62   25.97
   0  -4   8   -0.39    3.50
   0  -4   8    3.50    3.11
   0  -4   7  810.13   22.08
   0  -4   6   88.23    4.49
   0  -4   5 3558.47   89.61
   0  -4   4  630.90   17.20
   0  -4   4  676.40   18.31
   0  -4   3 2727.25   68.75
   0  -4   3 2767.76   69.80
   0  -4   2 2490.32   62.65
   0  -4   2 2514.73   63.26
   0  -4   1    1.50    1.89
   0  -4   1    5.16    1.89
   0  -4   0 2282.24   57.26
   0  -4   0 2196.23   55.10
   0  -4  -1    2.72    1.11
   0   4   1    2.22    1.17
   0  -4  -2 2306.65   58.04
   0   4   2 2401.54   60.37
   0  -4  -3   19.25    1.89
   0   4   3   17.37    1.72
   0  -4  -4  106.93    4.00
   0   4   4  108.87    4.00
   0  -4  -5    5.27    2.39
   0   4   5    6.55    2.28
   0  -4  -6  215.18    6.94
   0   4   6  231.94    7.10
   0  -4  -7  297.75    9.04
   0   4   7  286.65    8.77
   0  -4  -8 5137.11  128.73
   0   4   8 5325.77  133.34
   0  -4  -9   64.81    4.27
   0   4   9   51.16    3.88
   0  -4 -10  278.50    9.16
   0   4  10  253.47    8.71
   0  -4 -11  285.21    9.38
   0   4  11  274.33    9.27
   0  -4 -12 1614.16   41.89
   0   4  12 1642.46   42.73
   0  -4 -13  334.87   10.82
   0   4  13  340.48   11.04
   0  -4 -14  998.24   26.91
   0   4  14  989.91   26.75
   0  -4 -15 1061.49   28.47
   0   4  15 1069.26   28.47
   0  -4 -16 1404.41   36.84
   0   4  16 1330.61   34.74
   0  -4 -17   84.29    5.27
   0   4  17   81.51    5.33
   0  -4 -18  175.18    7.44
   0   4  18  180.78    7.16
   0   4  19  154.98    6.71
   0   4  19  152.70    6.99
   0  -5  15  211.24    7.99
   0  -5  15  212.41    8.16
   0  -5  14  151.09    6.77
   0  -5  14  156.59    6.83
   0  -5  13  130.01    6.05
   0  -5  13  144.82    6.60
   0  -5  12   56.54    4.77
   0  -5  12   58.93    4.77
   0  -5  11   36.73    4.33
   0  -5  11   47.28    4.66
   0  -5  10  212.96    7.99
   0  -5  10  220.73    8.05
   0  -5   9  240.54    8.60
   0  -5   9  227.34    8.21
   0  -5   8  200.65    7.60
   0  -5   8  189.27    7.38
   0  -5   7  460.72   13.48
   0  -5   7  439.47   13.04
   0  -5   6   41.01    3.55
   0  -5   6   37.12    3.66
   0  -5   5 2656.23   67.36
   0  -5   5 2667.88   67.64
   0  -5   4  905.57   23.97
   0  -5   4  870.61   22.97
   0  -5   3 5881.76  146.93
   0  -5   3 5953.90  148.82
   0  -5   2 3339.29   83.79
   0  -5   2 3428.63   86.01
   0  -5   1 2368.24   59.59
   0  -5   1 2288.89   57.65
   0  -5   0 1342.26   33.96
   0  -5   0 1361.13   34.46
   0  -5  -1  260.18    6.99
   0   5   1  293.09    7.82
   0  -5  -2  353.35    9.27
   0   5   2  345.08    9.04
   0  -5  -3   16.26    1.55
   0   5   3   17.76    1.39
   0  -5  -4  186.72    5.60
   0   5   4  187.11    5.55
   0  -5  -5  465.44   12.60
   0   5   5  466.71   12.71
   0  -5  -6  204.14    6.66
   0   5   6  205.75    6.60
   0  -5  -7  865.06   22.81
   0   5   7  862.29   22.86
   0  -5  -8  900.02   23.92
   0   5   8  889.48   23.53
   0  -5  -9 1272.90   33.24
   0   5   9 1265.69   33.07
   0  -5 -10  284.04    9.32
   0   5  10  247.09    8.10
   0  -5 -11 1556.45   40.51
   0   5  11 1449.91   37.79
   0  -5 -12   41.78    4.22
   0   5  12   39.90    4.16
   0  -5 -13 5731.95  143.94
   0   5  13 5665.36  142.22
   0  -5 -14  127.73    6.05
   0   5  14  128.40    5.83
   0  -5 -15  724.68   20.14
   0   5  15  679.73   18.92
   0  -5 -16  387.53   11.93
   0   5  16  413.83   12.76
   0  -5 -17   94.89    5.66
   0   5  17  118.08    5.88
   0  -5 -18  451.51   13.59
   0   5  18  451.06   13.32
   0   5  19   18.87    4.11
   0   5  19   10.49    4.05
   0   5  20  321.89   10.88
   0   5  20  301.97    9.99
   0  -6  14  234.72    8.66
   0  -6  14  239.99    8.93
   0  -6  13   28.91    4.38
   0  -6  13   27.36    4.55
   0  -6  12   34.46    4.27
   0  -6  12   34.46    4.77
   0  -6  11   -5.27    3.61
   0  -6  11   -0.28    3.77
   0  -6  10  419.49   12.65
   0  -6  10  405.29   12.43
   0  -6   9  227.06    8.27
   0  -6   9  205.81    7.66
   0  -6   8 2067.50   53.05
   0  -6   8 1988.70   51.27
   0  -6   7  107.70    5.44
   0  -6   7  103.60    5.22
   0  -6   6  170.63    6.60
   0  -6   6  160.53    6.16
   0  -6   5 1047.62   27.58
   0  -6   5 1062.60   27.91
   0  -6   4  646.44   17.65
   0  -6   4  629.79   17.09
   0  -6   3  890.59   23.42
   0  -6   3  905.02   23.75
   0  -6   2   72.19    3.50
   0  -6   2   67.58    3.38
   0  -6   1 2248.94   56.71
   0  -6   1 2313.86   58.32
   0  -6   0 1459.34   37.01
   0  -6   0 1475.99   37.34
   0  -6  -1    4.05    1.33
   0  -6  -1    0.44    1.17
   0  -6  -2    3.27    1.05
   0   6   2    4.55    1.11
   0  -6  -3  839.54   21.47
   0   6   3  869.50   22.25
   0  -6  -4  398.79   10.60
   0   6   4  382.48   10.21
   0  -6  -5  357.34    9.93
   0   6   5  359.84    9.88
   0  -6  -6  421.66   11.65
   0   6   6  420.38   11.43
   0  -6  -7  620.36   16.70
   0   6   7  639.23   17.03
   0  -6  -8  104.93    4.49
   0   6   8  106.65    4.33
   0  -6  -9 1380.55   35.79
   0   6   9 1367.23   35.40
   0  -6 -10  559.32   15.76
   0   6  10  568.76   15.70
   0  -6 -11 1614.16   41.84
   0   6  11 1544.24   40.01
   0  -6 -12  301.52    9.88
   0   6  12  280.11    9.32
   0  -6 -13 2018.67   52.05
   0   6  13 1981.49   50.72
   0  -6 -14  328.32   10.60
   0   6  14  365.06   11.32
   0  -6 -15  374.32   11.76
   0   6  15  399.79   12.04
   0  -6 -16   49.00    4.66
   0   6  16   60.76    4.55
   0  -6 -17  302.36   10.04
   0   6  17  310.24    9.88
   0  -6 -18  117.80    6.16
   0   6  18  117.58    5.88
   0   6  19    1.50    4.22
   0   6  20    4.66    4.16
   0   6  20   -4.05    4.49
   0  -7  14  247.15    9.32
   0  -7  14  268.34   10.49
   0  -7  13    9.43    4.44
   0  -7  13    7.71    4.72
   0  -7  12   12.82    4.22
   0  -7  12   17.42    4.49
   0  -7  11    0.61    3.88
   0  -7  11    2.77    4.16
   0  -7  10   92.17    5.49
   0  -7  10   97.27    5.33
   0  -7   9  149.21    6.44
   0  -7   9  149.49    6.49
   0  -7   8  645.88   18.03
   0  -7   8  643.11   18.09
   0  -7   7  602.05   16.98
   0  -7   7  574.30   16.31
   0  -7   6   62.76    4.66
   0  -7   6   66.64    4.27
   0  -7   5  603.16   16.92
   0  -7   5  551.00   15.37
   0  -7   4  941.64   24.91
   0  -7   4  993.24   26.08
   0  -7   3  575.97   15.81
   0  -7   3  605.38   16.31
   0  -7   2 1927.67   49.00
   0  -7   2 2002.02   50.77
   0  -7   1 1463.78   37.34
   0  -7   1 1477.10   37.62
   0  -7   0 1138.62   29.08
   0  -7   0 1157.49   29.52
   0  -7  -1   88.50    3.00
   0  -7  -1   95.77    3.11
   0  -7  -2 1522.05   38.90
   0  -7  -3    8.77    1.17
   0   7   3    8.49    0.94
   0  -7  -4  307.74    8.27
   0   7   4  305.52    8.10
   0  -7  -5   58.87    2.77
   0   7   5   52.16    2.33
   0  -7  -6  151.71    5.05
   0   7   6  150.76    4.72
   0  -7  -7  955.51   24.86
   0   7   7 1004.89   26.19
   0  -7  -8 1006.00   26.30
   0   7   8 1086.46   28.35
   0  -7  -9  567.09   15.76
   0   7   9  580.41   16.26
   0  -7 -10 1781.18   45.78
   0   7  10 1887.71   48.61
   0  -7 -11  714.69   19.70
   0   7  11  743.54   20.70
   0  -7 -12 1102.00   29.30
   0   7  12 1108.10   29.58
   0  -7 -13   60.09    4.72
   0   7  13   65.59    4.77
   0  -7 -14   70.75    4.99
   0   7  14   75.41    4.99
   0  -7 -15  558.21   16.09
   0   7  15  544.51   15.93
   0  -7 -16  328.60   10.71
   0   7  16  339.81   10.88
   0  -7 -17  154.81    6.77
   0   7  17  140.33    6.44
   0  -7 -18   50.94    5.22
   0   7  18   48.44    4.66
   0  -7 -19   13.59    4.83
   0   7  19   21.03    4.55
   0   7  20    9.54    4.44
   0   7  20    8.55    4.94
   0  -8  13    3.55    5.44
   0  -8  13    5.22    5.88
   0  -8  12    8.82    4.61
   0  -8  12    9.38    4.94
   0  -8  11    1.72    3.88
   0  -8  11   -0.44    4.66
   0  -8  10   -0.28    3.72
   0  -8  10    5.10    4.11
   0  -8   9  137.00    6.38
   0  -8   9  136.83    6.05
   0  -8   8  355.40   11.26
   0  -8   8  324.94   10.43
   0  -8   7 2874.85   73.08
   0  -8   7 2791.62   71.03
   0  -8   6   73.19    4.61
   0  -8   6   62.59    4.33
   0  -8   5  609.26   16.92
   0  -8   5  628.68   17.42
   0  -8   4   95.88    4.66
   0  -8   4   92.55    4.61
   0  -8   3  760.75   20.20
   0  -8   3  823.45   21.75
   0  -8   2  628.13   16.92
   0  -8   2  635.90   16.98
   0  -8   1  644.22   17.03
   0  -8   1  599.83   15.98
   0  -8   0 2935.33   73.91
   0  -8   0 3005.80   75.58
   0  -8  -1  394.02   10.49
   0  -8  -1  420.82   11.04
   0  -8  -3   14.93    1.00
   0  -8  -4    8.49    1.28
   0   8   4    9.10    1.17
   0  -8  -5  387.36   10.32
   0   8   5  401.68   10.76
   0  -8  -6  408.17   11.04
   0   8   6  450.18   12.10
   0  -8  -7  963.83   25.03
   0   8   7 1007.11   26.14
   0  -8  -8  675.85   17.98
   0   8   8  743.54   19.81
   0  -8  -9  615.37   16.87
   0   8   9  633.68   17.03
   0  -8 -10  795.15   21.42
   0   8  10  845.64   22.36
   0  -8 -11  207.97    7.55
   0   8  11  202.98    7.05
   0  -8 -12  494.85   14.48
   0   8  12  466.55   13.21
   0  -8 -13  958.28   25.86
   0   8  13  928.32   24.75
   0  -8 -14  266.57    9.10
   0   8  14  266.68    8.99
   0  -8 -15 1041.52   28.02
   0   8  15  981.03   26.47
   0  -8 -16   15.65    4.27
   0   8  16   12.71    4.11
   0  -8 -17   42.67    4.77
   0   8  17   38.68    4.88
   0  -8 -18    9.60    4.61
   0   8  18    2.00    4.16
   0  -8 -19  190.60    8.27
   0   8  19  176.84    7.27
   0   8  20   91.33    6.38
   0   8  20  103.43    6.21
   0  -9  12    3.77    6.77
   0  -9  12    3.33    5.88
   0  -9  11    5.77    4.72
   0  -9  11    5.77    4.72
   0  -9  10  324.55   10.60
   0  -9  10  316.51   10.76
   0  -9   9  223.67    8.27
   0  -9   9  207.80    8.10
   0  -9   8  409.06   12.32
   0  -9   8  425.65   12.87
   0  -9   7 1154.16   30.69
   0  -9   7 1097.56   29.08
   0  -9   6  567.09   16.09
   0  -9   6  593.17   16.76
   0  -9   5  760.19   20.53
   0  -9   5  775.17   20.97
   0  -9   4    1.66    3.11
   0  -9   4   -1.39    3.00
   0  -9   3 2371.02   60.15
   0  -9   3 2451.48   62.15
   0  -9   2  335.32    9.77
   0  -9   2  315.01    9.21
   0  -9   1 1245.71   31.85
   0  -9   1 1252.37   32.02
   0  -9  -4   33.13    1.33
   0  -9  -5   49.44    2.00
   0   9   5   61.48    2.22
   0  -9  -6  358.07    9.65
   0   9   6  423.38   11.15
   0  -9  -7 1313.41   33.51
   0   9   7 1438.26   36.57
   0  -9  -8 1094.23   28.41
   0   9   8 1120.31   28.74
   0  -9  -9 1559.22   40.01
   0   9   9 1590.85   40.67
   0  -9 -10  156.03    5.99
   0   9  10  172.12    6.33
   0  -9 -11  439.97   12.93
   0   9  11  442.41   13.15
   0  -9 -12   47.55    4.16
   0   9  12   51.33    4.44
   0  -9 -13 1129.19   29.96
   0   9  13 1119.20   29.69
   0  -9 -14  328.38   10.60
   0   9  14  325.55   10.32
   0  -9 -15  377.04   11.82
   0   9  15  388.81   11.82
   0  -9 -16  143.55    6.49
   0   9  16  142.44    6.38
   0  -9 -17   16.48    4.55
   0   9  17   18.20    4.77
   0  -9 -18   18.14    5.05
   0   9  18   18.64    4.77
   0   9  19   88.61    6.21
   0 -10  11   -9.71   10.21
   0 -10   9  301.69   10.32
   0 -10   9  271.45    9.60
   0 -10   8  595.39   17.03
   0 -10   8  585.96   16.76
   0 -10   7  160.08    6.66
   0 -10   7  174.18    7.21
   0 -10   6  617.59   17.20
   0 -10   6  626.46   17.48
   0 -10   5  519.26   14.87
   0 -10   5  521.81   14.87
   0 -10   4 1305.09   34.01
   0 -10   4 1328.39   34.57
   0 -10   3   84.79    4.33
   0 -10   3   72.47    4.00
   0 -10   2  766.85   20.25
   0 -10   2  813.46   21.36
   0 -10   1  874.50   22.75
   0 -10   1  898.36   23.31
   0 -10   0  206.14    6.16
   0 -10   0  218.40    6.38
   0 -10  -1  220.79    6.27
   0 -10  -1  223.40    6.27
   0 -10  -6 1126.97   29.08
   0  10   6 1126.41   28.91
   0 -10  -7  624.24   16.48
   0  10   7  667.52   17.48
   0 -10  -8 1407.18   36.07
   0  10   8 1406.63   35.96
   0 -10  -9  169.46    5.94
   0  10   9  172.96    6.05
   0 -10 -10 1081.47   28.30
   0  10  10 1114.76   28.91
   0 -10 -11  362.17   10.88
   0  10  11  359.73   10.54
   0 -10 -12  385.48   11.65
   0  10  12  404.18   11.71
   0 -10 -13  888.37   23.97
   0  10  13  952.18   25.19
   0 -10 -14  151.82    6.44
   0  10  14  155.31    6.38
   0 -10 -15  820.67   22.47
   0  10  15  853.97   23.19
   0 -10 -16  325.66   10.76
   0  10  16  322.28   10.32
   0 -10 -17  175.34    7.66
   0  10  17  183.39    7.44
   0 -10 -18    8.88    4.66
   0  10  18   11.32    4.66
   0  10  19    2.16    4.88
   0  10  19   18.26    5.27
   0 -11   8  599.27   17.48
   0 -11   8  574.86   16.65
   0 -11   7  303.69   10.10
   0 -11   7  301.63   10.15
   0 -11   6  202.98    7.77
   0 -11   6  200.65    7.66
   0 -11   5  617.03   17.09
   0 -11   5  627.02   17.48
   0 -11   4  318.95    9.88
   0 -11   4  338.98   10.27
   0 -11   3 2277.24   57.82
   0 -11   3 2142.41   54.49
   0 -11   2   14.37    3.05
   0 -11   2   14.37    2.66
   0 -11   1    1.28    2.44
   0 -11   1    3.66    2.33
   0 -11  -7 1291.21   33.35
   0  11   7 1307.31   33.68
   0 -11  -8  993.24   25.69
   0  11   8 1029.31   26.36
   0 -11  -9   76.24    4.00
   0  11   9   87.73    3.61
   0 -11 -10  716.35   19.14
   0  11  10  732.45   19.31
   0 -11 -11   43.45    3.72
   0  11  11   43.67    3.55
   0 -11 -12  972.16   25.86
   0  11  12 1006.00   26.63
   0 -11 -13  153.20    6.38
   0  11  13  164.36    6.21
   0 -11 -14  294.87    9.71
   0  11  14  313.68    9.93
   0 -11 -15  165.80    7.05
   0  11  15  169.35    6.88
   0 -11 -16   30.69    4.66
   0  11  16   29.08    4.44
   0 -11 -17  134.84    7.05
   0  11  17  132.67    6.55
   0  11  18   24.25    4.94
   0  11  19   10.65    4.99
   0  11  19    7.05    5.33
   0 -12   7  289.48   10.43
   0 -12   7  281.27   10.10
   0 -12   6  274.45    9.77
   0 -12   6  283.82    9.82
   0 -12   5  715.24   19.70
   0 -12   5  704.70   19.37
   0 -12   4   17.76    3.77
   0 -12   4   21.25    4.16
   0 -12   3  426.76   12.43
   0 -12   3  422.71   11.99
   0 -12   2   35.07    3.50
   0 -12   2   38.79    3.16
   0 -12   1  365.50   10.15
   0 -12   1  398.91   10.99
   0 -12   0    4.72    1.83
   0 -12   0    6.33    1.61
   0 -12  -9  507.50   13.71
   0  12   9  520.26   13.87
   0 -12 -10  383.04   11.04
   0  12  10  384.20   10.49
   0 -12 -11  224.95    7.38
   0  12  11  240.15    7.38
   0 -12 -12  324.50    9.99
   0  12  12  327.16    9.93
   0 -12 -13  209.69    7.55
   0  12  13  216.52    7.32
   0 -12 -14   13.59    4.00
   0  12  14   18.64    3.83
   0 -12 -15  236.55    8.77
   0  12  15  239.32    8.27
   0 -12 -16   31.41    4.72
   0  12  16   41.89    4.72
   0  12  17   16.76    4.44
   0  12  18    3.44    4.77
   0  12  18    5.10    5.16
   0 -13   6  176.23    8.21
   0 -13   6  189.05    9.10
   0 -13   5  114.47    6.99
   0 -13   5  125.90    6.83
   0 -13   4   53.82    5.38
   0 -13   4   53.88    4.66
   0 -13   3   59.87    4.83
   0 -13   3   60.15    4.22
   0 -13   1    8.05    2.50
   0 -13   1   11.87    2.33
   0  13  11  191.49    6.60
   0  13  11  205.58    6.33
   0  13  12  271.12    8.27
   0  13  13  422.43   11.93
   0  13  14   31.57    4.16
   0  13  15  185.50    7.82
   0  13  15  163.36    6.71
   0  13  16   13.59    4.00
   0  13  16   12.43    4.99
   0  13  17   -0.61    4.55
   0  13  17    1.00    5.83
   0  13  18   19.70    5.05
   0  13  18   13.32    5.83
   0 -14   5    7.82    6.77
   0 -14   5    6.05    5.94
   0 -14   4   30.69    5.94
   0 -14   4   32.35    4.66
   0 -14   2    2.44    2.72
   0 -14   2    3.94    3.55
   0  14  12  281.77    8.77
   0  14  12  302.91    8.71
   0  14  13    8.38    4.05
   0  14  13   18.42    2.94
   0  14  14   -5.99    4.77
   0  14  14   -3.38    3.44
   0  14  15   21.03    5.44
   0  14  15   18.09    3.88
   0  14  16    1.44    5.22
   0  14  16   -0.67    4.27
   0  14  17   -0.28    5.66
   0  14  17    1.11    5.38
   0  15  13    2.61    3.94
   0  15  13    9.21    2.89
   0  15  14    0.39    4.77
   0  15  14    5.99    3.38
   0  15  15   14.87    5.22
   0  15  15   27.86    4.61
   0  15  16  -11.26    5.66
   0  15  16   -2.22    5.88
   0  16  15    2.44    5.38
   0  16  15    4.77    6.44
  -1  15  14  133.28    5.77
  -1  15  14  118.91    7.16
  -1  15  13  280.11    8.55
  -1  15  13  252.75    9.04
  -1  15  12    0.89    2.50
  -1  15  12    3.83    3.83
  -1  14  17   21.14    5.55
  -1  14  16  329.99   10.93
   1 -14 -16  319.06   11.65
  -1  14  15  280.22    9.38
   1 -14 -15  252.69    9.93
  -1  14  14    6.71    3.88
   1 -14 -14   11.43    5.16
  -1  14  13  251.70    8.16
   1 -14 -13  240.26    8.82
  -1  14  12    1.78    2.94
   1 -14 -12    2.66    4.44
  -1  14  11   75.52    3.61
   1 -14 -11   63.98    4.49
  -1  14  10   -0.17    1.89
   1 -14   1   21.64    3.16
   1 -14   1    9.32    3.94
   1 -14   2  123.30    6.55
   1 -14   2  138.28    5.77
   1 -14   3   60.37    6.38
   1 -14   3   63.53    5.05
   1 -14   4   38.34    5.94
   1 -14   4   31.07    7.10
  -1  13  17   -0.33    4.44
   1 -13 -17   -0.33    5.44
  -1  13  16  750.76   20.48
   1 -13 -16  793.48   22.14
  -1  13  15  364.00   11.10
   1 -13 -15  364.72   11.93
  -1  13  14   77.68    4.61
   1 -13 -14   80.46    5.66
  -1  13  13   -0.11    3.38
   1 -13 -13    1.89    4.05
  -1  13  12    2.83    2.83
   1 -13 -12   -1.66    3.83
  -1  13  11  193.38    6.38
   1 -13 -11  190.55    6.99
  -1  13  10   73.02    3.38
   1 -13 -10   73.69    4.16
  -1  13   9   47.44    2.55
   1 -13  -9   43.50    3.27
  -1  13   8   -1.17    1.44
   1 -13  -8    1.72    2.00
   1 -13   1  837.87   22.14
   1 -13   1  785.72   20.92
   1 -13   2   69.75    4.38
   1 -13   2   66.86    4.88
   1 -13   3  114.31    5.66
   1 -13   3  118.69    6.33
   1 -13   4   43.67    5.38
   1 -13   4   48.39    5.60
   1 -13   5   21.47    5.99
   1 -13   5   13.48    6.10
   1 -13   6   -4.77    6.94
   1 -13   6    6.33    6.60
  -1  12  18   50.88    5.27
   1 -12 -18   45.22    5.72
  -1  12  17  208.80    7.82
   1 -12 -17  189.10    8.38
  -1  12  16  295.25    9.82
   1 -12 -16  333.54   11.32
  -1  12  15  401.29   12.04
   1 -12 -15  429.26   13.21
  -1  12  14  275.28    8.93
   1 -12 -14  256.08    9.10
  -1  12  13    6.10    3.16
   1 -12 -13    5.16    4.00
  -1  12  12    1.61    2.94
   1 -12 -12   -2.83    3.66
  -1  12  11  296.86    9.04
   1 -12 -11  290.70    9.21
  -1  12  10    3.66    2.50
   1 -12 -10    4.55    3.05
  -1  12   9   85.34    3.55
   1 -12  -9   72.30    3.94
  -1  12   8   31.07    2.39
   1 -12  -8   23.03    2.94
  -1  12   7  338.20    9.16
   1 -12  -7  310.35    8.66
  -1  12   6   11.21    1.39
   1 -12  -6    9.10    1.72
   1 -12  -1  125.35    4.49
   1 -12  -1  141.27    4.61
   1 -12   0  996.57   25.80
   1 -12   0 1000.45   26.08
   1 -12   1    7.88    2.72
   1 -12   1    5.99    3.27
   1 -12   2 1009.89   26.41
   1 -12   2 1038.19   27.36
   1 -12   3    2.16    3.88
   1 -12   3    8.66    3.94
   1 -12   4    1.50    4.11
   1 -12   4   -3.83    4.05
   1 -12   5   12.76    4.83
   1 -12   5    8.93    4.88
   1 -12   6   39.67    5.44
   1 -12   6   43.56    5.55
   1 -12   7    2.55    6.55
   1 -12   7    3.88    5.55
  -1  11  19   55.60    5.27
   1 -11 -19   42.00    6.27
  -1  11  18  247.48    8.99
   1 -11 -18  255.30    9.60
  -1  11  17   81.68    5.66
   1 -11 -17   76.46    5.88
  -1  11  16  433.03   13.10
   1 -11 -16  417.83   13.04
  -1  11  15  419.71   12.48
   1 -11 -15  423.38   12.93
  -1  11  14    2.11    3.44
   1 -11 -14    0.44    4.11
  -1  11  13  105.93    4.88
   1 -11 -13  117.41    5.88
  -1  11  12   78.68    4.22
   1 -11 -12   86.67    4.99
  -1  11  11   27.41    3.11
   1 -11 -11   23.42    3.44
  -1  11  10  444.13   12.65
   1 -11 -10  410.11   11.93
  -1  11   9  147.27    5.16
   1 -11  -9  148.76    5.49
  -1  11   8   36.73    2.72
   1 -11  -8   31.18    3.05
  -1  11   7  469.99   12.48
   1 -11  -7  475.09   12.87
  -1  11   6  798.48   20.64
   1 -11  -6  814.57   21.20
  -1  11   5  736.89   19.14
   1 -11  -5  764.63   19.92
   1 -11  -4   62.76    2.66
   1 -11  -3  259.91    7.32
   1 -11  -3  251.42    7.27
   1 -11  -2  108.59    3.83
   1 -11  -2  111.42    4.16
   1 -11  -1 1245.71   31.91
   1 -11  -1 1236.84   31.85
   1 -11   0  317.78    9.10
   1 -11   0  308.90    9.10
   1 -11   1  327.27    9.54
   1 -11   1  314.90    9.43
   1 -11   2   98.33    4.83
   1 -11   2   95.05    4.61
   1 -11   3   21.64    3.77
   1 -11   3   23.69    3.83
   1 -11   4    2.44    3.66
   1 -11   4    0.55    3.55
   1 -11   5   37.84    4.38
   1 -11   5   51.38    4.83
   1 -11   6   50.72    5.05
   1 -11   6   49.50    5.05
   1 -11   8   21.70    5.55
   1 -11   8   25.64    5.55
  -1  10  19  137.72    6.66
   1 -10 -19  154.42    7.66
  -1  10  18  314.79   10.43
   1 -10 -18  359.12   11.76
  -1  10  17   42.45    4.94
   1 -10 -17   36.40    5.16
  -1  10  16  232.88    8.43
   1 -10 -16  271.56    9.54
  -1  10  15  237.99    8.21
   1 -10 -15  237.99    8.60
  -1  10  14  111.03    5.66
   1 -10 -14   95.99    5.49
  -1  10  13   40.40    4.22
   1 -10 -13   36.12    4.33
  -1  10  12  312.79    9.65
   1 -10 -12  291.92    9.49
  -1  10  11    2.22    2.55
   1 -10 -11    1.44    3.11
  -1  10  10   45.22    3.22
   1 -10 -10   46.55    3.72
  -1  10   9   38.34    2.89
   1 -10  -9   46.83    3.44
  -1  10   8  103.71    4.22
   1 -10  -8   95.16    4.16
  -1  10   7  273.39    7.93
   1 -10  -7  294.87    8.66
  -1  10   6  305.13    8.66
   1 -10  -6  296.92    8.38
  -1  10   5  448.35   12.04
   1 -10  -5  476.48   12.82
  -1  10   4  635.90   16.65
   1 -10  -4  665.86   17.42
   1 -10  -3  665.31   17.42
   1 -10  -2  653.65   17.15
   1 -10  -2  670.30   17.53
   1 -10  -1  534.69   14.32
   1 -10  -1  510.16   13.71
   1 -10   0  873.39   22.81
   1 -10   0  827.89   21.75
   1 -10   1  164.86    5.77
   1 -10   1  156.42    5.83
   1 -10   2    4.27    3.00
   1 -10   2    7.49    3.33
   1 -10   3  373.44   11.04
   1 -10   3  387.97   11.54
   1 -10   4    8.21    3.50
   1 -10   4   12.10    3.72
   1 -10   5    4.77    3.55
   1 -10   5    0.61    3.77
   1 -10   6  207.08    7.88
   1 -10   6  188.44    7.32
   1 -10   7    0.44    4.11
   1 -10   7    2.77    4.38
   1 -10   8  436.86   13.37
   1 -10   8  472.93   14.26
   1 -10   9  281.99   10.10
   1 -10   9  269.45    9.82
  -1   9  19  123.79    6.71
   1  -9 -19  139.44    7.05
  -1   9  18  540.40   15.54
   1  -9 -18  482.58   14.48
  -1   9  17  145.99    6.60
   1  -9 -17  156.26    7.16
  -1   9  16   12.48    4.44
   1  -9 -16   11.65    4.38
  -1   9  15    2.39    3.72
   1  -9 -15    5.44    4.16
  -1   9  14  178.78    6.88
   1  -9 -14  180.39    7.27
  -1   9  13  102.43    5.27
   1  -9 -13   89.95    5.27
  -1   9  12   36.07    3.94
   1  -9 -12   33.68    4.00
  -1   9  11   22.08    3.50
   1  -9 -11   29.91    3.66
  -1   9  10  169.57    6.27
   1  -9 -10  169.41    6.38
  -1   9   9 1184.12   31.02
   1  -9  -9 1136.40   29.63
  -1   9   8  385.64   10.93
   1  -9  -8  368.72   10.60
  -1   9   7  720.79   18.87
   1  -9  -7  720.79   19.09
  -1   9   6  214.85    6.38
   1  -9  -6  208.86    6.44
  -1   9   5  412.17   11.04
   1  -9  -5  430.20   11.65
  -1   9   4  437.58   11.54
   1  -9  -4  441.63   11.82
  -1   9   3  894.47   22.92
   1  -9  -3  895.03   23.03
  -1   9   2  413.06   11.21
   1  -9  -2  378.15   10.43
   1  -9  -1   28.58    2.16
   1  -9  -1   25.41    2.33
   1  -9   0 2220.64   56.21
   1  -9   0 2163.49   54.77
   1  -9   1   52.38    3.50
   1  -9   1   42.45    3.38
   1  -9   2  376.65   10.93
   1  -9   2  353.18   10.43
   1  -9   3    3.27    3.11
   1  -9   3    3.11    3.16
   1  -9   4  304.52    9.71
   1  -9   4  305.52    9.65
   1  -9   5    7.99    3.44
   1  -9   5   10.65    3.77
   1  -9   6 1500.96   39.01
   1  -9   6 1494.86   38.95
   1  -9   7   20.36    4.44
   1  -9   7   11.21    4.00
   1  -9   8  814.57   22.36
   1  -9   8  824.56   22.58
   1  -9   9   54.05    5.27
   1  -9   9   50.44    4.94
   1  -9  10  342.14   11.32
   1  -9  10  361.95   11.87
  -1   8  19  237.27    8.77
   1  -8 -19  228.89    8.82
  -1   8  18  196.43    7.66
   1  -8 -18  198.32    8.27
  -1   8  17  171.85    7.32
   1  -8 -17  179.23    7.55
  -1   8  16  419.82   12.87
   1  -8 -16  439.47   13.32
  -1   8  15   30.46    4.16
   1  -8 -15   24.80    4.38
  -1   8  14  564.32   16.04
   1  -8 -14  577.08   16.70
  -1   8  13   60.48    4.33
   1  -8 -13   50.72    4.61
  -1   8  12    9.77    3.38
   1  -8 -12    9.93    3.50
  -1   8  11   10.10    3.05
   1  -8 -11   11.87    3.27
  -1   8  10   82.79    3.88
   1  -8 -10  101.99    4.83
  -1   8   9  163.69    5.77
   1  -8  -9  148.76    5.60
  -1   8   8  817.34   21.42
   1  -8  -8  854.52   22.64
  -1   8   7 1878.28   47.66
   1  -8  -7 1796.71   45.72
  -1   8   6  175.79    5.72
   1  -8  -6  171.35    5.55
  -1   8   5 1175.24   30.13
   1  -8  -5 1099.22   28.24
  -1   8   4   50.61    2.50
   1  -8  -4   50.16    2.66
  -1   8   3 1562.00   39.67
   1  -8  -3 1525.93   38.73
  -1   8   2 1379.44   35.07
   1  -8  -2 1441.59   36.68
   1  -8  -1  424.71   11.54
   1  -8   0  211.41    6.55
   1  -8   0  196.54    6.16
   1  -8   1  337.98    9.65
   1  -8   1  348.80   10.10
   1  -8   2 2652.90   67.03
   1  -8   2 2635.70   66.75
   1  -8   3  345.19   10.38
   1  -8   3  357.01   10.71
   1  -8   4   54.27    4.16
   1  -8   4   61.98    4.16
   1  -8   5  263.63    8.71
   1  -8   5  266.23    8.77
   1  -8   6  369.16   11.43
   1  -8   6  360.01   11.26
   1  -8   7  669.19   18.70
   1  -8   7  634.23   17.70
   1  -8   8  634.23   17.98
   1  -8   8  651.43   18.20
   1  -8   9  177.45    7.38
   1  -8   9  156.92    6.94
   1  -8  10   81.57    5.55
   1  -8  10   67.25    5.44
   1  -8  11  293.53   10.21
   1  -8  11  284.77   10.10
   1  -8  12   71.69    5.77
   1  -8  12   69.30    5.99
  -1   7  20  367.83   11.76
   1  -7 -20  349.41   11.49
  -1   7  19   60.43    5.55
   1  -7 -19   62.09    5.55
  -1   7  18   71.47    5.33
   1  -7 -18   66.09    5.44
  -1   7  17  342.14   10.93
   1  -7 -17  380.48   12.04
  -1   7  16  211.36    7.66
   1  -7 -16  229.00    8.55
  -1   7  15  642.56   17.98
   1  -7 -15  634.23   18.03
  -1   7  14  141.72    6.16
   1  -7 -14  148.10    6.88
  -1   7  13  175.51    7.16
   1  -7 -13  169.29    7.05
  -1   7  12   21.97    4.11
   1  -7 -12   27.47    3.94
  -1   7  11  105.09    5.49
   1  -7 -11  110.98    5.33
  -1   7  10 2245.61   57.32
   1  -7 -10 2196.78   56.04
  -1   7   9   12.32    3.05
   1  -7  -9   10.27    2.89
  -1   7   8  306.13    9.27
   1  -7  -8  330.32    9.93
  -1   7   7 1074.81   28.02
   1  -7  -7 1044.85   27.19
  -1   7   6  963.83   25.14
   1  -7  -6 1014.88   26.30
  -1   7   5 3722.16   93.28
   1  -7  -5 3646.69   91.50
  -1   7   4  355.74    9.77
   1  -7  -4  343.86    9.54
  -1   7   3 2464.79   61.98
   1  -7  -3 2494.76   62.81
  -1   7   2   15.26    1.89
   1  -7  -2   11.99    1.78
  -1   7   1 2523.61   63.53
   1  -7  -1 2495.31   62.87
   1  -7   1  694.16   18.37
   1  -7   1  690.83   18.42
   1  -7   2  305.02    8.99
   1  -7   2  290.48    8.88
   1  -7   3  126.68    4.94
   1  -7   3  135.95    5.55
   1  -7   4    3.61    2.83
   1  -7   4    3.00    2.77
   1  -7   5  177.12    6.83
   1  -7   5  162.03    6.55
   1  -7   6  643.66   18.03
   1  -7   6  644.22   17.98
   1  -7   7  548.06   15.76
   1  -7   7  540.68   15.48
   1  -7   8  875.05   23.86
   1  -7   8  873.94   23.53
   1  -7   9  435.75   13.26
   1  -7   9  426.93   12.98
   1  -7  10  107.15    5.99
   1  -7  10  122.68    6.10
   1  -7  11  202.42    8.38
   1  -7  11  197.26    7.60
   1  -7  12   51.94    5.38
   1  -7  12   71.52    5.66
   1  -7  13  622.02   17.92
   1  -7  13  623.69   17.81
  -1   6  20  156.75    7.05
   1  -6 -20  155.20    7.32
  -1   6  19  124.35    6.44
   1  -6 -19  125.51    6.33
  -1   6  18  468.54   13.76
   1  -6 -18  440.85   13.48
  -1   6  17  105.32    5.38
   1  -6 -17   97.33    5.49
  -1   6  16  480.86   14.09
   1  -6 -16  507.05   14.93
  -1   6  15   31.13    4.11
   1  -6 -15   32.96    4.61
  -1   6  14   64.31    4.61
   1  -6 -14   70.75    4.99
  -1   6  13  147.16    6.16
   1  -6 -13  158.59    6.71
  -1   6  12  225.34    8.16
   1  -6 -12  228.78    8.27
  -1   6  11  138.83    5.83
   1  -6 -11  142.33    5.99
  -1   6  10 1186.90   30.96
   1  -6 -10 1193.00   31.35
  -1   6   9  146.05    5.77
   1  -6  -9  139.16    5.55
  -1   6   8 4647.70  116.41
   1  -6  -8 4843.58  121.52
  -1   6   7 1311.74   33.74
   1  -6  -7 1278.45   32.96
  -1   6   6 1504.84   38.40
   1  -6  -6 1526.48   38.95
  -1   6   5  667.52   17.42
   1  -6  -5  693.05   18.31
  -1   6   4  884.48   22.81
   1  -6  -4  889.48   23.03
  -1   6   3 2922.57   73.36
   1  -6  -3 2917.02   73.30
  -1   6   2 1347.81   34.24
   1  -6  -2 1340.04   34.13
  -1   6   1  949.96   24.41
   1  -6  -1  949.41   24.53
  -1   6   0 1080.91   27.63
   1  -6   0 1116.98   28.74
   1  -6   1    3.00    2.05
   1  -6   1    4.55    2.28
   1  -6   2   34.68    2.94
   1  -6   2   28.85    2.89
   1  -6   3  603.71   16.42
   1  -6   3  572.64   15.76
   1  -6   4    9.82    2.66
   1  -6   4   15.54    3.27
   1  -6   5   -0.50    2.83
   1  -6   5    5.38    2.89
   1  -6   6 1778.96   45.89
   1  -6   6 1735.68   44.89
   1  -6   7   98.71    5.55
   1  -6   7   93.50    5.27
   1  -6   8 1431.60   37.45
   1  -6   8 1470.44   38.34
   1  -6   9   80.18    5.16
   1  -6   9   83.90    5.22
   1  -6  10  666.42   18.76
   1  -6  10  666.42   18.70
   1  -6  11  255.25    9.04
   1  -6  11  246.87    8.77
   1  -6  12   51.27    4.72
   1  -6  12   56.15    5.33
   1  -6  13  504.11   14.93
   1  -6  13  540.18   15.81
   1  -6  14  140.16    7.10
   1  -6  14  143.38    6.94
  -1   5  20    3.22    4.88
  -1   5  19  351.57   10.88
   1  -5 -19  349.52   11.38
  -1   5  18  277.28    9.27
   1  -5 -18  284.54    9.71
  -1   5  17  167.74    7.05
   1  -5 -17  178.45    7.32
  -1   5  16  632.01   18.03
   1  -5 -16  646.99   18.20
  -1   5  15   68.97    4.72
   1  -5 -15   70.53    4.77
  -1   5  14  105.04    5.44
   1  -5 -14  113.25    5.72
  -1   5  13   42.17    4.33
   1  -5 -13   40.01    4.49
  -1   5  12  448.90   13.26
   1  -5 -12  475.59   14.09
  -1   5  11  100.16    4.88
   1  -5 -11   91.11    5.05
  -1   5  10  503.61   14.26
   1  -5 -10  520.20   14.98
  -1   5   9 1936.54   49.55
   1  -5  -9 1998.14   51.16
  -1   5   8 1674.08   42.95
   1  -5  -8 1564.22   40.28
  -1   5   7 2002.02   51.05
   1  -5  -7 2008.12   51.10
  -1   5   6 3187.81   80.29
   1  -5  -6 3142.31   79.13
  -1   5   5 5320.78  133.06
   1  -5  -5 5203.70  130.06
  -1   5   4  197.70    6.21
   1  -5  -4  213.96    6.60
  -1   5   3 1991.48   50.33
   1  -5  -3 2001.46   50.49
  -1   5   2 4384.13  109.64
   1  -5  -2 4462.93  111.53
  -1   5   1  644.22   16.98
   1  -5  -1  634.79   16.65
  -1   5   0 1188.56   30.52
   1  -5   0 1158.04   29.69
  -1   5  -1  142.94    4.99
   1  -5   1  134.50    4.72
   1  -5   2   14.87    2.55
   1  -5   2   15.48    2.61
   1  -5   3  720.24   19.31
   1  -5   3  724.68   19.48
   1  -5   4    1.89    2.55
   1  -5   4    6.66    3.16
   1  -5   5  156.42    6.10
   1  -5   5  160.53    5.99
   1  -5   6  861.73   23.19
   1  -5   6  926.66   24.91
   1  -5   7  992.69   26.47
   1  -5   7 1011.55   27.13
   1  -5   8 2686.75   68.47
   1  -5   8 2717.26   69.19
   1  -5  10  597.05   17.09
   1  -5  10  608.71   17.37
   1  -5  11  340.42   10.88
   1  -5  11  331.04   10.65
   1  -5  12  168.19    7.10
   1  -5  12  178.73    7.21
   1  -5  13  311.73   10.49
   1  -5  13  299.42   10.04
   1  -5  14  199.70    7.71
   1  -5  14  203.09    8.16
   1  -5  15   36.51    4.99
   1  -5  15   38.90    5.38
  -1   4  19  243.65    8.43
   1  -4 -19  213.69    8.21
  -1   4  18   30.96    4.27
   1  -4 -18   32.18    4.49
  -1   4  17  125.51    6.16
   1  -4 -17  119.97    6.05
  -1   4  16   23.08    4.22
   1  -4 -16   16.76    4.11
  -1   4  15  127.68    6.05
   1  -4 -15  113.42    5.83
  -1   4  14   18.87    4.11
   1  -4 -14   20.75    3.94
  -1   4  13   91.11    5.38
   1  -4 -13   82.40    4.99
  -1   4  12 1853.31   47.94
   1  -4 -12 1869.96   48.16
  -1   4  11  745.21   20.70
   1  -4 -11  770.18   21.14
  -1   4  10 1048.73   28.08
   1  -4 -10 1068.71   28.35
  -1   4   9 1809.48   46.83
   1  -4  -9 1756.21   45.22
  -1   4   8 6697.44  167.46
   1  -4  -8 6764.03  169.07
  -1   4   7 4240.97  106.43
   1  -4  -7 4476.25  112.25
  -1   4   6  711.92   18.98
   1  -4  -6  706.37   18.92
  -1   4   5 2347.16   59.15
   1  -4  -5 2335.50   58.98
  -1   4   4  148.65    4.99
   1  -4  -4  155.53    5.38
  -1   4   3  846.20   21.86
   1  -4  -3  878.94   22.75
  -1   4   2  115.97    3.94
   1  -4  -2  115.53    4.00
   1  -4  -1 4955.66  123.68
  -1   4   0  609.26   16.04
   1  -4   0  592.06   15.65
  -1   4  -1  100.38    4.00
   1  -4   1  102.99    3.94
   1  -4   2  737.44   19.53
   1  -4   2  715.24   18.98
   1  -4   3   37.29    2.94
   1  -4   3   36.23    3.05
   1  -4   4 1114.76   29.13
   1  -4   4 1073.70   28.08
   1  -4   5  313.29    9.82
   1  -4   5  299.91    9.38
   1  -4   6  373.16   11.21
   1  -4   6  381.65   11.49
   1  -4   7  137.78    5.72
   1  -4   7  134.00    5.88
   1  -4   8  495.23   14.32
   1  -4   8  538.57   15.59
   1  -4   9 1635.24   42.45
   1  -4   9 1614.71   42.06
   1  -4  10 2794.39   71.14
   1  -4  10 2725.59   69.42
   1  -4  11  547.23   15.87
   1  -4  11  584.85   16.87
   1  -4  12    3.27    3.66
   1  -4  12    0.11    3.88
   1  -4  13  378.10   11.71
   1  -4  13  366.11   11.54
   1  -4  14  129.84    6.44
   1  -4  14  129.57    6.55
   1  -4  15   96.94    5.83
   1  -4  15   93.22    5.60
   1  -4  16   23.86    5.27
   1  -4  16   23.69    4.66
  -1   3  19   98.55    5.77
   1  -3 -19  105.65    6.16
  -1   3  18   75.58    5.27
   1  -3 -18   71.80    5.38
  -1   3  17   60.43    4.72
   1  -3 -17   67.81    5.16
  -1   3  16   73.85    5.05
   1  -3 -16   70.47    4.94
  -1   3  15   72.41    5.27
   1  -3 -15   82.51    5.33
  -1   3  14   86.17    5.10
   1  -3 -14   87.67    5.22
  -1   3  13  880.60   23.86
   1  -3 -13  929.43   25.25
  -1   3  12  784.05   21.42
   1  -3 -12  790.71   21.70
  -1   3  11  323.72   10.10
   1  -3 -11  360.40   11.26
  -1   3  10 3929.13   99.05
   1  -3 -10 4123.34  103.93
  -1   3   9  507.27   14.32
   1  -3  -9  460.61   13.48
  -1   3   8 9494.06  236.66
   1  -3  -8 9799.24  244.37
  -1   3   7 1017.66   26.80
   1  -3  -7 1053.17   27.80
  -1   3   6 1965.95   50.05
   1  -3  -6 1937.10   49.38
  -1   3   5 1267.35   32.63
   1  -3  -5 1229.62   31.68
  -1   3   4  255.25    7.77
   1  -3  -4  245.42    7.55
  -1   3   0  653.10   17.09
   1  -3   0  628.68   16.54
  -1   3  -1  430.59   11.82
   1  -3   1  444.57   12.10
   1  -3   2   72.52    3.50
   1  -3   3  991.02   25.97
   1  -3   3  994.35   25.91
   1  -3   4  796.81   21.20
   1  -3   4  780.17   20.86
   1  -3   5 4383.58  110.09
   1  -3   5 4399.67  110.48
   1  -3   6 1468.22   38.07
   1  -3   6 1480.98   38.34
   1  -3   7  514.99   14.76
   1  -3   7  503.45   14.54
   1  -3   8 1643.01   42.62
   1  -3   8 1594.74   41.45
   1  -3   9  981.03   26.36
   1  -3   9 1019.32   27.41
   1  -3  10  678.62   19.09
   1  -3  10  640.34   18.14
   1  -3  11  969.94   26.25
   1  -3  11  952.73   25.75
   1  -3  12  311.35   10.15
   1  -3  12  311.62   10.15
   1  -3  13  903.91   24.47
   1  -3  13  868.95   23.58
   1  -3  14    2.77    3.88
   1  -3  14    2.39    4.33
   1  -3  15  346.30   11.15
   1  -3  15  339.76   10.76
   1  -3  16    9.38    4.66
   1  -3  16    0.55    4.22
  -1   2  19   62.59    5.10
   1  -2 -19   63.70    5.10
  -1   2  18  197.32    7.88
   1  -2 -18  180.50    7.38
  -1   2  17    9.49    4.00
   1  -2 -17    1.05    3.83
  -1   2  16    6.99    3.83
   1  -2 -16    4.55    3.61
  -1   2  15  379.71   11.65
   1  -2 -15  393.13   12.32
  -1   2  14  291.92    9.88
   1  -2 -14  305.96   10.15
  -1   2  13 3065.73   77.96
   1  -2 -13 3091.26   78.52
  -1   2  12  137.39    6.49
   1  -2 -12  141.72    6.33
  -1   2  11  581.52   16.65
   1  -2 -11  651.43   18.37
  -1   2  10 3177.26   80.57
   1  -2 -10 3156.18   80.13
  -1   2   9 2952.53   74.85
   1  -2  -9 3052.97   77.35
  -1   2   8 4399.67  110.70
   1  -2  -8 4400.78  110.64
  -1   2   7  606.49   16.70
   1  -2  -7  661.98   18.26
  -1   2   6  506.89   14.26
   1  -2  -6  493.18   13.93
  -1   2   5    4.38    2.66
   1  -2  -5    2.50    2.77
  -1   2   4  577.63   15.65
   1  -2  -4  568.76   15.43
  -1   2   3 1313.96   33.51
   1  -2  -3 1360.57   34.74
  -1   2   2 4506.21  112.36
   1  -2  -2 4707.63  117.41
  -1   2   1 3138.42   78.41
   1  -2  -1 3131.21   78.24
  -1   2   0  926.10   23.75
   1  -2   0  905.02   23.25
  -1   2  -1 1935.99   48.89
   1  -2   1 1923.78   48.61
  -1   2  -2   25.58    2.83
   1  -2   2   24.75    2.72
   1  -2   3 2239.51   56.71
   1  -2   3 2246.17   56.82
   1  -2   4 1417.17   36.51
   1  -2   4 1397.75   36.07
   1  -2   5   74.02    4.11
   1  -2   5   80.85    4.27
   1  -2   6 1888.27   48.44
   1  -2   6 1731.24   44.50
   1  -2   7  868.95   23.42
   1  -2   7  838.98   22.69
   1  -2   8 6242.44  156.42
   1  -2   8 6214.69  155.70
   1  -2   9  529.25   15.31
   1  -2   9  545.67   15.59
   1  -2  10 2138.52   54.88
   1  -2  10 2125.20   54.66
   1  -2  11  169.07    7.05
   1  -2  11  156.42    6.60
   1  -2  12 1403.30   36.84
   1  -2  12 1431.60   37.40
   1  -2  13  740.77   20.64
   1  -2  13  755.20   21.03
   1  -2  14    9.16    3.83
   1  -2  14   10.43    3.94
   1  -2  15  309.62   10.27
   1  -2  15  340.42   11.15
   1  -2  16  244.15    8.71
   1  -2  16  232.94    8.55
   1  -2  17    8.93    4.33
   1  -2  17    5.60    4.55
  -1   1  19  108.59    6.83
  -1   1  19  107.48    5.49
  -1   1  18   29.74    4.66
   1  -1 -18   32.63    4.77
  -1   1  17   52.16    4.99
   1  -1 -17   42.73    4.38
  -1   1  16    1.05    3.77
   1  -1 -16    4.33    3.72
  -1   1  15  756.31   21.14
   1  -1 -15  750.20   20.70
  -1   1  14  391.25   12.15
   1  -1 -14  411.45   12.65
  -1   1  13 1046.51   28.02
   1  -1 -13 1040.96   27.97
  -1   1  12   23.97    3.83
   1  -1 -12   22.08    4.00
  -1   1  11 2021.44   51.99
   1  -1 -11 2086.36   53.60
  -1   1  10 2330.51   59.43
   1  -1 -10 2260.04   57.82
  -1   1   9 1188.01   31.13
   1  -1  -9 1200.77   31.57
  -1   1   8 2500.30   63.65
   1  -1  -8 2613.50   66.48
  -1   1   7 1409.96   36.34
   1  -1  -7 1474.33   38.29
  -1   1   6 1790.05   45.83
   1  -1  -6 1739.56   44.61
  -1   1   5  665.86   17.92
   1  -1  -5  683.62   18.53
  -1   1   4  736.33   19.70
   1  -1  -4  723.57   19.37
  -1   1   3 2681.20   67.47
   1  -1  -3 2804.94   70.53
  -1   1   2   77.52    3.33
   1  -1  -2   80.24    3.50
  -1   1   1  405.45   10.82
   1  -1  -1  412.56   10.93
  -1   1   0   18.64    1.89
   1  -1   0   18.14    1.94
  -1   1  -1 1754.54   44.28
   1  -1   1 1719.03   43.34
  -1   1  -2  266.57    7.99
   1  -1   2  272.45    8.16
   1  -1   3 3489.11   87.56
   1  -1   3 3322.09   83.45
   1  -1   4  761.86   20.31
   1  -1   4  805.14   21.42
   1  -1   5 3067.40   77.52
   1  -1   5 3033.55   76.63
   1  -1   6 4198.25  105.43
   1  -1   6 4042.88  101.77
   1  -1   7 2617.94   66.53
   1  -1   7 2717.26   68.97
   1  -1   8 4902.40  123.18
   1  -1   8 4983.41  125.24
   1  -1   9  884.48   23.97
   1  -1   9  941.08   25.25
   1  -1  10  212.35    7.88
   1  -1  10  218.12    7.93
   1  -1  11  677.51   19.14
   1  -1  11  735.22   20.70
   1  -1  12  569.87   16.65
   1  -1  12  550.06   16.09
   1  -1  13  598.16   17.03
   1  -1  13  620.91   17.92
   1  -1  14    6.77    3.88
   1  -1  14    3.83    3.77
   1  -1  15   25.97    4.27
   1  -1  15   24.14    4.16
   1  -1  16  159.86    6.66
   1  -1  16  155.42    6.94
   1  -1  17   13.32    4.44
   1  -1  17   13.37    4.38
  -1   0  18    4.27    4.16
  -1   0  17   23.69    4.55
   1   0 -17   30.41    4.49
  -1   0  16   15.59    4.16
   1   0 -16    6.77    4.00
  -1   0  15  439.80   13.32
   1   0 -15  420.55   12.65
  -1   0  14  742.43   20.36
   1   0 -14  741.32   20.53
  -1   0  13   46.61    4.49
   1   0 -13   48.50    4.44
  -1   0  12  679.73   19.20
   1   0 -12  688.61   19.37
  -1   0  11  563.76   16.37
   1   0 -11  610.37   17.48
  -1   0  10 2287.78   58.65
   1   0 -10 2357.70   60.37
  -1   0   9  420.99   12.65
   1   0  -9  433.31   12.93
  -1   0   8 1897.70   48.66
   1   0  -8 1923.23   49.50
  -1   0   7    8.55    3.11
   1   0  -7   11.82    3.38
  -1   0   6 2443.15   62.04
   1   0  -6 2353.26   59.87
  -1   0   5 2143.51   54.49
   1   0  -5 2119.65   53.88
  -1   0   4    3.94    2.94
   1   0  -4    1.17    2.94
  -1   0   2   41.06    2.77
   1   0  -2   37.12    2.66
  -1   0   1   61.59    2.61
   1   0  -1   55.38    2.44
  -1   0  -1  407.17   10.82
   1   0   1  401.40   10.65
  -1   0  -2 2462.57   61.81
   1   0   2 2326.63   58.43
   1   0   3  504.11   13.82
   1   0   3  490.68   13.54
   1   0   4  362.78   10.60
   1   0   4  376.49   10.88
   1   0   5 7374.40  184.33
   1   0   5 6852.81  171.07
  -1   0  -6 4223.77  106.32
   1   0   6 5450.62  136.39
  -1   0  -7 5353.52  134.28
   1   0   7 5842.92  146.32
  -1   0  -8 3337.07   84.56
   1   0   8 3490.22   88.17
  -1   0  -9  806.80   22.64
   1   0   9 1039.30   27.74
   1   0  10  168.30    7.10
   1   0  10  164.52    6.71
   1   0  11 2255.60   57.87
   1   0  11 2362.14   60.65
   1   0  12  285.15    9.71
   1   0  12  278.16    9.32
   1   0  13  325.33   10.60
   1   0  13  294.20    9.88
   1   0  14   24.86    4.27
   1   0  14   26.02    4.16
   1   0  15    3.66    3.94
   1   0  15   -2.55    3.88
   1   0  16  226.17    8.38
   1   0  16  236.82    8.38
   1   0  17   67.09    5.22
   1   0  17   63.26    4.83
  -1  -1  18   31.96    5.16
  -1  -1  18   20.31    4.38
  -1  -1  17   12.15    4.33
  -1  -1  16    1.50    4.00
   1   1 -16   -1.11    4.00
  -1  -1  15  250.70    8.60
   1   1 -15  286.87    9.54
  -1  -1  14   72.19    5.05
   1   1 -14   59.65    4.55
  -1  -1  13 1012.66   27.41
   1   1 -13 1084.80   28.96
  -1  -1  12  541.07   15.87
   1   1 -12  520.15   15.26
  -1  -1  11  574.30   16.42
   1   1 -11  579.85   16.81
  -1  -1  10 1493.19   38.90
   1   1 -10 1572.54   40.95
  -1  -1   9   30.91    3.27
   1   1  -9   33.02    3.94
  -1  -1   8 3228.87   81.62
   1   1  -8 3438.61   86.95
  -1  -1   7  888.37   23.75
   1   1  -7  954.40   25.47
  -1  -1   6 2767.76   69.97
   1   1  -6 2803.83   71.03
  -1  -1   5   44.39    3.61
   1   1  -5   46.50    3.55
  -1  -1   4   95.66    4.44
   1   1  -4   96.66    4.44
  -1  -1   3   17.98    3.00
   1   1  -3   25.14    3.27
  -1  -1   2  364.89   10.21
   1   1  -2  381.54   10.60
  -1  -1   0 1050.39   26.41
   1   1   0 1058.72   26.63
  -1  -1  -2  444.68   11.87
   1   1   2  437.53   11.65
   1   1   3  243.82    7.44
   1   1   3  238.93    7.32
   1   1   4 2072.49   52.66
   1   1   4 2191.79   55.88
  -1  -1  -5 2518.62   63.76
   1   1   5 2490.87   63.03
  -1  -1  -6 6048.23  151.26
   1   1   6 6481.04  162.08
  -1  -1  -7 3325.42   84.06
   1   1   7 3456.37   87.17
  -1  -1  -8 4103.92  103.43
   1   1   8 4127.22  103.93
  -1  -1  -9  410.95   12.32
   1   1   9  420.21   12.48
  -1  -1 -10  397.74   12.10
   1   1  10  361.06   11.10
  -1  -1 -11  355.57   11.21
   1   1  11  422.77   12.82
   1   1  12   -0.94    3.38
   1   1  12    0.28    3.55
   1   1  13  106.65    5.72
   1   1  13  112.03    5.94
   1   1  14  148.38    6.66
   1   1  14  138.00    6.66
   1   1  15  108.81    5.88
   1   1  15  107.37    5.77
   1   1  16  253.91    8.93
   1   1  16  273.95    9.27
   1   1  17   72.97    4.94
   1   1  17   82.18    5.27
   1   1  18  140.39    6.60
   1   1  18  163.91    6.94
  -1  -2  17    6.77    4.61
  -1  -2  17    5.88    4.49
  -1  -2  16    1.17    4.11
  -1  -2  15  184.39    7.16
   1   2 -15  172.57    7.10
  -1  -2  14   33.57    4.49
   1   2 -14   45.78    4.27
  -1  -2  13 1417.17   37.12
   1   2 -13 1346.15   35.35
  -1  -2  12  656.43   18.42
   1   2 -12  664.75   18.64
  -1  -2  11 1507.62   39.40
   1   2 -11 1659.10   43.23
  -1  -2  10  477.37   14.09
   1   2 -10  474.59   14.09
  -1  -2   9  224.84    7.99
   1   2  -9  244.04    8.43
  -1  -2   8 2862.09   72.69
   1   2  -8 2696.73   68.53
  -1  -2   7  326.99   10.10
   1   2  -7  334.26   10.49
  -1  -2   6 5463.38  136.78
   1   2  -6 5431.75  136.06
  -1  -2   5 1687.40   43.28
   1   2  -5 1716.81   44.00
  -1  -2   4 2855.99   71.97
   1   2  -4 2787.73   70.30
  -1  -2   3  784.05   20.64
   1   2  -3  852.30   22.36
  -1  -2   2 1282.34   32.74
   1   2  -2 1330.06   33.96
  -1  -2   0   36.51    1.78
   1   2   0   37.23    1.83
  -1  -2  -1   45.50    1.94
   1   2   1   46.00    2.00
  -1  -2  -2 1990.37   49.88
  -1  -2  -4  955.51   24.86
   1   2   4  952.73   24.80
  -1  -2  -5 5412.89  135.34
   1   2   5 5288.59  132.06
   1   2   6 9999.00  248.98
  -1  -2  -7 1226.85   32.07
   1   2   7 1201.32   31.41
  -1  -2  -8  392.25   11.71
   1   2   8  416.50   12.48
  -1  -2  -9    8.16    3.05
   1   2   9    3.38    3.05
  -1  -2 -10 3959.09   99.93
   1   2  10 3756.01   94.83
  -1  -2 -11 1686.29   43.72
   1   2  11 1590.85   41.45
  -1  -2 -12  722.46   20.14
   1   2  12  715.24   20.03
   1   2  13  351.80   11.21
   1   2  14   30.19    4.05
   1   2  14   25.97    4.22
   1   2  15   67.81    4.77
   1   2  15   72.58    5.10
   1   2  16  504.22   14.93
   1   2  16  498.84   14.70
   1   2  17   -1.39    3.55
   1   2  17   -1.39    4.05
   1   2  18  471.60   13.93
   1   2  18  513.43   14.82
   1   2  19   17.48    4.22
   1   2  19   14.21    4.49
  -1  -3  17  134.78    6.71
  -1  -3  17  143.22    6.77
  -1  -3  16  391.80   12.26
  -1  -3  16  389.97   12.21
  -1  -3  14   42.00    4.61
   1   3 -14   41.95    4.33
  -1  -3  13  619.80   17.42
   1   3 -13  619.25   17.59
  -1  -3  12  237.43    8.55
   1   3 -12  229.83    8.16
  -1  -3  11 1785.61   46.28
   1   3 -11 1822.24   47.17
  -1  -3  10 1024.31   27.58
   1   3 -10 1043.18   27.97
  -1  -3   9 1851.65   47.78
   1   3  -9 1951.53   50.33
  -1  -3   8  806.25   21.97
   1   3  -8  859.51   23.19
  -1  -3   7   20.53    3.27
   1   3  -7   20.92    3.50
  -1  -3   6  177.51    6.60
   1   3  -6  167.08    6.33
  -1  -3   5 1044.29   27.47
   1   3  -5 1028.75   27.24
  -1  -3   4  948.85   24.97
   1   3  -4  882.26   23.19
  -1  -3   3  351.07    9.99
   1   3  -3  358.57   10.21
  -1  -3   2  891.14   23.03
   1   3  -2  942.75   24.41
  -1  -3   1  551.55   14.48
   1   3  -1  541.84   14.26
   1   3   3 1389.43   35.24
   1   3   3 1391.09   35.24
  -1  -3  -4  436.25   11.99
   1   3   4  406.23   11.26
  -1  -3  -5 4216.00  105.59
   1   3   5 4151.64  103.99
  -1  -3  -6 1699.61   43.45
   1   3   6 1760.65   45.00
  -1  -3  -7 1629.14   41.89
   1   3   7 1608.05   41.45
  -1  -3  -8 1499.85   38.84
   1   3   8 1482.09   38.40
  -1  -3  -9   74.30    4.33
   1   3   9   75.02    4.33
  -1  -3 -10  779.61   21.31
   1   3  10  762.96   20.92
  -1  -3 -11  128.12    5.83
   1   3  11  117.08    5.55
  -1  -3 -12  389.75   11.93
   1   3  12  397.85   12.15
  -1  -3 -13  354.68   11.26
   1   3  13  321.11   10.32
   1   3  14  268.79    9.16
   1   3  15  164.41    7.21
   1   3  15  174.18    7.10
   1   3  16  198.98    7.55
   1   3  16  193.10    7.21
   1   3  17  237.88    8.43
   1   3  17  235.94    8.55
   1   3  18   66.25    5.22
   1   3  18   65.59    4.49
   1   3  19  176.56    7.16
   1   3  19  167.35    6.88
  -1  -4  16  344.14   11.10
  -1  -4  16  364.34   11.49
  -1  -4  15  195.32    7.71
  -1  -4  15  197.93    7.93
  -1  -4  14  136.78    6.33
  -1  -4  14  140.61    6.55
  -1  -4  13  370.38   11.54
   1   4 -13  281.49    9.60
  -1  -4  12  464.05   13.87
   1   4 -12  490.57   14.48
  -1  -4  11  247.09    8.77
   1   4 -11  223.78    8.21
  -1  -4  10 2269.47   58.21
   1   4 -10 2183.47   56.04
  -1  -4   9 1735.12   45.00
   1   4  -9 1669.09   43.39
  -1  -4   8 4204.35  105.98
   1   4  -8 4029.56  101.43
  -1  -4   7   56.54    4.00
   1   4  -7   72.58    4.72
  -1  -4   6  193.27    6.94
   1   4  -6  183.44    6.71
  -1  -4   5  457.72   13.10
   1   4  -5  434.14   12.48
  -1  -4   4  336.26    9.99
   1   4  -4  348.24   10.27
  -1  -4   3    4.05    2.50
   1   4  -3    0.67    2.50
  -1  -4   2 2283.35   57.43
   1   4  -2 2284.46   57.54
  -1  -4   1  143.49    4.49
   1   4  -1  137.11    4.33
   1   4   0 2568.00   64.48
  -1  -4  -1  321.61    8.93
   1   4   1  282.99    7.93
   1   4   3 1055.94   26.75
   1   4   3 1018.77   25.91
  -1  -4  -4 2899.27   72.69
   1   4   4 2873.19   72.02
  -1  -4  -5 1356.14   34.62
   1   4   5 1417.73   36.23
  -1  -4  -6 1815.58   46.22
   1   4   6 1748.99   44.39
  -1  -4  -7  417.16   11.93
   1   4   7  423.04   12.10
  -1  -4  -8  815.68   21.86
   1   4   8  793.48   21.20
  -1  -4  -9  142.05    5.77
   1   4   9  139.50    5.83
  -1  -4 -10   19.09    3.22
   1   4  10   21.36    3.72
  -1  -4 -11   14.76    3.50
   1   4  11   15.20    3.61
  -1  -4 -12   12.76    3.50
   1   4  12    9.65    3.77
  -1  -4 -13    5.27    3.61
   1   4  13    8.16    3.77
  -1  -4 -14  442.08   13.32
   1   4  14  478.75   14.32
   1   4  15  172.46    7.16
   1   4  15  165.58    6.71
   1   4  16  543.67   15.65
   1   4  16  518.43   14.82
   1   4  18  202.48    7.49
   1   4  18  198.09    7.66
   1   4  19  211.97    7.88
   1   4  19  202.87    7.27
  -1  -5  15  552.28   15.93
  -1  -5  15  582.07   16.59
  -1  -5  14  138.61    6.49
  -1  -5  14  143.49    6.71
  -1  -5  13  321.83   10.54
  -1  -5  13  318.23   10.32
  -1  -5  12  157.75    6.71
  -1  -5  12  176.79    7.16
  -1  -5  11 1414.40   37.01
   1   5 -11 1163.59   31.07
  -1  -5  10 1789.50   46.33
   1   5 -10 1780.62   46.17
  -1  -5   9  185.44    7.16
   1   5  -9  182.17    6.94
  -1  -5   8 1722.91   44.61
   1   5  -8 1740.11   45.00
  -1  -5   7    8.99    3.44
   1   5  -7    6.16    3.05
  -1  -5   6 1301.76   34.01
   1   5  -6 1331.72   34.57
  -1  -5   5    5.38    3.05
   1   5  -5   11.26    3.00
  -1  -5   4   45.06    3.44
   1   5  -4   51.55    3.50
  -1  -5   3   61.92    3.50
   1   5  -3   64.75    3.38
  -1  -5   2  576.52   15.31
   1   5  -2  562.65   14.98
  -1  -5   1  749.09   19.31
   1   5  -1  730.23   18.87
  -1  -5   0  434.03   11.32
   1   5   0  456.84   11.93
   1   5   3 1608.61   40.73
   1   5   3 1473.22   37.29
   1   5   4  283.05    7.77
  -1  -5  -5 1303.42   33.24
   1   5   5 1302.87   33.35
  -1  -5  -6 2491.98   62.92
   1   5   6 2412.63   60.93
  -1  -5  -7  860.62   22.69
   1   5   7  890.03   23.64
  -1  -5  -8 3082.93   77.79
   1   5   8 3019.12   76.24
  -1  -5  -9    7.16    2.94
   1   5   9    3.55    3.22
  -1  -5 -10  216.79    7.60
   1   5  10  220.34    7.49
  -1  -5 -11  180.39    6.77
   1   5  11  184.05    6.99
  -1  -5 -12  233.00    8.21
   1   5  12  238.71    8.49
  -1  -5 -13  668.08   18.81
   1   5  13  701.93   19.70
  -1  -5 -14    6.77    3.61
   1   5  14    8.10    3.88
   1   5  15  174.51    7.16
   1   5  16  265.90    9.32
   1   5  16  268.62    9.21
   1   5  17   17.09    4.33
   1   5  17   16.09    3.83
   1   5  18 1595.29   41.28
   1   5  18 1610.27   41.84
   1   5  19   72.02    5.72
   1   5  19   78.85    4.94
  -1  -6  15  238.49    8.77
  -1  -6  15  245.26    9.10
  -1  -6  14   83.57    5.66
  -1  -6  14   85.17    5.49
  -1  -6  13  929.98   25.08
  -1  -6  13  927.77   24.86
  -1  -6  12   28.35    4.44
  -1  -6  12   31.30    4.27
  -1  -6  11  989.91   26.63
  -1  -6  11 1010.44   27.13
  -1  -6  10  870.06   23.64
  -1  -6  10  852.30   23.19
  -1  -6   9 1894.93   48.77
  -1  -6   8 1657.44   43.06
   1   6  -8 1504.84   39.34
  -1  -6   7    4.16    3.44
   1   6  -7   12.82    3.05
  -1  -6   6  106.37    5.10
   1   6  -6  112.36    5.16
  -1  -6   5  559.88   15.65
   1   6  -5  529.69   14.93
  -1  -6   4  837.32   22.25
   1   6  -4  833.99   22.08
  -1  -6   3 1175.24   30.35
   1   6  -3 1178.57   30.52
  -1  -6   2    3.16    2.16
   1   6  -2    5.72    1.89
  -1  -6   1   22.58    2.00
  -1  -6   1   24.14    2.05
  -1  -6  -5 5161.53  129.01
   1   6   5 4941.24  123.52
  -1  -6  -6 1560.89   39.73
   1   6   6 1599.17   40.62
  -1  -6  -7  245.15    7.55
   1   6   7  253.36    7.82
  -1  -6  -8  906.12   23.92
   1   6   8  890.03   23.31
  -1  -6  -9   39.40    3.44
   1   6   9   40.01    3.33
  -1  -6 -10  384.31   11.43
   1   6  10  392.75   11.49
  -1  -6 -11  470.71   13.65
   1   6  11  500.01   14.37
  -1  -6 -12  433.86   13.10
   1   6  12  424.60   12.71
  -1  -6 -13   55.49    4.61
   1   6  13   50.44    3.88
  -1  -6 -14  295.03    9.93
   1   6  14  302.91    9.65
  -1  -6 -15  656.43   18.53
   1   6  15  623.69   17.42
   1   6  16  423.88   12.93
   1   6  16  413.72   12.32
   1   6  17   98.88    5.72
   1   6  17  106.98    5.44
   1   6  18  742.99   20.70
   1   6  18  694.71   19.20
   1   6  19  118.75    5.94
   1   6  19  106.98    6.05
   1   6  20  241.15    8.60
   1   6  20  254.19    9.38
  -1  -7  14  326.27   10.88
  -1  -7  14  327.60   10.93
  -1  -7  13  586.51   16.87
  -1  -7  13  588.73   16.98
  -1  -7  12  285.38    9.77
  -1  -7  12  279.16    9.32
  -1  -7  11  569.87   16.26
  -1  -7  11  561.54   16.15
  -1  -7  10  632.01   17.98
  -1  -7  10  646.99   18.14
  -1  -7   9  176.29    6.99
  -1  -7   9  188.05    7.44
  -1  -7   8  868.39   23.47
  -1  -7   8  936.09   25.25
  -1  -7   7   24.97    3.55
  -1  -7   7   18.26    3.72
  -1  -7   6   96.44    4.83
  -1  -7   6  103.82    5.16
  -1  -7   5  160.03    6.16
  -1  -7   5  164.80    6.21
  -1  -7   4  204.92    6.88
  -1  -7   4  199.43    6.77
  -1  -7   3   62.59    3.55
  -1  -7   3   69.42    3.61
  -1  -7   2 1130.30   29.08
  -1  -7   2 1166.37   30.02
  -1  -7   1   38.34    2.44
  -1  -7   1   37.95    2.28
  -1  -7   0 1810.03   45.83
  -1  -7   0 1818.91   46.00
   1   7   5 4610.53  115.64
   1   7   5 4537.84  113.70
  -1  -7  -6 2119.10   53.49
   1   7   6 2096.35   52.82
  -1  -7  -7 6924.95  172.79
   1   7   7 7324.46  182.83
  -1  -7  -8 1003.78   26.19
   1   7   8  994.91   26.08
  -1  -7  -9  216.40    7.27
   1   7   9  211.91    7.32
  -1  -7 -10   78.24    4.27
   1   7  10   84.68    4.72
  -1  -7 -11   33.29    3.50
   1   7  11   45.33    4.22
  -1  -7 -12   11.65    3.61
   1   7  12   15.81    3.66
  -1  -7 -13  384.87   11.93
   1   7  13  378.54   11.93
  -1  -7 -14  216.90    8.10
   1   7  14  206.75    8.05
  -1  -7 -15  905.02   24.53
   1   7  15  897.25   24.53
   1   7  16  842.87   22.97
   1   7  16  890.03   24.25
   1   7  17  398.46   12.15
   1   7  17  437.58   13.43
   1   7  18  689.72   19.14
   1   7  18  624.24   17.70
   1   7  19  210.80    8.05
   1   7  19  214.35    7.99
   1   7  20  164.52    6.94
   1   7  20  181.34    7.49
  -1  -8  13  232.22    8.93
  -1  -8  13  226.61    8.82
  -1  -8  12  426.65   13.21
  -1  -8  12  415.50   12.87
  -1  -8  11  562.65   16.20
  -1  -8  11  562.65   16.09
  -1  -8  10  324.72   10.54
  -1  -8  10  332.65   10.65
  -1  -8   9   31.24    4.33
  -1  -8   9   26.75    4.05
  -1  -8   8  341.42   10.88
  -1  -8   8  338.48   10.76
  -1  -8   7   26.14    3.88
  -1  -8   7   26.25    3.66
  -1  -8   6   82.40    4.77
  -1  -8   6   84.06    4.55
  -1  -8   5 1325.06   34.46
  -1  -8   5 1333.94   34.62
  -1  -8   4  371.00   10.88
  -1  -8   4  387.31   11.15
  -1  -8   3   33.24    3.00
  -1  -8   3   32.68    2.72
  -1  -8   2 2331.62   58.98
  -1  -8   2 2223.97   56.27
  -1  -8   1 1077.58   27.58
  -1  -8   1 1088.68   27.91
  -1  -8   0 1540.36   39.17
  -1  -8   0 1570.88   39.90
   1   8   6  757.42   19.70
   1   8   6  788.49   20.42
  -1  -8  -7  883.37   22.97
   1   8   7  879.49   22.86
  -1  -8  -8   91.00    4.00
   1   8   8   99.27    4.27
  -1  -8  -9  916.67   24.19
   1   8   9  980.48   25.58
  -1  -8 -10  230.44    7.60
   1   8  10  225.23    7.32
  -1  -8 -11    0.11    3.22
   1   8  11    1.55    2.77
  -1  -8 -12  282.77    9.38
   1   8  12  284.43    8.82
  -1  -8 -13  456.61   13.71
   1   8  13  427.26   12.48
  -1  -8 -14  261.13    9.10
   1   8  14  259.96    8.82
  -1  -8 -15  561.54   16.31
   1   8  15  525.03   15.20
   1   8  16  751.31   20.86
   1   8  16  779.61   21.70
   1   8  17  201.76    7.88
   1   8  17  190.49    7.49
   1   8  18  560.43   16.31
   1   8  18  584.85   16.59
   1   8  19  139.83    6.27
   1   8  19  135.23    6.94
   1   8  20  306.24   10.54
   1   8  20  280.44    9.93
  -1  -9  12  120.96    6.94
  -1  -9  12  109.59    6.83
  -1  -9  11  535.13   15.81
  -1  -9  11  530.41   15.54
  -1  -9  10   66.42    5.16
  -1  -9  10   57.49    5.10
  -1  -9   9  142.83    6.55
  -1  -9   9  128.40    5.94
  -1  -9   8    5.66    3.94
  -1  -9   8    4.66    3.66
  -1  -9   7   16.15    3.77
  -1  -9   7    6.16    3.38
  -1  -9   6  318.50    9.93
  -1  -9   6  300.14    9.65
  -1  -9   5  146.60    5.88
  -1  -9   5  158.92    6.27
  -1  -9   4   -2.05    2.77
  -1  -9   4    7.10    2.89
  -1  -9   3 1775.07   45.33
  -1  -9   3 1726.24   44.06
  -1  -9   2  594.84   15.93
  -1  -9   2  598.72   15.93
  -1  -9   1 1758.98   44.56
  -1  -9   1 1741.22   44.17
  -1  -9   0  936.09   24.08
  -1  -9   0  871.17   22.42
   1   9   6   12.93    1.28
   1   9   6   16.37    1.39
   1   9   7  689.72   17.98
   1   9   7  668.08   17.31
  -1  -9  -8 1067.60   27.80
   1   9   8  991.02   25.64
  -1  -9  -9   -0.33    2.44
   1   9   9    0.33    2.22
  -1  -9 -10   53.16    3.72
   1   9  10   54.49    3.72
  -1  -9 -11  291.70    9.27
   1   9  11  313.18    9.93
  -1  -9 -12    7.27    3.50
   1   9  12    0.89    3.27
  -1  -9 -13 2154.61   55.21
   1   9  13 2077.48   53.44
  -1  -9 -14  677.51   18.98
   1   9  14  673.07   18.76
   1   9  15  278.72    9.16
   1   9  16  211.24    7.44
   1   9  16  202.53    7.71
   1   9  17   89.34    5.83
   1   9  17   75.74    5.66
   1   9  18  742.43   20.81
   1   9  18  748.54   20.86
   1   9  19  198.20    7.93
   1   9  19  192.10    7.77
   1   9  20  127.90    7.16
   1   9  20  147.38    8.43
  -1 -10  10   -2.94    4.94
  -1 -10  10    3.22    4.94
  -1 -10   9   64.48    5.38
  -1 -10   9   60.32    5.55
  -1 -10   8   63.48    5.16
  -1 -10   8   60.48    5.10
  -1 -10   7   93.50    5.27
  -1 -10   7   98.82    5.49
  -1 -10   6   60.09    4.22
  -1 -10   6   64.26    4.44
  -1 -10   5   71.58    4.44
  -1 -10   5   82.62    4.88
  -1 -10   4 1022.10   26.75
  -1 -10   4 1064.82   27.86
  -1 -10   3  214.57    6.99
  -1 -10   3  208.86    6.88
  -1 -10   2  947.74   24.75
  -1 -10   2  921.66   23.92
  -1 -10   1  867.28   22.47
  -1 -10   1  844.53   21.86
  -1 -10   0  800.70   20.92
  -1 -10   0  845.09   22.03
   1  10   7  508.11   13.37
   1  10   7  543.56   14.09
   1  10   8   10.49    2.00
   1  10   8   12.98    2.16
   1  10   9  404.68   11.38
   1  10   9  416.99   11.71
   1  10  10   15.76    3.05
  -1 -10 -11  507.94   14.65
   1  10  11  478.03   13.54
  -1 -10 -12  144.38    6.10
   1  10  12  117.30    4.94
  -1 -10 -13 2144.07   55.38
   1  10  13 2089.69   53.16
   1  10  15  893.92   24.08
   1  10  15  852.86   23.19
   1  10  16  225.50    8.10
   1  10  16  240.99    8.93
   1  10  17  177.40    7.55
   1  10  17  184.67    7.38
   1  10  18  208.80    8.32
   1  10  18  222.45    8.38
   1  10  19  154.48    7.55
   1  10  19  142.88    6.71
  -1 -11   9   28.47    5.94
  -1 -11   9   28.80    5.38
  -1 -11   8   34.62    5.22
  -1 -11   8   45.61    5.38
  -1 -11   7    2.00    4.22
  -1 -11   7   12.54    4.22
  -1 -11   6    1.05    3.88
  -1 -11   6   -1.72    3.77
  -1 -11   5  317.00    9.88
  -1 -11   5  320.89    9.99
  -1 -11   4  137.22    5.66
  -1 -11   4  144.21    5.72
  -1 -11   3 1837.77   46.94
  -1 -11   3 1848.32   47.11
  -1 -11   2  528.80   14.26
  -1 -11   2  525.31   14.32
  -1 -11   1  508.00   13.59
  -1 -11   1  509.94   13.54
   1  11   8  209.91    5.99
   1  11   8  197.98    5.72
   1  11   9   28.58    2.61
   1  11   9   28.63    2.11
   1  11  10   77.46    4.11
   1  11  10   81.68    3.61
   1  11  11    4.94    3.00
   1  11  11    1.66    3.00
   1  11  12  302.08    9.54
   1  11  12  294.70    9.27
   1  11  13 1942.65   49.66
   1  11  13 1868.29   48.00
   1  11  14 1068.15   28.35
   1  11  14 1043.18   27.41
   1  11  15  183.56    7.49
   1  11  15  172.07    7.05
   1  11  16  328.32   10.82
   1  11  16  349.69   11.15
   1  11  18  107.20    6.71
   1  11  18  129.95    6.60
   1  11  19  211.08    8.66
   1  11  19  227.34    8.55
  -1 -12   8   26.19    5.55
  -1 -12   8   30.30    6.16
  -1 -12   7  131.23    7.05
  -1 -12   7  139.94    6.83
  -1 -12   6   16.20    4.55
  -1 -12   6   27.02    4.61
  -1 -12   5  206.75    7.55
  -1 -12   5  207.25    7.49
  -1 -12   4   46.67    4.27
  -1 -12   4   53.99    4.16
  -1 -12   3  423.15   12.04
  -1 -12   3  431.20   12.10
  -1 -12   2  786.82   20.70
  -1 -12   2  759.64   19.86
  -1 -12   1  898.91   23.47
  -1 -12   1  936.09   24.41
   1  12   9    6.05    1.78
   1  12   9    5.83    1.55
   1  12  10  308.57    8.77
   1  12  10  300.86    8.82
   1  12  11  124.40    5.05
   1  12  11  123.30    4.55
   1  12  12   70.14    4.00
   1  12  12   58.37    4.00
   1  12  13  595.94   16.59
   1  12  13  623.13   17.09
   1  12  14  811.79   22.03
   1  12  14  853.97   22.86
   1  12  15  295.25    9.71
   1  12  15  304.35    9.77
   1  12  16  585.96   16.92
   1  12  16  583.74   16.48
   1  12  17   96.88    6.38
   1  12  17   97.55    6.16
   1  12  18  184.50    8.05
   1  12  18  174.40    7.66
   1  12  19    3.00    4.44
   1  12  19    8.88    4.99
  -1 -13   7   40.34    6.77
  -1 -13   7   49.61    6.94
  -1 -13   6   74.80    6.49
  -1 -13   6   67.92    5.83
  -1 -13   5  276.05    9.38
  -1 -13   5  254.80    9.32
  -1 -13   4   75.63    4.49
  -1 -13   4   60.76    5.16
  -1 -13   3  795.70   21.03
  -1 -13   3  766.29   20.48
   1  13  10   17.70    1.94
   1  13  10   22.97    1.83
   1  13  11  535.30   14.48
   1  13  11  510.22   13.59
   1  13  12  354.57   10.15
   1  13  12  335.09    9.99
   1  13  13  878.94   23.47
   1  13  13  816.23   21.58
   1  13  14    6.49    3.94
   1  13  14    1.39    3.50
   1  13  15  855.63   23.42
   1  13  15  837.87   22.42
   1  13  16  149.60    6.55
   1  13  16  144.38    7.27
   1  13  17  139.72    7.66
   1  13  17  120.85    6.16
   1  13  18  136.89    7.60
   1  13  18  128.01    6.49
  -1 -14   5   86.67    7.21
  -1 -14   5   94.72    5.83
  -1 -14   4  151.65    6.21
  -1 -14   4  135.72    6.88
  -1 -14   3  721.90   19.70
  -1 -14   3  765.74   20.31
   1  14  12  231.50    7.27
   1  14  12  238.77    7.05
   1  14  13  222.51    7.66
   1  14  13  220.51    6.94
   1  14  14    2.22    4.11
   1  14  14   -4.11    3.44
   1  14  15  688.06   19.20
   1  14  15  692.49   18.87
   1  14  16   14.43    5.10
   1  14  16   15.98    4.83
   1  14  17  331.43   11.38
   1  14  17  353.68   11.49
   1  15  14  128.40    6.38
   1  15  14  130.18    5.10
  -2  15  14   -2.28    5.44
   2 -15 -14    3.50    6.71
  -2  15  13   33.74    4.66
   2 -15 -13   21.20    6.10
  -2  15  12  211.80    7.16
   2 -15 -12  180.56    7.66
  -2  15  11   72.69    3.72
   2 -15 -11   53.27    4.83
  -2  14  16   26.19    5.83
   2 -14 -16   24.25    7.10
  -2  14  15  112.42    6.44
   2 -14 -15   97.16    7.49
  -2  14  14   24.03    4.61
   2 -14 -14   11.38    5.88
  -2  14  13  264.12    8.71
   2 -14 -13  247.20    9.60
  -2  14  12   30.80    3.77
   2 -14 -12   35.96    5.49
  -2  14  11  180.34    6.16
   2 -14 -11  165.80    7.05
  -2  14  10  397.02   11.15
   2 -14 -10  384.81   11.49
  -2  14   9   93.22    3.88
   2 -14  -9   83.51    4.55
  -2  14   8  164.47    5.10
   2 -14  -8  149.60    5.16
   2 -14  -1  101.77    4.49
   2 -14  -1  104.65    5.27
   2 -14   0    8.99    3.50
   2 -14   0    5.77    4.66
   2 -14   1  175.45    6.77
   2 -14   1  162.47    7.71
   2 -14   2   20.09    4.94
   2 -14   2   20.20    6.66
   2 -14   3  217.13    9.32
   2 -14   3  224.28   10.38
  -2  13  17    6.49    4.55
   2 -13 -17    6.94    5.66
  -2  13  16   44.22    4.99
   2 -13 -16   50.94    6.16
  -2  13  15   83.01    5.44
   2 -13 -15   82.18    6.44
  -2  13  14   92.39    5.27
   2 -13 -14  105.37    6.49
  -2  13  13   94.61    5.22
   2 -13 -13  109.48    6.10
  -2  13  12  134.23    5.60
   2 -13 -12  131.56    6.21
  -2  13  11  108.59    4.77
   2 -13 -11  115.08    5.44
  -2  13  10  379.15   10.76
   2 -13 -10  365.89   11.04
  -2  13   9  328.60    9.43
   2 -13  -9  333.15    9.93
  -2  13   8  475.76   12.87
   2 -13  -8  452.01   12.48
  -2  13   7  502.39   13.54
   2 -13  -7  458.00   12.60
  -2  13   6  107.65    3.94
   2 -13  -6  101.93    4.05
   2 -13  -5   69.97    3.16
   2 -13  -5   76.41    3.61
   2 -13  -4   31.63    2.66
   2 -13  -4   40.40    3.22
   2 -13  -3   50.83    3.16
   2 -13  -3   54.60    3.72
   2 -13  -2   76.19    3.77
   2 -13  -2   69.75    4.11
   2 -13  -1    7.10    3.00
   2 -13  -1    6.33    3.61
   2 -13   0   24.69    3.61
   2 -13   0   29.30    4.33
   2 -13   1  876.16   23.53
   2 -13   1  880.05   23.42
   2 -13   2   48.44    4.83
   2 -13   2   44.72    5.49
   2 -13   3  383.20   12.60
   2 -13   3  377.71   11.99
   2 -13   4   19.98    6.21
   2 -13   4    8.71    5.49
  -2  12  18   13.98    5.10
  -2  12  17   44.11    4.83
   2 -12 -17   46.44    5.99
  -2  12  16   71.52    5.22
   2 -12 -16   71.86    6.10
  -2  12  15  238.82    8.16
   2 -12 -15  203.81    8.43
  -2  12  14   96.22    5.10
   2 -12 -14  100.43    6.10
  -2  12  13  138.83    5.99
   2 -12 -13  143.33    6.55
  -2  12  12  404.29   11.82
   2 -12 -12  388.09   11.65
  -2  12  11   27.52    3.33
   2 -12 -11   24.91    3.77
  -2  12  10 1011.00   26.36
   2 -12 -10 1043.74   27.41
  -2  12   9  254.80    7.82
   2 -12  -9  239.27    7.60
  -2  12   8  692.49   18.53
   2 -12  -8  668.63   17.92
  -2  12   7  126.90    4.66
   2 -12  -7  131.34    5.10
  -2  12   6  140.72    4.83
   2 -12  -6  141.33    4.94
  -2  12   5   27.24    2.44
   2 -12  -5   27.36    2.77
   2 -12  -4    2.50    2.39
   2 -12  -3    2.72    2.55
   2 -12  -3    3.38    2.77
   2 -12  -2  447.35   12.32
   2 -12  -2  473.37   13.21
   2 -12  -1    1.66    2.72
   2 -12  -1    0.67    3.50
   2 -12   0  280.83    8.60
   2 -12   0  271.34    8.71
   2 -12   1    4.00    3.38
   2 -12   1    1.89    3.94
   2 -12   2  624.24   17.26
   2 -12   2  617.59   17.26
   2 -12   3  193.77    7.44
   2 -12   3  204.14    7.93
   2 -12   4   41.06    5.16
   2 -12   4   38.68    5.55
   2 -12   5  322.22   11.10
   2 -12   5  326.22   11.26
   2 -12   6   46.61    6.55
   2 -12   6   46.11    6.99
  -2  11  18   39.29    5.16
   2 -11 -18   41.01    5.60
  -2  11  17   49.83    4.77
   2 -11 -17   63.42    5.83
  -2  11  16  236.66    8.38
   2 -11 -16  226.39    8.82
  -2  11  15  240.93    8.49
   2 -11 -15  232.44    8.77
  -2  11  14   24.58    3.77
   2 -11 -14   22.75    4.38
  -2  11  13  576.52   16.26
   2 -11 -13  543.67   15.65
  -2  11  12  243.93    8.10
   2 -11 -12  235.05    8.21
  -2  11  11  805.69   21.36
   2 -11 -11  776.84   21.03
  -2  11  10  565.43   15.48
   2 -11 -10  578.74   15.98
  -2  11   9  286.43    8.71
   2 -11  -9  273.34    8.49
  -2  11   8  539.29   14.76
   2 -11  -8  567.09   15.48
  -2  11   7    2.05    2.22
   2 -11  -7    6.94    2.61
  -2  11   6  511.05   13.93
   2 -11  -6  491.52   13.37
  -2  11   5   13.15    2.61
   2 -11  -5    6.49    2.55
  -2  11   4  208.75    6.66
   2 -11  -4  205.58    6.60
  -2  11   3  279.77    8.49
   2 -11  -3  262.02    7.77
   2 -11  -2  111.31    4.44
   2 -11  -2  114.81    4.77
   2 -11  -1   74.74    3.83
   2 -11  -1   85.17    4.38
   2 -11   0  370.44   10.71
   2 -11   0  343.69   10.21
   2 -11   1   65.64    4.38
   2 -11   1   80.07    4.38
   2 -11   2    3.94    3.50
   2 -11   2    1.11    3.44
   2 -11   3  249.20    8.49
   2 -11   3  251.53    8.60
   2 -11   4  509.66   14.87
   2 -11   4  537.85   15.43
   2 -11   5  549.89   15.98
   2 -11   5  552.61   15.93
   2 -11   6  125.07    6.83
   2 -11   6  106.04    6.49
   2 -11   7   91.83    6.44
   2 -11   7  106.26    7.27
  -2  10  19   26.08    5.10
   2 -10 -19   19.59    5.99
  -2  10  18   58.43    5.33
   2 -10 -18   52.71    5.72
  -2  10  17  431.42   13.10
   2 -10 -17  408.56   12.82
  -2  10  16    1.28    4.00
   2 -10 -16    1.28    4.77
  -2  10  15  554.00   15.76
   2 -10 -15  590.95   16.98
  -2  10  14   83.90    4.83
   2 -10 -14   87.17    5.33
  -2  10  13  583.74   16.48
   2 -10 -13  577.63   16.42
  -2  10  12   95.88    4.94
   2 -10 -12  103.04    5.27
  -2  10  11 1388.32   36.01
   2 -10 -11 1353.36   35.35
  -2  10  10  327.88    9.71
   2 -10 -10  343.92   10.49
  -2  10   9  323.22    9.49
   2 -10  -9  331.32    9.93
  -2  10   8  393.75   10.99
   2 -10  -8  404.73   11.60
  -2  10   7   29.58    2.61
   2 -10  -7   30.19    2.83
  -2  10   6   66.75    3.22
   2 -10  -6   63.37    3.50
  -2  10   5  103.54    4.05
   2 -10  -5  100.05    4.11
  -2  10   4   27.02    2.55
   2 -10  -4   23.14    2.55
  -2  10   3   47.39    2.89
   2 -10  -3   46.44    3.00
  -2  10   2  310.90    8.99
   2 -10  -2  304.85    8.88
   2 -10  -1  201.42    6.66
   2 -10  -1  202.31    6.77
   2 -10   0   64.98    3.94
   2 -10   0   77.63    3.88
   2 -10   1  233.99    7.66
   2 -10   1  229.33    7.60
   2 -10   2  395.08   11.65
   2 -10   2  408.23   12.10
   2 -10   3  388.36   11.65
   2 -10   3  372.72   11.26
   2 -10   4   16.59    3.94
   2 -10   4   12.98    3.88
   2 -10   5 1448.25   37.68
   2 -10   5 1490.42   38.79
   2 -10   6  211.97    8.10
   2 -10   6  218.35    8.32
   2 -10   7  188.49    7.77
   2 -10   7  175.29    7.60
   2 -10   8   59.21    5.66
   2 -10   8   48.55    5.88
   2 -10   9   -0.17    5.10
   2 -10   9    1.44    6.99
  -2   9  19    5.38    4.77
   2  -9 -19    7.71    5.38
  -2   9  18  188.11    7.71
   2  -9 -18  193.10    8.05
  -2   9  17   55.43    4.83
   2  -9 -17   63.87    5.44
  -2   9  16  198.26    7.71
   2  -9 -16  190.10    7.77
  -2   9  15  258.58    8.88
   2  -9 -15  241.49    8.66
  -2   9  14  562.65   15.87
   2  -9 -14  540.62   15.65
  -2   9  13  855.63   22.92
   2  -9 -13  870.61   23.64
  -2   9  12  571.53   15.93
   2  -9 -12  580.41   16.54
  -2   9  11  496.01   14.32
   2  -9 -11  488.35   14.04
  -2   9  10   66.59    4.11
   2  -9 -10   71.52    4.27
  -2   9   9 1014.33   26.86
   2  -9  -9  981.03   25.97
  -2   9   8  290.20    8.99
   2  -9  -8  277.16    8.55
  -2   9   7  110.09    4.72
   2  -9  -7  107.81    4.49
  -2   9   6    5.27    2.50
   2  -9  -6    5.27    2.61
  -2   9   5    3.83    2.11
   2  -9  -5    9.60    2.44
  -2   9   4  496.01   13.48
   2  -9  -4  505.44   13.71
  -2   9   3   22.36    2.50
   2  -9  -3   28.13    2.55
  -2   9   2  307.90    9.04
   2  -9  -2  311.73    9.04
  -2   9   1    3.77    2.72
   2  -9  -1    7.55    2.61
   2  -9   0  838.43   22.25
   2  -9   0  832.88   22.14
   2  -9   1  197.09    7.05
   2  -9   1  204.31    7.05
   2  -9   2  442.52   12.71
   2  -9   2  440.80   12.87
   2  -9   3  457.83   13.26
   2  -9   3  449.12   13.04
   2  -9   4    7.99    3.61
   2  -9   4    6.71    3.61
   2  -9   5 1687.96   43.67
   2  -9   5 1682.96   43.67
   2  -9   6  170.13    7.21
   2  -9   6  161.36    6.77
   2  -9   7  428.37   12.93
   2  -9   7  431.64   13.04
   2  -9   8   26.75    4.88
   2  -9   8   16.20    4.33
   2  -9   9   33.63    5.22
   2  -9   9   33.18    5.27
   2  -9  10   12.76    5.33
   2  -9  10    9.27    4.77
  -2   8  19   61.65    5.55
   2  -8 -19   68.75    5.88
  -2   8  18  124.07    6.44
   2  -8 -18  145.71    7.16
  -2   8  17  122.07    6.21
   2  -8 -17  125.63    6.60
  -2   8  16  253.25    8.88
   2  -8 -16  260.07    9.43
  -2   8  15  813.46   22.36
   2  -8 -15  790.15   21.64
  -2   8  14  102.49    5.77
   2  -8 -14   97.60    5.55
  -2   8  13 1411.62   36.84
   2  -8 -13 1389.98   36.46
  -2   8  12  454.39   13.32
   2  -8 -12  459.17   13.65
  -2   8  11  522.59   14.70
   2  -8 -11  512.38   14.76
  -2   8  10  503.67   14.15
   2  -8 -10  493.40   14.09
  -2   8   9  440.69   12.32
   2  -8  -9  456.95   13.04
  -2   8   8  457.56   12.71
   2  -8  -8  460.39   13.04
  -2   8   7  208.03    6.60
   2  -8  -7  220.84    7.16
  -2   8   6   48.50    2.83
   2  -8  -6   50.94    3.22
  -2   8   5  177.73    5.66
   2  -8  -5  186.55    6.16
  -2   8   4  158.86    5.33
   2  -8  -4  157.48    5.44
  -2   8   3  149.60    4.94
   2  -8  -3  148.99    5.16
  -2   8   2  927.21   24.03
   2  -8  -2  939.97   24.47
  -2   8   1  572.08   15.20
   2  -8  -1  598.72   16.09
  -2   8   0 1558.11   39.84
   2  -8   0 1478.76   37.95
   2  -8   2 1484.87   38.29
   2  -8   2 1514.28   39.06
   2  -8   3  723.01   19.64
   2  -8   3  756.86   20.59
   2  -8   4  217.24    7.60
   2  -8   4  227.22    7.99
   2  -8   5  352.85   10.99
   2  -8   5  338.92   10.82
   2  -8   6  584.29   16.65
   2  -8   6  599.27   17.03
   2  -8   7  274.00    9.32
   2  -8   7  254.97    8.82
   2  -8   8  186.94    7.55
   2  -8   8  196.87    7.66
   2  -8   9   53.82    5.10
   2  -8   9   48.83    4.94
   2  -8  10   38.07    5.33
   2  -8  10   38.07    5.22
   2  -8  11   68.58    5.88
   2  -8  11   78.29    5.72
  -2   7  19   88.78    5.83
   2  -7 -19   88.89    6.33
  -2   7  18  251.20    8.93
   2  -7 -18  252.08    9.27
  -2   7  17  265.79    8.99
   2  -7 -17  282.88    9.93
  -2   7  16  156.09    6.71
   2  -7 -16  162.14    7.05
  -2   7  15 3272.70   82.73
   2  -7 -15 3192.80   80.96
  -2   7  14    6.88    3.66
   2  -7 -14   13.87    3.83
  -2   7  13 1021.54   27.36
   2  -7 -13  962.17   25.97
  -2   7  12   14.54    3.77
   2  -7 -12   12.65    3.66
  -2   7  11 1050.95   27.80
   2  -7 -11 1047.07   27.86
  -2   7  10  496.90   14.48
   2  -7 -10  488.41   14.09
  -2   7   9  612.04   16.92
   2  -7  -9  615.37   17.03
  -2   7   8  647.55   17.87
   2  -7  -8  642.56   17.48
  -2   7   7   63.59    3.66
   2  -7  -7   66.81    3.77
  -2   7   6  310.18    9.21
   2  -7  -6  306.13    9.16
  -2   7   5  695.27   18.70
   2  -7  -5  695.82   18.59
  -2   7   4    1.33    2.28
   2  -7  -4    2.50    2.16
  -2   7   3  739.10   19.70
   2  -7  -3  755.20   19.92
  -2   7   2  468.77   13.04
   2  -7  -2  467.93   12.87
  -2   7   1  962.17   25.30
   2  -7  -1  980.48   25.52
  -2   7   0 1402.75   36.07
   2  -7   0 1395.53   35.79
  -2   7  -1 1709.60   43.61
   2  -7   1 1739.00   44.50
   2  -7   2   27.91    3.11
   2  -7   2   30.69    2.83
   2  -7   3 2383.22   60.65
   2  -7   3 2357.70   60.04
   2  -7   4  277.77    9.21
   2  -7   4  288.21    9.32
   2  -7   5  853.97   23.08
   2  -7   5  802.92   21.86
   2  -7   6  465.21   13.76
   2  -7   6  453.28   13.43
   2  -7   7  572.08   16.37
   2  -7   7  568.20   16.26
   2  -7   8   66.64    4.99
   2  -7   8   52.82    5.05
   2  -7   9   -0.83    4.22
   2  -7   9    0.89    4.05
   2  -7  10  147.38    6.99
   2  -7  10  147.88    6.60
   2  -7  11  270.78    9.54
   2  -7  11  287.43   10.15
   2  -7  12   11.26    4.77
   2  -7  12    5.72    4.72
  -2   6  19   44.22    4.83
   2  -6 -19   47.22    4.94
  -2   6  18  514.32   15.04
   2  -6 -18  532.74   15.54
  -2   6  17  303.08    9.88
   2  -6 -17  353.29   11.38
  -2   6  16  360.62   11.38
   2  -6 -16  353.68   11.38
  -2   6  15  179.45    7.27
   2  -6 -15  187.27    7.44
  -2   6  14  608.15   17.37
   2  -6 -14  632.01   17.98
  -2   6  13  679.18   19.09
   2  -6 -13  685.28   19.31
  -2   6  12   93.44    5.27
   2  -6 -12  100.66    5.38
  -2   6  11 1683.52   43.61
   2  -6 -11 1712.93   44.28
  -2   6  10  587.07   16.48
   2  -6 -10  595.94   16.70
  -2   6   9 1024.87   26.97
   2  -6  -9  987.14   26.25
  -2   6   8   46.89    3.66
   2  -6  -8   43.34    3.44
  -2   6   7   16.09    2.77
   2  -6  -7   16.92    2.83
  -2   6   6   49.44    3.00
   2  -6  -6   57.76    3.50
  -2   6   5 1043.74   27.08
   2  -6  -5 1049.28   27.24
  -2   6   4    3.38    2.11
   2  -6  -4    7.88    2.39
  -2   6   3 3320.98   83.34
   2  -6  -3 3389.23   85.17
  -2   6   2   12.60    2.28
   2  -6  -2   11.87    2.11
  -2   6   1 1098.11   28.41
   2  -6  -1 1121.97   29.02
  -2   6   0 4776.44  119.69
   2  -6   0 4725.94  118.41
  -2   6  -1 3629.49   91.28
   2  -6   1 3575.67   89.84
   2  -6   2 1412.73   36.46
   2  -6   3 1293.99   33.51
   2  -6   3 1217.41   31.68
   2  -6   4  147.65    5.83
   2  -6   4  151.54    6.16
   2  -6   5 1144.17   30.24
   2  -6   5 1134.18   30.02
   2  -6   6   69.19    4.77
   2  -6   6   67.53    4.94
   2  -6   7 1070.93   28.58
   2  -6   7 1072.03   28.63
   2  -6   8  452.23   13.54
   2  -6   8  465.88   13.82
   2  -6   9   37.62    4.55
   2  -6   9   45.50    4.66
   2  -6  10   60.87    4.83
   2  -6  10   68.08    5.22
   2  -6  11  441.41   13.59
   2  -6  11  458.44   13.76
   2  -6  12   15.26    4.72
   2  -6  12    5.38    4.99
   2  -6  13  514.16   14.98
   2  -6  13  515.21   15.20
  -2   5  19   19.53    4.33
   2  -5 -19   20.92    4.66
  -2   5  18  447.68   13.43
   2  -5 -18  432.75   13.21
  -2   5  17  331.04   10.60
   2  -5 -17  333.82   10.93
  -2   5  16 1467.11   38.51
   2  -5 -16 1519.83   39.56
  -2   5  15    0.78    3.83
   2  -5 -15    1.61    3.66
  -2   5  14 1661.88   43.06
   2  -5 -14 1666.32   43.28
  -2   5  13   76.35    4.88
   2  -5 -13   85.06    5.16
  -2   5  12  147.65    6.10
   2  -5 -12  156.98    6.66
  -2   5  11  248.70    8.27
   2  -5 -11  244.87    8.38
  -2   5  10  403.01   11.93
   2  -5 -10  405.84   12.15
  -2   5   9  608.15   16.70
   2  -5  -9  587.62   16.42
  -2   5   8  307.52    9.43
   2  -5  -8  325.77    9.88
  -2   5   7    7.82    2.50
   2  -5  -7    4.88    2.83
  -2   5   6  184.11    6.49
   2  -5  -6  171.02    6.05
  -2   5   5  384.81   11.10
   2  -5  -5  372.38   10.65
  -2   5   4 5543.84  138.61
   2  -5  -4 5539.96  138.50
  -2   5   3  650.88   17.42
   2  -5  -3  644.22   17.20
  -2   5   2  400.02   11.15
   2  -5  -2  401.62   11.21
  -2   5   1 1583.64   40.40
   2  -5  -1 1540.36   39.34
  -2   5   0 6247.99  156.03
   2  -5   0 6331.22  158.09
  -2   5  -1 1548.12   39.62
   2  -5   1 1557.56   39.90
  -2   5  -2 2598.52   65.53
   2  -5   2 2474.23   62.59
   2  -5   3 3128.43   78.96
   2  -5   3 3210.00   81.07
   2  -5   4  188.11    6.71
   2  -5   4  198.87    6.88
   2  -5   5  713.03   19.48
   2  -5   5  734.11   20.09
   2  -5   6   41.56    4.05
   2  -5   6   45.67    4.22
   2  -5   7  593.17   16.92
   2  -5   7  564.32   16.20
   2  -5   8   16.65    3.83
   2  -5   8   14.15    3.94
   2  -5   9   10.38    3.94
   2  -5   9   15.87    4.05
   2  -5  10  278.33    9.54
   2  -5  10  280.55    9.60
   2  -5  11   62.26    5.10
   2  -5  11   56.54    4.88
   2  -5  12  122.02    6.38
   2  -5  12  119.41    5.99
   2  -5  13  721.90   20.25
   2  -5  13  712.47   19.92
   2  -5  14  238.99    8.93
   2  -5  14  221.34    8.49
  -2   4  19  128.57    6.05
   2  -4 -19  117.41    6.38
  -2   4  18  253.03    8.60
   2  -4 -18  253.91    9.04
  -2   4  17  151.54    6.94
   2  -4 -17  153.81    6.77
  -2   4  16  558.77   15.87
   2  -4 -16  569.31   16.37
  -2   4  15  588.73   16.87
   2  -4 -15  551.28   15.93
  -2   4  14 1606.39   41.89
   2  -4 -14 1596.95   41.67
  -2   4  13   48.66    4.77
   2  -4 -13   48.72    4.44
  -2   4  12  104.76    5.55
   2  -4 -12   91.50    5.16
  -2   4  11 1158.60   30.80
   2  -4 -11 1201.32   31.74
  -2   4  10    7.99    3.44
   2  -4 -10    5.33    3.22
  -2   4   9   57.15    4.16
   2  -4  -9   63.76    4.22
  -2   4   8   88.89    4.77
   2  -4  -8   91.72    4.61
  -2   4   7  135.39    5.33
   2  -4  -7  121.80    5.05
  -2   4   6  246.09    7.88
   2  -4  -6  248.31    7.93
  -2   4   5 8195.63  204.36
   2  -4  -5 7651.84  190.88
  -2   4   4  538.46   14.54
   2  -4  -4  587.07   15.93
  -2   4   3 2401.54   60.54
   2  -4  -3 2370.46   59.82
  -2   4   2 2771.64   69.69
   2  -4  -2 2827.13   71.14
  -2   4   1 4654.36  116.36
   2  -4  -1 4692.65  117.36
  -2   4   0 7834.95  195.32
   2  -4   0 8167.88  203.53
  -2   4  -1  432.98   12.26
   2  -4   1  410.34   11.60
  -2   4  -2 1805.04   46.22
   2  -4   2 1787.83   45.61
  -2   4  -3  200.81    6.88
   2  -4   3  175.40    6.16
   2  -4   4  134.89    5.44
   2  -4   4  137.22    5.44
   2  -4   5  639.78   17.76
   2  -4   5  630.90   17.48
   2  -4   6  103.37    4.99
   2  -4   6  106.43    5.22
   2  -4   7   -2.05    3.05
   2  -4   7   -0.89    3.44
   2  -4   8    2.55    3.61
   2  -4   8    3.55    3.77
   2  -4   9  403.46   12.37
   2  -4   9  392.19   12.26
   2  -4  10   -2.28    3.83
   2  -4  10    4.88    4.27
   2  -4  11  315.84   10.38
   2  -4  11  294.87    9.77
   2  -4  13  574.30   16.65
   2  -4  13  520.76   15.20
   2  -4  14  511.05   15.15
   2  -4  14  542.12   15.76
   2  -4  15  493.35   14.76
   2  -4  15  502.39   14.82
  -2   3  19   46.28    4.94
   2  -3 -19   49.22    4.88
  -2   3  18  712.47   19.48
   2  -3 -18  705.26   19.75
  -2   3  17  165.30    6.83
   2  -3 -17  167.80    7.27
  -2   3  16  688.61   19.25
   2  -3 -16  698.04   19.64
  -2   3  15  826.22   22.58
   2  -3 -15  825.67   22.64
  -2   3  14   65.75    4.83
   2  -3 -14   71.41    4.88
  -2   3  13 1706.82   44.00
   2  -3 -13 1776.18   46.06
  -2   3  12    5.60    3.55
   2  -3 -12   -2.55    3.11
  -2   3  11  317.12    9.88
   2  -3 -11  327.88   10.54
  -2   3  10  659.76   18.37
   2  -3 -10  643.66   18.03
  -2   3   9  630.90   17.37
   2  -3  -9  644.22   17.92
  -2   3   8   28.08    3.44
   2  -3  -8   28.41    3.66
  -2   3   7  555.44   15.37
   2  -3  -7  546.84   15.26
  -2   3   6    7.05    2.72
   2  -3  -6    9.71    2.94
  -2   3   5 1746.77   44.56
   2  -3  -5 1747.33   44.67
  -2   3   4  305.46    8.93
   2  -3  -4  311.73    9.32
  -2   3   1 3383.68   84.90
   2  -3  -1 3395.33   85.17
  -2   3   0 3180.59   79.85
   2  -3   0 3317.65   83.29
  -2   3  -1  740.77   19.53
   2  -3   1  735.78   19.48
  -2   3  -2  114.75    4.61
   2  -3   2  107.70    4.66
  -2   3  -3  279.88    8.60
   2  -3   3  288.32    8.82
   2  -3   4 2103.56   53.66
   2  -3   4 2066.39   52.71
   2  -3   5 1082.02   28.52
   2  -3   5 1090.90   28.69
   2  -3   6  241.60    8.05
   2  -3   6  259.02    8.77
   2  -3   7    4.66    3.05
   2  -3   7    5.77    3.55
   2  -3   8  118.80    5.60
   2  -3   8  129.01    5.94
   2  -3   9  695.27   19.42
   2  -3   9  703.59   19.75
   2  -3  10  371.55   11.76
   2  -3  10  370.55   11.76
   2  -3  11 2004.79   51.66
   2  -3  11 2008.68   51.66
   2  -3  12  165.74    6.94
   2  -3  12  173.35    6.99
   2  -3  13 1205.76   31.96
   2  -3  13 1236.28   32.57
   2  -3  14  435.81   13.37
   2  -3  14  435.36   13.26
   2  -3  15  777.95   21.47
   2  -3  15  750.20   20.81
   2  -3  16  418.49   12.65
   2  -3  16  428.87   13.21
  -2   2  19  252.03    8.82
   2  -2 -19  258.30    9.04
  -2   2  18  872.28   23.64
   2  -2 -18  868.39   23.53
  -2   2  17  109.37    5.60
   2  -2 -17  115.08    5.88
  -2   2  16 1404.41   36.73
   2  -2 -16 1361.13   35.68
  -2   2  15   47.66    4.33
   2  -2 -15   53.93    4.61
  -2   2  14  151.04    6.60
   2  -2 -14  143.66    6.44
  -2   2  13  272.06    9.60
   2  -2 -13  263.85    9.04
  -2   2  12  206.42    7.99
   2  -2 -12  215.46    8.05
  -2   2  11  690.83   19.42
   2  -2 -11  685.28   19.14
  -2   2  10  208.41    7.71
   2  -2 -10  197.04    7.38
  -2   2   9  574.86   16.26
   2  -2  -9  632.01   17.70
  -2   2   8  288.54    9.38
   2  -2  -8  283.88    9.21
  -2   2   7  188.88    6.88
   2  -2  -7  217.40    7.71
  -2   2   6  418.72   12.21
   2  -2  -6  432.14   12.60
  -2   2   5  625.35   17.03
   2  -2  -5  624.24   17.03
  -2   2   4 2314.42   58.60
   2  -2  -4 2216.76   56.21
  -2   2   3 1609.72   41.01
   2  -2  -3 1626.36   41.51
  -2   2   1 1973.72   50.00
   2  -2  -1 1937.10   49.11
  -2   2   0   61.43    3.38
   2  -2   0   53.93    3.27
  -2   2  -1 1136.40   29.35
   2  -2   1 1124.19   29.08
  -2   2  -2   45.94    3.22
   2  -2   2   49.33    3.22
  -2   2  -3  395.80   11.49
   2  -2   3  384.15   11.15
   2  -2   4  319.34    9.65
   2  -2   4  351.35   10.49
   2  -2   5 4353.06  109.37
   2  -2   5 4466.26  112.25
   2  -2   6  137.44    5.72
   2  -2   6  138.11    5.83
   2  -2   7  136.22    5.60
   2  -2   7  145.32    6.21
   2  -2   8 1906.58   49.11
   2  -2   8 1874.95   48.39
   2  -2   9  119.24    5.72
   2  -2   9  113.97    5.49
   2  -2  10    4.16    3.50
   2  -2  10    2.11    3.66
   2  -2  11  466.49   13.93
   2  -2  11  456.00   13.71
   2  -2  12  944.97   25.58
   2  -2  12  910.56   24.80
   2  -2  13 1399.42   36.84
   2  -2  13 1333.39   35.01
   2  -2  14  466.99   14.09
   2  -2  14  436.64   12.98
   2  -2  15  749.65   20.64
   2  -2  15  745.76   20.70
   2  -2  16  335.70   10.76
   2  -2  16  346.47   11.32
  -2   1  19  333.60   10.65
   2  -1 -19  352.46   11.43
  -2   1  18  392.03   11.93
   2  -1 -18  392.52   12.21
  -2   1  17  359.34   11.49
   2  -1 -17  381.09   11.93
  -2   1  16  872.83   23.53
   2  -1 -16  864.51   23.47
  -2   1  15   15.54    4.27
   2  -1 -15   25.03    4.16
  -2   1  14   94.50    5.49
   2  -1 -14   94.27    5.38
  -2   1  13  198.59    7.66
   2  -1 -13  177.78    7.21
  -2   1  12  583.18   16.54
   2  -1 -12  585.40   16.81
  -2   1  11  220.62    7.99
   2  -1 -11  192.66    7.38
  -2   1  10   68.75    4.38
   2  -1 -10   83.12    4.83
  -2   1   9  112.75    5.27
   2  -1  -9  109.70    5.33
  -2   1   8 2562.45   65.09
   2  -1  -8 2622.38   66.75
  -2   1   7    2.83    2.77
   2  -1  -7    6.16    3.27
  -2   1   6 1887.71   48.22
   2  -1  -6 1749.55   45.00
  -2   1   5 1261.81   32.74
   2  -1  -5 1257.37   32.68
  -2   1   4 1255.15   32.35
   2  -1  -4 1300.65   33.63
  -2   1   3 1671.86   42.67
   2  -1  -3 1645.78   42.00
   2  -1  -1 7146.90  178.01
  -2   1   0 1886.05   47.89
   2  -1   0 1955.96   49.61
  -2   1  -1 2834.34   71.41
   2  -1   1 2857.10   71.86
  -2   1  -2  728.01   19.31
   2  -1   2  684.73   18.42
  -2   1  -3    4.11    2.44
   2  -1   3    5.60    2.72
  -2   1  -4    9.82    2.72
   2  -1   4    4.00    2.77
   2  -1   5  804.58   21.70
   2  -1   5  790.15   21.09
   2  -1   7   49.94    3.77
   2  -1   7   48.83    4.11
   2  -1   8 1348.92   35.40
   2  -1   8 1405.52   36.73
   2  -1   9  111.75    5.55
   2  -1   9  105.09    5.33
   2  -1  10 2956.42   75.13
   2  -1  10 2954.75   75.19
   2  -1  11  424.32   13.15
   2  -1  11  437.25   13.32
   2  -1  12  718.57   20.25
   2  -1  12  741.88   20.64
   2  -1  13  345.41   11.10
   2  -1  13  350.69   11.04
   2  -1  14  670.30   18.64
   2  -1  14  678.07   19.14
   2  -1  15  690.83   19.25
   2  -1  15  655.32   18.53
   2  -1  16  437.19   13.21
   2  -1  16  426.21   13.04
   2  -1  17  162.97    6.83
   2  -1  17  162.53    7.38
  -2   0  18  177.29    7.05
   2   0 -18  201.26    7.60
  -2   0  17  554.16   16.04
   2   0 -17  522.37   15.15
  -2   0  16  614.81   17.59
   2   0 -16  626.46   17.59
  -2   0  15  118.86    5.99
   2   0 -15  127.46    5.94
  -2   0  14  169.91    6.99
   2   0 -14  153.59    6.66
  -2   0  13   18.37    4.16
   2   0 -13   20.25    3.94
  -2   0  12   36.46    4.27
   2   0 -12   46.78    4.44
  -2   0  11  307.02   10.21
   2   0 -11  299.42    9.93
  -2   0  10   32.74    4.00
   2   0 -10   29.08    3.88
  -2   0   9    8.71    3.33
   2   0  -9    8.77    3.22
  -2   0   8  509.88   14.70
   2   0  -8  497.68   14.48
  -2   0   7 2935.33   74.41
   2   0  -7 2907.59   73.80
  -2   0   6  470.49   13.43
   2   0  -6  497.45   14.26
  -2   0   5  927.77   24.64
   2   0  -5  979.92   25.86
  -2   0   4  993.24   25.97
   2   0  -4 1027.64   26.97
   2   0  -3 5546.06  138.55
  -2   0   2 1262.91   32.46
   2   0  -2 1247.38   32.07
  -2   0   1  415.00   11.49
   2   0  -1  419.44   11.65
  -2   0  -1 3150.07   79.13
   2   0   1 3092.37   77.63
  -2   0  -2 2538.04   64.14
   2   0   2 2330.51   58.93
  -2   0  -3 1325.62   34.13
   2   0   3 1347.81   34.74
  -2   0  -4   16.20    3.11
   2   0   4   18.48    3.00
   2   0   5   49.05    3.77
   2   0   5   44.39    3.61
   2   0   6    6.44    2.94
   2   0   6    8.49    3.11
   2   0   7   96.38    4.88
   2   0   7   98.05    4.88
   2   0   8   96.61    4.83
   2   0   8  103.32    5.33
   2   0   9  189.49    7.27
   2   0   9  176.56    6.88
   2   0  10 2136.86   54.93
   2   0  10 2134.08   54.88
   2   0  11  306.02   10.10
   2   0  11  274.45    9.43
   2   0  12  691.38   19.37
   2   0  12  660.87   18.53
   2   0  13 1520.94   39.73
   2   0  13 1458.79   37.95
   2   0  14  890.59   24.19
   2   0  14  873.39   23.86
   2   0  15  464.66   13.93
   2   0  15  465.55   13.82
   2   0  16  604.82   17.31
   2   0  16  592.62   17.03
   2   0  17   53.60    4.88
   2   0  17   55.93    4.99
   2   0  18  224.67    8.21
  -2  -1  18  635.90   17.48
   2   1 -18  686.39   18.98
  -2  -1  17  479.92   14.15
   2   1 -17  425.87   12.71
  -2  -1  16  471.32   14.04
   2   1 -16  436.42   13.21
  -2  -1  15   28.58    4.11
   2   1 -15   39.79    4.27
  -2  -1  14  273.45    9.71
   2   1 -14  238.54    8.43
  -2  -1  13  296.31   10.15
   2   1 -13  294.20    9.88
  -2  -1  12  423.32   13.04
   2   1 -12  411.11   12.60
  -2  -1  11  489.85   14.43
   2   1 -11  466.27   13.93
  -2  -1  10  365.78   11.21
   2   1 -10  368.89   11.54
  -2  -1   9  165.63    6.55
   2   1  -9  166.80    6.60
  -2  -1   8 1776.74   45.78
   2   1  -8 1738.45   44.89
  -2  -1   7  944.41   25.19
   2   1  -7  927.77   24.80
  -2  -1   6   79.74    4.22
   2   1  -6   83.73    4.55
  -2  -1   5 5731.95  143.44
   2   1  -5 6153.66  154.04
  -2  -1   4  994.35   26.08
   2   1  -4  972.71   25.47
  -2  -1   3 1251.82   32.35
   2   1  -3 1202.43   31.13
  -2  -1   2   97.49    4.33
   2   1  -2   92.33    4.33
  -2  -1  -1  382.37   10.71
   2   1   1  361.45   10.15
  -2  -1  -2  435.47   12.15
   2   1   2  439.58   12.26
  -2  -1  -3  528.64   14.48
   2   1   3  518.09   14.26
  -2  -1  -4   25.30    3.05
   2   1   4   23.19    3.00
   2   1   5  442.24   12.82
   2   1   5  416.16   12.10
   2   1   6  630.35   17.48
   2   1   6  603.16   16.59
   2   1   7    2.72    2.89
   2   1   7    1.33    3.22
   2   1   8 1158.04   30.46
   2   1   8 1180.79   31.24
   2   1   9  175.18    6.77
   2   1   9  170.40    6.71
   2   1  10 1086.46   29.02
   2   1  10 1118.65   29.80
   2   1  11  948.30   25.64
   2   1  11  906.68   24.58
   2   1  12 1181.35   31.46
   2   1  12 1109.77   29.58
   2   1  13 1803.93   46.83
   2   1  13 1870.51   48.44
   2   1  14  127.40    5.99
   2   1  14  138.06    6.60
   2   1  15  832.88   22.75
   2   1  15  822.89   22.36
   2   1  16  165.80    7.05
   2   1  16  156.09    6.88
   2   1  17  147.60    6.60
   2   1  17  138.39    6.66
   2   1  18  120.74    6.38
   2   1  18  125.02    6.21
  -2  -2  17  136.22    6.44
   2   2 -17  142.83    6.88
  -2  -2  16  706.92   19.70
   2   2 -16  686.39   18.98
  -2  -2  15   11.54    3.94
   2   2 -15    5.55    3.66
  -2  -2  14  170.52    7.38
   2   2 -14  172.85    7.05
  -2  -2  13   45.00    4.49
   2   2 -13   44.95    4.38
  -2  -2  12  148.04    6.49
   2   2 -12  152.04    6.60
  -2  -2  11   28.02    4.11
   2   2 -11   31.79    4.05
  -2  -2  10   10.32    3.55
   2   2 -10    7.66    3.55
  -2  -2   9  142.49    6.21
   2   2  -9  155.70    6.49
  -2  -2   8  862.29   23.36
   2   2  -8  847.31   22.92
  -2  -2   7 1052.06   27.80
   2   2  -7 1041.52   27.69
  -2  -2   6  971.05   25.75
   2   2  -6  939.42   24.86
  -2  -2   5 2104.67   53.60
   2   2  -5 2213.99   56.38
  -2  -2   4  664.20   17.98
   2   2  -4  660.31   17.70
  -2  -2   3  492.29   13.65
   2   2  -3  479.59   13.32
  -2  -2   2 6048.23  150.82
  -2  -2   1   17.53    2.55
   2   2  -1   12.82    2.50
  -2  -2  -1 1669.09   42.23
   2   2   1 1657.44   41.95
  -2  -2  -3   59.71    3.38
   2   2   3   70.53    3.83
  -2  -2  -4   54.16    3.66
   2   2   4   45.61    3.27
   2   2   5   10.38    2.66
   2   2   5   14.04    2.83
   2   2   6 6175.85  154.48
   2   2   6 6253.54  156.31
   2   2   7  268.18    8.77
   2   2   7  269.23    8.77
   2   2   8 2093.58   53.66
   2   2   8 2121.32   54.38
   2   2   9   12.15    3.38
   2   2   9   12.76    3.55
   2   2  10 2126.31   54.71
   2   2  10 2123.54   54.49
   2   2  11  178.28    7.27
   2   2  11  168.74    6.88
   2   2  12 2063.06   53.16
   2   2  12 2085.25   53.60
   2   2  13 1787.28   46.44
   2   2  13 1779.51   46.00
   2   2  14 1058.72   28.02
   2   2  14 1067.04   28.58
   2   2  15  368.66   11.54
   2   2  15  348.63   10.93
   2   2  16   29.08    4.27
   2   2  16   28.19    4.49
   2   2  17  490.85   14.59
   2   2  17  509.33   14.87
   2   2  18    2.44    4.05
   2   2  18    2.05    4.33
  -2  -3  17  236.16    8.88
   2   3 -17  239.27    8.38
  -2  -3  16  498.78   14.65
   2   3 -16  529.58   15.26
  -2  -3  15    1.61    4.00
   2   3 -15   -0.44    4.00
  -2  -3  14  150.48    6.83
   2   3 -14  129.12    5.94
  -2  -3  13    1.50    3.72
   2   3 -13   -3.05    3.61
  -2  -3  12   45.39    4.66
   2   3 -12   47.17    4.49
  -2  -3  11  287.54    9.82
   2   3 -11  265.29    9.16
  -2  -3  10  313.12   10.38
   2   3 -10  346.75   11.04
  -2  -3   9    2.16    3.16
   2   3  -9    2.33    3.55
  -2  -3   8  134.89    5.83
   2   3  -8  148.04    6.27
  -2  -3   7  816.23   22.08
   2   3  -7  849.53   23.03
  -2  -3   6    5.49    2.83
   2   3  -6    1.22    2.77
  -2  -3   5 5081.62  127.29
   2   3  -5 5168.19  129.57
  -2  -3   4 5240.87  131.17
   2   3  -4 5283.05  132.12
  -2  -3   3 5219.79  130.45
   2   3  -3 5151.54  128.73
  -2  -3   2 2432.05   61.31
   2   3  -2 2286.12   57.60
  -2  -3   1 1083.13   27.74
   2   3  -1 1141.95   29.24
  -2  -3   0 1576.98   39.84
   2   3   0 1615.27   40.89
  -2  -3  -1  974.93   24.97
   2   3   1  960.50   24.64
  -2  -3  -2  783.50   20.31
   2   3   2  827.89   21.42
  -2  -3  -3  126.35    4.66
   2   3   3  129.79    4.77
  -2  -3  -4 1805.04   45.83
   2   3   4 1861.08   47.22
   2   3   5   51.44    3.38
   2   3   5   49.27    3.27
   2   3   6 1762.31   45.17
   2   3   6 1797.27   46.00
   2   3   7  711.92   19.31
   2   3   7  708.59   19.25
   2   3   8  695.27   18.98
   2   3   8  715.80   19.70
   2   3   9  153.15    6.05
   2   3   9  140.00    5.66
   2   3  10 1121.42   29.69
   2   3  10 1071.48   28.47
   2   3  11 3305.44   83.68
   2   3  11 3519.63   89.00
   2   3  12  135.50    6.21
   2   3  12  147.38    6.60
   2   3  13  410.61   12.60
   2   3  13  400.85   12.37
   2   3  14  605.93   17.37
   2   3  14  565.98   16.48
   2   3  15  516.60   15.15
   2   3  15  523.75   15.37
   2   3  16  355.57   10.99
   2   3  16  340.09   10.99
   2   3  17   56.88    4.77
   2   3  17   50.33    4.83
   2   3  18  187.77    7.77
   2   3  18  188.16    7.32
   2   3  19  253.14    8.93
   2   3  19  265.68    9.10
  -2  -4  16  239.10    8.77
   2   4 -16  207.36    8.16
  -2  -4  15   15.26    4.44
   2   4 -15   16.65    4.33
  -2  -4  14   89.11    5.77
   2   4 -14   79.40    5.10
  -2  -4  13   -5.49    3.72
   2   4 -13    8.49    3.66
  -2  -4  12   70.53    4.94
   2   4 -12   65.64    4.77
  -2  -4  11  552.44   16.20
   2   4 -11  585.96   16.81
  -2  -4  10 1265.69   33.46
   2   4 -10 1297.87   34.24
  -2  -4   9    5.88    3.66
   2   4  -9   -2.89    3.55
  -2  -4   8 1012.66   27.08
   2   4  -8 1088.68   28.85
  -2  -4   7 2293.89   58.54
   2   4  -7 2303.32   58.87
  -2  -4   6  700.82   19.09
   2   4  -6  739.10   20.20
  -2  -4   5 2391.55   60.70
   2   4  -5 2318.86   58.98
  -2  -4   4  762.41   20.42
   2   4  -4  742.99   19.86
  -2  -4   2 2069.72   52.27
   2   4  -2 2167.93   54.77
  -2  -4   1 2043.08   51.44
   2   4  -1 1990.92   50.11
  -2  -4   0  812.35   20.86
   2   4   0  777.95   19.98
  -2  -4  -1 1643.56   41.39
   2   4   1 1636.91   41.17
  -2  -4  -3  356.79    9.77
   2   4   3  340.92    9.32
   2   4   4  105.82    4.11
   2   4   4  116.08    4.27
   2   4   5 6181.40  154.04
   2   4   6  538.13   14.76
   2   4   6  532.97   14.59
   2   4   7 3842.57   96.72
   2   4   7 3814.27   95.83
   2   4   8 1494.86   38.73
   2   4   8 1401.08   36.29
   2   4   9 1701.27   43.95
   2   4   9 1839.44   47.39
   2   4  10  503.17   14.65
   2   4  10  544.40   15.81
   2   4  11  259.46    8.77
   2   4  11  260.46    8.82
   2   4  12 1547.02   40.40
   2   4  12 1549.79   40.28
   2   4  13  477.09   14.26
   2   4  13  492.40   14.43
   2   4  14  221.95    8.27
   2   4  14  223.73    7.99
   2   4  15  795.70   21.97
   2   4  15  752.42   20.48
   2   4  16  126.79    6.10
   2   4  16  134.39    5.99
   2   4  17   70.53    5.16
   2   4  17   67.31    5.16
   2   4  18    5.60    3.94
   2   4  18    9.04    4.11
   2   4  19   16.92    4.44
   2   4  19    9.65    4.27
  -2  -5  16  239.60    9.27
  -2  -5  16  269.67    9.88
  -2  -5  15   16.92    4.49
  -2  -5  14   32.18    4.66
   2   5 -14   40.84    4.49
  -2  -5  13   11.76    4.11
   2   5 -13    4.88    3.61
  -2  -5  12   68.03    4.94
   2   5 -12   65.20    4.66
  -2  -5  11   22.42    4.11
   2   5 -11   22.64    3.66
  -2  -5  10 1799.49   46.61
   2   5 -10 1851.65   47.94
  -2  -5   9  330.99   10.60
   2   5  -9  316.89   10.10
  -2  -5   8 1114.21   29.69
   2   5  -8 1123.08   29.74
  -2  -5   7   32.57    3.77
   2   5  -7   38.40    4.00
  -2  -5   6 3062.40   77.52
   2   5  -6 3172.27   80.18
  -2  -5   5 1120.86   29.41
   2   5  -5 1097.56   28.96
  -2  -5   4 1540.36   39.56
   2   5  -4 1499.85   38.62
  -2  -5   3 5726.40  143.05
   2   5  -3 5720.85  142.99
  -2  -5   2 2528.60   63.70
   2   5  -2 2432.61   61.20
   2   5  -1 3702.74   92.72
  -2  -5   0  333.32    8.93
   2   5   0  332.32    8.93
  -2  -5  -1  365.67    9.65
   2   5   1  372.72    9.88
  -2  -5  -2   15.04    1.50
   2   5   2   15.37    1.44
  -2  -5  -3  272.73    7.55
   2   5   3  280.11    7.71
   2   5   4   76.80    3.16
   2   5   4   77.91    3.33
   2   5   5  354.96    9.88
   2   5   5  346.41    9.93
   2   5   6  668.08   17.98
   2   5   6  653.10   17.59
   2   5   7 2062.50   52.55
   2   5   7 2013.12   51.38
   2   5   8 1874.95   48.00
   2   5   8 1955.41   50.00
   2   5   9  315.45    9.88
   2   5   9  328.38   10.27
   2   5  10 1469.89   38.18
   2   5  10 1523.71   39.62
   2   5  11  303.08   10.15
   2   5  11  302.36    9.71
   2   5  13 1217.97   32.41
   2   5  13 1219.63   32.29
   2   5  14  579.30   16.59
   2   5  14  591.51   17.09
   2   5  15  941.64   25.47
   2   5  15  961.61   26.08
   2   5  16   -2.66    3.77
   2   5  16   -2.83    4.00
   2   5  17  203.75    7.93
   2   5  17  218.40    7.60
   2   5  18   11.15    4.11
   2   5  18    8.93    4.05
   2   5  19    8.10    4.27
   2   5  19   -1.50    4.27
  -2  -6  15    5.38    4.72
  -2  -6  15    9.65    4.77
  -2  -6  14  169.85    7.38
  -2  -6  14  162.19    7.21
  -2  -6  13   47.39    4.72
   2   6 -13   44.67    4.66
  -2  -6  12   14.26    4.16
   2   6 -12   20.48    4.11
  -2  -6  11  522.53   15.15
   2   6 -11  526.14   15.26
  -2  -6  10  848.97   23.14
   2   6 -10  801.81   21.86
  -2  -6   9 2291.67   58.65
   2   6  -9 2285.01   58.54
  -2  -6   8  769.62   21.20
   2   6  -8  785.72   21.47
  -2  -6   7  509.44   14.70
   2   6  -7  528.36   14.98
  -2  -6   6 1385.54   36.07
   2   6  -6 1347.81   35.07
  -2  -6   5  881.15   23.47
   2   6  -5  890.59   23.80
  -2  -6   4 3454.15   87.01
   2   6  -4 3363.15   84.62
  -2  -6   3 2673.98   67.47
   2   6  -3 2542.48   64.26
  -2  -6   2 5144.32  128.62
   2   6  -2 4962.88  124.13
  -2  -6   1   90.39    3.44
   2   6  -1   86.84    3.44
  -2  -6   0  316.78    8.55
   2   6   0  296.09    7.99
  -2  -6  -1    5.16    1.22
   2   6   1    5.22    1.17
  -2  -6  -2  318.28    8.43
   2   6   2  305.63    8.05
   2   6   3  565.43   14.65
   2   6   3  573.75   14.76
   2   6   4  164.36    4.88
   2   6   4  179.28    5.44
   2   6   6 2139.63   54.05
   2   6   6 2127.42   53.77
   2   6   7  253.47    7.93
   2   6   7  233.99    7.32
   2   6   8 1876.06   48.05
   2   6   8 1940.43   49.33
   2   6   9    3.44    2.61
   2   6   9    2.83    2.66
   2   6  10 2243.39   57.37
   2   6  10 2326.07   59.04
   2   6  11  287.82    9.49
   2   6  11  287.71    9.27
   2   6  12 1576.98   41.06
   2   6  12 1537.03   39.95
   2   6  13 1793.94   46.72
   2   6  13 1842.77   47.28
   2   6  14  228.56    8.27
   2   6  14  257.69    8.60
   2   6  15  272.56    9.49
   2   6  15  281.99    9.21
   2   6  16   28.74    4.22
   2   6  16   22.31    3.83
   2   6  17   18.59    4.16
   2   6  17   23.03    3.94
   2   6  18  138.94    6.71
   2   6  18  136.45    6.21
   2   6  19   20.09    4.61
   2   6  19   28.85    4.55
  -2  -7  14  127.79    6.71
  -2  -7  14  112.97    6.21
  -2  -7  13  149.76    6.99
  -2  -7  13  150.82    7.10
  -2  -7  12  114.14    6.10
  -2  -7  12  118.25    6.16
  -2  -7  11  716.91   19.92
  -2  -7  10  320.11   10.38
   2   7 -10  327.16   10.43
  -2  -7   9 1874.40   48.22
   2   7  -9 1885.49   48.66
  -2  -7   8 1191.33   31.52
   2   7  -8 1193.00   31.41
  -2  -7   7  430.76   12.87
   2   7  -7  439.80   13.10
  -2  -7   6    4.72    3.11
   2   7  -6    9.93    2.77
  -2  -7   5 3563.46   89.84
   2   7  -5 3602.30   90.72
  -2  -7   4  777.39   20.86
   2   7  -4  774.62   20.81
  -2  -7   3 1574.76   40.28
   2   7  -3 1569.77   40.12
  -2  -7   2  638.12   16.98
   2   7  -2  619.25   16.31
  -2  -7   1 1315.63   33.51
   2   7  -1 1282.89   32.63
  -2  -7   0  696.38   17.92
   2   7   0  679.73   17.59
  -2  -7  -1 1343.37   34.90
   2   7   1 1327.28   34.57
   2   7   4  179.95    5.10
   2   7   4  163.97    4.61
   2   7   6  258.96    7.44
   2   7   6  276.50    7.88
   2   7   7 1990.92   50.55
   2   7   7 2043.08   51.83
   2   7   8  215.52    7.05
   2   7   8  213.63    6.99
   2   7   9  324.38   10.27
   2   7   9  307.63    9.43
   2   7  10  457.06   13.04
   2   7  10  486.08   13.98
   2   7  11 1626.92   42.34
   2   7  11 1537.58   39.79
   2   7  12 3729.93   94.27
   2   7  12 3693.86   93.55
   2   7  13  574.86   16.48
   2   7  13  567.65   16.31
   2   7  14  272.17    9.27
   2   7  14  267.95    9.21
   2   7  15   38.90    4.44
   2   7  15   46.06    4.61
   2   7  16   21.86    3.88
   2   7  16   25.14    4.33
   2   7  17    7.16    4.11
   2   7  17    7.93    4.00
   2   7  18   47.78    4.66
   2   7  18   37.45    4.88
   2   7  19  225.12    8.21
   2   7  19  219.12    8.21
  -2  -8  13  341.86   11.38
  -2  -8  13  339.59   11.15
  -2  -8  12  176.56    7.49
  -2  -8  12  171.07    7.38
  -2  -8  11  522.98   15.26
  -2  -8  11  530.75   15.48
  -2  -8  10  883.93   23.86
  -2  -8  10  907.23   24.53
  -2  -8   9  108.59    5.88
  -2  -8   9  118.19    5.99
  -2  -8   8  969.38   26.08
   2   8  -8  832.88   22.86
  -2  -8   7  479.75   13.87
   2   8  -7  501.95   14.32
  -2  -8   6 3177.82   80.40
   2   8  -6 3040.21   77.02
  -2  -8   5  126.57    5.49
   2   8  -5  126.40    5.27
  -2  -8   4  785.16   21.03
   2   8  -4  797.37   21.20
  -2  -8   3 1469.89   37.73
   2   8  -3 1445.47   36.96
  -2  -8   2   38.51    2.72
   2   8  -2   47.89    2.94
  -2  -8   1  540.96   14.26
   2   8  -1  568.76   14.98
   2   8   6  498.62   13.21
   2   8   6  523.31   13.93
   2   8   7  416.38   11.38
   2   8   7  393.63   11.04
   2   8   8 1242.94   32.13
   2   8   8 1175.80   30.52
   2   8   9  653.65   17.65
   2   8   9  689.72   18.70
   2   8  10  972.71   25.64
   2   8  10  952.18   25.19
   2   8  11 1353.92   35.35
   2   8  11 1354.47   35.12
   2   8  12  987.69   26.41
   2   8  12 1020.99   26.86
   2   8  13 1053.17   28.02
   2   8  13 1082.58   28.52
   2   8  14   88.06    5.66
   2   8  14   89.00    4.99
   2   8  15  984.92   26.36
   2   8  15  999.35   26.86
   2   8  16    9.49    4.16
   2   8  16    1.17    3.88
   2   8  17   14.26    4.33
   2   8  17   14.70    4.22
   2   8  18    4.88    4.44
   2   8  18    7.71    4.33
   2   8  19  256.63    9.21
   2   8  19  263.46    9.16
  -2  -9  12  265.18    9.93
  -2  -9  12  245.15    9.16
  -2  -9  11  101.43    6.33
  -2  -9  11  116.30    6.38
  -2  -9  10  939.42   25.30
  -2  -9  10 1006.56   26.97
  -2  -9   9  119.24    5.94
  -2  -9   9  126.62    5.94
  -2  -9   8  824.56   22.42
  -2  -9   8  869.50   23.64
  -2  -9   7  348.08   10.82
  -2  -9   7  376.99   11.49
  -2  -9   6  795.70   21.64
  -2  -9   6  764.63   20.86
  -2  -9   5  863.95   23.14
  -2  -9   5  827.33   22.20
  -2  -9   4   35.73    3.33
  -2  -9   4   33.74    3.33
  -2  -9   3  114.69    4.61
  -2  -9   3  126.85    4.99
  -2  -9   2  150.71    5.05
  -2  -9   2  146.66    5.05
  -2  -9   1  130.45    4.22
  -2  -9   1  134.89    4.33
  -2  -9   0    2.61    1.11
  -2  -9   0    0.67    1.11
   2   9   6 1187.45   30.30
   2   9   6 1181.90   30.24
   2   9   7  394.91   10.71
   2   9   7  394.36   10.60
   2   9   8  756.86   20.14
   2   9   8  696.38   18.31
   2   9   9  521.81   14.32
   2   9   9  511.71   13.93
   2   9  10 3294.90   83.18
   2   9  10 3139.53   79.24
   2   9  11  208.97    7.49
   2   9  11  197.59    7.16
   2   9  12 1220.19   31.96
   2   9  12 1143.61   30.13
   2   9  13  511.27   14.82
   2   9  13  525.09   15.20
   2   9  14   77.63    5.22
   2   9  14   75.24    4.83
   2   9  15  265.18    9.10
   2   9  15  268.29    8.93
   2   9  16   20.81    4.22
   2   9  16   25.91    3.94
   2   9  17   35.46    4.66
   2   9  17   30.91    4.72
   2   9  18  299.58   10.27
   2   9  18  285.32    9.54
   2   9  19   45.00    4.94
   2   9  19   31.57    5.10
  -2 -10  10   35.18    5.05
  -2 -10  10   40.51    5.10
  -2 -10   9  395.41   12.21
  -2 -10   9  394.86   12.37
  -2 -10   8  294.70    9.82
  -2 -10   8  301.69    9.88
  -2 -10   7  254.41    8.88
  -2 -10   7  246.48    8.49
  -2 -10   6  120.80    5.60
  -2 -10   6  117.25    5.38
  -2 -10   5  298.25    9.21
  -2 -10   5  322.22    9.88
  -2 -10   3    3.88    2.72
  -2 -10   3    4.05    2.39
  -2 -10   2  102.54    4.11
  -2 -10   2  102.49    3.94
  -2 -10   1  362.89    9.93
  -2 -10   1  361.56    9.88
   2  10   7 1744.55   44.28
   2  10   7 1651.33   42.06
   2  10   8  838.98   21.86
   2  10   8  846.75   21.92
   2  10   9   74.19    3.66
   2  10   9   70.80    3.50
   2  10  10 1136.40   29.74
   2  10  10 1093.12   28.58
   2  10  11   92.28    4.49
   2  10  11   80.90    4.44
   2  10  12 1141.40   29.96
   2  10  12 1067.60   27.91
   2  10  13   93.78    4.66
   2  10  13   99.60    5.33
   2  10  14  285.04    9.32
   2  10  14  303.74    9.60
   2  10  15   16.87    4.27
   2  10  15   13.21    4.05
   2  10  16   64.59    5.16
   2  10  16   79.57    5.22
   2  10  17   52.94    5.10
   2  10  17   49.66    5.05
   2  10  18  306.96   10.21
   2  10  18  286.38   10.10
   2  10  19   98.38    6.21
   2  10  19  106.87    6.05
  -2 -11   9  323.33   11.26
  -2 -11   9  312.40   10.49
  -2 -11   8  121.96    6.38
  -2 -11   8  107.43    6.10
  -2 -11   7  183.94    7.49
  -2 -11   7  176.73    7.10
  -2 -11   6  179.73    6.99
  -2 -11   6  175.29    6.71
  -2 -11   5   76.24    4.61
  -2 -11   5   74.96    4.44
  -2 -11   4  362.95   10.60
  -2 -11   4  376.38   10.99
  -2 -11   3  267.18    8.32
  -2 -11   3  292.65    8.77
  -2 -11   2  156.53    5.22
  -2 -11   2  146.27    4.88
  -2 -11   1   23.31    2.00
  -2 -11   1   19.42    1.89
   2  11   8  429.81   11.38
   2  11   8  452.17   11.99
   2  11   9  517.15   13.98
   2  11   9  509.77   13.54
   2  11  10 1083.13   28.30
   2  11  10 1041.52   26.86
   2  11  11  408.06   11.76
   2  11  11  446.18   12.76
   2  11  12    0.89    3.00
   2  11  12    1.89    3.50
   2  11  13   -2.72    3.05
   2  11  13   -0.33    3.33
   2  11  14  205.14    7.44
   2  11  14  218.24    7.66
   2  11  15   84.01    4.94
   2  11  15   92.33    5.60
   2  11  16  118.36    6.10
   2  11  16  118.69    6.05
   2  11  17  103.82    6.10
   2  11  17   99.38    6.05
   2  11  18   21.58    4.94
   2  11  18   28.52    5.16
   2  11  19  480.09   14.65
   2  11  19  480.92   14.15
  -2 -12   9  -11.04   12.48
  -2 -12   9    1.39    5.88
  -2 -12   8  383.98   12.71
  -2 -12   8  382.31   12.37
  -2 -12   7   -1.22    4.99
  -2 -12   7   -0.11    4.66
  -2 -12   6  277.44    9.32
  -2 -12   6  301.47    9.99
  -2 -12   5   98.21    5.27
  -2 -12   5  104.43    5.38
  -2 -12   4  237.55    7.71
  -2 -12   4  224.39    7.66
  -2 -12   3  450.62   12.60
  -2 -12   3  440.58   12.15
  -2 -12   2  394.63   10.88
  -2 -12   2  413.50   11.26
   2  12  10  645.88   17.15
   2  12  10  654.21   17.48
   2  12  11    3.44    2.72
   2  12  11    5.66    2.72
   2  12  12    8.10    3.11
   2  12  12   16.87    3.11
   2  12  13   30.13    3.72
   2  12  13   29.30    4.05
   2  12  14   16.20    3.83
   2  12  14   25.25    3.77
   2  12  15    5.22    3.83
   2  12  15   13.65    4.05
   2  12  16  216.74    8.21
   2  12  16  206.19    7.77
   2  12  17   -0.33    4.72
   2  12  17    3.00    4.44
   2  12  18  271.39    9.38
   2  12  18  285.38   10.21
   2  12  19  211.36    8.27
   2  12  19  222.56    8.55
  -2 -13   7   74.41    7.38
  -2 -13   7   77.79    6.55
  -2 -13   6  216.13    8.88
  -2 -13   6  217.79    8.55
  -2 -13   5    3.11    4.77
  -2 -13   5    6.44    3.77
  -2 -13   4   64.75    4.00
  -2 -13   4   68.47    4.72
  -2 -13   3   14.76    3.38
  -2 -13   3   11.82    2.83
   2  13  10 1493.75   38.73
   2  13  10 1394.42   36.07
   2  13  11  333.15    9.54
   2  13  11  323.83    9.04
   2  13  12   29.46    2.77
   2  13  12   21.86    3.22
   2  13  13  162.64    6.38
   2  13  13  167.52    6.21
   2  13  14    0.67    3.61
   2  13  14   -3.11    3.88
   2  13  15    6.16    4.22
   2  13  15    5.60    4.44
   2  13  16   67.75    5.83
   2  13  16   80.01    5.55
   2  13  17    2.83    4.61
   2  13  17    0.78    5.27
   2  13  18  226.06    8.66
   2  13  18  246.98    9.93
  -2 -14   6   70.36    7.49
  -2 -14   6   81.12    6.44
  -2 -14   5   15.31    4.33
  -2 -14   5    8.05    5.60
  -2 -14   4    4.99    4.44
  -2 -14   4   -0.50    3.44
   2  14  12   65.98    3.50
   2  14  12   68.14    3.05
   2  14  13  106.76    5.05
   2  14  13  108.48    4.44
   2  14  14   69.03    4.44
   2  14  14   63.20    5.05
   2  14  15    5.66    3.88
   2  14  15    5.33    4.83
   2  14  16    8.43    4.33
   2  14  16   18.37    5.38
   2  14  17   37.57    5.55
   2  14  17   28.69    5.88
   2  14  18   42.45    6.49
   2  14  18   37.51    7.21
   2  15  13    0.22    2.94
   2  15  13    1.39    2.22
   2  15  14   81.79    5.16
   2  15  14   90.11    4.11
   2  15  15    6.44    4.99
   2  15  15    3.55    3.72
   2  15  16   17.59    5.44
   2  15  16   23.42    5.16
   2  15  17    6.10    6.33
   2  15  17   -1.28    6.33
   2  16  15   28.30    5.10
   2  16  15   35.96    4.38
   2  16  16   24.47    6.94
   2  16  16   28.47    6.16
  -3  15  12   82.12    6.60
   3 -15 -12   65.92    7.10
  -3  15  11    1.66    4.72
   3 -15 -11   10.71    5.60
  -3  15  10   -4.00    4.33
   3 -15 -10    1.11    4.83
  -3  15   9    3.05    3.61
   3 -15  -9    5.38    4.49
   3 -15  -8   82.51    4.49
  -3  14  14   38.18    5.49
   3 -14 -14   33.02    6.60
  -3  14  13   21.25    4.88
   3 -14 -13   24.47    5.94
  -3  14  12    7.88    4.11
   3 -14 -12    6.27    4.83
  -3  14  11   23.19    4.11
   3 -14 -11   10.93    5.27
  -3  14  10    0.61    3.55
   3 -14 -10    7.82    4.61
  -3  14   9    6.71    3.38
   3 -14  -9    5.49    4.05
  -3  14   8  111.31    4.88
   3 -14  -8  113.75    5.55
  -3  14   7  178.28    6.10
   3 -14  -7  175.40    6.55
   3 -14  -6  102.38    4.72
   3 -14  -5   75.91    4.38
   3 -14  -5   76.52    5.33
   3 -14  -3   80.51    4.61
   3 -14  -3   86.73    6.21
   3 -14  -2  262.79    8.60
   3 -14  -2  272.67    9.77
   3 -14  -1   60.93    4.94
   3 -14  -1   57.26    6.16
   3 -14   0  348.41   10.99
   3 -14   0  364.39   12.32
   3 -14   1    5.33    7.10
   3 -14   1   -0.94    5.72
  -3  13  16   67.92    5.60
   3 -13 -16   51.49    6.88
  -3  13  15   11.43    4.38
   3 -13 -15   15.31    5.44
  -3  13  14    9.82    4.44
   3 -13 -14   15.43    5.16
  -3  13  13    5.49    4.22
   3 -13 -13    6.05    4.55
  -3  13  12   11.54    3.94
   3 -13 -12    5.10    4.33
  -3  13  11   -1.11    3.55
   3 -13 -11   -2.16    3.83
  -3  13  10   16.04    3.33
   3 -13 -10   22.08    4.11
  -3  13   9   21.03    3.11
   3 -13  -9   20.97    3.72
  -3  13   8  139.33    5.44
   3 -13  -8  141.99    5.88
  -3  13   7  148.65    5.66
   3 -13  -7  136.56    5.49
  -3  13   6  130.90    5.10
   3 -13  -6  139.28    5.55
  -3  13   5  309.29    9.16
   3 -13  -5  325.11    9.77
   3 -13  -4   83.18    4.55
   3 -13  -3  545.28   15.09
   3 -13  -3  538.85   15.20
   3 -13  -2  185.50    6.88
   3 -13  -2  196.87    7.77
   3 -13  -1  109.37    5.27
   3 -13  -1  105.21    6.27
   3 -13   0  107.81    5.60
   3 -13   0  100.99    6.33
   3 -13   1   26.30    4.61
   3 -13   1   30.74    6.10
   3 -13   2   89.45    7.16
   3 -13   2   94.61    6.71
   3 -13   3   66.20    7.71
   3 -13   3   61.37    6.49
  -3  12  17   41.12    5.05
   3 -12 -17   32.68    6.05
  -3  12  16   95.55    5.77
   3 -12 -16   87.62    6.38
  -3  12  15   46.22    4.88
   3 -12 -15   36.51    5.27
  -3  12  14    3.16    4.05
   3 -12 -14    4.22    4.49
  -3  12  13   49.55    4.66
   3 -12 -13   68.20    5.16
  -3  12  12    7.32    3.55
   3 -12 -12    7.93    3.94
  -3  12  11   29.35    3.66
   3 -12 -11   34.07    4.16
  -3  12  10   30.24    3.44
   3 -12 -10   27.80    3.88
  -3  12   9   59.15    3.83
   3 -12  -9   49.88    4.00
  -3  12   8  158.47    5.72
   3 -12  -8  162.14    5.99
  -3  12   7  575.41   15.65
   3 -12  -7  588.73   16.04
  -3  12   6   90.89    4.33
   3 -12  -6   92.00    4.38
  -3  12   5  462.61   12.98
   3 -12  -5  423.71   11.99
  -3  12   4   72.91    4.16
   3 -12  -4   73.41    4.11
  -3  12   3  718.57   19.25
   3 -12  -3  687.50   18.48
   3 -12  -2  237.05    7.66
   3 -12  -2  243.37    8.27
   3 -12  -1  199.04    6.99
   3 -12  -1  204.14    7.38
   3 -12   0   45.06    4.11
   3 -12   0   47.61    4.72
   3 -12   1  133.34    6.77
   3 -12   1  120.80    5.94
   3 -12   2   36.51    4.72
   3 -12   2   32.85    5.05
   3 -12   3  128.57    6.83
   3 -12   3  135.95    7.27
   3 -12   4   -2.39    5.05
   3 -12   4    3.77    5.83
   3 -12   5   16.26    5.77
   3 -12   5    4.27    7.93
  -3  11  17   16.04    4.61
   3 -11 -17    4.49    5.16
  -3  11  16  498.23   14.54
   3 -11 -16  510.10   15.26
  -3  11  15   22.14    4.11
   3 -11 -15   21.31    4.83
  -3  11  14   97.49    5.49
   3 -11 -14   85.17    5.60
  -3  11  13   27.30    4.00
   3 -11 -13   21.86    4.11
  -3  11  12    1.83    3.44
   3 -11 -12    0.44    3.72
  -3  11  11  103.65    5.10
   3 -11 -11  117.58    5.44
  -3  11  10  240.71    8.05
   3 -11 -10  244.70    8.16
  -3  11   9   82.40    4.27
   3 -11  -9   71.80    4.22
  -3  11   8  466.55   12.98
   3 -11  -8  452.01   12.93
  -3  11   7  115.80    4.55
   3 -11  -7  119.69    5.10
  -3  11   6  727.45   19.20
   3 -11  -6  736.33   19.70
  -3  11   5 1100.89   28.47
   3 -11  -5 1102.55   28.69
  -3  11   4  219.07    6.94
   3 -11  -4  244.04    7.71
  -3  11   3  149.82    5.33
   3 -11  -3  162.47    5.99
  -3  11   2  430.37   12.32
   3 -11  -2  475.37   13.37
   3 -11  -1  311.79    9.54
   3 -11  -1  336.15   10.27
   3 -11   0  142.11    5.94
   3 -11   0  140.11    5.88
   3 -11   1   26.41    3.77
   3 -11   1   19.20    4.05
   3 -11   2  136.67    6.49
   3 -11   2  124.74    5.83
   3 -11   3   38.18    4.72
   3 -11   3   30.74    4.61
   3 -11   4  491.52   14.65
   3 -11   4  522.09   15.43
   3 -11   5    0.83    4.94
   3 -11   5    6.38    5.05
   3 -11   7    8.88   10.04
   3 -11   7    7.44    5.49
  -3  10  18  285.32    9.99
   3 -10 -18  260.52    9.54
  -3  10  17   63.09    5.49
   3 -10 -17   63.81    5.88
  -3  10  16  660.31   18.48
   3 -10 -16  702.48   19.75
  -3  10  15   38.62    4.44
   3 -10 -15   36.57    4.77
  -3  10  14  199.54    7.38
   3 -10 -14  199.81    7.77
  -3  10  13  180.50    6.71
   3 -10 -13  165.41    6.88
  -3  10  12   11.65    3.44
   3 -10 -12    6.33    3.66
  -3  10  11  140.11    5.88
   3 -10 -11  133.73    5.83
  -3  10  10  665.86   18.20
   3 -10 -10  637.56   17.76
  -3  10   9  443.91   12.82
   3 -10  -9  438.30   12.71
  -3  10   8  467.54   13.26
   3 -10  -8  454.95   12.98
  -3  10   7  213.13    6.99
   3 -10  -7  198.48    6.88
  -3  10   6  614.81   16.70
   3 -10  -6  607.60   16.59
  -3  10   5  435.08   12.32
   3 -10  -5  422.93   12.10
  -3  10   4  582.63   15.93
   3 -10  -4  578.19   15.81
  -3  10   3  405.90   11.76
   3 -10  -3  368.00   10.71
  -3  10   2  405.51   11.76
   3 -10  -2  421.49   12.04
  -3  10   1  438.25   12.65
   3 -10  -1  407.84   11.82
   3 -10   0 1118.09   29.35
   3 -10   0 1172.47   30.80
   3 -10   1  467.16   13.43
   3 -10   1  456.89   13.26
   3 -10   2   24.41    3.72
   3 -10   2   31.13    4.27
   3 -10   3  177.29    7.21
   3 -10   3  187.72    7.32
   3 -10   4   35.35    4.77
   3 -10   4   45.56    4.77
   3 -10   5  265.12    9.27
   3 -10   5  263.07    9.21
   3 -10   6   75.35    5.83
   3 -10   6   92.17    6.10
   3 -10   7    5.10    4.77
   3 -10   7   11.49    5.27
  -3   9  18   87.67    5.72
   3  -9 -18   88.78    6.16
  -3   9  17  297.97    9.93
   3  -9 -17  307.13   10.43
  -3   9  16    1.55    4.00
   3  -9 -16    7.49    4.33
  -3   9  15   11.49    3.77
   3  -9 -15   11.43    4.16
  -3   9  14    7.99    3.94
   3  -9 -14    3.38    3.77
  -3   9  13  177.73    6.66
   3  -9 -13  174.29    6.88
  -3   9  12  428.92   12.26
   3  -9 -12  482.75   14.21
  -3   9  11   75.02    4.22
   3  -9 -11   73.91    4.72
  -3   9  10  165.69    6.38
   3  -9 -10  160.86    6.44
  -3   9   9  752.98   20.25
   3  -9  -9  710.25   19.37
  -3   9   8  989.36   26.30
   3  -9  -8  960.50   25.41
  -3   9   7 1433.26   37.23
   3  -9  -7 1402.75   36.34
  -3   9   6  642.56   17.53
   3  -9  -6  661.42   17.98
  -3   9   5  729.12   19.59
   3  -9  -5  720.24   19.31
  -3   9   4  382.20   11.04
   3  -9  -4  375.27   10.88
  -3   9   3 1201.88   31.18
   3  -9  -3 1200.21   31.13
  -3   9   2   -1.78    2.61
   3  -9  -2    1.94    2.61
  -3   9   1  261.29    8.16
   3  -9  -1  261.79    8.49
  -3   9   0  197.87    6.77
   3  -9   0  195.54    6.94
   3  -9   1   64.70    4.27
   3  -9   1   59.54    4.11
   3  -9   2   36.23    4.05
   3  -9   2   37.62    4.11
   3  -9   3  634.23   17.76
   3  -9   3  647.55   18.09
   3  -9   4   14.87    3.88
   3  -9   4   14.76    4.44
   3  -9   5  513.32   14.93
   3  -9   5  497.45   14.65
   3  -9   6  217.46    8.27
   3  -9   6  213.63    7.93
   3  -9   7  173.62    7.55
   3  -9   7  164.97    7.27
   3  -9   8  148.93    7.32
   3  -9   8  157.25    7.38
   3  -9   9   35.07    5.72
   3  -9   9   30.13    5.49
  -3   8  19  110.42    6.38
   3  -8 -19  106.54    6.49
  -3   8  18  110.37    6.05
   3  -8 -18  113.58    6.60
  -3   8  17  101.82    5.72
   3  -8 -17  111.20    6.27
  -3   8  16   50.16    4.66
   3  -8 -16   41.06    5.05
  -3   8  15   44.39    4.55
   3  -8 -15   48.44    4.83
  -3   8  14  121.24    5.77
   3  -8 -14  114.31    5.88
  -3   8  13  109.37    5.60
   3  -8 -13  100.05    5.44
  -3   8  12  784.05   21.64
   3  -8 -12  741.32   20.36
  -3   8  11  261.85    8.71
   3  -8 -11  279.83    9.27
  -3   8  10 1450.47   37.57
   3  -8 -10 1532.03   39.79
  -3   8   9  297.58    9.21
   3  -8  -9  279.16    8.93
  -3   8   8 1019.88   26.80
   3  -8  -8  978.26   25.91
  -3   8   7  666.42   17.92
   3  -8  -7  671.96   18.31
  -3   8   6  278.11    8.49
   3  -8  -6  275.89    8.66
  -3   8   5 2038.64   51.88
   3  -8  -5 2086.92   53.16
  -3   8   4  138.28    5.22
   3  -8  -4  128.62    5.10
  -3   8   3  439.08   12.48
   3  -8  -3  492.02   13.93
  -3   8   2  373.77   10.93
   3  -8  -2  355.24   10.43
  -3   8   1  759.08   20.36
   3  -8  -1  780.72   20.92
  -3   8   0    6.33    2.89
   3  -8   0    5.16    3.00
  -3   8  -1  328.49   10.38
   3  -8   1  324.61    9.93
   3  -8   2   54.38    4.33
   3  -8   2   59.59    4.22
   3  -8   3   80.46    4.83
   3  -8   3   85.34    4.94
   3  -8   4  288.15    9.54
   3  -8   4  294.92    9.88
   3  -8   5  597.61   16.92
   3  -8   5  592.62   16.87
   3  -8   6  254.19    8.88
   3  -8   6  249.75    8.82
   3  -8   7  164.80    7.05
   3  -8   7  160.25    6.83
   3  -8   8  498.95   14.70
   3  -8   8  495.79   14.87
   3  -8   9  352.35   11.60
   3  -8   9  367.72   11.82
   3  -8  10  173.62    7.88
   3  -8  10  182.78    7.93
  -3   7  19   89.89    5.55
   3  -7 -19   83.34    5.94
  -3   7  18  112.31    5.99
   3  -7 -18  131.84    6.94
  -3   7  17    2.16    3.83
   3  -7 -17    0.83    4.22
  -3   7  16   24.47    4.22
   3  -7 -16   18.20    4.33
  -3   7  15   -0.33    3.72
   3  -7 -15    6.55    4.00
  -3   7  14  332.60   10.27
   3  -7 -14  328.49   10.65
  -3   7  13  588.18   16.37
   3  -7 -13  595.94   16.98
  -3   7  12  132.89    5.83
   3  -7 -12  133.01    5.99
  -3   7  11  804.03   21.81
   3  -7 -11  773.51   21.20
  -3   7  10  934.98   24.97
   3  -7 -10  967.16   25.97
  -3   7   9  500.28   14.26
   3  -7  -9  516.26   14.70
  -3   7   8 1868.85   47.94
   3  -7  -8 1882.16   48.22
  -3   7   7  317.62    9.60
   3  -7  -7  324.11    9.93
  -3   7   6  604.82   16.70
   3  -7  -6  606.49   16.59
  -3   7   5  201.64    6.88
   3  -7  -5  211.52    7.05
  -3   7   4 1163.59   30.30
   3  -7  -4 1202.99   31.24
  -3   7   3  660.87   17.87
   3  -7  -3  696.38   18.81
  -3   7   2  177.34    6.21
   3  -7  -2  161.47    5.77
  -3   7   1    7.16    2.50
   3  -7  -1    3.55    2.44
  -3   7   0  134.34    5.27
   3  -7   0  125.46    4.94
  -3   7  -1   15.87    2.66
   3  -7   1   23.19    3.38
  -3   7  -2    7.10    2.77
   3  -7   2    2.50    3.11
   3  -7   3  400.29   11.93
   3  -7   3  404.90   12.15
   3  -7   4  273.78    9.10
   3  -7   4  281.94    9.32
   3  -7   5  280.38    9.43
   3  -7   5  257.52    8.71
   3  -7   6 1343.37   35.29
   3  -7   6 1310.08   34.46
   3  -7   7  108.15    5.83
   3  -7   7  106.54    5.88
   3  -7   8 1210.76   31.96
   3  -7   8 1184.68   31.30
   3  -7   9  131.73    6.33
   3  -7   9  136.22    6.77
   3  -7  10  269.90    9.65
   3  -7  10  278.11    9.60
   3  -7  11  202.81    8.10
   3  -7  11  206.14    8.32
   3  -7  12  196.98    8.16
   3  -7  12  197.09    8.43
  -3   6  19  148.43    6.66
   3  -6 -19  138.55    6.77
  -3   6  18    4.44    4.27
   3  -6 -18   -2.05    4.22
  -3   6  17   70.64    5.44
   3  -6 -17   80.57    5.33
  -3   6  16   35.73    4.38
   3  -6 -16   30.80    4.55
  -3   6  15  423.88   12.93
   3  -6 -15  424.60   12.93
  -3   6  14  284.32    9.54
   3  -6 -14  315.67   10.38
  -3   6  13  650.88   18.31
   3  -6 -13  684.17   19.14
  -3   6  12    4.49    3.44
   3  -6 -12   -1.33    3.61
  -3   6  11 1588.08   41.51
   3  -6 -11 1576.98   41.01
  -3   6  10 1625.25   42.23
   3  -6 -10 1710.71   44.17
  -3   6   9  900.58   24.41
   3  -6  -9  787.38   21.47
  -3   6   8  567.09   15.81
   3  -6  -8  579.30   16.09
  -3   6   7  456.11   13.21
   3  -6  -7  479.81   13.76
  -3   6   6  440.63   12.82
   3  -6  -6  437.97   12.60
  -3   6   5    1.05    2.55
   3  -6  -5    0.44    2.66
  -3   6   4  306.85    9.21
   3  -6  -4  308.63    9.27
  -3   6   3 2639.58   66.86
   3  -6  -3 2687.86   67.92
  -3   6   2  286.21    8.82
   3  -6  -2  294.53    8.93
  -3   6   1  101.60    4.61
   3  -6  -1  109.37    4.55
  -3   6   0   93.05    4.61
   3  -6   0   96.72    4.44
  -3   6  -1  382.04   11.54
   3  -6   1  396.91   11.49
  -3   6  -2  610.93   16.98
   3  -6   2  585.96   16.26
   3  -6   3  642.00   17.70
   3  -6   4   18.03    3.38
   3  -6   4   23.53    3.66
   3  -6   5  982.14   26.36
   3  -6   5  964.94   25.91
   3  -6   6  888.92   24.08
   3  -6   6  840.65   22.97
   3  -6   7 1062.05   28.41
   3  -6   7 1138.07   30.19
   3  -6   8 2463.68   62.98
   3  -6   8 2444.82   62.59
   3  -6   9    0.39    3.83
   3  -6   9    2.83    4.11
   3  -6  10  425.43   13.21
   3  -6  10  448.46   13.54
   3  -6  11   81.35    5.66
   3  -6  11   84.62    5.77
   3  -6  12  274.33    9.77
   3  -6  12  280.22    9.99
   3  -6  13   70.30    6.05
   3  -6  13   70.08    5.88
  -3   5  19  180.50    7.49
   3  -5 -19  177.90    7.32
  -3   5  18    5.33    4.44
   3  -5 -18   10.32    4.27
  -3   5  17  211.47    8.05
   3  -5 -17  206.58    7.93
  -3   5  16  174.68    7.38
   3  -5 -16  173.12    7.16
  -3   5  15  403.34   12.21
   3  -5 -15  398.68   12.37
  -3   5  14   82.90    4.94
   3  -5 -14   94.16    5.22
  -3   5  13  650.32   17.92
   3  -5 -13  653.10   18.42
  -3   5  12 1206.32   31.63
   3  -5 -12 1313.41   34.74
  -3   5  11  174.84    6.71
   3  -5 -11  182.83    7.05
  -3   5  10 1439.37   37.23
   3  -5 -10 1514.28   39.40
  -3   5   9  296.86    9.32
   3  -5  -9  307.18    9.71
  -3   5   8  674.74   18.31
   3  -5  -8  659.76   18.14
  -3   5   7   63.81    3.72
   3  -5  -7   70.80    4.16
  -3   5   6   14.70    2.55
   3  -5  -6   18.20    3.05
  -3   5   5 3388.67   85.17
   3  -5  -5 3493.55   87.89
  -3   5   4 2556.90   64.53
   3  -5  -4 2586.31   65.42
  -3   5   2 1525.37   38.95
   3  -5  -2 1605.28   41.12
  -3   5   1  380.32   10.76
   3  -5  -1  376.60   10.82
  -3   5   0  661.42   17.70
   3  -5   0  662.53   17.87
  -3   5  -1 1040.41   27.24
   3  -5   1 1028.20   27.02
  -3   5  -2   57.32    3.55
   3  -5   2   59.48    3.55
  -3   5  -3 3401.44   85.73
   3  -5   3 3355.94   84.79
   3  -5   4    3.72    3.00
   3  -5   4   11.04    3.11
   3  -5   5 1563.66   40.56
   3  -5   5 1538.14   40.06
   3  -5   6  121.91    5.94
   3  -5   6  126.57    6.21
   3  -5   7 1917.68   49.50
   3  -5   7 1944.87   50.22
   3  -5   8 1100.33   29.35
   3  -5   8 1050.95   28.13
   3  -5   9  733.56   20.48
   3  -5   9  765.18   21.20
   3  -5  10  370.77   11.82
   3  -5  10  381.43   11.93
   3  -5  11  153.37    7.10
   3  -5  11  153.98    6.99
   3  -5  12   76.96    5.99
   3  -5  12   83.62    5.38
   3  -5  13  124.29    6.60
   3  -5  13  131.40    7.05
   3  -5  14    1.39    5.16
   3  -5  14    3.00    5.10
  -3   4  19   20.59    4.44
   3  -4 -19   21.81    4.72
  -3   4  18   -2.61    4.11
   3  -4 -18   -1.78    4.16
  -3   4  17    2.11    4.38
   3  -4 -17    1.61    4.16
  -3   4  16    4.33    3.66
   3  -4 -16    1.28    3.77
  -3   4  15 1001.56   26.69
   3  -4 -15 1010.44   27.08
  -3   4  14   85.34    5.38
   3  -4 -14   77.57    5.05
  -3   4  13   78.13    5.22
   3  -4 -13   89.50    5.27
  -3   4  12  346.30   11.32
   3  -4 -12  339.59   10.76
  -3   4  11 1002.12   26.97
   3  -4 -11  996.57   26.69
  -3   4  10 1463.23   38.29
   3  -4 -10 1515.94   39.45
  -3   4   9  565.43   16.26
   3  -4  -9  580.41   16.31
  -3   4   8  417.33   12.48
   3  -4  -8  395.08   11.71
  -3   4   7  174.62    6.60
   3  -4  -7  177.45    6.55
  -3   4   6 1693.50   43.56
   3  -4  -6 1652.44   42.45
  -3   4   5  819.56   21.81
   3  -4  -5  786.27   21.09
  -3   4   4  178.67    6.27
   3  -4  -4  195.21    6.66
  -3   4   3  633.68   17.26
   3  -4  -3  736.89   19.98
  -3   4   2  617.59   16.87
   3  -4  -2  614.81   16.70
  -3   4   1   93.11    4.38
   3  -4  -1   87.17    4.00
  -3   4   0  692.49   18.76
   3  -4   0  708.59   19.03
  -3   4  -1  479.64   13.48
   3  -4   1  493.24   13.87
  -3   4  -2 1108.66   29.02
   3  -4   2 1195.77   31.24
  -3   4  -3 1219.08   31.96
   3  -4   3 1244.60   32.52
  -3   4  -4  991.58   26.19
   3  -4   4  989.36   26.30
   3  -4   5 1588.63   41.12
   3  -4   5 1636.35   42.39
   3  -4   6 2576.88   65.64
   3  -4   6 2446.48   62.54
   3  -4   7  899.47   24.41
   3  -4   7  988.25   26.69
   3  -4   8  227.67    8.38
   3  -4   8  213.96    8.21
   3  -4   9   86.56    5.49
   3  -4   9   96.61    5.49
   3  -4  10  922.77   25.03
   3  -4  10  927.21   25.14
   3  -4  11  538.85   15.70
   3  -4  11  547.56   15.81
   3  -4  12   15.37    4.27
   3  -4  12   16.31    4.16
   3  -4  13   50.72    5.05
   3  -4  13   46.50    4.88
   3  -4  14  141.88    6.99
   3  -4  14  144.44    6.71
  -3   3  19   19.59    4.61
   3  -3 -19   28.30    4.66
  -3   3  18    2.22    4.05
   3  -3 -18    2.22    4.22
  -3   3  17  132.51    6.33
   3  -3 -17  140.05    6.60
  -3   3  16   67.25    5.16
   3  -3 -16   59.15    4.94
  -3   3  15   99.49    5.77
   3  -3 -15  102.10    5.55
  -3   3  14   41.28    4.44
   3  -3 -14   58.43    4.83
  -3   3  13 1570.88   40.73
   3  -3 -13 1586.97   41.39
  -3   3  12  567.65   16.15
   3  -3 -12  560.99   16.09
  -3   3  11 1119.75   29.52
   3  -3 -11 1149.72   30.35
  -3   3  10  529.91   15.09
   3  -3 -10  516.65   14.93
  -3   3   9  164.08    6.44
   3  -3  -9  176.67    6.83
  -3   3   8 1917.12   49.05
   3  -3  -8 1998.69   51.22
  -3   3   7  214.74    7.32
   3  -3  -7  218.35    7.55
  -3   3   6   63.98    3.83
   3  -3  -6   68.86    4.22
  -3   3   5  450.40   12.60
   3  -3  -5  498.73   14.04
  -3   3   4 2302.21   58.43
   3  -3  -4 2245.61   57.04
  -3   3   3  234.16    7.44
   3  -3  -3  242.87    7.71
  -3   3   2   19.70    2.72
   3  -3  -2   20.36    2.83
  -3   3   1  448.68   12.60
   3  -3  -1  437.69   12.37
  -3   3   0  283.77    8.60
   3  -3   0  271.45    8.38
  -3   3  -1  608.15   16.59
   3  -3   1  633.12   17.20
  -3   3  -2 1165.26   30.24
   3  -3   2 1143.06   29.80
  -3   3  -3 1247.38   32.63
   3  -3   3 1249.04   32.57
  -3   3  -4 1084.80   28.85
   3  -3   4  979.37   25.97
   3  -3   5 1959.29   50.27
   3  -3   5 2044.19   52.44
   3  -3   6 3315.43   83.84
   3  -3   6 3202.23   81.18
   3  -3   7  497.84   14.48
   3  -3   7  512.10   14.93
   3  -3   8  297.20    9.82
   3  -3   8  302.97   10.15
   3  -3   9  597.05   17.09
   3  -3   9  624.24   17.81
   3  -3  10  207.19    7.88
   3  -3  10  199.26    7.66
   3  -3  11   11.04    3.94
   3  -3  11   17.81    4.00
   3  -3  12   15.26    4.16
   3  -3  12   26.86    4.27
   3  -3  13   -0.28    4.38
   3  -3  13    0.44    3.94
   3  -3  14   83.84    5.72
   3  -3  14   90.34    5.44
   3  -3  15    4.44    4.88
   3  -3  15    1.72    4.49
  -3   2  19   40.73    4.49
   3  -2 -19   45.06    5.27
  -3   2  18    3.33    4.27
   3  -2 -18    2.39    4.22
  -3   2  17   23.14    4.27
   3  -2 -17   15.31    4.38
  -3   2  16  462.83   13.98
   3  -2 -16  452.34   13.54
  -3   2  15  113.75    5.55
   3  -2 -15  106.43    5.66
  -3   2  14   20.42    4.22
   3  -2 -14   26.08    4.11
  -3   2  13 1035.97   28.02
   3  -2 -13 1077.03   28.85
  -3   2  12  128.62    6.33
   3  -2 -12  137.72    6.21
  -3   2  11 1095.34   29.24
   3  -2 -11 1084.24   28.85
  -3   2  10  427.87   12.93
   3  -2 -10  410.39   12.48
  -3   2   9 1599.17   41.62
   3  -2  -9 1590.30   41.34
  -3   2   8 3988.50  100.49
   3  -2  -8 3827.59   96.49
  -3   2   7  359.51   10.76
   3  -2  -7  372.10   11.21
  -3   2   6  357.01   10.88
   3  -2  -6  368.17   11.21
  -3   2   5  871.17   23.42
   3  -2  -5  794.04   21.42
  -3   2   4  120.35    5.05
   3  -2  -4  115.47    4.99
  -3   2   3  587.62   16.15
   3  -2  -3  574.30   15.81
  -3   2   2  506.00   14.09
   3  -2  -2  524.03   14.48
  -3   2   1  545.12   15.09
   3  -2  -1  563.76   15.43
  -3   2   0  963.83   25.41
   3  -2   0  976.59   25.64
  -3   2  -1 1149.72   30.02
   3  -2   1 1171.91   30.52
  -3   2  -2  441.96   12.71
   3  -2   2  428.20   12.26
  -3   2  -3 4378.03  109.81
   3  -2   3 4558.92  114.42
  -3   2  -4 1570.88   40.56
   3  -2   4 1591.41   41.12
  -3   2  -5 5000.61  125.57
   3  -2   5 4466.81  112.36
   3  -2   6  395.74   11.82
   3  -2   6  428.59   12.71
   3  -2   7  552.05   15.76
   3  -2   7  541.90   15.48
   3  -2   8    0.39    3.22
   3  -2   8    4.22    3.55
   3  -2   9  488.80   14.43
   3  -2   9  476.59   14.21
   3  -2  10   50.22    4.72
   3  -2  10   58.60    4.77
   3  -2  11  102.60    5.60
   3  -2  11  105.59    5.83
   3  -2  12  277.89    9.54
   3  -2  12  286.99    9.77
   3  -2  13   55.99    4.99
   3  -2  13   54.05    4.55
   3  -2  14   18.09    4.38
   3  -2  14   10.43    4.22
   3  -2  15   17.87    4.77
   3  -2  15   19.86    4.44
   3  -2  16   46.83    5.38
   3  -2  16   42.17    4.94
  -3   1  18   32.18    4.72
   3  -1 -18   28.91    4.66
  -3   1  17   11.04    4.16
   3  -1 -17   22.03    4.33
  -3   1  16  134.95    6.10
   3  -1 -16  138.33    6.49
  -3   1  15  294.03   10.15
   3  -1 -15  312.40   10.32
  -3   1  14  435.47   13.26
   3  -1 -14  432.48   13.10
  -3   1  13  832.88   22.69
   3  -1 -13  825.11   22.75
  -3   1  12  578.19   16.42
   3  -1 -12  599.83   17.03
  -3   1  11  598.16   16.92
   3  -1 -11  604.82   17.09
  -3   1  10 2429.83   62.04
   3  -1 -10 2357.70   60.26
  -3   1   9 1300.65   34.01
   3  -1  -9 1305.09   34.29
  -3   1   8 1458.23   37.84
   3  -1  -8 1487.64   38.56
  -3   1   7   34.79    3.55
   3  -1  -7   32.79    3.22
  -3   1   6  646.44   17.70
   3  -1  -6  637.01   17.65
  -3   1   5   93.89    4.38
   3  -1  -5   88.17    4.61
  -3   1   4  109.87    4.72
   3  -1  -4  112.53    5.10
  -3   1   3 2731.14   68.97
   3  -1  -3 2662.33   67.42
  -3   1   2  212.13    6.88
   3  -1  -2  212.35    7.05
  -3   1   1  272.50    8.32
   3  -1  -1  279.99    8.71
  -3   1   0 6020.49  150.26
   3  -1   0 5848.47  146.21
  -3   1  -1   43.95    3.27
   3  -1   1   42.12    3.27
  -3   1  -2  634.79   17.31
   3  -1   2  622.58   17.03
  -3   1  -3 2849.88   72.02
   3  -1   3 2966.41   75.13
  -3   1  -4 1032.64   27.24
   3  -1   4 1013.22   26.86
  -3   1  -5 5372.38  134.78
   3  -1   5 5170.96  129.68
   3  -1   6  349.96   10.76
   3  -1   6  358.40   11.04
   3  -1   7 2341.61   59.87
   3  -1   7 2281.13   58.32
   3  -1   8    3.38    3.11
   3  -1   8    4.99    3.44
   3  -1   9  507.72   14.87
   3  -1   9  489.30   14.54
   3  -1  10   19.98    4.05
   3  -1  10   22.64    4.33
   3  -1  11   40.12    4.61
   3  -1  11   36.40    4.33
   3  -1  12    0.00    3.83
   3  -1  12    3.38    3.94
   3  -1  13  116.30    6.21
   3  -1  13  118.75    5.72
   3  -1  14    1.94    4.05
   3  -1  14   -2.66    4.00
   3  -1  15  171.63    7.49
   3  -1  15  190.82    7.66
   3  -1  16   69.69    5.60
   3  -1  16   65.09    5.49
  -3   0  18   37.40    4.77
   3   0 -18   26.52    4.16
  -3   0  17    0.00    4.33
   3   0 -17    5.33    4.22
  -3   0  16  146.54    6.60
   3   0 -16  137.50    6.44
  -3   0  15 1161.37   30.85
   3   0 -15 1082.58   28.91
  -3   0  14  932.76   25.25
   3   0 -14  907.23   24.47
  -3   0  13  859.51   23.53
   3   0 -13  923.33   25.19
  -3   0  12  284.54    9.77
   3   0 -12  295.53    9.88
  -3   0  11  776.28   21.58
   3   0 -11  776.28   21.36
  -3   0  10 2210.10   56.82
   3   0 -10 2212.88   56.76
  -3   0   9  673.07   18.76
   3   0  -9  718.57   19.98
  -3   0   8 4695.98  118.08
   3   0  -8 4870.21  122.52
  -3   0   7 1094.79   28.85
   3   0  -7 1080.91   28.63
  -3   0   6 2013.67   51.60
   3   0  -6 2071.93   53.10
  -3   0   5   50.72    3.72
   3   0  -5   52.82    4.16
  -3   0   4  121.35    5.05
   3   0  -4  120.96    5.33
  -3   0   3  602.60   16.42
   3   0  -3  657.54   17.87
  -3   0   2  805.69   21.36
   3   0  -2  789.60   21.03
  -3   0   1 1820.02   46.39
   3   0  -1 1809.48   46.17
  -3   0   0 2196.23   55.65
   3   0   0 2278.35   57.76
  -3   0  -1 2757.77   69.58
   3   0   1 2895.94   73.08
  -3   0  -2 1409.96   36.40
   3   0   2 1413.29   36.46
  -3   0  -3 1287.33   33.46
   3   0   3 1288.99   33.51
  -3   0  -4 3624.50   91.17
   3   0   4 3713.83   93.66
  -3   0  -5 1188.01   31.07
   3   0   5 1201.32   31.57
   3   0   6  120.58    5.44
   3   0   6  117.25    5.27
   3   0   7  311.57    9.82
   3   0   7  319.83   10.10
   3   0   8 2047.52   52.66
   3   0   8 1993.14   51.22
   3   0   9  502.78   14.70
   3   0   9  487.58   14.48
   3   0  10 1449.36   38.07
   3   0  10 1406.63   36.96
   3   0  11  103.21    5.60
   3   0  11  102.43    5.77
   3   0  12   69.42    5.05
   3   0  12   86.45    5.10
   3   0  13   12.21    4.11
   3   0  13   19.09    4.11
   3   0  14  305.02   10.15
   3   0  14  298.97   10.04
   3   0  15    8.49    4.27
   3   0  15   11.65    4.05
   3   0  16  565.98   16.54
   3   0  16  539.79   15.48
   3   0  17   15.43    4.83
   3   0  17   12.15    4.77
  -3  -1  18  271.62    9.32
   3   1 -18  257.24    8.82
  -3  -1  17   31.68    4.94
   3   1 -17   26.52    4.61
  -3  -1  16  188.33    7.71
   3   1 -16  184.83    7.32
  -3  -1  15  397.24   12.10
   3   1 -15  402.90   12.43
  -3  -1  14  176.12    7.49
   3   1 -14  168.63    6.77
  -3  -1  13 2905.37   74.13
   3   1 -13 2971.96   75.63
  -3  -1  12  339.98   11.10
   3   1 -12  355.62   11.32
  -3  -1  11 3905.82   98.71
   3   1 -11 4009.03  101.27
  -3  -1  10  263.18    8.77
   3   1 -10  268.12    9.21
  -3  -1   9  292.81    9.49
   3   1  -9  330.88   10.60
  -3  -1   8  858.96   23.25
   3   1  -8  856.74   23.36
  -3  -1   7  202.42    7.16
   3   1  -7  210.52    7.60
  -3  -1   6 1839.99   47.22
   3   1  -6 1877.17   48.22
  -3  -1   5    4.77    2.61
   3   1  -5    6.99    2.89
  -3  -1   4   46.67    3.38
   3   1  -4   46.44    3.66
  -3  -1   3 1953.19   49.83
   3   1  -3 1919.90   49.00
  -3  -1   2 3993.50  100.10
   3   1  -2 4119.46  103.26
  -3  -1   1  966.61   25.25
   3   1  -1  921.66   24.14
  -3  -1   0   82.62    4.00
   3   1   0   89.50    4.11
  -3  -1  -1 1328.95   34.13
   3   1   1 1323.95   34.13
  -3  -1  -2 1264.58   32.63
   3   1   2 1316.18   34.01
  -3  -1  -3  957.73   25.19
   3   1   3 1023.21   26.97
  -3  -1  -4 4261.50  107.04
   3   1   4 4314.22  108.37
  -3  -1  -5 1037.63   27.30
   3   1   5 1052.06   27.86
   3   1   6 2313.31   59.04
   3   1   6 2320.52   59.21
   3   1   7  273.34    9.10
   3   1   7  254.19    8.32
   3   1   8 1215.75   32.07
   3   1   8 1194.11   31.46
   3   1   9   83.40    4.77
   3   1   9   73.80    4.77
   3   1  10  280.44    9.54
   3   1  10  282.38    9.60
   3   1  11   92.78    5.22
   3   1  11   90.56    5.38
   3   1  12   -1.89    3.72
   3   1  12   -1.61    3.83
   3   1  13  245.20    8.77
   3   1  13  239.93    8.82
   3   1  14   10.76    3.94
   3   1  14   10.27    3.94
   3   1  15   91.94    5.27
   3   1  15   93.72    5.66
   3   1  16  129.57    6.38
   3   1  16  118.41    5.88
   3   1  17   95.77    6.27
   3   1  17   98.33    5.77
  -3  -2  17   75.30    5.66
   3   2 -17   77.57    5.27
  -3  -2  16  408.51   12.60
   3   2 -16  432.98   12.98
  -3  -2  15  170.79    6.94
   3   2 -15  184.83    7.10
  -3  -2  14  600.94   17.42
   3   2 -14  615.92   17.31
  -3  -2  13  851.75   23.14
   3   2 -13  838.43   22.97
  -3  -2  12  814.57   22.31
   3   2 -12  797.37   21.92
  -3  -2  11 3187.25   80.96
   3   2 -11 3169.49   80.62
  -3  -2  10 1334.49   35.12
   3   2 -10 1353.92   35.62
  -3  -2   9  112.03    5.55
   3   2  -9  111.64    5.38
  -3  -2   8   15.70    3.50
   3   2  -8   12.32    3.55
  -3  -2   7  504.44   14.59
   3   2  -7  501.06   14.48
  -3  -2   6    2.33    3.00
   3   2  -6   10.04    3.11
  -3  -2   5  154.54    5.99
   3   2  -5  159.81    6.05
  -3  -2   4  256.36    8.16
   3   2  -4  261.68    8.32
  -3  -2   3   86.06    4.22
   3   2  -3   76.13    3.94
  -3  -2   2   96.55    4.22
   3   2  -2   95.72    4.16
  -3  -2   1  424.21   11.87
   3   2  -1  444.74   12.60
  -3  -2   0 2637.92   66.48
   3   2   0 2750.56   69.36
  -3  -2  -1  105.76    4.38
   3   2   1  108.04    4.44
  -3  -2  -2 1719.03   43.89
   3   2   2 1755.65   44.72
  -3  -2  -3 4081.72  102.43
   3   2   3 4188.26  104.93
  -3  -2  -4 3010.24   76.07
   3   2   4 3125.66   78.79
  -3  -2  -5 2167.38   55.04
   3   2   5 2248.39   57.21
   3   2   6 2359.36   60.15
   3   2   6 2304.43   58.71
   3   2   7 2579.10   65.70
   3   2   7 2634.59   66.97
   3   2   8    6.27    3.16
   3   2   8    5.44    3.27
   3   2   9  310.46    9.99
   3   2   9  309.90    9.93
   3   2  10  155.64    6.66
   3   2  10  152.76    6.66
   3   2  11   69.80    4.83
   3   2  11   77.79    5.10
   3   2  12    9.10    3.72
   3   2  12    1.50    3.77
   3   2  13  322.39   10.60
   3   2  13  342.59   10.76
   3   2  14   12.98    3.94
   3   2  14   18.59    3.83
   3   2  15  361.06   11.49
   3   2  15  396.96   12.37
   3   2  16  243.98    8.77
   3   2  16  250.03    8.49
   3   2  17  308.46   10.27
   3   2  17  326.44   10.32
   3   2  18  163.30    7.32
   3   2  18  171.02    6.99
  -3  -3  17   93.66    6.21
   3   3 -17   78.07    5.33
  -3  -3  16  513.88   15.09
   3   3 -16  512.88   14.93
  -3  -3  15  127.79    6.27
   3   3 -15  149.87    6.60
  -3  -3  14  530.86   15.48
   3   3 -14  509.55   14.93
  -3  -3  13  799.03   21.97
   3   3 -13  840.09   22.92
  -3  -3  12 1549.23   40.45
   3   3 -12 1685.74   43.78
  -3  -3  11  654.76   18.53
   3   3 -11  637.01   18.03
  -3  -3  10 1861.63   48.16
   3   3 -10 1885.49   48.83
  -3  -3   9   63.81    4.61
   3   3  -9   71.19    4.61
  -3  -3   8  708.59   19.64
   3   3  -8  688.06   19.09
  -3  -3   7  133.12    5.77
   3   3  -7  145.77    5.94
  -3  -3   6  394.69   11.65
   3   3  -6  405.45   12.10
  -3  -3   5    9.65    2.89
   3   3  -5   14.09    3.16
  -3  -3   4   13.48    2.83
   3   3  -4   19.25    3.05
  -3  -3   3   69.75    3.83
   3   3  -3   71.25    3.94
  -3  -3   2 2767.76   69.75
   3   3  -2 2742.79   69.14
  -3  -3   1  294.92    8.71
   3   3  -1  284.71    8.43
  -3  -3   0 2847.11   71.64
   3   3   0 2758.88   69.42
  -3  -3  -1 3132.87   78.68
   3   3   1 3076.83   77.24
  -3  -3  -2 5456.17  136.22
  -3  -3  -3  832.88   21.86
   3   3   3  840.09   22.14
  -3  -3  -4 3338.18   83.95
   3   3   4 3313.76   83.34
  -3  -3  -5 5615.42  140.44
   3   3   5 5848.47  146.21
   3   3   6 2097.46   53.49
   3   3   6 2079.15   52.99
   3   3   7  721.90   19.81
   3   3   7  760.19   20.64
   3   3   8   86.84    4.49
   3   3   8   97.77    4.77
   3   3   9  555.99   15.98
   3   3   9  565.43   16.09
   3   3  10  200.98    7.32
   3   3  10  228.33    8.10
   3   3  11  160.14    6.66
   3   3  11  163.91    6.88
   3   3  12  114.25    5.83
   3   3  12  115.53    5.66
   3   3  13  404.62   12.48
   3   3  13  404.34   12.54
   3   3  14  301.58    9.93
   3   3  14  319.72   10.60
   3   3  15  336.31   10.76
   3   3  15  318.56   10.04
   3   3  16 1321.73   34.51
   3   3  16 1334.49   35.18
   3   3  17   24.69    4.61
   3   3  17   19.48    4.16
   3   3  18  708.59   19.64
   3   3  18  698.04   19.25
  -3  -4  16  445.02   13.43
   3   4 -16  432.25   12.87
  -3  -4  15  367.11   11.93
   3   4 -15  373.38   11.82
  -3  -4  14  108.04    6.21
   3   4 -14  102.93    5.72
  -3  -4  13  861.18   23.47
   3   4 -13  823.45   22.42
  -3  -4  12 1102.00   29.41
   3   4 -12 1153.60   30.69
  -3  -4  11 1090.35   29.13
   3   4 -11 1146.94   30.46
  -3  -4  10  685.28   19.20
   3   4 -10  747.98   20.81
  -3  -4   9    7.49    3.50
   3   4  -9    4.27    3.33
  -3  -4   8  300.91    9.88
   3   4  -8  297.81    9.77
  -3  -4   7 1327.28   34.68
   3   4  -7 1321.73   34.46
  -3  -4   6  112.25    5.16
   3   4  -6  123.02    5.72
  -3  -4   5  675.85   18.42
   3   4  -5  681.95   18.64
  -3  -4   4  388.97   11.38
   3   4  -4  388.14   11.32
  -3  -4   3  162.58    5.88
   3   4  -3  163.80    5.77
  -3  -4   2 2255.60   57.04
   3   4  -2 2251.16   57.04
  -3  -4   1  673.63   17.81
   3   4  -1  683.06   18.09
  -3  -4   0 3210.56   80.51
   3   4   0 3160.06   79.29
  -3  -4  -1  655.32   17.26
   3   4   1  673.07   17.76
  -3  -4  -2 2609.62   65.64
   3   4   2 2500.30   62.92
  -3  -4  -5 1577.53   40.45
   3   4   5 1555.89   39.84
   3   4   6 1661.32   42.73
   3   4   6 1641.35   42.06
   3   4   7  195.98    6.99
   3   4   7  188.99    6.71
   3   4   8  263.40    8.71
   3   4   8  256.13    8.60
   3   4   9  352.85   10.88
   3   4   9  350.63   11.10
   3   4  10  315.62   10.04
   3   4  10  313.56   10.04
   3   4  11   74.19    4.77
   3   4  11   74.96    4.88
   3   4  12  249.09    8.77
   3   4  12  254.75    8.99
   3   4  13 1136.96   30.35
   3   4  13 1156.38   30.74
   3   4  14  557.10   16.15
   3   4  14  526.25   15.04
   3   4  15  280.05    9.43
   3   4  15  300.47    9.82
   3   4  16 1519.27   39.56
   3   4  16 1585.86   41.17
   3   4  17   54.38    4.99
   3   4  17   47.83    4.49
   3   4  18 1109.77   29.41
   3   4  18 1153.60   30.13
   3   4  19    2.11    4.77
   3   4  19    1.94    4.33
  -3  -5  16  428.04   13.76
   3   5 -16  435.86   13.65
  -3  -5  15  153.26    6.99
   3   5 -15  157.86    6.88
  -3  -5  14  497.40   14.70
   3   5 -14  504.28   14.76
  -3  -5  13  653.10   18.31
   3   5 -13  605.38   17.03
  -3  -5  12  135.67    6.49
   3   5 -12  135.45    6.21
  -3  -5  11  969.38   26.08
   3   5 -11 1015.99   27.24
  -3  -5  10  399.74   12.32
   3   5 -10  418.05   12.65
  -3  -5   9  320.61   10.38
   3   5  -9  309.51    9.93
  -3  -5   8 1013.22   27.19
   3   5  -8  994.91   26.69
  -3  -5   7   80.96    4.72
   3   5  -7   76.63    4.83
  -3  -5   6   53.10    4.05
   3   5  -6   61.76    3.88
  -3  -5   5  371.00   11.10
   3   5  -5  364.28   10.93
  -3  -5   4   55.43    3.66
   3   5  -4   59.48    4.16
  -3  -5   3 1221.30   31.63
   3   5  -3 1203.54   31.24
  -3  -5   2  785.16   20.75
   3   5  -2  788.49   20.81
  -3  -5   0  624.80   16.48
   3   5   0  628.13   16.48
  -3  -5  -1  822.34   21.25
   3   5   1  820.12   21.20
   3   5   2 5609.87  139.94
  -3  -5  -3 6908.30  172.18
  -3  -5  -4 4068.41  101.88
   3   5   4 4156.08  104.04
  -3  -5  -5 3171.71   79.79
   3   5   5 3166.72   79.79
   3   5   6 1020.99   26.75
   3   5   6 1044.29   27.41
   3   5   7  933.87   24.75
   3   5   7  917.78   24.25
   3   5   8  132.89    5.55
   3   5   8  135.45    5.77
   3   5   9   23.36    3.44
   3   5   9   25.25    3.44
   3   5  10   92.00    4.77
   3   5  10   99.38    5.22
   3   5  11  482.36   14.26
   3   5  11  480.70   14.21
   3   5  12  226.67    8.27
   3   5  12  235.49    8.49
   3   5  13 3890.84   98.44
   3   5  13 4004.59  100.99
   3   5  14  651.99   18.37
   3   5  14  655.87   18.53
   3   5  15  761.30   21.09
   3   5  15  780.72   21.42
   3   5  16  600.38   17.15
   3   5  16  596.50   16.81
   3   5  17  122.46    6.05
   3   5  17  119.58    5.83
   3   5  18  689.72   19.48
   3   5  18  676.96   18.64
   3   5  19    7.44    4.77
   3   5  19   16.81    4.16
  -3  -6  15   56.76    5.38
   3   6 -15   66.97    5.16
  -3  -6  14  525.47   15.43
   3   6 -14  584.29   16.76
  -3  -6  13  398.13   12.32
   3   6 -13  415.39   12.43
  -3  -6  12  139.05    6.77
   3   6 -12  131.78    6.05
  -3  -6  11  422.49   12.93
   3   6 -11  422.43   12.76
  -3  -6  10    2.72    3.77
   3   6 -10    1.50    3.22
  -3  -6   9   51.83    4.55
   3   6  -9   59.37    4.49
  -3  -6   8  169.52    6.94
   3   6  -8  174.68    6.88
  -3  -6   7  107.54    5.33
   3   6  -7  107.31    5.05
  -3  -6   6  516.82   14.76
   3   6  -6  509.77   14.48
  -3  -6   5  375.49   11.15
   3   6  -5  375.49   11.32
  -3  -6   4 3153.96   79.63
   3   6  -4 3231.64   81.46
  -3  -6   3 2966.96   74.80
   3   6  -3 2973.07   74.96
  -3  -6   2 2541.92   64.20
   3   6  -2 2501.41   63.20
  -3  -6   1  220.95    6.66
   3   6  -1  233.83    7.05
  -3  -6  -1    8.99    1.66
   3   6   1   11.82    1.83
  -3  -6  -3  530.30   14.09
   3   6   3  510.60   13.59
  -3  -6  -4 3656.68   91.61
   3   6   4 3665.56   91.89
   3   6   5 3488.00   87.51
   3   6   5 3736.59   93.72
   3   6   6  201.64    6.55
   3   6   6  208.47    6.66
   3   6   7  530.80   14.76
   3   6   7  528.42   14.43
   3   6   8  569.87   15.93
   3   6   8  580.96   15.98
   3   6   9  191.38    6.88
   3   6   9  181.78    6.38
   3   6  10 1925.45   49.55
   3   6  10 1975.94   50.55
   3   6  11 1055.39   28.19
   3   6  11 1100.89   29.02
   3   6  12  182.33    7.32
   3   6  12  170.96    6.44
   3   6  13  938.86   25.36
   3   6  13  914.45   24.47
   3   6  14  226.50    8.32
   3   6  14  219.62    7.82
   3   6  15 1124.19   29.91
   3   6  15 1159.15   30.46
   3   6  16  500.50   14.87
   3   6  16  487.85   14.15
   3   6  17  472.15   13.93
   3   6  17  517.10   15.09
   3   6  18  511.33   14.98
   3   6  18  485.58   14.04
   3   6  19  140.11    6.94
   3   6  19  151.21    6.94
  -3  -7  14  381.76   12.10
   3   7 -14  356.96   11.49
  -3  -7  13  270.67    9.54
   3   7 -13  269.56    9.38
  -3  -7  12  381.09   12.15
   3   7 -12  345.14   11.10
  -3  -7  11   61.87    4.99
   3   7 -11   68.81    4.94
  -3  -7  10   25.41    4.38
   3   7 -10   35.12    3.88
  -3  -7   9   27.08    4.16
   3   7  -9   32.07    3.88
  -3  -7   8  123.13    5.88
   3   7  -8  120.13    5.49
  -3  -7   7  766.29   21.09
   3   7  -7  769.07   21.03
  -3  -7   6  130.29    5.77
   3   7  -6  125.40    5.38
  -3  -7   5  824.56   22.08
   3   7  -5  769.07   20.70
  -3  -7   4  599.83   16.48
   3   7  -4  615.37   16.81
  -3  -7   3 1509.84   38.73
   3   7  -3 1504.29   38.73
  -3  -7   2 1874.95   47.66
   3   7  -2 1727.91   43.84
  -3  -7   1  110.14    4.00
   3   7  -1  121.80    4.33
  -3  -7   0 4834.15  120.96
   3   7   0 4816.39  120.47
  -3  -7  -1  328.16    8.93
   3   7   1  335.54    9.04
  -3  -7  -3   77.35    2.94
   3   7   3   82.57    3.00
  -3  -7  -4  164.36    5.10
   3   7   4  153.87    4.77
   3   7   5  106.48    3.88
   3   7   5  101.88    3.72
   3   7   6  634.23   16.92
   3   7   6  620.91   16.65
   3   7   7  340.20    9.93
   3   7   7  336.93    9.99
   3   7   8  108.20    4.61
   3   7   8  109.42    4.88
   3   7   9   76.68    4.44
   3   7   9   82.68    4.66
   3   7  10 1009.33   26.75
   3   7  10  979.37   26.25
   3   7  11 1206.32   31.68
   3   7  11 1287.88   33.90
   3   7  12  881.71   24.14
   3   7  12  897.25   24.58
   3   7  13  762.41   20.97
   3   7  13  730.23   20.36
   3   7  14  194.43    7.38
   3   7  14  211.69    8.05
   3   7  15  350.63   11.10
   3   7  15  316.01   10.38
   3   7  16  663.64   18.59
   3   7  16  661.98   18.64
   3   7  17  361.45   11.32
   3   7  17  401.79   12.32
   3   7  18  624.80   17.81
   3   7  18  609.82   17.20
   3   7  19  226.73    8.60
   3   7  19  224.06    7.99
  -3  -8  13  378.76   12.54
  -3  -8  13  376.82   12.04
  -3  -8  12   74.02    5.66
   3   8 -12   84.56    5.49
  -3  -8  11  105.76    5.72
   3   8 -11  104.98    5.99
  -3  -8  10    1.61    4.05
   3   8 -10   -2.11    3.61
  -3  -8   9  116.80    6.10
   3   8  -9  111.86    5.27
  -3  -8   8   20.09    4.05
   3   8  -8   22.25    3.50
  -3  -8   7   62.09    4.38
   3   8  -7   59.15    4.11
  -3  -8   6  490.74   14.15
   3   8  -6  497.95   14.09
  -3  -8   5 1141.40   30.02
   3   8  -5 1176.91   30.91
  -3  -8   4 1212.42   31.57
   3   8  -4 1149.16   29.96
  -3  -8   3 1882.16   48.00
   3   8  -3 1778.96   45.28
  -3  -8   2  663.64   17.70
   3   8  -2  632.01   16.87
  -3  -8   1 2297.77   58.04
   3   8  -1 2238.95   56.60
  -3  -8   0 1042.07   26.69
   3   8   0 1009.33   25.86
  -3  -8  -1 1947.64   49.33
   3   8   1 1977.05   50.05
  -3  -8  -2  741.32   19.09
   3   8   2  730.23   18.81
  -3  -8  -3  106.04    3.33
   3   8   3  121.63    3.77
   3   8   4  516.98   13.54
   3   8   4  498.95   13.15
   3   8   5  122.02    4.00
   3   8   5  126.85    4.33
   3   8   6  272.28    7.77
   3   8   6  250.47    7.49
   3   8   7    7.71    2.11
   3   8   7    9.77    2.61
   3   8   8  862.84   22.97
   3   8   8  828.44   21.86
   3   8   9  712.47   19.25
   3   8   9  667.52   18.14
   3   8  10   21.14    3.22
   3   8  10   24.58    3.11
   3   8  11 2569.67   65.59
   3   8  11 2477.55   62.81
   3   8  12  489.91   13.98
   3   8  12  526.14   14.98
   3   8  13  833.43   22.69
   3   8  13  840.65   22.64
   3   8  14  120.02    5.83
   3   8  14  128.46    5.77
   3   8  15  302.25    9.99
   3   8  15  290.26    9.49
   3   8  16  674.18   18.92
   3   8  16  694.16   19.25
   3   8  17  182.11    7.32
   3   8  17  192.21    7.49
   3   8  18 1115.87   29.46
   3   8  18 1115.32   29.69
   3   8  19   79.24    5.88
   3   8  19   84.29    5.38
  -3  -9  12   28.41    5.55
  -3  -9  12   30.13    5.27
  -3  -9  11  261.07    9.54
  -3  -9  11  247.48    8.99
  -3  -9  10  297.31   10.10
   3   9 -10  257.63    9.38
  -3  -9   9   80.13    5.22
   3   9  -9   83.95    5.16
  -3  -9   8   84.23    5.10
   3   9  -8   89.23    4.88
  -3  -9   7  156.20    6.55
   3   9  -7  163.97    6.38
  -3  -9   6  552.83   15.65
   3   9  -6  514.04   14.48
  -3  -9   5 1545.91   39.90
   3   9  -5 1500.40   38.68
  -3  -9   4   21.92    3.05
   3   9  -4   26.69    3.11
  -3  -9   3 1568.66   40.12
   3   9  -3 1554.23   39.90
  -3  -9   2 1125.86   29.08
   3   9  -2 1088.13   28.19
  -3  -9   1  629.79   16.59
   3   9  -1  624.24   16.37
  -3  -9   0   92.55    3.22
   3   9   0   99.10    3.38
  -3  -9  -1 2211.21   56.76
   3   9   1 1984.26   50.99
   3   9   5  122.19    3.72
   3   9   5  120.19    3.88
   3   9   6  299.30    8.27
   3   9   6  282.88    7.88
   3   9   7    7.05    2.16
   3   9   7    8.27    2.11
   3   9   8   94.72    4.11
   3   9   8   85.73    3.61
   3   9   9  252.36    7.88
   3   9   9  256.41    7.99
   3   9  10  922.77   24.58
   3   9  10  947.19   24.97
   3   9  11 3175.04   80.35
   3   9  11 3030.77   76.80
   3   9  12  604.82   16.87
   3   9  12  593.17   16.81
   3   9  13  790.15   21.81
   3   9  13  762.41   20.92
   3   9  14  145.10    6.27
   3   9  14  146.27    6.44
   3   9  15  543.84   15.48
   3   9  15  581.52   16.26
   3   9  16   21.25    4.05
   3   9  16   20.53    4.22
   3   9  17  440.36   13.48
   3   9  17  424.04   12.82
   3   9  18  466.32   13.76
   3   9  18  492.07   14.59
   3   9  19  371.61   11.65
   3   9  19  357.34   11.65
  -3 -10  11    7.10    4.83
  -3 -10  11    9.27    6.38
  -3 -10  10    9.21    4.88
  -3 -10  10    7.55    4.88
  -3 -10   9   34.96    4.88
  -3 -10   9   46.89    4.88
  -3 -10   8  221.79    8.10
  -3 -10   8  216.79    8.10
  -3 -10   7   27.86    4.33
  -3 -10   6   45.44    4.16
   3  10  -6   56.32    4.16
  -3 -10   5  532.19   14.93
   3  10  -5  537.96   14.98
  -3 -10   4 1554.78   40.01
   3  10  -4 1507.06   38.79
  -3 -10   3 2343.27   59.43
   3  10  -3 2231.74   56.71
  -3 -10   2  171.68    5.66
   3  10  -2  171.96    5.60
  -3 -10   1  366.06   10.04
   3  10   7   55.49    2.61
   3  10   7   53.49    2.77
   3  10   8  807.36   21.09
   3  10   8  784.05   20.59
   3  10  10  865.62   23.14
   3  10  10  836.76   22.20
   3  10  11  239.43    7.93
   3  10  11  222.67    7.49
   3  10  12 1819.46   46.72
   3  10  12 1787.28   45.78
   3  10  13  807.36   22.03
   3  10  13  826.22   22.08
   3  10  14  241.10    8.27
   3  10  14  259.74    8.60
   3  10  15  294.14    9.88
   3  10  15  285.49    9.60
   3  10  16   91.44    5.60
   3  10  16   83.18    5.05
   3  10  17  309.79   10.38
   3  10  17  329.49   10.65
   3  10  18  261.63    9.43
   3  10  18  262.29    9.27
   3  10  19   21.64    5.66
   3  10  19   20.81    4.88
  -3 -11  10  -11.10    6.60
  -3 -11  10    2.00    4.83
  -3 -11   9   41.95    4.99
  -3 -11   9   35.57    5.77
  -3 -11   8   33.24    4.94
  -3 -11   8   32.96    4.66
  -3 -11   7  261.07    8.88
  -3 -11   7  270.73    9.21
  -3 -11   6  127.96    5.72
  -3 -11   6  138.22    5.99
  -3 -11   5 1003.23   26.47
  -3 -11   5  988.80   26.14
  -3 -11   4    3.77    2.94
  -3 -11   4    5.55    3.11
  -3 -11   3 2955.31   74.58
  -3 -11   3 3151.74   79.51
  -3 -11   2   10.76    2.22
  -3 -11   2   10.49    2.39
  -3 -11   1 1141.95   29.35
  -3 -11   1 1111.99   28.63
   3  11   8  195.82    5.88
   3  11   8  201.09    6.05
   3  11   9  267.84    7.99
   3  11   9  262.79    7.71
   3  11  10 1422.72   36.79
   3  11  10 1313.41   33.63
   3  11  11  452.01   12.87
   3  11  11  420.82   12.15
   3  11  12   75.19    4.61
   3  11  12   61.15    4.33
   3  11  13 1456.57   37.84
   3  11  13 1377.22   35.85
   3  11  14  236.16    8.21
   3  11  14  234.05    7.99
   3  11  15  559.88   15.98
   3  11  15  580.41   16.54
   3  11  16  217.18    7.99
   3  11  16  216.74    8.27
   3  11  17    3.88    4.44
   3  11  17   -1.55    4.27
   3  11  18  173.18    7.38
   3  11  18  182.17    8.16
   3  11  19    8.21    4.88
   3  11  19   13.76    5.77
  -3 -12   9    2.50    9.77
  -3 -12   9   11.65    5.22
  -3 -12   8  318.34   10.71
  -3 -12   8  323.22   11.38
  -3 -12   7   81.01    5.94
  -3 -12   7   82.79    5.72
  -3 -12   6  177.90    7.10
  -3 -12   6  183.89    7.16
  -3 -12   5 1235.17   32.35
  -3 -12   5 1185.23   30.91
  -3 -12   4  158.86    5.88
  -3 -12   4  156.20    6.27
  -3 -12   3 1134.74   29.35
  -3 -12   3 1073.14   27.86
  -3 -12   2   63.03    3.16
  -3 -12   2   60.54    3.16
   3  12   9 1113.65   28.63
   3  12   9 1124.19   28.96
   3  12  10  245.48    7.49
   3  12  10  240.65    7.38
   3  12  11  463.94   12.93
   3  12  11  449.29   12.48
   3  12  12    0.17    3.05
   3  12  12    0.61    3.22
   3  12  13 1562.55   40.40
   3  12  13 1522.05   39.45
   3  12  14   41.28    4.49
   3  12  14   33.51    4.22
   3  12  15  767.96   21.14
   3  12  15  791.26   21.47
   3  12  16   56.27    5.60
   3  12  16   60.76    4.94
   3  12  17  108.87    6.55
   3  12  17  117.41    6.38
   3  12  18  117.08    6.83
   3  12  18  120.24    6.49
  -3 -13   7   30.24    6.49
  -3 -13   7   33.24    5.88
  -3 -13   6  213.69    8.71
  -3 -13   6  243.15    8.93
  -3 -13   5  581.52   16.65
  -3 -13   5  582.07   16.15
  -3 -13   4  403.07   11.54
  -3 -13   4  406.01   11.93
  -3 -13   3  388.97   10.99
  -3 -13   3  402.01   11.21
   3  13  10   44.78    2.61
   3  13  10   46.22    2.50
   3  13  11  545.01   14.76
   3  13  11  552.44   14.87
   3  13  12  363.06   10.60
   3  13  12  363.67   10.60
   3  13  13  528.64   14.93
   3  13  13  509.55   14.26
   3  13  14  189.94    7.38
   3  13  14  205.08    7.38
   3  13  15  226.67    8.27
   3  13  15  222.34    8.10
   3  13  16  110.14    6.60
   3  13  16  103.76    5.55
   3  13  17  223.23    9.16
   3  13  17  217.40    8.32
   3  13  18   -3.83    4.72
   3  13  18    3.66    5.94
  -3 -14   6  183.44    8.93
  -3 -14   6  210.97    8.49
  -3 -14   4  262.46    8.21
  -3 -14   4  237.21    8.27
   3  14  12  651.43   17.09
   3  14  12  694.16   18.42
   3  14  13  203.03    6.77
   3  14  13  192.99    6.88
   3  14  14   37.45    4.44
   3  14  14   51.77    4.27
   3  14  15  180.28    7.88
   3  14  15  184.28    7.27
   3  14  16   33.29    4.77
   3  14  16   37.07    5.55
   3  14  17  161.47    7.44
   3  14  17  150.21    7.66
   3  15  14   11.15    4.38
   3  15  14   21.92    3.44
   3  15  16   73.08    6.21
   3  15  16   88.06    6.16
   3  15  17   20.81    6.44
   3  15  17    8.66    6.49
   3  16  16    9.88    6.55
   3  16  16   12.87    6.27
  -4  15   8   10.15    6.21
  -4  14  12  294.09   10.32
   4 -14 -12  297.42   10.82
  -4  14  11  121.85    6.55
   4 -14 -11  138.28    7.27
  -4  14  10  109.48    6.10
   4 -14 -10  104.43    6.60
  -4  14   9  194.32    7.60
   4 -14  -9  202.64    8.38
  -4  14   8   49.61    5.10
   4 -14  -8   46.72    5.38
  -4  14   7   27.86    4.33
   4 -14  -7   22.81    4.83
  -4  14   6    1.50    4.16
   4 -14  -6   -4.00    4.27
   4 -14  -5    3.22    4.72
   4 -14  -4   35.85    6.44
   4 -14  -4   32.02    5.33
   4 -14  -3   28.08    5.49
   4 -14  -3   17.20    6.60
   4 -14  -2   29.91    7.44
   4 -14  -2   20.53    5.66
   4 -14  -1    1.72    7.60
   4 -14  -1    7.38    5.94
  -4  13  14  255.36    9.10
   4 -13 -14  274.00    9.99
  -4  13  13  189.49    7.55
   4 -13 -13  205.81    8.49
  -4  13  12   63.98    5.10
   4 -13 -12   68.03    5.49
  -4  13  11  140.33    6.16
   4 -13 -11  140.44    6.88
  -4  13  10  176.18    6.83
   4 -13 -10  179.39    7.32
  -4  13   9    4.00    3.72
   4 -13  -9    0.67    3.94
  -4  13   8  141.99    5.88
   4 -13  -8  149.04    6.27
  -4  13   7   27.58    3.88
   4 -13  -7   24.75    3.88
  -4  13   6   -1.78    3.77
   4 -13  -6    1.94    3.72
  -4  13   5   41.62    4.05
   4 -13  -5   60.98    4.66
  -4  13   4   23.80    4.38
   4 -13  -4   29.96    4.22
   4 -13  -3    3.77    4.11
   4 -13  -3   -1.39    4.88
   4 -13  -2  111.92    6.05
   4 -13  -2  104.71    6.71
   4 -13  -1   37.23    5.10
   4 -13  -1   30.07    5.88
   4 -13   0  140.22    7.10
   4 -13   0  139.94    8.10
   4 -13   1   46.89    6.10
   4 -13   1   46.17    6.99
  -4  12  16   25.64    5.05
  -4  12  15  127.23    6.44
   4 -12 -15  137.83    6.94
  -4  12  14   72.08    5.33
   4 -12 -14   83.62    5.88
  -4  12  13  626.46   17.48
   4 -12 -13  628.13   17.81
  -4  12  12  118.41    5.83
   4 -12 -12  140.83    6.60
  -4  12  11  117.58    5.66
   4 -12 -11   97.66    5.77
  -4  12  10  137.00    5.94
   4 -12 -10  148.21    6.55
  -4  12   9   34.18    3.72
   4 -12  -9   32.13    3.88
  -4  12   8  167.96    6.38
   4 -12  -8  153.09    6.16
  -4  12   7   44.61    3.72
   4 -12  -7   47.00    4.22
  -4  12   6   25.52    3.55
   4 -12  -6   26.75    3.66
  -4  12   5   98.99    4.99
   4 -12  -5  105.26    5.27
  -4  12   4   11.60    3.44
   4 -12  -4   14.65    3.77
  -4  12   3   91.39    5.05
   4 -12  -3  107.65    5.44
   4 -12  -2   54.77    4.44
   4 -12  -1   98.10    5.33
   4 -12  -1  113.64    6.33
   4 -12   0  486.08   14.26
   4 -12   0  518.04   15.31
   4 -12   1   32.46    5.27
   4 -12   1   19.03    5.49
   4 -12   2  308.07   10.82
   4 -12   2  313.01   11.10
  -4  11  16  179.06    7.55
   4 -11 -16  160.53    7.38
  -4  11  15  493.40   14.37
   4 -11 -15  450.29   13.82
  -4  11  14  120.41    5.99
   4 -11 -14  124.96    6.44
  -4  11  13  232.11    8.10
   4 -11 -13  258.24    9.38
  -4  11  12    2.77    3.83
   4 -11 -12    1.94    3.94
  -4  11  11  741.88   20.20
   4 -11 -11  725.23   20.03
  -4  11  10   53.49    4.16
   4 -11 -10   55.60    4.55
  -4  11   9  100.60    4.83
   4 -11  -9  108.65    5.44
  -4  11   8    5.33    3.11
   4 -11  -8   13.26    3.44
  -4  11   7   18.20    3.22
   4 -11  -7   24.75    3.72
  -4  11   6    5.99    3.00
   4 -11  -6   10.71    3.27
  -4  11   5    8.71    3.22
   4 -11  -5   10.93    3.38
  -4  11   4   52.60    4.11
   4 -11  -4   63.20    4.22
  -4  11   3  170.02    6.27
   4 -11  -3  172.74    6.60
  -4  11   2  276.66    8.82
   4 -11  -2  289.04    9.27
  -4  11   1  154.20    6.21
   4 -11  -1  155.53    6.38
   4 -11   0  631.46   17.59
   4 -11   0  627.57   17.70
   4 -11   1  290.76    9.88
   4 -11   1  295.86    9.88
   4 -11   2   96.99    5.77
   4 -11   2  106.54    5.99
   4 -11   3  623.69   17.87
   4 -11   3  622.02   18.03
   4 -11   4  156.92    7.49
   4 -11   4  174.51    8.16
  -4  10  17  251.58    9.04
   4 -10 -17  255.14    9.49
  -4  10  16   54.93    4.88
   4 -10 -16   44.83    5.38
  -4  10  15  313.18   10.27
   4 -10 -15  317.45   10.71
  -4  10  14  272.95    9.21
   4 -10 -14  262.18    9.21
  -4  10  13  157.31    6.77
   4 -10 -13  142.94    6.33
  -4  10  12  150.15    6.27
   4 -10 -12  161.80    6.83
  -4  10  11  323.33   10.10
   4 -10 -11  341.53   10.76
  -4  10  10   83.90    4.38
   4 -10 -10   91.17    4.99
  -4  10   9   17.76    3.38
   4 -10  -9   13.71    3.50
  -4  10   8   -0.22    3.00
   4 -10  -8    2.16    3.33
  -4  10   7   10.99    3.05
   4 -10  -7   16.54    3.50
  -4  10   6    7.49    3.00
   4 -10  -6    2.61    3.11
  -4  10   5   58.76    4.00
   4 -10  -5   67.58    4.16
  -4  10   4  491.96   14.04
   4 -10  -4  496.57   14.15
  -4  10   3  113.70    5.10
   4 -10  -3  113.70    5.10
  -4  10   2  571.53   15.70
   4 -10  -2  609.26   16.87
  -4  10   1  374.60   11.04
   4 -10  -1  373.88   11.21
  -4  10   0 1027.09   27.13
   4 -10   0 1071.48   28.35
   4 -10   1  149.99    6.38
   4 -10   1  155.59    6.77
   4 -10   2  242.10    8.55
   4 -10   2  250.42    8.71
   4 -10   3  346.03   11.10
   4 -10   3  357.23   11.49
   4 -10   4  133.78    6.49
   4 -10   4  147.93    7.27
   4 -10   5  366.94   11.87
   4 -10   5  374.16   12.26
   4 -10   6   -1.50    5.33
   4 -10   6   -0.83    5.49
  -4   9  18   61.70    5.44
   4  -9 -18   48.66    5.99
  -4   9  17  348.86   10.99
   4  -9 -17  369.44   11.87
  -4   9  16   27.86    4.38
   4  -9 -16   33.40    4.83
  -4   9  15  251.70    8.66
   4  -9 -15  250.31    8.99
  -4   9  14  103.82    5.44
   4  -9 -14  111.25    5.94
  -4   9  13  268.95    9.10
   4  -9 -13  269.01    9.04
  -4   9  12  397.96   12.15
   4  -9 -12  408.62   12.54
  -4   9  11  365.39   10.93
   4  -9 -11  387.59   11.76
  -4   9  10  116.53    5.10
   4  -9 -10  127.29    5.77
  -4   9   9   24.08    3.11
   4  -9  -9   15.65    3.50
  -4   9   8   31.63    3.27
   4  -9  -8   36.01    3.77
  -4   9   7  345.25   10.27
   4  -9  -7  359.23   10.93
  -4   9   6    6.94    2.66
   4  -9  -6    8.21    2.94
  -4   9   5  492.07   13.65
   4  -9  -5  495.29   14.04
  -4   9   4   30.74    3.05
   4  -9  -4   37.79    3.61
  -4   9   3 1057.05   27.52
   4  -9  -3 1077.58   28.30
  -4   9   2 1227.96   31.85
   4  -9  -2 1201.88   31.41
  -4   9   1  480.75   13.65
   4  -9  -1  497.45   14.37
  -4   9   0  306.02    9.54
   4  -9   0  306.96    9.82
  -4   9  -1  730.23   20.09
   4  -9   1  742.99   20.31
   4  -9   2  568.20   16.04
   4  -9   2  573.19   16.48
   4  -9   3   17.20    4.05
   4  -9   3   13.15    4.00
   4  -9   4  239.60    8.43
   4  -9   4  241.54    8.66
   4  -9   5  417.83   12.93
   4  -9   5  435.58   13.26
   4  -9   6   -0.33    4.61
   4  -9   6    0.55    4.61
   4  -9   7   63.37    5.66
   4  -9   7   72.02    5.83
   4  -9   8   13.48    5.10
   4  -9   8   20.36    5.83
  -4   8  18   11.87    4.44
   4  -8 -18   18.37    4.77
  -4   8  17  172.51    7.16
   4  -8 -17  176.51    7.60
  -4   8  16  631.46   17.92
   4  -8 -16  578.19   16.65
  -4   8  15  129.07    5.88
   4  -8 -15  139.05    6.60
  -4   8  14   10.27    3.55
   4  -8 -14   16.20    3.94
  -4   8  13  862.84   23.19
   4  -8 -13  874.50   23.69
  -4   8  12   64.20    4.55
   4  -8 -12   78.13    5.05
  -4   8  11  512.93   14.87
   4  -8 -11  482.14   14.04
  -4   8  10   37.07    4.00
   4  -8 -10   32.63    4.00
  -4   8   9   15.04    3.44
   4  -8  -9   14.04    3.38
  -4   8   8    9.16    3.16
   4  -8  -8    2.55    3.11
  -4   8   7 1265.69   32.96
   4  -8  -7 1387.76   36.12
  -4   8   6  133.06    5.49
   4  -8  -6  136.56    5.55
  -4   8   5 4159.41  104.76
   4  -8  -5 4148.86  104.32
  -4   8   4  723.01   19.81
   4  -8  -4  743.54   20.14
  -4   8   3 1563.66   40.56
   4  -8  -3 1583.08   40.84
  -4   8   2  605.38   17.03
   4  -8  -2  575.97   16.04
  -4   8   1 1135.85   29.96
   4  -8  -1 1161.37   30.52
  -4   8   0 1283.45   33.63
   4  -8   0 1286.22   33.51
  -4   8  -1   89.84    4.88
   4  -8   1   87.17    4.88
  -4   8  -2  462.66   13.26
   4  -8   2  435.69   12.93
   4  -8   3   62.87    4.83
   4  -8   3   61.92    4.94
   4  -8   4  107.04    5.44
   4  -8   4  111.53    5.77
   4  -8   5  247.64    8.88
   4  -8   5  229.72    8.55
   4  -8   6  211.52    8.16
   4  -8   6  200.20    7.93
   4  -8   7   39.95    4.88
   4  -8   7   38.68    5.33
   4  -8   8   57.76    5.66
   4  -8   8   56.71    5.44
   4  -8   9   77.18    6.16
   4  -8   9   81.07    5.83
   4  -8  10    9.04    5.94
   4  -8  10    9.93    5.49
  -4   7  18  497.40   14.43
   4  -7 -18  493.90   14.59
  -4   7  17    1.05    3.88
   4  -7 -17   -2.55    4.38
  -4   7  16  838.98   22.75
   4  -7 -16  822.34   22.58
  -4   7  15   54.32    4.49
   4  -7 -15   52.77    4.72
  -4   7  14  253.86    8.49
   4  -7 -14  261.46    8.93
  -4   7  13  249.75    8.32
   4  -7 -13  241.49    8.49
  -4   7  12   42.06    3.88
   4  -7 -12   48.94    4.44
  -4   7  11  441.63   12.93
   4  -7 -11  430.20   12.82
  -4   7  10    0.72    3.05
   4  -7 -10    1.39    3.11
  -4   7   9    2.83    3.00
   4  -7  -9   -3.38    3.11
  -4   7   8  575.97   15.93
   4  -7  -8  575.97   16.37
  -4   7   7  136.61    5.49
   4  -7  -7  129.29    5.60
  -4   7   6 1126.97   29.46
   4  -7  -6 1133.63   29.80
  -4   7   5  431.53   12.43
   4  -7  -5  460.83   13.26
  -4   7   4    6.66    2.61
   4  -7  -4    4.88    2.77
  -4   7   3 1665.21   42.67
   4  -7  -3 1688.51   43.45
  -4   7   2 1638.02   41.95
   4  -7  -2 1610.83   41.51
  -4   7   1 1246.82   32.41
   4  -7  -1 1239.05   32.46
  -4   7   0  663.09   18.09
   4  -7   0  638.12   17.65
  -4   7  -1  259.13    8.16
   4  -7   1  256.25    8.71
  -4   7  -2   25.14    3.55
   4  -7   2   26.41    3.94
  -4   7  -3  193.71    7.32
   4  -7   3  181.50    7.16
   4  -7   4   29.85    4.22
   4  -7   4   32.29    4.16
   4  -7   5  421.88   12.87
   4  -7   5  438.58   13.26
   4  -7   6    0.67    3.83
   4  -7   6    0.50    3.72
   4  -7   7   87.89    5.55
   4  -7   7   94.00    5.77
   4  -7   8  364.78   11.76
   4  -7   8  378.04   11.71
   4  -7   9   53.88    5.38
   4  -7   9   54.43    5.16
   4  -7  10   39.01    5.66
   4  -7  10   34.74    5.22
   4  -7  11  483.03   14.87
   4  -7  11  482.30   14.59
  -4   6  18  396.46   12.21
   4  -6 -18  394.52   12.21
  -4   6  17  212.41    8.05
   4  -6 -17  205.42    8.05
  -4   6  16 1097.00   29.13
   4  -6 -16 1132.52   30.07
  -4   6  15   15.87    4.22
   4  -6 -15    5.44    3.94
  -4   6  14  153.76    6.77
   4  -6 -14  164.25    6.83
  -4   6  13   90.56    5.22
   4  -6 -13  102.21    5.55
  -4   6  12   47.72    4.22
   4  -6 -12   48.22    4.33
  -4   6  11  270.78    9.32
   4  -6 -11  262.79    8.82
  -4   6  10   -0.39    3.33
   4  -6 -10    3.00    3.38
  -4   6   9   12.93    3.61
   4  -6  -9   21.53    3.44
  -4   6   8  163.25    6.44
   4  -6  -8  179.39    6.71
  -4   6   7 1829.45   47.28
   4  -6  -7 1864.41   47.94
  -4   6   6  373.44   11.38
   4  -6  -6  380.76   11.43
  -4   6   5  700.26   19.31
   4  -6  -5  714.14   19.48
  -4   6   4  497.84   14.26
   4  -6  -4  489.02   13.87
  -4   6   3  901.13   24.03
   4  -6  -3  928.87   24.69
  -4   6   2 1450.47   37.68
   4  -6  -2 1406.63   36.46
  -4   6   1    5.88    2.72
   4  -6  -1    3.77    2.66
  -4   6   0  633.68   17.76
   4  -6   0  622.58   17.15
  -4   6  -1  150.32    6.21
   4  -6   1  151.15    6.27
  -4   6  -2  685.28   18.87
   4  -6   2  699.15   19.25
  -4   6  -3  167.02    6.66
   4  -6   3  160.42    6.66
   4  -6   4   81.07    4.88
   4  -6   4   69.92    5.22
   4  -6   5  182.33    7.10
   4  -6   5  198.87    7.49
   4  -6   6   52.33    4.72
   4  -6   6   54.38    4.55
   4  -6   7  102.27    5.66
   4  -6   7   98.16    5.60
   4  -6   8   12.04    3.94
   4  -6   8    5.88    4.38
   4  -6   9   24.97    4.55
   4  -6   9   29.69    4.99
   4  -6  10  209.30    8.21
   4  -6  10  207.69    7.99
   4  -6  11  383.54   12.43
   4  -6  11  394.97   12.48
   4  -6  12  240.60    9.21
   4  -6  12  227.28    8.71
  -4   5  19   85.23    6.05
  -4   5  18  179.23    7.60
   4  -5 -18  176.67    7.16
  -4   5  17  435.86   12.98
   4  -5 -17  411.50   12.65
  -4   5  16  169.57    6.99
   4  -5 -16  141.00    6.55
  -4   5  15  447.57   13.37
   4  -5 -15  431.09   12.98
  -4   5  14  137.83    6.10
   4  -5 -14  154.48    6.55
  -4   5  13   67.81    4.66
   4  -5 -13   62.54    4.66
  -4   5  12   19.25    3.33
   4  -5 -12   27.86    4.05
  -4   5  11   88.06    4.77
   4  -5 -11   90.67    5.27
  -4   5  10   92.67    4.61
   4  -5 -10   95.38    5.10
  -4   5   9   -0.89    2.94
   4  -5  -9    3.77    3.44
  -4   5   8   25.64    3.16
   4  -5  -8   24.58    3.50
  -4   5   7  909.45   24.19
   4  -5  -7  915.00   24.41
  -4   5   6    3.50    2.33
   4  -5  -6    1.17    2.94
  -4   5   5 4014.03  100.77
   4  -5  -5 4007.37  100.82
  -4   5   4 1307.86   33.85
   4  -5  -4 1271.24   33.07
  -4   5   3 1255.70   32.68
   4  -5  -3 1196.33   31.18
  -4   5   2  194.43    6.77
   4  -5  -2  194.10    6.66
  -4   5   1  241.10    7.82
   4  -5  -1  238.88    7.77
  -4   5   0  260.52    8.21
   4  -5   0  254.69    8.27
  -4   5  -1   38.23    3.44
   4  -5   1   41.28    3.50
  -4   5  -2 1240.72   32.57
   4  -5   2 1202.43   31.52
  -4   5  -3  144.49    6.05
   4  -5   3  152.09    6.21
  -4   5  -4  219.79    8.27
   4  -5   4  209.97    7.77
   4  -5   5    1.28    3.61
   4  -5   5    2.89    3.83
   4  -5   6    4.16    3.55
   4  -5   6    1.39    3.72
   4  -5   7   97.33    5.49
   4  -5   7  102.10    5.88
   4  -5   8  137.39    6.60
   4  -5   8  136.06    6.60
   4  -5   9 1290.10   34.01
   4  -5   9 1231.29   32.57
   4  -5  10  273.78    9.60
   4  -5  10  276.39    9.43
   4  -5  11  331.88   10.93
   4  -5  11  323.72   10.54
   4  -5  12  235.49    9.21
   4  -5  12  222.90    8.43
   4  -5  13  370.16   12.21
   4  -5  13  382.20   12.10
  -4   4  19  130.29    6.66
  -4   4  18  453.12   13.59
   4  -4 -18  438.41   13.32
  -4   4  17   45.39    4.66
   4  -4 -17   59.59    4.99
  -4   4  16   81.79    4.99
   4  -4 -16   73.41    5.05
  -4   4  15  141.72    6.38
   4  -4 -15  140.50    6.27
  -4   4  14  340.53   11.04
   4  -4 -14  339.14   10.82
  -4   4  13  302.63    9.93
   4  -4 -13  309.29   10.21
  -4   4  12  204.59    7.71
   4  -4 -12  198.43    7.55
  -4   4  11  100.60    5.66
   4  -4 -11  101.27    5.33
  -4   4  10    3.22    3.50
   4  -4 -10    5.16    3.16
  -4   4   9  109.76    5.77
   4  -4  -9  107.43    5.44
  -4   4   8  788.49   21.70
   4  -4  -8  806.80   21.86
  -4   4   7  182.33    6.99
   4  -4  -7  194.88    7.05
  -4   4   6  172.51    6.55
   4  -4  -6  179.89    6.71
  -4   4   5 3229.42   81.68
   4  -4  -5 3310.99   83.62
  -4   4   4 8206.73  204.92
   4  -4  -4 8495.27  212.13
  -4   4   3    8.71    2.94
   4  -4  -3    6.66    2.77
  -4   4   2  531.69   15.04
   4  -4  -2  523.42   14.70
  -4   4   1  269.56    8.71
   4  -4  -1  274.83    8.60
  -4   4   0  334.71   10.21
   4  -4   0  329.99    9.99
  -4   4  -1  595.39   16.59
   4  -4   1  588.73   16.42
  -4   4  -2  863.95   23.03
   4  -4   2  868.39   23.31
  -4   4  -3 1410.51   36.62
   4  -4   3 1431.04   37.23
  -4   4  -4  134.84    5.38
   4  -4   4  144.60    5.94
  -4   4  -5   34.01    3.77
   4  -4   5   33.46    4.22
   4  -4   6  282.16    9.71
   4  -4   6  280.11    9.43
   4  -4   7  156.20    6.77
   4  -4   7  148.43    6.49
   4  -4   8   36.51    4.44
   4  -4   8   50.33    4.55
   4  -4   9  295.64    9.93
   4  -4   9  324.38   10.71
   4  -4  10  481.97   14.21
   4  -4  10  498.23   14.76
   4  -4  11  758.53   20.92
   4  -4  11  800.14   22.14
   4  -4  12  142.99    6.49
   4  -4  12  150.21    7.05
   4  -4  13  508.72   14.98
   4  -4  13  487.96   14.37
   4  -4  14  176.67    7.77
   4  -4  14  191.77    7.49
  -4   3  18  358.62   11.32
   4  -3 -18  309.24   10.32
  -4   3  17   12.65    4.44
   4  -3 -17    4.83    4.11
  -4   3  16  399.74   11.99
   4  -3 -16  395.63   12.37
  -4   3  15   45.83    4.77
   4  -3 -15   50.61    4.61
  -4   3  14  507.33   14.70
   4  -3 -14  539.85   15.65
  -4   3  13  112.75    5.44
   4  -3 -13  110.59    5.60
  -4   3  12    7.93    3.72
   4  -3 -12   13.32    3.66
  -4   3  11   94.44    5.10
   4  -3 -11   94.11    5.16
  -4   3  10 2388.77   60.87
   4  -3 -10 2505.30   63.87
  -4   3   9  279.11    9.04
   4  -3  -9  283.60    9.38
  -4   3   8 1254.04   33.07
   4  -3  -8 1166.92   30.80
  -4   3   7   17.48    3.05
   4  -3  -7   15.81    3.27
  -4   3   6  675.29   18.53
   4  -3  -6  673.63   18.53
  -4   3   5  357.57   10.76
   4  -3  -5  356.51   10.76
  -4   3   4 1063.71   27.97
   4  -3  -4 1060.94   27.97
  -4   3   3 5180.95  129.79
   4  -3  -3 5084.40  127.51
  -4   3   2  538.90   15.04
   4  -3  -2  537.02   15.09
  -4   3   1    8.16    2.72
   4  -3  -1   10.15    2.83
  -4   3   0  917.78   24.47
   4  -3   0  908.90   24.14
  -4   3  -1  243.59    8.16
   4  -3   1  237.82    7.88
  -4   3  -2   75.19    4.33
   4  -3   2   77.35    4.16
  -4   3  -3  740.21   20.25
   4  -3   3  784.05   21.25
  -4   3  -4  708.03   19.75
   4  -3   4  698.04   19.20
  -4   3  -5  355.29   11.15
   4  -3   5  353.24   10.88
   4  -3   6 1050.95   28.08
   4  -3   6 1062.05   28.30
   4  -3   7   -1.78    3.50
   4  -3   7   -4.22    3.55
   4  -3   8 2804.38   71.47
   4  -3   8 2864.86   72.97
   4  -3   9   41.17    4.38
   4  -3   9   35.62    4.27
   4  -3  10  669.19   18.81
   4  -3  10  651.99   18.37
   4  -3  11  345.80   11.04
   4  -3  11  380.93   11.99
   4  -3  12  210.02    8.16
   4  -3  12  228.56    8.38
   4  -3  13  916.11   24.97
   4  -3  13  937.20   25.25
   4  -3  14   46.17    5.16
   4  -3  14   34.24    4.88
  -4   2  18  320.78   10.49
   4  -2 -18  317.89   10.49
  -4   2  17  103.87    5.88
   4  -2 -17  111.75    5.83
  -4   2  16  304.19   10.32
   4  -2 -16  314.73   10.27
  -4   2  15  116.86    5.60
   4  -2 -15  121.80    5.88
  -4   2  14  470.26   13.98
   4  -2 -14  477.81   14.21
  -4   2  13   18.42    4.16
   4  -2 -13   17.31    3.77
  -4   2  12  214.74    8.21
   4  -2 -12  198.70    7.49
  -4   2  11    9.49    4.05
   4  -2 -11   13.21    3.55
  -4   2  10   54.21    4.22
   4  -2 -10   61.92    4.44
  -4   2   9  204.31    7.49
   4  -2  -9  217.68    7.88
  -4   2   8 1158.04   30.63
   4  -2  -8 1101.44   29.08
  -4   2   7  671.41   18.70
   4  -2  -7  630.35   17.70
  -4   2   6  792.93   21.36
   4  -2  -6  790.71   21.47
  -4   2   5 1540.91   39.84
   4  -2  -5 1547.57   40.06
  -4   2   4  139.61    5.72
   4  -2  -4  141.77    5.77
  -4   2   3 3493.55   88.06
   4  -2  -3 3449.16   87.06
  -4   2   2 5322.44  133.28
   4  -2  -2 5240.87  131.34
  -4   2   1 1348.92   34.90
   4  -2  -1 1362.79   35.40
  -4   2   0 1503.18   38.84
   4  -2   0 1500.40   38.79
  -4   2  -1  177.45    6.44
   4  -2   1  193.49    6.77
  -4   2  -2  456.56   13.15
   4  -2   2  428.09   12.54
  -4   2  -3  421.10   12.26
   4  -2   3  422.27   12.37
  -4   2  -4   96.11    4.66
   4  -2   4   93.00    4.66
  -4   2  -5   22.92    3.44
   4  -2   5   19.31    3.55
   4  -2   6  222.34    7.82
   4  -2   7   52.66    4.27
   4  -2   7   66.20    4.61
   4  -2   8 2122.43   54.55
   4  -2   8 2111.33   54.32
   4  -2   9  112.20    5.83
   4  -2   9  115.69    5.99
   4  -2  10  866.17   23.69
   4  -2  10  865.62   23.69
   4  -2  11  256.02    9.16
   4  -2  11  245.31    8.77
   4  -2  12  698.60   19.59
   4  -2  12  708.03   19.64
   4  -2  13  403.23   12.54
   4  -2  13  419.82   12.98
   4  -2  14  267.73    9.38
   4  -2  14  281.94    9.82
   4  -2  15   82.57    6.05
   4  -2  15   88.23    5.83
  -4   1  18   89.67    5.72
   4  -1 -18  107.15    6.16
  -4   1  17  138.44    6.55
   4  -1 -17  127.51    6.44
  -4   1  16  132.84    6.33
   4  -1 -16  117.52    6.05
  -4   1  15  115.30    6.27
   4  -1 -15  116.03    5.99
  -4   1  14   41.23    4.88
   4  -1 -14   31.41    4.05
  -4   1  13  175.62    6.99
   4  -1 -13  176.56    7.16
  -4   1  12   60.59    4.61
   4  -1 -12   69.80    4.77
  -4   1  11  244.43    8.43
   4  -1 -11  249.64    8.66
  -4   1  10 1081.47   28.74
   4  -1 -10 1114.21   29.58
  -4   1   9  880.05   23.80
   4  -1  -9  865.06   23.42
  -4   1   8  309.68    9.82
   4  -1  -8  326.11   10.38
  -4   1   7 1735.68   44.72
   4  -1  -7 1732.35   44.67
  -4   1   6  483.80   13.93
   4  -1  -6  449.79   13.21
  -4   1   5 2756.11   69.92
   4  -1  -5 2818.81   71.41
  -4   1   4  224.17    7.55
   4  -1  -4  220.18    7.55
  -4   1   3 4949.01  124.02
   4  -1  -3 4911.27  123.24
  -4   1   2 2812.70   71.08
   4  -1  -2 2650.68   67.20
  -4   1   1 2832.13   71.52
   4  -1  -1 2915.36   73.85
  -4   1   0  159.42    5.83
   4  -1   0  160.53    6.05
  -4   1  -1  416.11   12.15
   4  -1   1  389.58   11.54
  -4   1  -2  688.61   18.98
   4  -1   2  701.37   19.14
  -4   1  -3   42.84    3.72
   4  -1   3   35.51    3.61
  -4   1  -4    1.33    2.83
   4  -1   4    4.94    3.05
  -4   1  -5   63.03    4.27
   4  -1   5   51.94    4.22
  -4   1  -6  117.25    5.66
   4  -1   6  102.88    5.05
   4  -1   7  436.92   12.98
   4  -1   7  435.81   13.04
   4  -1   8  764.63   21.03
   4  -1   8  785.16   21.64
   4  -1   9  610.37   17.42
   4  -1   9  624.24   17.98
   4  -1  10  838.43   23.03
   4  -1  10  891.70   24.47
   4  -1  11 1210.76   32.29
   4  -1  11 1282.89   33.96
   4  -1  12  521.70   15.04
   4  -1  12  499.17   14.87
   4  -1  13  348.97   11.32
   4  -1  13  378.87   11.99
   4  -1  14   90.83    5.83
   4  -1  14   94.44    5.60
   4  -1  15  190.33    7.77
   4  -1  15  194.38    7.27
   4  -1  16  124.40    6.66
   4  -1  16  120.41    6.55
  -4   0  18  234.99    8.99
   4   0 -18  213.63    8.05
  -4   0  17   31.91    4.77
   4   0 -17   34.35    4.49
  -4   0  16  107.09    5.66
   4   0 -16   96.49    5.66
  -4   0  15    0.89    4.05
   4   0 -15    3.33    3.61
  -4   0  14    1.83    3.83
   4   0 -14   -0.28    3.50
  -4   0  13   50.94    4.66
   4   0 -13   66.64    4.77
  -4   0  12   18.37    4.11
   4   0 -12   13.71    3.72
  -4   0  11  266.95    9.38
   4   0 -11  256.63    8.88
  -4   0  10 1597.51   41.73
   4   0 -10 1640.24   42.67
  -4   0   9  160.69    6.71
   4   0  -9  165.19    6.77
  -4   0   8 1676.30   43.39
   4   0  -8 1672.97   43.39
  -4   0   7 2429.83   62.04
   4   0  -7 2277.24   58.21
  -4   0   6 2121.32   54.16
   4   0  -6 2142.96   54.93
  -4   0   5 2006.46   51.38
   4   0  -5 2038.09   52.27
  -4   0   4 2130.20   54.38
   4   0  -4 2063.61   52.82
  -4   0   3 4203.80  105.54
   4   0  -3 4202.69  105.76
  -4   0   2 4169.39  104.76
   4   0  -2 4119.46  103.65
  -4   0   1  637.56   17.48
   4   0  -1  674.18   18.42
  -4   0   0   40.95    3.33
   4   0   0   44.00    3.55
  -4   0  -1  353.52   10.43
   4   0   1  373.83   11.10
  -4   0  -2  235.49    7.77
   4   0   2  243.54    8.05
  -4   0  -3   -0.61    2.77
   4   0   3   -3.00    2.66
  -4   0  -4 1400.53   36.34
   4   0   4 1372.78   35.73
  -4   0  -5    3.66    2.77
   4   0   5    5.99    3.00
  -4   0  -6  977.70   26.19
   4   0   6  914.45   24.58
   4   0   7  250.81    8.71
   4   0   7  231.83    8.16
   4   0   8 1382.21   36.23
   4   0   8 1448.80   37.95
   4   0   9  128.18    6.05
   4   0   9  137.33    6.33
   4   0  10 1944.31   50.00
   4   0  10 1910.46   49.33
   4   0  11  597.05   17.15
   4   0  11  631.46   17.81
   4   0  12  462.88   13.98
   4   0  12  477.09   14.15
   4   0  13  505.00   14.82
   4   0  13  507.22   14.98
   4   0  14    0.28    3.66
   4   0  14    0.17    4.00
   4   0  15 1228.51   32.63
   4   0  15 1207.98   31.79
   4   0  16   49.61    5.38
   4   0  16   59.04    4.66
  -4  -1  17    6.49    4.55
   4   1 -17    4.11    4.16
  -4  -1  16  249.53    8.77
   4   1 -16  243.43    8.55
  -4  -1  15  103.49    5.55
   4   1 -15  106.37    5.55
  -4  -1  14  164.30    7.10
   4   1 -14  179.84    7.21
  -4  -1  13   96.05    5.72
   4   1 -13   90.00    5.16
  -4  -1  12   10.32    4.11
   4   1 -12    2.11    3.55
  -4  -1  11   26.52    3.94
   4   1 -11   42.23    4.27
  -4  -1  10 1045.96   27.97
   4   1 -10  950.52   25.75
  -4  -1   9  437.41   13.04
   4   1  -9  456.67   13.65
  -4  -1   8 3647.80   92.06
   4   1  -8 3587.88   90.72
  -4  -1   7 1676.86   43.34
   4   1  -7 1692.39   43.84
  -4  -1   6 4316.99  108.48
   4   1  -6 4429.63  111.48
  -4  -1   5 2137.41   54.55
   4   1  -5 2117.44   54.16
  -4  -1   4 2767.20   70.08
   4   1  -4 2855.99   72.41
  -4  -1   3 2404.31   60.98
   4   1  -3 2224.53   56.65
  -4  -1   2  129.29    5.10
   4   1  -2  130.90    5.27
  -4  -1   1  575.41   15.81
   4   1  -1  549.06   15.31
  -4  -1   0 3335.96   84.01
   4   1   0 3192.24   80.57
  -4  -1  -1  270.39    8.60
   4   1   1  267.79    8.55
  -4  -1  -2   47.61    3.44
   4   1   2   42.95    3.38
  -4  -1  -3   28.02    3.27
   4   1   3   28.80    3.00
  -4  -1  -4 1008.78   26.80
   4   1   4 1023.21   27.24
  -4  -1  -5  660.31   18.14
   4   1   5  624.80   17.42
  -4  -1  -6 1129.74   29.91
   4   1   6 1178.57   31.13
   4   1   7   26.14    3.50
   4   1   7   24.91    3.22
   4   1   8 2297.77   58.82
   4   1   8 2211.21   56.65
   4   1  10  497.51   14.70
   4   1  10  478.25   14.26
   4   1  11  296.64   10.10
   4   1  11  285.54    9.71
   4   1  12 1629.14   42.39
   4   1  12 1685.18   43.95
   4   1  13 1055.39   28.35
   4   1  13 1098.67   29.30
   4   1  14   57.87    4.77
   4   1  14   65.14    5.22
   4   1  15  393.08   12.26
   4   1  15  375.49   11.76
   4   1  16    5.44    4.16
   4   1  16    3.88    4.16
   4   1  17   52.16    4.66
   4   1  17   58.48    5.38
  -4  -2  17  120.96    6.55
   4   2 -17  114.31    5.99
  -4  -2  16   34.01    4.83
   4   2 -16   39.29    4.55
  -4  -2  15   39.51    4.49
   4   2 -15   42.12    4.55
  -4  -2  14  111.31    6.21
   4   2 -14  123.41    5.99
  -4  -2  13    3.44    3.94
   4   2 -13    1.00    3.55
  -4  -2  12  855.08   23.25
   4   2 -12  847.86   23.19
  -4  -2  11  551.78   16.04
   4   2 -11  548.34   15.81
  -4  -2  10  627.57   17.92
   4   2 -10  629.79   17.92
  -4  -2   9 2485.88   63.59
   4   2  -9 2109.11   54.16
  -4  -2   8  669.74   18.70
   4   2  -8  703.59   19.53
  -4  -2   7  941.08   25.30
   4   2  -7  923.33   24.80
  -4  -2   6 2405.97   61.37
   4   2  -6 2462.02   62.65
  -4  -2   5 6192.50  155.03
   4   2  -5 6514.33  163.14
  -4  -2   4 1908.24   48.89
   4   2  -4 1898.81   48.66
  -4  -2   3  830.11   22.03
   4   2  -3  801.25   21.47
  -4  -2   2  901.69   23.80
   4   2  -2  903.35   23.97
  -4  -2   1  163.25    6.05
   4   2  -1  167.57    6.10
  -4  -2   0   57.32    3.77
   4   2   0   62.81    3.66
  -4  -2  -1   97.22    4.49
   4   2   1   97.27    4.38
  -4  -2  -2  364.72   10.88
   4   2   2  392.36   11.43
  -4  -2  -3 1734.57   44.39
   4   2   3 1765.64   45.22
  -4  -2  -4  931.65   24.69
   4   2   4  943.30   25.14
  -4  -2  -5 6286.83  157.31
   4   2   5 6303.48  157.75
  -4  -2  -6  844.53   22.58
   4   2   6  867.28   23.36
   4   2   7 1218.52   32.24
   4   2   8  994.91   26.69
   4   2   8 1081.47   28.63
   4   2   9    7.71    3.22
   4   2   9    4.44    3.27
   4   2  10 3608.96   91.33
   4   2  10 3596.20   91.11
   4   2  11   32.29    4.27
   4   2  11   31.24    4.22
   4   2  12 1624.70   42.39
   4   2  12 1643.01   42.56
   4   2  13  827.33   22.75
   4   2  13  805.14   21.86
   4   2  14  527.47   15.43
   4   2  14  517.54   15.20
   4   2  15  368.39   11.71
   4   2  15  389.47   11.87
   4   2  16    4.94    4.22
   4   2  16    4.77    4.16
   4   2  17   33.13    4.72
   4   2  17   39.06    4.55
  -4  -3  17   74.02    6.66
  -4  -3  16   -2.05    4.55
   4   3 -16    1.11    4.16
  -4  -3  15    3.00    4.22
   4   3 -15    3.16    4.00
  -4  -3  14   40.73    4.66
   4   3 -14   44.61    4.44
  -4  -3  13   91.78    5.49
   4   3 -13   93.28    5.33
  -4  -3  12  435.20   13.32
   4   3 -12  449.68   13.48
  -4  -3  11  314.51   10.54
   4   3 -11  317.06   10.32
  -4  -3  10 1825.57   47.39
   4   3 -10 1758.43   45.56
  -4  -3   9  148.38    6.38
   4   3  -9  185.55    7.44
  -4  -3   8 3207.23   81.29
   4   3  -8 3427.52   86.78
  -4  -3   7  508.22   14.65
   4   3  -7  532.52   15.37
  -4  -3   6  939.97   25.14
   4   3  -6  941.08   25.14
  -4  -3   5 4161.63  104.65
   4   3  -5 4197.69  105.65
  -4  -3   4 1593.63   41.06
   4   3  -4 1466.00   37.90
  -4  -3   3 4512.87  113.14
   4   3  -3 4814.17  120.85
  -4  -3   2  216.46    7.21
   4   3  -2  215.41    7.32
  -4  -3   1 1009.33   26.47
   4   3  -1  987.69   26.02
  -4  -3   0 1559.22   40.06
   4   3   0 1517.61   38.90
  -4  -3  -1  282.82    8.66
   4   3   1  293.48    8.88
  -4  -3  -2 1177.46   30.69
   4   3   2 1155.82   30.13
  -4  -3  -3 1968.73   50.16
   4   3   3 2003.68   51.16
  -4  -3  -4  389.25   11.43
   4   3   4  372.10   10.93
  -4  -3  -5 1909.91   48.94
   4   3   5 1963.73   50.27
  -4  -3  -6  303.30    9.49
   4   3   6  317.89    9.93
   4   3   7 2221.75   56.71
   4   3   8  542.40   15.54
   4   3   8  534.24   15.26
   4   3   9  572.08   16.26
   4   3   9  564.32   16.04
   4   3  10 1829.45   47.39
   4   3  10 1867.74   48.22
   4   3  11 1954.85   50.49
   4   3  11 1950.42   50.44
   4   3  12 1949.31   50.44
   4   3  12 1969.84   50.77
   4   3  13  473.82   14.21
   4   3  13  497.12   14.93
   4   3  14   -0.06    3.61
   4   3  14    4.33    4.00
   4   3  15  137.83    6.55
   4   3  15  138.89    6.16
   4   3  16    5.83    4.11
   4   3  16   17.09    4.38
   4   3  17   25.91    4.94
   4   3  17   32.57    4.83
   4   3  18    7.66    4.55
   4   3  18    8.93    4.83
  -4  -4  16   20.09    4.94
   4   4 -16   16.92    4.38
  -4  -4  15   46.94    5.16
   4   4 -15   51.38    4.88
  -4  -4  14    8.77    4.38
   4   4 -14    0.83    3.94
  -4  -4  13  418.83   12.76
   4   4 -13  441.96   13.21
  -4  -4  12  943.30   25.47
   4   4 -12  894.47   24.25
  -4  -4  11 1710.15   44.45
   4   4 -11 1782.29   46.11
  -4  -4  10  540.46   15.65
   4   4 -10  525.64   15.37
  -4  -4   9   83.01    5.05
   4   4  -9   78.96    4.83
  -4  -4   8 1674.64   43.50
   4   4  -8 1776.18   46.06
  -4  -4   7  434.70   12.98
   4   4  -7  461.39   13.48
  -4  -4   6 3324.86   84.06
   4   4  -6 3388.12   85.62
  -4  -4   5 1394.42   36.23
   4   4  -5 1432.71   37.40
  -4  -4   4 2726.70   69.03
   4   4  -4 2587.42   65.70
  -4  -4   3  115.30    4.72
   4   4  -3  128.84    5.22
  -4  -4   2  565.43   15.54
   4   4  -2  592.62   16.20
  -4  -4   1  136.89    5.16
   4   4  -1  130.45    4.99
  -4  -4   0 2404.31   60.87
   4   4   0 2429.83   61.43
  -4  -4  -1   63.87    3.44
   4   4   1   54.32    3.33
  -4  -4  -2  353.79   10.27
   4   4   2  334.48    9.71
  -4  -4  -3  148.60    5.55
   4   4   3  145.10    5.27
  -4  -4  -4  476.03   13.48
   4   4   4  472.59   13.43
  -4  -4  -5 1016.55   26.80
   4   4   5 1019.88   26.97
  -4  -4  -6 2312.20   58.71
   4   4   6 2400.98   61.09
   4   4   8 2074.15   53.32
   4   4   8 2057.51   52.71
   4   4   9 1528.15   39.79
   4   4   9 1523.16   39.73
   4   4  10 3524.06   89.23
   4   4  10 3477.45   88.00
   4   4  11 1160.26   30.80
   4   4  11 1184.12   31.46
   4   4  12  603.16   17.31
   4   4  12  645.88   18.09
   4   4  13  295.75    9.99
   4   4  13  278.77    9.10
   4   4  14    8.16    3.61
   4   4  14    0.61    3.83
   4   4  15  293.70    9.99
   4   4  15  284.54    9.49
   4   4  16    5.22    4.00
   4   4  16    1.50    3.77
   4   4  17    7.93    4.00
   4   4  17    6.49    4.16
   4   4  18  263.57    9.10
   4   4  18  256.97    9.21
  -4  -5  15  249.20    9.21
   4   5 -15  279.05    9.65
  -4  -5  14    0.06    4.27
   4   5 -14    7.32    4.00
  -4  -5  13  777.95   21.36
   4   5 -13  769.07   21.20
  -4  -5  12   31.68    4.38
   4   5 -12   37.12    4.49
  -4  -5  11 1230.73   32.57
   4   5 -11 1267.35   33.35
  -4  -5  10  720.24   20.03
   4   5 -10  721.35   19.98
  -4  -5   9  406.67   12.54
   4   5  -9  422.32   12.87
  -4  -5   8  259.30    9.04
   4   5  -8  272.17    9.10
  -4  -5   7 1098.67   29.24
   4   5  -7 1155.27   30.57
  -4  -5   6 1182.46   31.13
   4   5  -6 1222.41   32.29
  -4  -5   5  429.15   12.48
   4   5  -5  420.49   12.32
  -4  -5   4 1243.49   32.41
   4   5  -4 1191.89   31.18
  -4  -5   3  475.59   13.37
   4   5  -3  498.56   14.09
  -4  -5   2  645.88   17.48
   4   5  -2  693.05   18.76
  -4  -5   1  939.42   24.64
   4   5  -1  928.32   24.41
  -4  -5   0  198.43    6.49
   4   5   0  196.76    6.49
  -4  -5  -1  120.35    4.61
   4   5   1  115.25    4.55
  -4  -5  -2  334.26    9.77
   4   5   2  324.88    9.49
  -4  -5  -3 4932.91  123.52
   4   5   3 5042.78  126.35
  -4  -5  -4  951.63   25.08
   4   5   4  934.98   24.58
  -4  -5  -5 1347.26   34.85
   4   5   5 1417.17   36.62
  -4  -5  -6    9.32    2.89
   4   5   6    7.55    2.83
   4   5   7  661.98   18.31
   4   5   7  658.09   18.20
   4   5   8 2863.75   72.58
   4   5   8 2909.81   73.85
   4   5   9  940.53   25.19
   4   5   9 1000.45   26.86
   4   5  10 5626.52  141.27
   4   5  10 5632.07  141.50
   4   5  11  288.71    9.65
   4   5  11  293.59    9.77
   4   5  12  910.56   24.86
   4   5  12  895.58   24.53
   4   5  13    1.11    3.88
   4   5  13    2.72    3.83
   4   5  14   15.76    4.22
   4   5  14   15.26    4.00
   4   5  15   27.91    4.49
   4   5  15   31.41    4.44
   4   5  16   48.33    4.94
   4   5  16   47.28    4.33
   4   5  17    1.00    4.33
   4   5  17    1.00    4.00
   4   5  18   19.75    4.66
   4   5  18   18.37    4.77
  -4  -6  15  412.89   12.87
   4   6 -15  396.52   12.10
  -4  -6  14    0.11    4.88
   4   6 -14    8.66    4.11
  -4  -6  13  591.51   17.03
   4   6 -13  615.37   17.31
  -4  -6  12   53.16    4.77
   4   6 -12   63.48    4.61
  -4  -6  11  237.27    8.43
   4   6 -11  248.70    8.77
  -4  -6  10  412.89   12.60
   4   6 -10  418.77   12.54
  -4  -6   9  518.32   15.26
   4   6  -9  545.12   15.76
  -4  -6   8 1461.56   38.23
   4   6  -8 1409.96   37.07
  -4  -6   7    6.83    3.22
   4   6  -7    4.33    3.00
  -4  -6   6 1887.71   48.55
   4   6  -6 1810.58   46.44
  -4  -6   5  640.34   17.65
   4   6  -5  665.31   18.26
  -4  -6   4   60.65    4.00
   4   6  -4   64.26    4.27
  -4  -6   3  866.17   23.03
   4   6  -3  923.33   24.41
  -4  -6   2  230.44    7.32
   4   6  -2  210.47    6.83
  -4  -6   1  162.58    5.55
   4   6  -1  170.18    5.88
  -4  -6   0  147.38    5.10
   4   6   0  146.32    5.22
  -4  -6  -1  506.39   13.76
   4   6   1  503.39   13.65
  -4  -6  -2  405.79   11.32
   4   6   2  400.96   11.15
  -4  -6  -3 1778.40   45.22
   4   6   3 1832.23   46.61
  -4  -6  -4    3.88    2.33
   4   6   4    4.00    2.16
  -4  -6  -5 2589.64   65.48
   4   6   5 2674.54   67.64
  -4  -6  -6 1469.33   38.01
   4   6   6 1434.37   37.12
   4   6   7 3139.53   79.40
   4   6   7 3071.83   77.57
   4   6   8  451.73   13.15
   4   6   8  457.50   12.93
   4   6   9 1224.07   32.29
   4   6   9 1275.68   33.24
   4   6  10 3590.65   90.78
   4   6  10 3570.68   90.00
   4   6  11  269.67    9.10
   4   6  11  259.96    8.55
   4   6  12   25.64    4.00
   4   6  12   17.53    3.55
   4   6  13  247.59    8.82
   4   6  13  242.65    8.27
   4   6  14  100.05    5.66
   4   6  14   94.77    5.10
   4   6  15  156.42    6.94
   4   6  15  168.52    6.71
   4   6  16  124.63    5.99
   4   6  16  128.18    6.66
   4   6  18   84.73    5.72
   4   6  18   74.96    5.16
  -4  -7  14  197.04    8.27
   4   7 -14  185.66    7.49
  -4  -7  13   22.08    4.83
   4   7 -13   10.60    4.22
  -4  -7  12  710.81   19.98
   4   7 -12  738.55   20.31
  -4  -7  11  185.72    7.66
   4   7 -11  187.11    7.05
  -4  -7  10  489.91   14.54
   4   7 -10  494.01   14.43
  -4  -7   9  384.65   11.87
   4   7  -9  378.32   11.65
  -4  -7   8 1197.99   31.68
   4   7  -8 1162.48   30.69
  -4  -7   7  539.90   15.54
   4   7  -7  523.42   14.87
  -4  -7   6   62.20    4.22
   4   7  -6   57.37    4.11
  -4  -7   5  123.79    5.44
   4   7  -5  109.20    5.05
  -4  -7   4 1226.29   31.96
   4   7  -4 1142.51   29.80
  -4  -7   3  253.75    7.99
   4   7  -3  254.80    8.05
  -4  -7   2  339.87    9.88
   4   7  -2  363.67   10.71
  -4  -7   1  394.74   11.10
   4   7  -1  397.91   11.21
  -4  -7   0    2.89    1.94
   4   7   0    2.05    2.05
  -4  -7  -1  840.09   21.86
   4   7   1  822.89   21.36
  -4  -7  -2 2398.76   60.54
   4   7   2 2402.65   60.54
  -4  -7  -3 2114.66   53.49
   4   7   3 2093.58   52.88
  -4  -7  -4 1412.73   36.18
   4   7   4 1397.20   35.68
  -4  -7  -5 1702.94   43.45
   4   7   5 1692.95   43.28
  -4  -7  -6    2.05    2.44
   4   7   6    5.44    2.22
   4   7   7 1888.82   48.22
   4   7   7 1840.55   47.22
   4   7   8 1024.31   27.19
   4   7   8 1059.83   28.19
   4   7   9 1044.85   27.52
   4   7   9 1017.66   27.19
   4   7  10  902.24   24.25
   4   7  10  874.50   23.80
   4   7  11  381.93   12.04
   4   7  11  394.58   12.43
   4   7  12   32.85    4.11
   4   7  12   24.36    4.05
   4   7  13  132.56    6.27
   4   7  13  129.45    6.21
   4   7  14   12.48    4.00
   4   7  14   17.48    3.88
   4   7  15   19.48    4.33
   4   7  15   19.59    3.88
   4   7  16  508.83   14.93
   4   7  16  505.55   14.82
   4   7  17    4.27    4.38
   4   7  17    7.21    4.22
   4   7  18  345.25   11.26
   4   7  18  334.87   10.65
   4   7  19  456.17   14.09
   4   7  19  437.75   13.15
  -4  -8  13  699.15   19.98
   4   8 -13  718.57   20.09
  -4  -8  12    6.33    4.88
   4   8 -12    6.49    4.44
  -4  -8  11  414.83   12.71
   4   8 -11  421.27   12.71
  -4  -8  10  354.74   11.21
   4   8 -10  358.73   11.04
  -4  -8   9  209.86    7.99
   4   8  -9  209.63    7.66
  -4  -8   8  367.78   11.10
   4   8  -8  369.05   11.26
  -4  -8   7  101.99    5.27
   4   8  -7  101.27    4.94
  -4  -8   6 3950.22   99.60
   4   8  -6 3827.59   96.38
  -4  -8   5    8.32    3.05
   4   8  -5    6.10    2.89
  -4  -8   4 2025.88   51.77
   4   8  -4 1867.74   47.72
  -4  -8   3  736.89   19.75
   4   8  -3  770.18   20.53
  -4  -8   2  293.03    8.71
   4   8  -2  303.52    8.93
  -4  -8   1   19.75    2.33
   4   8  -1   18.20    2.28
  -4  -8   0  438.36   11.93
   4   8   0  415.66   11.38
  -4  -8  -1  109.98    4.00
   4   8   1  114.75    4.16
  -4  -8  -2 1278.45   32.63
   4   8   2 1250.71   31.96
  -4  -8  -3 1578.09   40.12
   4   8   3 1520.94   38.68
  -4  -8  -4 1805.59   45.83
   4   8   4 1788.94   45.28
  -4  -8  -5 2162.38   54.77
   4   8   5 2141.85   54.10
   4   8   6  288.43    8.55
   4   8   6  294.87    8.82
   4   8   7  466.88   13.26
   4   8   7  469.15   13.04
   4   8   8 1173.02   30.46
   4   8   8 1229.07   32.02
   4   8   9  230.50    7.77
   4   8   9  222.18    7.38
   4   8  10 1539.25   40.01
   4   8  10 1510.95   39.12
   4   8  11   10.99    3.44
   4   8  11   14.32    3.11
   4   8  12  720.24   19.92
   4   8  12  694.71   18.98
   4   8  13  267.56    9.38
   4   8  13  262.35    8.71
   4   8  14  222.29    8.10
   4   8  14  239.65    8.21
   4   8  15   -6.49    4.11
   4   8  15   -0.28    3.72
   4   8  16  482.08   14.37
   4   8  16  501.45   14.59
   4   8  17   27.63    4.61
   4   8  17   18.81    4.33
   4   8  18  496.68   14.87
   4   8  18  476.37   13.98
   4   8  19  218.35    8.16
   4   8  19  210.91    8.82
  -4  -9  12    2.72    5.16
   4   9 -12    3.16    4.72
  -4  -9  11  756.31   20.97
   4   9 -11  771.29   21.14
  -4  -9  10   32.85    4.66
   4   9 -10   47.00    4.49
  -4  -9   9  432.98   13.04
   4   9  -9  437.08   12.93
  -4  -9   8  408.28   12.26
   4   9  -8  392.64   11.87
  -4  -9   7  328.49   10.49
   4   9  -7  310.35    9.88
  -4  -9   6 1843.32   47.33
   4   9  -6 1797.82   46.11
  -4  -9   5   40.06    3.66
   4   9  -5   40.62    3.61
  -4  -9   4  650.32   17.87
   4   9  -4  656.98   17.87
  -4  -9   3  558.21   15.37
   4   9  -3  539.96   14.93
  -4  -9   2    0.61    2.28
   4   9  -2    4.55    2.33
  -4  -9   1  119.30    4.44
   4   9  -1  124.74    4.83
  -4  -9   0  495.18   13.32
   4   9   0  509.94   13.65
  -4  -9  -1  311.84    8.66
   4   9   1  327.44    9.04
  -4  -9  -2  101.93    3.55
   4   9   2  104.10    3.61
  -4  -9  -3 1283.45   32.68
   4   9   3 1252.93   31.91
  -4  -9  -4  288.48    8.05
   4   9   4  301.30    8.38
   4   9   5 4016.25  100.71
   4   9   5 4021.80  100.99
   4   9   6  487.52   13.43
   4   9   6  468.54   12.71
   4   9   7  485.69   13.15
   4   9   7  480.53   13.10
   4   9   8  814.57   21.58
   4   9   8  817.34   21.75
   4   9   9  172.01    6.27
   4   9   9  170.18    6.10
   4   9  10  401.85   12.04
   4   9  10  387.70   11.71
   4   9  11  147.43    6.10
   4   9  11  140.94    5.83
   4   9  12 1436.04   37.51
   4   9  12 1402.75   36.68
   4   9  13  380.32   11.76
   4   9  13  360.45   11.38
   4   9  14    9.49    3.66
   4   9  14    1.61    4.05
   4   9  15  185.22    6.99
   4   9  15  178.34    7.16
   4   9  16  112.53    6.10
   4   9  16  114.36    5.88
   4   9  17  236.66    8.49
   4   9  17  236.16    8.99
   4   9  18  208.80    7.88
   4   9  18  212.58    8.55
   4   9  19  276.72    9.49
   4   9  19  299.08   10.71
  -4 -10  11  315.95   11.76
  -4 -10  10  262.18    9.54
   4  10 -10  278.50    9.71
  -4 -10   9  283.21    9.88
   4  10  -9  315.67   10.49
  -4 -10   8  467.93   13.82
   4  10  -8  487.13   14.04
  -4 -10   7  262.63    8.82
   4  10  -7  286.60    9.21
  -4 -10   6  757.42   20.59
   4  10  -6  777.39   20.97
  -4 -10   5  489.13   14.04
   4  10  -5  477.42   13.59
  -4 -10   4   -2.83    2.94
   4  10  -4    2.44    2.94
  -4 -10   3  197.65    6.60
   4  10  -3  199.54    6.60
  -4 -10   2  470.21   12.98
   4  10  -2  443.80   12.37
  -4 -10   1   50.44    2.94
   4  10  -1   54.10    3.16
  -4 -10   0 1812.80   46.06
   4  10   0 1707.38   43.45
  -4 -10  -1  239.04    6.83
   4  10   1  211.08    6.10
  -4 -10  -2  685.84   17.87
   4  10   2  684.17   17.81
  -4 -10  -3 1120.31   28.80
   4  10   3 1093.68   28.13
   4  10   4  167.52    4.77
   4  10   4  175.62    5.10
   4  10   5 2278.91   57.65
   4  10   5 2198.45   55.60
   4  10   6  658.65   17.26
   4  10   6  635.90   16.81
   4  10   7  589.29   15.70
   4  10   7  562.65   15.09
   4  10   8  963.83   25.19
   4  10   8  923.88   24.47
   4  10   9    8.16    2.83
   4  10   9   10.99    2.89
   4  10  10  129.34    5.33
   4  10  10  130.45    5.38
   4  10  11    2.55    3.11
   4  10  11   -0.83    2.77
   4  10  12   67.86    4.55
   4  10  12   62.42    4.00
   4  10  13    3.00    3.50
   4  10  13   -1.44    3.44
   4  10  14   41.95    4.38
   4  10  14   51.88    4.44
   4  10  15    8.43    4.38
   4  10  15   17.09    3.94
   4  10  16   41.28    4.83
   4  10  16   44.22    4.72
   4  10  17  262.63    9.27
   4  10  17  246.04    9.27
   4  10  18  440.19   13.76
   4  10  18  424.82   12.71
   4  10  19  128.23    6.99
   4  10  19  112.92    6.49
  -4 -11   9  357.79   12.04
  -4 -11   9  371.05   11.99
  -4 -11   8  278.50    9.77
   4  11  -8  237.43    8.88
  -4 -11   7   35.46    4.55
   4  11  -7   44.22    4.33
  -4 -11   6  415.05   12.32
   4  11  -6  411.56   12.15
  -4 -11   5   18.31    3.50
   4  11  -5   16.09    3.22
  -4 -11   4   14.93    3.22
   4  11  -4    9.04    3.00
  -4 -11   3  105.76    4.61
   4  11  -3  117.14    4.66
  -4 -11   2  347.58    9.99
   4  11  -2  331.38    9.38
  -4 -11   1  129.79    4.61
   4  11  -1  122.80    4.33
  -4 -11   0 1518.72   38.84
   4  11   0 1441.59   36.84
  -4 -11  -1   22.14    1.50
   4  11   1   22.58    1.39
   4  11   6    1.94    1.39
   4  11   6    6.44    1.55
   4  11   7 1523.71   38.84
   4  11   7 1415.51   36.12
   4  11   8  651.99   17.20
   4  11   8  656.43   17.37
   4  11   9  108.15    4.72
   4  11   9  106.09    4.27
   4  11  10  252.42    7.99
   4  11  10  252.47    8.05
   4  11  12  141.33    6.05
   4  11  12  144.66    5.99
   4  11  13    7.32    3.50
   4  11  13    6.38    3.22
   4  11  14    1.94    3.66
   4  11  14    4.49    4.05
   4  11  15    0.06    4.00
   4  11  15   -2.83    3.61
   4  11  16  344.75   11.15
   4  11  16  333.32   10.54
   4  11  17  186.11    7.44
   4  11  17  181.95    8.05
   4  11  18  404.68   12.98
   4  11  18  417.38   12.60
  -4 -12   8   70.08    5.83
  -4 -12   8   70.47    6.49
  -4 -12   7    4.16    5.05
  -4 -12   7    4.94    4.55
  -4 -12   6  175.45    7.32
  -4 -12   6  179.39    7.05
  -4 -12   5  212.69    7.55
  -4 -12   5  187.44    6.94
  -4 -12   4  116.41    5.27
  -4 -12   4  109.31    4.94
  -4 -12   3    6.38    2.72
  -4 -12   3    6.66    2.94
  -4 -12   2   67.31    3.55
  -4 -12   2   78.79    3.61
  -4 -12   1  415.55   11.32
  -4 -12   1  444.18   11.99
   4  12   8  649.77   17.03
   4  12   8  631.46   16.59
   4  12   9  267.23    7.93
   4  12   9  259.74    7.82
   4  12  10  532.30   14.48
   4  12  10  486.36   13.37
   4  12  11  308.85    9.32
   4  12  11  292.59    8.71
   4  12  12    6.33    3.33
   4  12  12   11.04    3.44
   4  12  13   -5.16    3.44
   4  12  13   -4.22    3.38
   4  12  14   39.23    4.49
   4  12  14   42.62    4.33
   4  12  15   87.84    5.44
   4  12  15   90.00    5.33
   4  12  16  202.53    8.27
   4  12  16  191.66    7.60
   4  12  17  131.56    7.16
   4  12  17  144.94    6.83
  -4 -13   7  278.66   10.71
  -4 -13   7  275.33    9.93
  -4 -13   6   -5.94    4.77
  -4 -13   6   -5.10    4.16
  -4 -13   5   31.35    4.66
  -4 -13   5   31.91    4.11
  -4 -13   4    1.33    3.77
  -4 -13   4    2.16    3.22
  -4 -13   3  328.49    9.65
  -4 -13   3  340.75    9.82
  -4 -13   2   50.11    3.11
  -4 -13   2   58.43    3.00
   4  13   9  938.86   24.41
   4  13   9  891.70   23.14
   4  13  10  291.37    8.49
   4  13  10  287.10    8.21
   4  13  11    0.44    2.61
   4  13  11    2.11    2.66
   4  13  12   -3.11    3.16
   4  13  12    0.39    3.16
   4  13  13  287.54    9.16
   4  13  13  279.49    8.88
   4  13  14    2.89    3.88
   4  13  14    7.93    3.94
   4  13  15  181.00    6.99
   4  13  15  187.66    7.60
   4  13  16  196.93    8.32
   4  13  16  197.54    7.60
   4  13  17  527.42   15.76
   4  13  17  530.91   15.26
   4  13  18  174.40    7.66
   4  13  18  167.96    7.93
  -4 -14   6    1.78    5.27
  -4 -14   6    0.39    6.27
  -4 -14   5   17.92    5.55
  -4 -14   5   16.81    4.49
  -4 -14   4   99.32    4.94
  -4 -14   4   85.01    5.44
  -4 -14   3   36.57    3.83
  -4 -14   3   45.17    3.22
   4  14  11    8.49    2.39
   4  14  11   10.60    2.39
   4  14  12   16.20    3.05
   4  14  12    8.60    3.11
   4  14  13  191.60    6.71
   4  14  13  182.83    6.83
   4  14  14   31.63    4.38
   4  14  14   37.01    4.72
   4  14  15  156.75    6.71
   4  14  15  149.87    7.16
   4  14  16  198.32    8.05
   4  14  16  184.67    8.10
   4  14  17  286.60   10.49
   4  14  17  300.03   10.43
   4  15  13   54.32    4.11
   4  15  13   56.88    3.72
   4  15  14  154.42    6.77
   4  15  14  170.35    6.38
   4  15  15  289.43    9.99
   4  15  15  306.68    9.99
   4  15  16  312.29   11.15
   4  15  16  313.51   10.76
   4  16  14   27.36    3.38
   4  16  14   24.53    3.88
  -5  14   8   91.06    8.16
  -5  14   7  167.52    8.93
   5 -14  -7  166.69    8.99
  -5  14   6   25.19    7.21
  -5  13  12   63.48    5.49
   5 -13 -12   51.77    6.44
  -5  13  11   23.80    5.10
   5 -13 -11   36.84    5.72
  -5  13  10  133.12    6.55
   5 -13 -10  151.15    7.21
  -5  13   9   65.37    5.22
   5 -13  -9   62.70    5.38
  -5  13   8  325.27   10.54
   5 -13  -8  318.73   10.65
  -5  13   7  170.52    7.32
   5 -13  -7  187.00    7.93
  -5  13   6   49.94    5.22
   5 -13  -6   52.05    5.44
  -5  13   5  132.78    6.60
   5 -13  -5  143.22    7.10
  -5  13   4   70.25    5.66
   5 -13  -4   72.36    5.88
  -5  13   3  223.40    8.82
   5 -13  -3  226.61    8.93
   5 -13  -2    5.83    5.38
   5 -13  -2    6.88    6.44
  -5  12  14   -0.22    4.61
   5 -12 -14   12.93    5.33
  -5  12  13   42.78    5.05
   5 -12 -13   44.89    5.16
  -5  12  12  111.70    5.88
   5 -12 -12  112.53    6.38
  -5  12  11   69.36    4.99
   5 -12 -11   80.90    5.77
  -5  12  10  258.85    8.77
   5 -12 -10  275.00    9.38
  -5  12   9   -0.17    3.94
   5 -12  -9   -1.50    4.05
  -5  12   8  491.68   14.21
   5 -12  -8  473.87   13.87
  -5  12   7  100.10    5.33
   5 -12  -7  130.56    6.10
  -5  12   6  549.06   15.65
   5 -12  -6  570.98   16.26
  -5  12   5   15.48    4.16
   5 -12  -5   22.86    4.44
  -5  12   4   50.55    4.77
   5 -12  -4   43.67    4.83
  -5  12   3  260.02    8.88
   5 -12  -3  260.02    9.16
  -5  12   2  181.17    7.32
   5 -12  -2  173.18    7.27
   5 -12  -1   64.81    5.38
   5 -12  -1   76.02    6.38
   5 -12   0    0.61    4.94
   5 -12   0   -1.44    5.94
   5 -12   1   -5.05    5.27
   5 -12   1   -3.33    7.66
   5 -12   2    3.50   15.31
   5 -12   2   23.14    6.33
  -5  11  15  142.72    6.77
   5 -11 -15  138.22    6.88
  -5  11  14    7.44    4.33
   5 -11 -14    6.77    5.05
  -5  11  13  114.58    5.83
   5 -11 -13  135.23    7.05
  -5  11  12   10.93    4.00
   5 -11 -12   15.43    4.55
  -5  11  11  297.92    9.71
   5 -11 -11  299.64   10.04
  -5  11  10  229.17    8.05
   5 -11 -10  250.47    8.77
  -5  11   9  118.86    5.66
   5 -11  -9  124.40    6.05
  -5  11   8  695.27   19.09
   5 -11  -8  669.19   18.64
  -5  11   7   14.37    3.50
   5 -11  -7   12.82    4.00
  -5  11   6  552.50   15.48
   5 -11  -6  560.99   15.93
  -5  11   5   42.56    4.05
   5 -11  -5   37.62    4.33
  -5  11   4  172.35    6.83
   5 -11  -4  178.95    6.94
  -5  11   3  155.09    6.21
   5 -11  -3  158.47    6.88
  -5  11   2   22.86    4.00
   5 -11  -2   18.70    3.94
  -5  11   1   -2.39    4.05
   5 -11  -1    2.66    3.88
   5 -11   0    2.11    3.94
   5 -11   1  161.14    7.16
   5 -11   1  164.58    7.71
   5 -11   2   -2.28    4.94
   5 -11   2    2.16    5.33
  -5  10  16  104.87    6.21
   5 -10 -16   86.28    6.10
  -5  10  15   74.91    5.44
   5 -10 -15   78.46    5.66
  -5  10  14  112.36    5.94
   5 -10 -14  131.90    6.83
  -5  10  13  164.97    6.99
   5 -10 -13  148.82    6.77
  -5  10  12   31.02    4.22
   5 -10 -12   43.78    4.77
  -5  10  11   87.45    5.27
   5 -10 -11   88.56    5.33
  -5  10  10  190.38    7.44
   5 -10 -10  174.62    6.88
  -5  10   9  452.29   13.21
   5 -10  -9  480.31   13.98
  -5  10   8   67.70    4.49
   5 -10  -8   66.92    4.66
  -5  10   7  629.79   17.59
   5 -10  -7  640.89   17.81
  -5  10   6  141.50    6.05
   5 -10  -6  167.46    6.66
  -5  10   5   46.78    3.94
   5 -10  -5   46.83    4.22
  -5  10   4  121.08    5.66
   5 -10  -4  123.02    5.72
  -5  10   3  174.84    6.88
   5 -10  -3  177.45    6.88
  -5  10   2   -2.22    3.77
   5 -10  -2    0.83    3.33
  -5  10   1   -1.50    3.33
   5 -10  -1    9.16    3.55
  -5  10   0    8.71    3.94
   5 -10   0   13.26    4.00
   5 -10   1  112.64    5.83
   5 -10   2   26.52    4.88
   5 -10   2   21.81    4.99
   5 -10   3  523.98   15.48
   5 -10   3  533.46   15.87
   5 -10   4    6.27    4.88
   5 -10   4    5.44    5.94
   5 -10   6    0.44   10.82
  -5   9  17    7.38    4.55
   5  -9 -17   13.59    5.33
  -5   9  16   94.50    5.77
   5  -9 -16  109.26    6.27
  -5   9  15   24.64    4.55
   5  -9 -15   24.14    4.44
  -5   9  14    5.72    4.27
   5  -9 -14    5.94    4.16
  -5   9  13  321.94   10.32
   5  -9 -13  327.16   10.49
  -5   9  12  134.45    5.99
   5  -9 -12  131.51    6.05
  -5   9  11  182.78    7.10
   5  -9 -11  187.94    7.10
  -5   9  10  467.10   13.71
   5  -9 -10  457.11   13.48
  -5   9   9    3.27    3.61
   5  -9  -9   15.81    3.66
  -5   9   8  406.12   11.93
   5  -9  -8  417.99   12.37
  -5   9   7   31.74    3.44
   5  -9  -7   37.23    4.11
  -5   9   6  638.67   17.65
   5  -9  -6  636.45   17.70
  -5   9   5  320.61   10.04
   5  -9  -5  314.06    9.88
  -5   9   4  123.24    5.49
   5  -9  -4  131.06    5.77
  -5   9   3  250.20    8.49
   5  -9  -3  236.21    8.05
  -5   9   2  130.79    5.72
   5  -9  -2  119.58    5.44
  -5   9   1    5.66    3.55
   5  -9  -1   -1.00    3.27
  -5   9   0  169.18    6.60
   5  -9   0  171.13    6.99
  -5   9  -1   43.45    4.33
   5  -9   1   51.88    4.49
   5  -9   2   98.60    5.66
   5  -9   3  228.39    8.60
   5  -9   3  227.28    8.43
   5  -9   4  269.17    9.43
   5  -9   4  279.16    9.65
   5  -9   5  154.81    7.55
   5  -9   5  175.40    7.66
   5  -9   6  441.58   13.82
   5  -9   6  472.32   14.65
  -5   8  17  113.92    5.94
   5  -8 -17  106.32    6.27
  -5   8  16   55.04    4.83
   5  -8 -16   44.17    5.16
  -5   8  15  315.06   10.15
   5  -8 -15  317.56   10.38
  -5   8  14   30.74    4.44
   5  -8 -14   28.96    4.49
  -5   8  13  414.28   12.43
   5  -8 -13  420.88   12.71
  -5   8  12  138.83    5.99
   5  -8 -12  134.45    6.05
  -5   8  11  321.94    9.93
   5  -8 -11  308.85   10.04
  -5   8  10  229.39    8.05
   5  -8 -10  213.08    7.77
  -5   8   9   75.46    4.61
   5  -8  -9   79.02    4.77
  -5   8   8 1052.06   27.97
   5  -8  -8 1049.84   27.91
  -5   8   7  101.04    5.38
   5  -8  -7  107.04    5.33
  -5   8   6  836.76   22.58
   5  -8  -6  818.45   22.20
  -5   8   5  721.90   19.86
   5  -8  -5  699.15   19.20
  -5   8   4  249.20    8.49
   5  -8  -4  253.86    8.43
  -5   8   3   -4.88    2.89
   5  -8  -3    3.55    3.33
  -5   8   2  227.22    7.71
   5  -8  -2  215.63    7.60
  -5   8   1    2.05    3.11
   5  -8  -1    3.94    3.44
  -5   8   0  239.82    7.93
   5  -8   0  242.26    8.43
  -5   8  -1   83.12    4.49
   5  -8   1   81.62    4.88
  -5   8  -2  111.86    5.60
   5  -8   2  128.23    6.05
   5  -8   3  259.30    8.93
   5  -8   4  253.14    8.82
   5  -8   4  238.38    8.71
   5  -8   5  580.96   16.87
   5  -8   5  577.63   16.59
   5  -8   6 1005.45   27.24
   5  -8   6 1036.52   27.74
   5  -8   7   49.38    5.27
   5  -8   7   49.33    5.33
   5  -8   8  264.29    9.88
   5  -8   8  267.68    9.82
  -5   7  18   26.91    5.55
  -5   7  17   75.63    5.33
   5  -7 -17   96.49    6.05
  -5   7  16   12.82    4.16
   5  -7 -16    5.55    4.49
  -5   7  15  124.79    5.99
   5  -7 -15  117.86    6.05
  -5   7  14   28.85    4.11
   5  -7 -14   25.25    4.27
  -5   7  13  320.22   10.10
   5  -7 -13  315.34   10.27
  -5   7  12  228.33    8.05
   5  -7 -12  200.48    7.44
  -5   7  11  456.50   13.37
   5  -7 -11  473.04   14.04
  -5   7  10   88.95    4.49
   5  -7 -10  100.99    5.16
  -5   7   9  323.39   10.04
   5  -7  -9  339.31   10.71
  -5   7   8  369.11   11.10
   5  -7  -8  343.03   10.76
  -5   7   7  721.90   19.48
   5  -7  -7  764.63   21.03
  -5   7   6    3.50    3.16
   5  -7  -6    0.22    3.55
  -5   7   5 3644.47   91.72
   5  -7  -5 3615.62   91.33
  -5   7   4  211.02    7.16
   5  -7  -4  199.20    7.21
  -5   7   3   53.27    3.77
   5  -7  -3   52.38    3.94
  -5   7   2   42.50    3.50
   5  -7  -2   41.89    3.88
  -5   7   1  390.19   11.65
   5  -7  -1  372.88   11.60
  -5   7   0  361.78   10.99
   5  -7   0  350.85   10.88
  -5   7  -1 1000.45   26.80
   5  -7   1 1001.01   26.86
  -5   7  -2   51.77    4.38
   5  -7   2   47.94    4.38
  -5   7  -3  622.02   17.59
   5  -7   3  637.01   17.98
   5  -7   4   54.10    4.72
   5  -7   4   49.66    4.61
   5  -7   5 1005.45   26.86
   5  -7   5 1004.89   26.97
   5  -7   6  280.33    9.77
   5  -7   6  258.96    9.10
   5  -7   7  325.49   10.93
   5  -7   7  323.00   10.54
   5  -7   8  232.61    8.82
   5  -7   8  234.88    8.88
   5  -7   9    0.50    5.10
   5  -7   9   -3.27    4.94
   5  -7  10   98.55    7.32
   5  -7  10  100.32    6.83
  -5   6  18   40.89    5.05
   5  -6 -18   47.39    5.16
  -5   6  17   15.87    4.33
   5  -6 -17   27.97    4.38
  -5   6  16   58.76    4.99
   5  -6 -16   57.21    5.16
  -5   6  15    4.22    3.77
   5  -6 -15    7.66    4.05
  -5   6  14  260.35    9.04
   5  -6 -14  262.74    9.21
  -5   6  13  749.09   20.75
   5  -6 -13  746.32   20.59
  -5   6  12   22.03    3.77
   5  -6 -12   15.20    3.72
  -5   6  11  951.07   25.75
   5  -6 -11  943.86   25.36
  -5   6  10  148.26    6.60
   5  -6 -10  141.83    6.27
  -5   6   9  872.28   23.80
   5  -6  -9  902.24   24.41
  -5   6   8  544.84   15.70
   5  -6  -8  555.44   15.93
  -5   6   7  568.76   16.48
   5  -6  -7  567.09   16.04
  -5   6   6  234.27    8.21
   5  -6  -6  248.59    8.43
  -5   6   5   46.22    3.83
   5  -6  -5   45.72    3.83
  -5   6   4   -0.28    2.94
   5  -6  -4    1.94    3.00
  -5   6   3  102.04    4.99
   5  -6  -3  100.60    5.05
  -5   6   2  500.28   14.48
   5  -6  -2  508.61   14.59
  -5   6   1    2.33    3.00
   5  -6  -1    3.44    3.33
  -5   6   0  191.55    7.16
   5  -6   0  193.21    7.16
  -5   6  -1  294.25    9.60
   5  -6   1  266.90    9.04
  -5   6  -2  314.12    9.82
   5  -6   2  321.44   10.38
  -5   6  -3  986.58   26.30
   5  -6   3  961.61   25.91
  -5   6  -4  202.26    7.27
   5  -6   4  202.81    7.77
   5  -6   5  825.67   22.64
   5  -6   5  861.18   23.47
   5  -6   6   12.48    3.94
   5  -6   6   10.93    4.05
   5  -6   7  650.32   18.42
   5  -6   7  665.31   18.70
   5  -6   9  226.28    8.82
   5  -6   9  249.42    9.27
   5  -6  10    1.33    4.66
   5  -6  10   -4.00    4.88
   5  -6  11   -0.78    5.44
   5  -6  11    2.77    4.99
  -5   5  18   23.64    4.94
   5  -5 -18   31.96    4.49
  -5   5  17   13.48    4.16
   5  -5 -17   23.47    4.33
  -5   5  16  169.07    6.99
   5  -5 -16  169.13    7.16
  -5   5  15  397.24   12.21
   5  -5 -15  403.18   12.37
  -5   5  14  257.97    8.82
   5  -5 -14  240.60    8.66
  -5   5  13  443.35   12.98
   5  -5 -13  445.79   13.32
  -5   5  12  434.75   12.76
   5  -5 -12  442.74   13.21
  -5   5  11  690.83   18.87
   5  -5 -11  776.84   21.31
  -5   5  10  917.78   24.53
   5  -5 -10  947.74   25.52
  -5   5   9  270.01    8.60
   5  -5  -9  275.17    9.21
  -5   5   8  493.07   14.04
   5  -5  -8  499.23   14.48
  -5   5   7  135.61    5.55
   5  -5  -7  142.61    6.05
  -5   5   6  917.78   24.41
   5  -5  -6  928.32   24.97
  -5   5   5   13.76    2.94
   5  -5  -5   14.26    3.44
  -5   5   4   29.96    3.27
   5  -5  -4   35.73    3.55
  -5   5   3    7.66    2.72
   5  -5  -3    9.49    2.89
  -5   5   2  243.21    8.16
   5  -5  -2  237.77    8.10
  -5   5   1    2.00    2.77
   5  -5  -1    4.49    2.77
  -5   5   0 1524.27   39.56
   5  -5   0 1531.48   39.73
  -5   5  -1  370.72   11.54
   5  -5   1  354.63   10.99
  -5   5  -2  379.60   12.04
   5  -5   2  349.41   10.93
  -5   5  -3  425.48   12.82
   5  -5   3  438.69   13.26
  -5   5  -4 1121.97   30.02
   5  -5   4 1130.30   30.07
  -5   5  -5  537.13   15.81
   5  -5   5  489.13   14.43
   5  -5   6   15.37    3.88
   5  -5   6   20.14    4.16
   5  -5   7  363.56   11.54
   5  -5   7  397.57   12.26
   5  -5   8    4.11    4.05
   5  -5   8    2.66    3.88
   5  -5   9  256.41    9.27
   5  -5   9  237.66    8.71
   5  -5  10   56.49    5.55
   5  -5  10   54.55    5.55
   5  -5  11   14.32    4.72
   5  -5  11   17.26    4.94
   5  -5  12    0.33    5.44
   5  -5  12    4.11    4.99
  -5   4  18  156.98    6.66
   5  -4 -18  151.76    6.88
  -5   4  17   75.58    4.99
   5  -4 -17   81.90    5.49
  -5   4  16    3.33    3.94
   5  -4 -16   17.81    4.22
  -5   4  15  749.65   20.42
   5  -4 -15  750.76   20.70
  -5   4  14  114.25    5.94
   5  -4 -14  113.64    5.72
  -5   4  13 1423.83   37.34
   5  -4 -13 1344.48   35.24
  -5   4  12   23.31    4.05
   5  -4 -12   32.41    4.27
  -5   4  11 1200.77   31.91
   5  -4 -11 1206.87   31.91
  -5   4  10 1674.08   43.56
   5  -4 -10 1676.86   43.56
  -5   4   9  327.33   10.49
   5  -4  -9  325.11   10.32
  -5   4   8  485.69   14.21
   5  -4  -8  490.24   14.32
  -5   4   7   14.37    3.05
   5  -4  -7   13.26    3.61
  -5   4   6  548.39   15.59
   5  -4  -6  552.44   15.70
  -5   4   5   57.43    4.00
   5  -4  -5   62.31    4.11
  -5   4   4  200.20    7.21
   5  -4  -4  193.77    7.05
  -5   4   3    3.55    2.94
   5  -4  -3    1.83    2.66
  -5   4   2  242.98    8.05
   5  -4  -2  280.11    9.04
  -5   4   1  406.67   11.99
   5  -4  -1  418.05   12.37
  -5   4   0  366.61   11.10
   5  -4   0  365.78   11.15
  -5   4  -1  396.46   11.60
   5  -4   1  399.02   11.99
  -5   4  -2  554.22   15.48
   5  -4   2  524.09   15.04
  -5   4  -3 1669.64   43.11
   5  -4   3 1723.47   44.72
  -5   4  -4  433.92   12.60
   5  -4   4  473.54   14.09
  -5   4  -5  480.97   14.04
   5  -4   5  464.27   13.82
   5  -4   6   92.44    5.27
   5  -4   6  102.21    5.77
   5  -4   7  683.06   19.09
   5  -4   7  686.95   19.31
   5  -4   8   39.62    4.49
   5  -4   8   49.44    4.55
   5  -4   9   33.02    4.77
   5  -4   9   35.01    4.61
   5  -4  10  349.41   11.38
   5  -4  10  368.89   11.82
   5  -4  11    5.44    4.38
   5  -4  11    3.22    4.05
   5  -4  12   63.92    5.44
   5  -4  12   67.53    5.55
   5  -4  13   19.98    5.27
   5  -4  13   24.75    4.49
  -5   3  18  241.87    8.82
   5  -3 -18  229.00    8.43
  -5   3  17  205.08    7.49
   5  -3 -17  200.26    7.77
  -5   3  16  479.36   14.09
   5  -3 -16  491.90   14.43
  -5   3  15  582.07   16.76
   5  -3 -15  563.21   16.20
  -5   3  14  145.55    6.33
   5  -3 -14  150.32    6.83
  -5   3  13  742.43   20.25
   5  -3 -13  754.64   20.81
  -5   3  12  488.85   13.98
   5  -3 -12  486.69   14.43
  -5   3  11 2645.68   67.25
   5  -3 -11 2747.78   69.97
  -5   3  10  418.44   12.60
   5  -3 -10  418.44   12.65
  -5   3   9   67.86    4.38
   5  -3  -9   70.41    4.44
  -5   3   8  125.18    5.55
   5  -3  -8  123.57    5.72
  -5   3   7   40.67    3.66
   5  -3  -7   41.62    3.94
  -5   3   6   30.96    3.50
   5  -3  -6   30.69    3.50
  -5   3   5  363.12   11.26
   5  -3  -5  360.62   10.99
  -5   3   4   99.44    4.94
   5  -3  -4   96.27    4.77
  -5   3   3   12.37    3.00
   5  -3  -3    9.04    2.83
  -5   3   2 1123.08   29.74
   5  -3  -2 1129.74   29.80
  -5   3   1   34.85    3.83
   5  -3  -1   34.18    3.61
  -5   3   0  523.42   15.31
   5  -3   0  525.14   14.93
  -5   3  -1 1525.93   39.95
   5  -3   1 1493.19   38.73
  -5   3  -2  602.05   17.15
   5  -3   2  603.16   16.92
  -5   3  -3 2855.99   72.69
   5  -3   3 2853.77   72.52
  -5   3  -4   -1.55    3.16
   5  -3   4    7.05    3.00
  -5   3  -5 2366.58   60.65
   5  -3   5 2394.88   61.26
  -5   3  -6   -0.50    3.55
   5  -3   6    5.94    3.66
   5  -3   7  853.41   23.42
   5  -3   7  819.01   22.53
   5  -3   8    9.60    3.77
   5  -3   8    9.27    3.88
   5  -3   9  180.34    7.49
   5  -3   9  201.26    7.71
   5  -3  10  369.11   11.82
   5  -3  10  354.63   11.43
   5  -3  11   42.50    4.88
   5  -3  11   48.39    4.94
   5  -3  12   44.17    4.99
   5  -3  12   35.40    4.61
   5  -3  13  367.83   11.54
   5  -3  13  385.42   12.15
  -5   2  18  290.48    9.93
   5  -2 -18  286.26    9.77
  -5   2  17  185.77    7.82
   5  -2 -17  198.98    7.66
  -5   2  16 1166.92   30.69
   5  -2 -16 1204.65   31.74
  -5   2  15  177.67    7.27
   5  -2 -15  190.38    7.38
  -5   2  14  307.02    9.88
   5  -2 -14  302.41    9.77
  -5   2  13  629.24   17.92
   5  -2 -13  632.01   17.92
  -5   2  12  590.40   16.87
   5  -2 -12  621.47   17.59
  -5   2  11  896.14   24.41
   5  -2 -11  827.89   22.58
  -5   2  10  373.21   11.65
   5  -2 -10  379.54   11.76
  -5   2   9    9.54    3.44
   5  -2  -9    7.27    3.16
  -5   2   8  875.05   23.69
   5  -2  -8  915.56   24.86
  -5   2   7  200.70    7.16
   5  -2  -7  201.76    7.44
  -5   2   6    8.05    2.94
   5  -2  -6    9.49    3.27
  -5   2   5   25.86    3.22
   5  -2  -5   19.92    3.33
  -5   2   4   28.74    3.22
   5  -2  -4   35.01    3.55
  -5   2   3   56.88    3.50
   5  -2  -3   70.36    4.38
  -5   2   2 3394.22   85.51
   5  -2  -2 3571.78   90.17
  -5   2   1  643.11   17.53
   5  -2  -1  618.70   17.26
  -5   2   0  651.99   17.76
   5  -2   0  669.19   18.48
  -5   2  -1  497.68   14.15
   5  -2   1  490.74   14.09
  -5   2  -2 1981.49   50.83
   5  -2   2 1996.47   51.22
  -5   2  -3 1247.38   32.79
   5  -2   3 1275.12   33.51
  -5   2  -4  477.20   13.82
   5  -2   4  453.56   13.32
  -5   2  -5 2238.95   57.32
   5  -2   5 2085.81   53.49
  -5   2  -6  883.37   23.97
   5  -2   6  840.09   22.97
   5  -2   7  164.97    6.94
   5  -2   7  154.65    6.49
   5  -2   8  526.97   15.37
   5  -2   8  518.54   15.31
   5  -2   9    4.55    3.94
   5  -2   9    9.27    4.00
   5  -2  10    4.88    3.94
   5  -2  10    6.44    4.16
   5  -2  11   31.96    4.61
   5  -2  11   29.46    4.33
   5  -2  12    1.66    4.61
   5  -2  12   -3.72    4.11
   5  -2  13   34.85    4.88
   5  -2  13   26.58    5.05
   5  -2  14  134.84    6.71
   5  -2  14  139.05    6.66
  -5   1  18  121.08    6.33
   5  -1 -18  127.96    6.77
  -5   1  17  124.57    6.33
   5  -1 -17  133.45    6.44
  -5   1  16  472.26   14.09
   5  -1 -16  462.83   13.71
  -5   1  15  820.67   22.25
   5  -1 -15  829.00   22.58
  -5   1  14  103.21    5.83
   5  -1 -14  110.03    5.66
  -5   1  13 1823.35   47.00
   5  -1 -13 1884.94   48.66
  -5   1  12  103.10    5.38
   5  -1 -12  105.09    5.55
  -5   1  11  342.70   10.88
   5  -1 -11  346.36   10.99
  -5   1  10  883.93   23.86
   5  -1 -10  888.37   24.03
  -5   1   9  204.14    7.55
   5  -1  -9  220.51    7.88
  -5   1   8  112.53    5.33
   5  -1  -8  111.20    5.44
  -5   1   7  226.28    7.71
   5  -1  -7  233.99    8.27
  -5   1   6  336.93   10.43
   5  -1  -6  333.60   10.54
  -5   1   5  846.20   22.97
   5  -1  -5  846.75   22.86
  -5   1   4  600.94   16.70
   5  -1  -4  580.41   16.31
  -5   1   3  112.03    4.99
   5  -1  -3  102.82    4.88
  -5   1   2  359.73   10.93
   5  -1  -2  349.41   10.60
  -5   1   1  602.60   16.87
   5  -1  -1  603.16   16.87
  -5   1   0 4708.74  118.30
   5  -1   0 4632.17  116.41
  -5   1  -1  614.26   17.15
   5  -1   1  589.29   16.42
  -5   1  -2 5094.94  127.90
   5  -1   2 5178.17  129.90
  -5   1  -3  228.67    8.05
   5  -1   3  243.54    8.27
  -5   1  -4 3477.45   88.00
   5  -1   4 3449.16   87.28
  -5   1  -5  251.53    8.55
   5  -1   5  264.96    8.93
  -5   1  -6  607.60   17.15
   5  -1   6  603.71   17.15
  -5   1  -7 1117.54   30.02
   5  -1   7  973.82   26.30
   5  -1   8   15.20    3.94
   5  -1   8   14.59    4.16
   5  -1   9  266.84    9.32
   5  -1   9  267.79    9.43
   5  -1  10   11.43    3.88
   5  -1  10   13.76    4.49
   5  -1  11    3.33    3.77
   5  -1  11    4.77    3.83
   5  -1  12    7.82    4.27
   5  -1  12   13.48    4.49
   5  -1  13  239.10    8.82
   5  -1  13  244.81    8.60
   5  -1  14   49.88    5.60
   5  -1  14   68.86    5.33
   5  -1  15  151.15    7.21
   5  -1  15  151.76    6.83
  -5   0  17   74.41    5.88
   5   0 -17   76.30    5.27
  -5   0  16  306.91   10.38
   5   0 -16  312.62   10.32
  -5   0  15  613.15   17.42
   5   0 -15  625.35   17.70
  -5   0  14  588.18   16.81
   5   0 -14  580.41   16.54
  -5   0  13 2227.30   57.15
   5   0 -13 2161.27   55.38
  -5   0  12   71.19    5.10
   5   0 -12   74.91    4.88
  -5   0  11  445.85   13.54
   5   0 -11  446.85   13.48
  -5   0  10  351.57   11.26
   5   0 -10  363.73   11.38
  -5   0   9  460.50   13.71
   5   0  -9  468.93   13.98
  -5   0   8   99.77    5.44
   5   0  -8  121.74    5.60
  -5   0   7    1.94    3.27
   5   0  -7   -2.16    3.27
  -5   0   6  231.05    8.05
   5   0  -6  233.55    8.10
  -5   0   5  285.15    9.21
   5   0  -5  289.54    9.32
  -5   0   4  142.22    5.66
   5   0  -4  153.43    6.21
  -5   0   3 2425.40   61.65
   5   0  -3 2439.27   62.20
  -5   0   2 2063.61   52.77
   5   0  -2 2141.30   54.77
  -5   0   1 1944.87   49.83
   5   0  -1 1960.40   50.27
  -5   0   0  903.91   24.08
   5   0   0  927.21   24.75
  -5   0  -1 1954.30   50.05
   5   0   1 1928.22   49.50
  -5   0  -2 3746.57   94.33
   5   0   2 3543.49   89.50
  -5   0  -3 2295.00   58.54
   5   0   3 2275.02   58.10
  -5   0  -4 3107.90   78.74
   5   0   4 2996.37   76.02
  -5   0  -5 1144.17   30.13
   5   0   5 1128.08   29.91
  -5   0  -6   22.97    3.83
   5   0   6   24.58    3.50
  -5   0  -7  129.01    5.99
   5   0   7  143.83    6.33
   5   0   8   -1.44    3.72
   5   0   8   -0.89    3.55
   5   0   9  109.31    5.77
   5   0   9  101.88    5.44
   5   0  10   10.99    4.00
   5   0  10   18.42    4.00
   5   0  11  307.96   10.21
   5   0  11  301.36   10.27
   5   0  12    0.33    4.05
   5   0  12   -5.49    4.05
   5   0  13  574.30   16.37
   5   0  13  600.38   17.09
   5   0  14  102.54    6.16
   5   0  14  114.75    6.33
   5   0  15  535.07   15.37
   5   0  15  537.63   15.70
   5   0  16  162.91    6.71
   5   0  16  144.44    7.55
  -5  -1  17    5.10    4.55
   5   1 -17    4.94    4.16
  -5  -1  16  421.99   13.15
   5   1 -16  426.04   12.93
  -5  -1  15  246.20    9.10
   5   1 -15  214.74    7.93
  -5  -1  14  767.40   21.03
   5   1 -14  790.15   21.64
  -5  -1  13  320.33   10.65
   5   1 -13  329.10   10.38
  -5  -1  12  922.22   25.08
   5   1 -12  910.01   24.86
  -5  -1  11  473.59   13.98
   5   1 -11  492.02   14.48
  -5  -1  10    5.77    3.55
   5   1 -10    3.50    3.38
  -5  -1   9   61.20    4.55
   5   1  -9   56.21    4.49
  -5  -1   8  557.66   15.98
   5   1  -8  560.43   16.15
  -5  -1   7   12.93    3.27
   5   1  -7   16.42    3.55
  -5  -1   6    3.88    2.89
   5   1  -6    0.33    3.16
  -5  -1   5  233.88    7.93
   5   1  -5  228.61    8.10
  -5  -1   4  818.45   22.08
   5   1  -4  852.30   23.08
  -5  -1   3 1236.28   32.29
   5   1  -3 1211.87   31.85
  -5  -1   2 1605.28   41.39
   5   1  -2 1649.11   42.62
  -5  -1   1 2664.55   67.70
   5   1  -1 2642.36   67.14
  -5  -1   0 2854.32   72.30
   5   1   0 2973.07   75.30
  -5  -1  -1 2356.04   60.04
   5   1   1 2368.24   60.43
  -5  -1  -2 3818.15   96.22
   5   1   2 3972.41  100.10
  -5  -1  -3 3379.80   85.29
   5   1   3 3367.03   85.17
  -5  -1  -4  504.94   14.65
   5   1   4  480.75   14.04
  -5  -1  -5 1111.43   29.52
   5   1   5 1081.47   28.74
  -5  -1  -6  568.76   16.31
   5   1   6  542.51   15.59
  -5  -1  -7  694.71   19.53
   5   1   7  701.37   19.48
   5   1   8    1.33    3.33
   5   1   8    4.33    3.50
   5   1   9   70.58    5.27
   5   1   9   72.30    5.22
   5   1  10    2.72    3.72
   5   1  10    0.55    3.55
   5   1  11  485.02   14.37
   5   1  11  481.31   14.48
   5   1  12  252.47    9.04
   5   1  12  254.36    8.93
   5   1  13 1292.32   34.18
   5   1  13 1280.12   33.57
   5   1  14  446.18   13.71
   5   1  14  462.33   13.71
   5   1  15  223.90    8.66
   5   1  15  231.66    8.66
   5   1  16  187.55    7.77
   5   1  16  196.93    7.71
  -5  -2  17   15.76    5.38
   5   2 -17   15.65    4.61
  -5  -2  16  496.29   14.76
   5   2 -16  503.83   14.65
  -5  -2  15  120.02    6.38
   5   2 -15  134.61    6.33
  -5  -2  14 1406.07   36.79
   5   2 -14 1440.48   37.51
  -5  -2  13  457.28   13.65
   5   2 -13  462.77   13.65
  -5  -2  12  550.50   15.76
   5   2 -12  574.86   16.48
  -5  -2  11    4.66    4.11
   5   2 -11    8.05    3.55
  -5  -2  10   32.96    4.27
   5   2 -10   26.75    3.72
  -5  -2   9  221.18    8.21
   5   2  -9  211.24    8.05
  -5  -2   8   65.37    4.61
   5   2  -8   65.53    4.55
  -5  -2   7   30.57    3.61
   5   2  -7   32.68    3.72
  -5  -2   6  178.06    6.71
   5   2  -6  194.60    7.44
  -5  -2   5  151.43    5.94
   5   2  -5  175.29    6.77
  -5  -2   4 3435.84   86.78
   5   2  -4 3458.59   87.39
  -5  -2   3 1398.86   36.40
   5   2  -3 1404.41   36.57
  -5  -2   2 3013.02   76.30
   5   2  -2 2996.37   75.91
  -5  -2   1  979.37   25.97
   5   2  -1  962.72   25.58
  -5  -2   0 3502.98   88.39
   5   2   0 3469.69   87.62
  -5  -2  -1 1838.88   47.28
   5   2   1 1815.58   46.67
  -5  -2  -2 7507.57  187.50
   5   2   2 7435.44  185.77
  -5  -2  -3  157.25    6.05
   5   2   3  165.13    6.27
  -5  -2  -4 1348.92   35.12
   5   2   4 1297.32   33.96
  -5  -2  -5    2.22    3.00
   5   2   5    5.10    3.00
  -5  -2  -6  131.84    5.72
   5   2   6  130.84    5.72
  -5  -2  -7   11.43    3.50
   5   2   7    5.60    3.22
   5   2   8   23.08    3.88
   5   2   8   25.03    3.50
   5   2   9  362.78   11.49
   5   2   9  381.26   11.93
   5   2  10  939.42   25.58
   5   2  10  929.43   25.14
   5   2  11  534.35   15.70
   5   2  11  511.33   14.82
   5   2  12  488.13   14.65
   5   2  12  481.64   14.09
   5   2  13  493.29   14.54
   5   2  13  483.75   14.32
   5   2  14  619.80   17.65
   5   2  14  617.03   17.53
   5   2  15  174.01    7.44
   5   2  15  171.46    7.16
   5   2  16  720.24   19.98
   5   2  16  720.79   19.86
   5   2  17   16.31    4.44
   5   2  17    9.54    4.94
  -5  -3  16  513.88   15.15
   5   3 -16  526.31   15.09
  -5  -3  15   93.50    5.94
   5   3 -15   90.22    5.60
  -5  -3  14  293.98   10.10
   5   3 -14  285.32    9.49
  -5  -3  13  561.54   16.04
   5   3 -13  562.65   15.98
  -5  -3  12  237.21    8.60
   5   3 -12  228.11    8.27
  -5  -3  11  491.63   14.59
   5   3 -11  468.38   13.93
  -5  -3  10  485.36   14.54
   5   3 -10  455.50   13.54
  -5  -3   9  352.74   11.26
   5   3  -9  369.83   11.43
  -5  -3   8   72.13    4.61
   5   3  -8   87.06    4.94
  -5  -3   7   30.24    3.61
   5   3  -7   28.13    3.66
  -5  -3   6    4.22    2.89
   5   3  -6    5.83    3.16
  -5  -3   5 2373.24   60.59
   5   3  -5 2394.32   61.04
  -5  -3   4   38.90    3.66
   5   3  -4   39.73    3.83
  -5  -3   3 6192.50  154.98
   5   3  -3 6225.79  155.92
  -5  -3   2  386.70   11.43
   5   3  -2  373.38   11.15
  -5  -3   1  940.53   24.97
   5   3  -1  938.31   24.86
  -5  -3   0 2564.12   65.03
   5   3   0 2680.09   67.86
  -5  -3  -1 2129.64   54.38
   5   3   1 2151.84   54.82
  -5  -3  -2 6813.97  170.40
   5   3   2 6592.02  164.69
  -5  -3  -3  240.82    7.99
   5   3   3  255.63    8.38
  -5  -3  -4   82.62    4.44
   5   3   4   96.11    4.72
  -5  -3  -5   -0.89    2.89
   5   3   5    0.78    2.55
  -5  -3  -6  445.85   13.15
   5   3   6  425.60   12.71
  -5  -3  -7  101.21    5.16
   5   3   7   82.23    4.72
   5   3   9    8.49    3.72
   5   3   9   -1.28    3.61
   5   3  10    2.33    3.61
   5   3  10    7.55    3.77
   5   3  11 2873.74   73.13
   5   3  11 2903.71   74.02
   5   3  12  632.57   18.03
   5   3  12  611.48   17.76
   5   3  13  475.98   14.04
   5   3  13  463.05   13.82
   5   3  14  364.39   11.60
   5   3  14  371.72   11.38
   5   3  15  299.03   10.04
   5   3  15  281.77    9.77
   5   3  16  549.17   15.93
   5   3  16  524.42   15.31
   5   3  17   17.87    4.88
   5   3  17   15.98    4.44
  -5  -4  16  496.90   14.87
   5   4 -16  466.99   13.87
  -5  -4  15  410.17   12.65
   5   4 -15  383.92   11.93
  -5  -4  14   81.51    5.60
   5   4 -14   82.34    5.05
  -5  -4  13  591.51   16.92
   5   4 -13  574.86   16.42
  -5  -4  12   25.86    4.27
   5   4 -12   21.47    4.00
  -5  -4  11  434.70   13.15
   5   4 -11  419.60   12.71
  -5  -4  10    1.50    3.55
   5   4 -10    1.33    3.38
  -5  -4   9    3.16    3.61
   5   4  -9    1.28    3.50
  -5  -4   8   25.97    3.94
   5   4  -8   25.52    3.72
  -5  -4   7  321.44   10.32
   5   4  -7  313.01   10.27
  -5  -4   6 2199.56   56.38
   5   4  -6 2211.21   56.71
  -5  -4   5 1363.35   35.57
   5   4  -5 1339.49   34.85
  -5  -4   4  309.79    9.77
   5   4  -4  299.08    9.54
  -5  -4   3 1893.26   48.55
   5   4  -3 1872.73   48.11
  -5  -4   2 1712.93   44.00
   5   4  -2 1744.00   44.83
  -5  -4   1   38.12    3.11
   5   4  -1   31.30    3.27
  -5  -4   0 3334.29   84.06
   5   4   0 3183.37   80.40
  -5  -4  -1  370.00   10.88
   5   4   1  379.10   11.26
  -5  -4  -2 1358.35   35.18
   5   4   2 1357.80   35.29
  -5  -4  -3  395.58   11.54
   5   4   3  391.64   11.49
  -5  -4  -4 1027.09   27.08
   5   4   4 1001.56   26.52
  -5  -4  -5   55.38    3.77
   5   4   5   51.88    3.88
  -5  -4  -6  284.71    9.16
   5   4   6  280.05    9.04
  -5  -4  -7   42.45    3.94
   5   4   7   38.79    3.66
   5   4   9  160.75    6.55
   5   4   9  184.39    7.10
   5   4  10   97.49    5.38
   5   4  10  105.43    5.55
   5   4  11  484.02   14.48
   5   4  11  489.35   14.32
   5   4  12   54.32    4.83
   5   4  12   71.30    4.66
   5   4  13 1595.29   41.51
   5   4  13 1507.06   39.01
   5   4  14  119.97    6.10
   5   4  14  129.12    6.16
   5   4  15  868.39   23.58
   5   4  15  877.27   23.75
   5   4  16  202.87    7.99
   5   4  16  210.91    8.10
   5   4  17  369.44   11.65
   5   4  17  355.35   10.82
  -5  -5  15   18.20    4.94
   5   5 -15   13.82    4.61
  -5  -5  14  885.59   24.14
   5   5 -14  842.87   23.03
  -5  -5  13   35.29    4.72
   5   5 -13   26.91    4.27
  -5  -5  12  138.00    6.38
   5   5 -12  145.16    6.10
  -5  -5  11   72.58    4.99
   5   5 -11   82.79    5.16
  -5  -5  10   30.13    4.00
   5   5 -10   28.85    3.94
  -5  -5   9   13.98    3.66
   5   5  -9   15.98    3.50
  -5  -5   8  690.28   19.25
   5   5  -8  701.37   19.64
  -5  -5   7   11.10    3.61
   5   5  -7   16.37    3.44
  -5  -5   6 1446.03   37.84
   5   5  -6 1417.73   36.96
  -5  -5   5  149.87    6.05
   5   5  -5  165.47    6.66
  -5  -5   4 2518.06   64.03
   5   5  -4 2600.74   66.25
  -5  -5   3   33.18    3.22
   5   5  -3   25.03    3.11
  -5  -5   2 2011.45   51.38
   5   5  -2 1955.41   49.94
  -5  -5   1 1169.69   30.46
   5   5  -1 1140.29   29.85
  -5  -5   0 4097.26  102.88
   5   5   0 4061.75  102.15
  -5  -5  -1   20.03    2.55
   5   5   1   15.98    2.77
  -5  -5  -2  503.50   14.04
   5   5   2  503.89   14.09
  -5  -5  -3  779.06   20.86
   5   5   3  784.61   20.97
  -5  -5  -4 1637.46   42.12
   5   5   4 1678.52   43.17
  -5  -5  -5   13.71    2.94
   5   5   5   13.21    2.72
  -5  -5  -6  976.59   25.97
   5   5   6 1017.66   27.13
  -5  -5  -7   79.85    4.49
   5   5   7   69.97    4.05
   5   5   8 1520.94   39.79
   5   5   8 1580.31   41.17
   5   5   9   70.53    4.77
   5   5   9   81.73    4.88
   5   5  10 1202.43   31.91
   5   5  10 1215.75   32.18
   5   5  11   41.01    4.38
   5   5  11   47.05    4.77
   5   5  12  124.74    6.49
   5   5  12  123.52    5.99
   5   5  13  870.61   23.69
   5   5  13  860.07   23.58
   5   5  14  307.02   10.21
   5   5  14  313.56   10.60
   5   5  15 1069.26   28.52
   5   5  15 1129.19   29.69
   5   5  16  365.45   11.65
   5   5  16  387.25   11.99
   5   5  17  458.33   13.93
   5   5  17  471.37   13.82
   5   5  18  300.30   10.38
   5   5  18  300.47    9.93
  -5  -6  14  698.04   19.53
   5   6 -14  709.70   19.70
  -5  -6  13   18.70    4.44
   5   6 -13   16.09    4.27
  -5  -6  12  211.13    7.82
   5   6 -12  198.43    7.44
  -5  -6  11   41.34    4.55
   5   6 -11   54.05    4.49
  -5  -6  10    1.44    3.61
   5   6 -10    4.66    3.44
  -5  -6   9  192.49    7.49
   5   6  -9  189.77    7.16
  -5  -6   8  822.89   22.53
   5   6  -8  836.76   22.69
  -5  -6   7   79.29    4.94
   5   6  -7   84.68    4.99
  -5  -6   6  514.04   14.82
   5   6  -6  505.67   14.59
  -5  -6   5  315.34    9.88
   5   6  -5  320.89    9.88
  -5  -6   4  797.92   21.58
   5   6  -4  794.04   21.31
  -5  -6   3 1259.59   32.85
   5   6  -3 1298.43   33.96
  -5  -6   2  888.37   23.58
   5   6  -2  929.43   24.80
  -5  -6   1 1274.01   33.13
   5   6  -1 1296.76   33.74
  -5  -6   0  383.31   11.15
   5   6   0  366.45   10.71
  -5  -6  -1   20.36    2.72
   5   6   1   17.15    2.66
  -5  -6  -2 2408.75   61.15
   5   6   2 2515.84   63.76
  -5  -6  -3   81.29    4.11
   5   6   3   81.07    3.94
  -5  -6  -4 1163.04   30.41
   5   6   4 1147.50   30.07
  -5  -6  -5   26.86    3.11
   5   6   5   25.69    3.05
  -5  -6  -6    7.49    2.77
   5   6   6    7.44    2.50
  -5  -6  -7    9.04    3.22
   5   6   7    8.55    2.89
   5   6   8  160.69    6.10
   5   6   8  148.10    6.05
   5   6   9  449.29   13.10
   5   6   9  414.17   12.48
   5   6  10 1537.03   40.06
   5   6  10 1561.44   40.34
   5   6  11  115.58    5.83
   5   6  11  102.43    5.10
   5   6  12  854.52   22.97
   5   6  12  806.25   22.20
   5   6  13  136.50    6.27
   5   6  13  142.11    5.99
   5   6  14  490.79   14.70
   5   6  14  529.69   15.04
   5   6  16 1154.71   30.80
   5   6  16 1119.75   29.69
   5   6  17  152.20    6.94
   5   6  17  164.80    6.77
   5   6  18  470.15   14.32
   5   6  18  513.38   14.76
  -5  -7  14   57.21    5.66
   5   7 -14   54.16    5.44
  -5  -7  13  175.12    7.60
   5   7 -13  186.61    7.49
  -5  -7  12   49.72    4.99
   5   7 -12   52.55    4.61
  -5  -7  11   42.28    4.44
   5   7 -11   47.44    4.33
  -5  -7  10   71.58    5.16
   5   7 -10   85.06    5.16
  -5  -7   9   15.20    3.83
   5   7  -9   14.43    3.61
  -5  -7   8  385.42   11.82
   5   7  -8  387.14   11.87
  -5  -7   7  640.89   18.09
   5   7  -7  619.25   17.20
  -5  -7   6   19.31    3.55
   5   7  -6   25.80    3.33
  -5  -7   5 2534.71   64.53
   5   7  -5 2417.63   61.65
  -5  -7   4  256.41    8.27
   5   7  -4  274.94    8.88
  -5  -7   3 1671.31   42.89
   5   7  -3 1683.52   43.28
  -5  -7   2  101.54    4.49
   5   7  -2  109.20    4.72
  -5  -7   1 3033.55   76.57
   5   7  -1 3084.60   77.74
  -5  -7   0  993.24   26.08
   5   7   0  979.37   25.69
  -5  -7  -1  317.78    9.38
   5   7   1  311.40    9.27
  -5  -7  -2 1471.55   37.84
   5   7   2 1414.40   36.40
  -5  -7  -3   36.12    2.94
   5   7   3   45.33    3.11
  -5  -7  -4  667.52   18.09
   5   7   4  664.20   17.87
  -5  -7  -5   36.79    3.16
   5   7   5   39.56    3.11
  -5  -7  -6   82.57    4.27
   5   7   6   80.29    4.27
  -5  -7  -7  259.08    8.49
   5   7   7  259.30    8.38
   5   7   8  635.90   17.53
   5   7   8  634.23   17.81
   5   7   9 1321.18   34.68
   5   7   9 1381.10   36.01
   5   7  10 1014.33   27.30
   5   7  10 1007.67   27.30
   5   7  11  508.88   14.82
   5   7  11  525.75   15.37
   5   7  12   99.32    5.44
   5   7  12   90.06    5.44
   5   7  13  638.12   17.98
   5   7  13  643.66   18.26
   5   7  14  116.80    6.05
   5   7  14  117.19    5.94
   5   7  15  787.38   21.64
   5   7  15  765.74   21.20
   5   7  16  534.46   15.65
   5   7  16  521.92   15.15
   5   7  17  385.03   11.76
   5   7  17  415.27   12.82
   5   7  18  161.64    6.94
   5   7  18  173.73    7.49
  -5  -8  13    9.65    5.38
   5   8 -13    3.22    4.66
  -5  -8  12    2.39    4.66
   5   8 -12    3.94    4.38
  -5  -8  11   17.15    4.44
   5   8 -11   12.71    4.05
  -5  -8  10  205.97    7.77
   5   8 -10  196.71    7.55
  -5  -8   9   20.48    4.27
   5   8  -9   37.45    4.16
  -5  -8   8  407.01   12.21
   5   8  -8  410.50   12.43
  -5  -8   7  105.65    5.49
   5   8  -7  103.49    5.33
  -5  -8   6  956.06   25.58
   5   8  -6  929.43   24.86
  -5  -8   5 1199.10   31.41
   5   8  -5 1191.89   31.13
  -5  -8   4   49.77    3.83
   5   8  -4   52.66    3.77
  -5  -8   3 1731.79   44.45
   5   8  -3 1763.42   45.22
  -5  -8   2  253.08    7.88
   5   8  -2  256.74    8.10
  -5  -8   1  460.55   12.87
   5   8  -1  474.87   13.32
  -5  -8   0 1523.16   39.06
   5   8   0 1483.20   38.07
  -5  -8  -1 1484.87   38.12
   5   8   1 1508.17   38.62
  -5  -8  -2 1480.98   38.01
   5   8   2 1442.70   36.96
  -5  -8  -3  122.30    4.77
   5   8   3  118.25    4.49
  -5  -8  -4  245.48    7.77
   5   8   4  246.59    7.71
  -5  -8  -5    0.22    2.44
   5   8   5    1.89    2.39
  -5  -8  -6    1.94    2.61
   5   8   6    2.89    2.39
   5   8   7 1280.12   33.18
   5   8   8 2602.96   66.09
   5   8   8 2545.25   64.42
   5   8   9  345.14   10.76
   5   8   9  331.10   10.10
   5   8  10 2958.64   74.85
   5   8  10 2997.48   75.80
   5   8  11  595.39   16.76
   5   8  11  594.84   16.54
   5   8  12  423.21   12.82
   5   8  12  437.03   12.82
   5   8  13  718.57   19.86
   5   8  13  743.54   20.31
   5   8  14    1.78    3.66
   5   8  14   -2.83    3.50
   5   8  15  689.17   19.20
   5   8  15  685.84   18.98
   5   8  16  190.94    7.55
   5   8  16  189.33    7.32
   5   8  17  363.50   11.49
   5   8  17  361.56   11.43
   5   8  18  138.22    6.99
   5   8  18  145.66    6.55
  -5  -9  12  109.37    6.66
   5   9 -12  134.12    6.55
  -5  -9  11   99.99    6.10
   5   9 -11   90.50    5.88
  -5  -9  10   34.46    5.05
   5   9 -10   28.02    4.38
  -5  -9   9  241.32    8.71
   5   9  -9  255.91    8.93
  -5  -9   8  369.05   11.49
   5   9  -8  389.36   11.82
  -5  -9   7  125.68    5.88
   5   9  -7  124.63    5.60
  -5  -9   6 1084.80   28.63
   5   9  -6 1043.74   27.74
  -5  -9   5 2794.95   70.91
   5   9  -5 2791.62   70.69
  -5  -9   4   51.49    3.94
   5   9  -4   56.60    3.83
  -5  -9   3  532.58   15.04
   5   9  -3  525.25   14.54
  -5  -9   2  610.93   16.70
   5   9  -2  623.69   16.98
  -5  -9   1   58.82    3.44
   5   9  -1   63.37    3.77
  -5  -9   0 1729.02   44.11
   5   9   0 1707.93   43.61
  -5  -9  -1  452.12   12.48
   5   9   1  456.23   12.71
  -5  -9  -2 3714.94   93.33
   5   9   2 3661.68   92.11
  -5  -9  -3   22.20    2.44
   5   9   3   26.47    2.72
  -5  -9  -4    2.72    2.33
   5   9   4    4.61    2.22
  -5  -9  -5   41.28    3.11
   5   9   5   40.06    2.83
  -5  -9  -6  840.09   22.31
   5   9   6  788.49   20.81
   5   9   7  464.94   13.10
   5   9   7  482.86   13.54
   5   9   8 1959.85   50.16
   5   9   8 1971.50   50.22
   5   9   9  111.09    5.05
   5   9   9  112.86    5.27
   5   9  10  727.45   19.81
   5   9  10  712.47   19.59
   5   9  11 1363.90   35.62
   5   9  11 1311.19   34.35
   5   9  12  979.92   26.41
   5   9  12  945.52   25.47
   5   9  13  437.19   12.98
   5   9  13  451.79   13.48
   5   9  14  211.91    7.99
   5   9  14  217.07    7.71
   5   9  15  300.52    9.88
   5   9  15  269.12    9.04
   5   9  16  129.45    6.49
   5   9  16  130.56    6.10
   5   9  17  302.25   10.32
   5   9  17  299.25    9.82
   5   9  18    5.49    4.55
   5   9  18   -0.28    4.77
  -5 -10  11  123.79    9.38
   5  10 -11  276.11    9.43
  -5 -10  10  116.47    6.60
   5  10 -10  120.47    6.38
  -5 -10   9  132.95    6.55
   5  10  -9  130.01    6.44
  -5 -10   8  184.55    7.32
   5  10  -8  169.35    6.88
  -5 -10   7 1069.26   28.35
   5  10  -7 1037.63   27.47
  -5 -10   6  363.34   11.10
   5  10  -6  369.05   11.10
  -5 -10   5  274.17    8.82
   5  10  -5  267.56    8.66
  -5 -10   4  149.43    5.77
   5  10  -4  161.47    6.10
  -5 -10   3 2695.62   68.25
   5  10  -3 2512.51   63.65
  -5 -10   2  304.80    9.10
   5  10  -2  300.41    8.88
  -5 -10   1 1287.88   33.18
   5  10  -1 1293.99   33.35
  -5 -10   0  396.24   10.99
   5  10   0  406.23   11.32
  -5 -10  -1 1047.07   27.08
   5  10   1  962.17   24.86
  -5 -10  -2 1284.00   32.90
   5  10   2 1272.90   32.57
  -5 -10  -3  184.33    5.83
   5  10   3  179.73    5.60
  -5 -10  -4   95.16    3.83
   5  10   4   87.39    3.55
  -5 -10  -5  742.43   19.64
   5  10   5  716.91   18.92
   5  10   6   24.30    2.72
   5  10   6   20.86    2.89
   5  10   7 2048.63   52.10
   5  10   7 1936.54   49.50
   5  10   8  202.53    6.88
   5  10   8  203.86    6.88
   5  10   9  706.92   19.09
   5  10   9  708.03   19.20
   5  10  11  936.09   25.14
   5  10  11  929.43   24.53
   5  10  12  587.07   16.42
   5  10  12  592.06   16.48
   5  10  13  634.79   17.59
   5  10  13  671.41   18.64
   5  10  14  364.72   11.38
   5  10  14  382.76   11.87
   5  10  15  120.85    6.44
   5  10  15  112.70    5.49
   5  10  16  256.97    9.16
   5  10  16  263.07    9.10
   5  10  17   61.04    5.44
   5  10  17   74.63    5.55
   5  10  18   42.39    5.38
   5  10  18   36.40    4.94
  -5 -11  10    0.28    6.60
   5  11 -10  406.84   12.54
  -5 -11   9   23.92    6.05
   5  11  -9   20.97    4.94
  -5 -11   8  455.45   13.82
   5  11  -8  447.51   13.54
  -5 -11   7  552.50   15.76
   5  11  -7  597.61   17.03
  -5 -11   6  839.54   22.64
   5  11  -6  816.79   21.92
  -5 -11   5 1209.65   31.63
   5  11  -5 1221.85   31.91
  -5 -11   4  282.10    8.99
   5  11  -4  286.21    8.93
  -5 -11   3  622.02   17.03
   5  11  -3  585.96   15.93
  -5 -11   2   55.93    3.55
   5  11  -2   52.55    3.55
  -5 -11   1 2248.94   56.99
   5  11  -1 2284.46   57.87
  -5 -11   0   93.05    4.00
   5  11   0   94.77    3.77
  -5 -11  -1  590.95   15.65
   5  11   1  597.61   15.81
  -5 -11  -2  326.66    9.10
   5  11   2  318.67    8.77
  -5 -11  -3   50.55    2.55
   5  11   3   50.22    2.55
  -5 -11  -4   25.36    2.22
   5  11   4   32.02    2.33
   5  11   5 1498.74   38.23
   5  11   5 1558.11   39.62
   5  11   6    7.99    2.16
   5  11   6    2.94    2.00
   5  11   7 2495.87   63.20
   5  11   7 2447.59   61.81
   5  11   8    3.77    2.66
   5  11   8    2.39    2.33
   5  11   9 1073.70   28.13
   5  11   9 1083.13   28.24
   5  11  10  726.90   19.64
   5  11  10  716.91   19.48
   5  11  11  726.34   19.81
   5  11  11  682.51   18.76
   5  11  12  785.72   21.31
   5  11  12  774.62   20.97
   5  11  13  274.39    8.93
   5  11  13  285.21    9.16
   5  11  14  170.46    6.94
   5  11  14  181.00    7.27
   5  11  15  685.84   19.09
   5  11  15  719.68   19.81
   5  11  16   66.20    5.33
   5  11  16   67.03    5.55
   5  11  17   52.82    5.49
   5  11  17   60.59    5.22
   5  11  18   -4.99    5.38
   5  11  18    3.66    4.55
  -5 -12   9   18.81   13.21
  -5 -12   8  848.97   23.53
   5  12  -8  844.53   23.36
  -5 -12   7  111.20    6.66
   5  12  -7  123.74    6.60
  -5 -12   6 1279.56   33.74
   5  12  -6 1156.38   30.46
  -5 -12   5  206.81    7.55
   5  12  -5  204.75    7.27
  -5 -12   4  807.91   21.64
   5  12  -4  821.78   21.86
  -5 -12   3  527.69   14.65
   5  12  -3  515.43   14.21
  -5 -12   2  237.66    7.49
   5  12  -2  229.28    7.10
  -5 -12   1  410.56   11.43
   5  12  -1  384.59   10.65
  -5 -12   0  487.69   13.21
   5  12   0  447.74   12.04
  -5 -12  -1   26.97    2.16
   5  12   1   28.02    2.05
  -5 -12  -2  147.99    4.44
   5  12   2  137.61    4.05
   5  12   7   17.48    2.50
   5  12   7   14.76    2.33
   5  12   8 1363.35   34.96
   5  12   8 1419.39   36.34
   5  12   9  800.70   21.20
   5  12   9  762.41   20.20
   5  12  10 1626.36   41.73
   5  12  10 1614.71   41.17
   5  12  11  204.47    7.05
   5  12  11  191.05    6.77
   5  12  12  150.43    6.38
   5  12  12  130.45    5.77
   5  12  13  270.51    9.04
   5  12  13  274.89    8.93
   5  12  14  178.62    7.21
   5  12  14  175.29    7.05
   5  12  15  728.56   20.20
   5  12  15  728.56   19.98
   5  12  16    1.11    4.38
   5  12  16    5.49    4.49
   5  12  17   66.70    5.83
   5  12  17   77.13    5.33
   5  12  18    8.71    5.05
   5  12  18   15.59    5.33
  -5 -13   7  353.13   11.82
  -5 -13   7  376.49   12.93
  -5 -13   6  218.85    8.71
  -5 -13   6  227.45    8.66
  -5 -13   5  602.60   17.15
  -5 -13   4  241.93    8.43
  -5 -13   3  255.58    8.32
  -5 -13   2    6.77    2.94
  -5 -13   1  187.44    5.94
   5  13   8 1079.80   27.91
   5  13   8  988.80   25.64
   5  13  10  901.69   23.53
   5  13  10  862.84   22.53
   5  13  11  162.80    5.99
   5  13  11  163.14    5.94
   5  13  12  245.20    8.16
   5  13  12  243.04    7.99
   5  13  13  221.95    7.77
   5  13  13  220.79    7.82
   5  13  14  467.54   13.93
   5  13  14  450.62   13.37
   5  13  15   37.79    5.05
   5  13  15   42.28    4.72
   5  13  16   13.15    5.10
   5  13  16    8.38    4.33
   5  13  17   65.64    5.49
   5  13  17   60.65    6.10
  -5 -14   6  332.04   12.26
  -5 -14   6  301.91   10.54
  -5 -14   4   17.70    5.05
  -5 -14   4   29.85    3.88
  -5 -14   3  419.77   11.82
  -5 -14   3  460.55   13.26
  -5 -14   2    0.28    2.72
  -5 -14   2    0.61    2.33
   5  14  10  103.82    3.94
   5  14  10  101.60    3.94
   5  14  11  300.08    8.82
   5  14  11  289.32    8.55
   5  14  12  199.76    7.21
   5  14  12  198.15    6.71
   5  14  14  213.13    8.16
   5  14  14  205.03    7.60
   5  14  15   36.68    5.27
   5  14  15   30.02    4.77
   5  14  16   11.82    5.66
   5  14  16    9.93    5.05
   5  14  17    8.99    5.05
   5  14  17    3.38    5.66
  -5 -15   4   59.65    5.33
  -5 -15   4   76.96    4.83
   5  15  12  224.39    6.94
   5  15  12  250.81    7.93
   5  15  13   99.10    4.88
   5  15  13   93.44    5.44
   5  15  14   27.63    4.77
   5  15  14   22.47    4.38
   5  15  15   10.04    5.22
   5  15  15    9.21    5.16
   5  15  16    1.39    5.94
   5  15  16    3.44    5.66
   5  16  14    5.94    4.33
   5  16  14   10.27    4.72
   5  16  15    2.61    5.88
   5  16  15   -7.27    5.99
  -6  12  11   87.73    5.66
   6 -12 -11   86.45    5.99
  -6  12  10   31.46    4.77
   6 -12 -10   24.14    5.22
  -6  12   9    2.33    4.55
   6 -12  -9   -1.78    4.61
  -6  12   8    1.22    4.05
   6 -12  -8   -0.33    4.49
  -6  12   7   10.60    4.38
   6 -12  -7   13.87    4.66
  -6  12   6  149.10    6.77
   6 -12  -6  141.77    6.99
  -6  12   5  130.51    6.66
   6 -12  -5  125.40    6.60
  -6  12   4   47.55    4.94
   6 -12  -4   47.39    5.66
  -6  12   3  165.19    7.21
   6 -12  -3  169.91    7.60
  -6  12   2  102.43    6.33
   6 -12  -2  101.60    6.88
   6 -12  -1   61.15    6.33
  -6  11  13   77.46    5.66
   6 -11 -13   78.79    5.83
  -6  11  12   15.15    4.66
   6 -11 -12   14.15    4.55
  -6  11  11    3.38    4.11
   6 -11 -11   -3.16    4.27
  -6  11  10   36.40    4.66
   6 -11 -10   44.39    4.66
  -6  11   9    0.17    3.94
   6 -11  -9    4.22    4.33
  -6  11   8   96.66    5.49
   6 -11  -8  112.47    5.99
  -6  11   7   72.86    5.27
   6 -11  -7   70.03    5.22
  -6  11   6    3.94    4.05
   6 -11  -6   -0.33    4.05
  -6  11   5  175.34    7.27
   6 -11  -5  167.02    7.21
  -6  11   4  138.33    6.33
   6 -11  -4  142.72    6.66
  -6  11   3  212.91    7.93
   6 -11  -3  222.34    8.43
  -6  11   2  111.31    5.83
   6 -11  -2  116.47    6.27
  -6  11   1  169.24    6.99
   6 -11  -1  180.78    7.60
  -6  11   0  107.81    5.99
   6 -11   0   86.06    5.88
   6 -11   1    3.55    5.33
   6 -11   1   -0.39    7.10
  -6  10  14   54.55    4.99
   6 -10 -14   57.04    5.83
  -6  10  13   46.17    5.27
   6 -10 -13   39.12    4.77
  -6  10  12   -0.39    4.22
   6 -10 -12    2.28    4.05
  -6  10  11   15.43    4.22
   6 -10 -11    5.72    4.27
  -6  10  10    2.55    4.11
   6 -10 -10    0.72    3.94
  -6  10   9  276.94    9.10
   6 -10  -9  294.70    9.71
  -6  10   8   26.02    3.88
   6 -10  -8   30.30    4.44
  -6  10   7  945.52   25.25
   6 -10  -7  972.16   26.08
  -6  10   6  706.92   19.48
   6 -10  -6  686.39   18.98
  -6  10   5  803.47   21.75
   6 -10  -5  822.34   22.36
  -6  10   4  203.14    7.66
   6 -10  -4  190.27    7.38
  -6  10   3  331.43   10.65
   6 -10  -3  323.44   10.43
  -6  10   2  225.06    8.49
   6 -10  -2  235.88    8.66
  -6  10   1    0.39    3.88
   6 -10  -1    5.10    4.05
  -6  10   0  441.58   13.21
   6 -10   0  451.06   13.59
  -6  10  -1   13.48    4.55
   6 -10   1   11.26    4.77
   6 -10   2  197.70    8.21
   6 -10   2  219.96    9.60
   6 -10   3   16.81    4.99
   6 -10   3    8.55    7.38
  -6   9  15   40.34    4.72
   6  -9 -15   43.72    5.33
  -6   9  14  169.52    7.10
   6  -9 -14  147.60    6.94
  -6   9  13   71.47    5.22
   6  -9 -13   56.21    5.38
  -6   9  12   25.14    4.49
   6  -9 -12   19.59    4.05
  -6   9  11   10.93    3.88
   6  -9 -11   -1.39    3.83
  -6   9  10   91.33    5.16
   6  -9 -10   95.61    5.38
  -6   9   9   12.87    3.77
   6  -9  -9    8.43    4.05
  -6   9   8  204.59    7.32
   6  -9  -8  194.32    7.38
  -6   9   7   55.82    4.05
   6  -9  -7   66.20    4.72
  -6   9   6    0.22    3.22
   6  -9  -6    8.55    3.61
  -6   9   5  607.60   16.92
   6  -9  -5  585.96   16.59
  -6   9   4   21.97    3.50
   6  -9  -4   23.92    3.83
  -6   9   3  605.93   16.98
   6  -9  -3  601.49   16.98
  -6   9   2  181.22    7.05
   6  -9  -2  174.95    6.88
  -6   9   1  159.03    6.88
   6  -9  -1  151.48    6.55
  -6   9   0   19.25    3.88
   6  -9   0   35.40    4.49
  -6   9  -1   34.01    4.33
   6  -9   1   39.73    4.83
  -6   9  -2  148.43    6.83
   6  -9   2  141.05    6.99
   6  -9   4  126.79    7.44
   6  -9   4  118.41    6.66
   6  -9   5    1.61    5.44
   6  -9   5    5.22    5.88
  -6   8  16  207.08    8.05
   6  -8 -16  179.62    7.60
  -6   8  15   25.41    4.66
   6  -8 -15   38.79    4.99
  -6   8  14   45.83    4.77
   6  -8 -14   40.51    4.77
  -6   8  13   59.37    4.94
   6  -8 -13   72.08    5.27
  -6   8  12   17.09    4.22
   6  -8 -12   14.65    4.33
  -6   8  11  102.60    5.27
   6  -8 -11  108.54    5.66
  -6   8  10  130.23    5.66
   6  -8 -10  135.89    6.10
  -6   8   9  130.68    5.72
   6  -8  -9  128.12    5.94
  -6   8   8  209.58    7.27
   6  -8  -8  218.68    8.10
  -6   8   7   59.87    4.11
   6  -8  -7   49.44    4.27
  -6   8   6  186.83    6.77
   6  -8  -6  201.26    7.44
  -6   8   5  243.04    8.10
   6  -8  -5  252.19    8.55
  -6   8   4  331.54   10.15
   6  -8  -4  322.17   10.38
  -6   8   3  258.52    8.38
   6  -8  -3  263.01    8.82
  -6   8   2   42.39    3.83
   6  -8  -2   42.62    4.11
  -6   8   1  221.45    8.05
   6  -8  -1  231.28    8.32
  -6   8   0  405.79   12.48
   6  -8   0  421.05   12.93
  -6   8  -1  160.86    6.60
   6  -8   1  172.85    7.05
  -6   8  -2   64.87    4.55
   6  -8   2   64.75    4.94
  -6   8  -3  118.30    5.94
   6  -8   3  124.63    6.38
   6  -8   4    6.21    4.44
   6  -8   4    4.66    4.66
   6  -8   5    5.83    4.99
   6  -8   5   12.15    4.88
   6  -8   6   -0.50    5.33
   6  -8   6   -3.00    5.44
   6  -8   7   39.79    5.44
   6  -8   7   43.56    6.16
  -6   7  16  171.57    7.05
   6  -7 -16  154.31    6.94
  -6   7  15   53.49    4.83
   6  -7 -15   54.99    5.22
  -6   7  14  170.18    7.10
   6  -7 -14  163.80    7.05
  -6   7  13   31.57    4.55
   6  -7 -13   35.73    4.66
  -6   7  12   37.84    4.49
   6  -7 -12   43.23    4.61
  -6   7  11   46.06    4.11
   6  -7 -11   49.50    4.44
  -6   7  10   41.12    4.27
   6  -7 -10   37.95    4.22
  -6   7   9   61.04    4.49
   6  -7  -9   68.69    4.66
  -6   7   8  230.89    8.27
   6  -7  -8  236.38    8.38
  -6   7   7  728.56   20.03
   6  -7  -7  709.14   19.64
  -6   7   6  534.69   15.26
   6  -7  -6  515.54   14.93
  -6   7   5  171.35    6.55
   6  -7  -5  177.23    6.88
  -6   7   4   42.84    3.88
   6  -7  -4   48.27    4.11
  -6   7   3  259.02    8.77
   6  -7  -3  263.79    8.93
  -6   7   2  366.06   11.21
   6  -7  -2  367.06   11.38
  -6   7   1  281.44    9.43
   6  -7  -1  268.29    8.99
  -6   7   0 1087.02   29.02
   6  -7   0 1128.08   30.07
  -6   7  -1   46.89    4.00
   6  -7   1   66.48    4.83
  -6   7  -2  360.17   11.04
   6  -7   2  369.33   11.60
  -6   7  -3    2.55    3.50
   6  -7   3   -4.38    4.00
  -6   7  -4   17.92    4.55
   6  -7   4   11.43    4.27
   6  -7   5   50.77    5.33
   6  -7   5   51.16    4.77
   6  -7   6    3.88    4.77
   6  -7   6   11.15    4.55
   6  -7   7  333.43   11.49
   6  -7   7  318.06   10.71
   6  -7   8  188.22    8.32
   6  -7   8  200.37    8.32
  -6   6  17   81.62    5.44
   6  -6 -17  104.26    5.88
  -6   6  16  363.45   11.26
   6  -6 -16  350.02   11.15
  -6   6  15  105.26    5.66
   6  -6 -15  105.48    5.94
  -6   6  14   13.82    3.88
   6  -6 -14   10.04    4.05
  -6   6  13   17.70    4.11
   6  -6 -13    8.21    3.83
  -6   6  12   77.52    5.22
   6  -6 -12   66.97    4.83
  -6   6  11   28.69    3.88
   6  -6 -11   27.02    4.11
  -6   6  10  337.31   10.65
   6  -6 -10  347.36   10.99
  -6   6   9   76.30    4.99
   6  -6  -9   74.02    4.72
  -6   6   8   79.51    4.77
   6  -6  -8   96.61    5.27
  -6   6   7 1226.29   32.52
   6  -6  -7 1240.16   32.74
  -6   6   6 1292.32   34.18
   6  -6  -6 1204.65   31.79
  -6   6   5  461.39   13.76
   6  -6  -5  450.18   13.32
  -6   6   4  163.52    6.55
   6  -6  -4  166.41    6.60
  -6   6   3 1183.01   31.24
   6  -6  -3 1200.21   31.63
  -6   6   2  488.74   14.15
   6  -6  -2  502.56   14.65
  -6   6   1  358.51   11.10
   6  -6  -1  369.77   11.60
  -6   6   0  541.79   15.43
   6  -6   0  518.98   15.04
  -6   6  -1  208.69    7.27
   6  -6   1  203.92    7.71
  -6   6  -2  853.97   23.03
   6  -6   2  838.43   22.92
  -6   6  -3  319.83   10.21
   6  -6   3  305.02   10.04
  -6   6  -4   36.18    4.72
   6  -6   4   30.96    4.38
   6  -6   5  235.33    8.66
   6  -6   6    9.99    4.66
   6  -6   6   16.65    4.38
   6  -6   7  269.40    9.77
   6  -6   7  254.64    8.99
   6  -6   9   98.21    6.55
   6  -6   9   94.16    6.21
  -6   5  17  110.37    6.27
   6  -5 -17  109.37    5.94
  -6   5  16  171.29    7.05
   6  -5 -16  161.25    6.94
  -6   5  15   21.25    3.94
   6  -5 -15   26.91    4.55
  -6   5  14   54.10    4.55
   6  -5 -14   54.93    4.72
  -6   5  13   39.79    3.88
   6  -5 -13   56.60    4.72
  -6   5  12  279.61    8.99
   6  -5 -12  290.81    9.60
  -6   5  11   82.07    4.77
   6  -5 -11   70.97    4.77
  -6   5  10  824.56   22.25
   6  -5 -10  835.10   22.81
  -6   5   9    2.22    3.33
   6  -5  -9    2.28    3.61
  -6   5   8  741.88   20.25
   6  -5  -8  750.20   20.70
  -6   5   7  358.29   11.04
   6  -5  -7  369.94   11.49
  -6   5   6  757.97   20.64
   6  -5  -6  706.37   19.59
  -6   5   5 2372.13   60.32
   6  -5  -5 2466.46   63.03
  -6   5   4   72.08    4.22
   6  -5  -4   60.43    4.22
  -6   5   3  984.36   26.36
   6  -5  -3  948.85   25.47
  -6   5   2  339.42   10.60
   6  -5  -2  311.90   10.04
  -6   5   1  723.57   19.98
   6  -5  -1  742.99   20.53
  -6   5   0  175.73    6.88
   6  -5   0  173.68    6.94
  -6   5  -1  519.15   15.26
   6  -5   1  532.02   15.37
  -6   5  -2  236.55    8.71
   6  -5   2  227.67    8.32
  -6   5  -3    9.43    3.66
   6  -5   3    6.21    3.72
  -6   5  -4  178.73    7.38
   6  -5   4  161.08    6.94
  -6   5  -5   87.45    5.33
   6  -5   5   79.46    5.27
   6  -5   6 1114.76   29.80
   6  -5   6 1083.13   28.91
   6  -5   7   44.28    5.10
   6  -5   7   30.19    4.49
   6  -5   8  150.43    7.05
   6  -5   8  174.01    7.16
   6  -5   9  254.08    9.27
   6  -5   9  233.99    9.10
   6  -5  10  211.47    8.60
   6  -5  10  216.24    8.66
  -6   4  17    5.16    4.22
   6  -4 -17    4.38    4.22
  -6   4  16  414.94   12.21
   6  -4 -16  417.72   12.76
  -6   4  15   15.43    4.11
   6  -4 -15   17.76    4.27
  -6   4  14  460.33   13.37
   6  -4 -14  470.10   13.93
  -6   4  13   12.26    3.94
   6  -4 -13   25.03    4.05
  -6   4  12  124.18    5.83
   6  -4 -12  121.74    5.77
  -6   4  11  194.82    7.38
   6  -4 -11  189.77    7.16
  -6   4  10  655.32   18.48
   6  -4 -10  671.96   18.87
  -6   4   9   92.72    4.94
   6  -4  -9   95.77    5.22
  -6   4   8 1265.69   33.35
   6  -4  -8 1292.88   34.07
  -6   4   7  236.77    8.21
   6  -4  -7  227.89    8.10
  -6   4   6  604.82   16.87
   6  -4  -6  624.24   17.53
  -6   4   5 1675.75   43.34
   6  -4  -5 1670.20   43.34
  -6   4   4 3074.05   77.91
   6  -4  -4 2974.18   75.52
  -6   4   3  668.63   18.42
   6  -4  -3  666.97   18.59
  -6   4   2  107.04    5.05
   6  -4  -2  105.37    5.10
  -6   4   1   73.47    4.27
   6  -4  -1   72.91    4.61
  -6   4   0    4.27    2.94
   6  -4   0    6.38    3.27
  -6   4  -1  395.13   11.54
   6  -4   1  410.45   12.48
  -6   4  -2   11.87    3.22
   6  -4   2   15.26    3.94
  -6   4  -3  166.47    6.49
   6  -4   3  162.03    6.83
  -6   4  -4   68.69    4.27
   6  -4   4   72.41    5.10
  -6   4  -5  272.78    9.04
   6  -4   5  293.37    9.99
  -6   4  -6  575.97   16.48
   6  -4   6  586.51   16.92
   6  -4   7  207.97    7.93
   6  -4   7  221.95    8.32
   6  -4   8  361.17   11.60
   6  -4   8  386.75   12.04
   6  -4   9  150.98    7.16
   6  -4   9  148.32    6.71
   6  -4  10  405.84   12.60
   6  -4  10  427.87   13.04
   6  -4  11  152.76    7.05
   6  -4  11  156.98    7.55
  -6   3  17   28.96    4.88
   6  -3 -17   18.70    4.44
  -6   3  16   -0.17    4.00
   6  -3 -16   -4.55    4.11
  -6   3  15   12.71    3.83
   6  -3 -15   17.03    4.44
  -6   3  14  467.27   13.93
   6  -3 -14  432.25   12.98
  -6   3  13   69.19    4.66
   6  -3 -13   75.46    5.05
  -6   3  12   69.97    4.49
   6  -3 -12   85.62    5.16
  -6   3  11  632.57   17.53
   6  -3 -11  635.90   18.03
  -6   3  10  457.56   13.48
   6  -3 -10  464.66   13.87
  -6   3   9 1473.22   38.34
   6  -3  -9 1502.62   39.23
  -6   3   8 1031.53   27.58
   6  -3  -8 1009.89   26.97
  -6   3   7  513.27   14.87
   6  -3  -7  500.84   14.59
  -6   3   6  636.45   17.87
   6  -3  -6  663.09   18.48
  -6   3   5 1232.40   32.57
   6  -3  -5 1185.79   31.30
  -6   3   4 1133.07   30.19
   6  -3  -4 1058.16   28.19
  -6   3   3 1050.39   28.13
   6  -3  -3 1001.01   26.80
  -6   3   2  143.22    6.10
   6  -3  -2  149.93    6.27
  -6   3   1  140.94    6.10
   6  -3  -1  146.43    5.99
  -6   3   0  180.28    7.05
   6  -3   0  180.61    6.77
  -6   3  -1    3.38    3.11
   6  -3   1   -0.28    2.83
  -6   3  -2    2.05    3.27
   6  -3   2   -0.50    3.38
  -6   3  -3  269.90    9.43
   6  -3   3  261.18    9.10
  -6   3  -4   35.12    4.11
   6  -3   4   45.89    4.44
  -6   3  -5  430.59   12.98
   6  -3   5  422.43   12.87
  -6   3  -6  203.31    7.82
   6  -3   6  190.38    7.44
   6  -3   7  653.65   18.48
   6  -3   7  645.88   18.20
   6  -3   8  457.83   13.76
   6  -3   8  442.41   13.32
   6  -3   9  315.73   10.43
   6  -3   9  330.27   10.65
   6  -3  10  656.98   18.53
   6  -3  10  643.66   18.42
   6  -3  11   86.34    5.66
   6  -3  11   81.57    5.83
   6  -3  12  335.37   11.10
   6  -3  12  373.55   11.93
  -6   2  17   85.84    5.60
   6  -2 -17   77.30    5.38
  -6   2  16    4.88    3.77
   6  -2 -16    2.05    3.94
  -6   2  15    3.94    3.94
   6  -2 -15   16.92    4.05
  -6   2  14    4.22    3.66
   6  -2 -14    5.55    3.83
  -6   2  13   49.16    4.33
   6  -2 -13   48.89    4.38
  -6   2  12  497.12   14.82
   6  -2 -12  491.07   14.37
  -6   2  11  759.64   21.14
   6  -2 -11  796.81   21.86
  -6   2  10  800.14   21.97
   6  -2 -10  805.14   22.14
  -6   2   9  774.62   21.20
   6  -2  -9  786.27   21.70
  -6   2   8  589.84   16.76
   6  -2  -8  578.19   16.54
  -6   2   7 1179.13   31.07
   6  -2  -7 1143.06   30.30
  -6   2   6  531.47   15.15
   6  -2  -6  534.63   15.31
  -6   2   5 1766.19   45.50
   6  -2  -5 1783.40   46.06
  -6   2   4  802.92   21.64
   6  -2  -4  825.67   22.53
  -6   2   3  770.18   20.86
   6  -2  -3  803.47   22.03
  -6   2   2   36.12    3.61
   6  -2  -2   44.45    3.77
  -6   2   1  157.64    6.16
   6  -2  -1  175.23    6.77
  -6   2   0   15.65    3.38
   6  -2   0   16.65    3.11
  -6   2  -1    3.88    3.16
   6  -2   1   -1.11    2.83
  -6   2  -2   46.50    3.94
   6  -2   2   48.72    3.88
  -6   2  -3  139.22    5.83
   6  -2   3  129.68    5.99
  -6   2  -4    5.22    3.27
   6  -2   4    0.11    3.55
  -6   2  -5 1207.98   31.85
   6  -2   5 1244.05   32.85
  -6   2  -6  459.39   13.48
   6  -2   6  473.09   14.15
  -6   2  -7  432.53   12.76
   6  -2   7  421.60   12.93
   6  -2   8  740.21   20.70
   6  -2   8  740.77   20.59
   6  -2   9  360.84   11.49
   6  -2   9  379.37   11.87
   6  -2  10  843.98   23.03
   6  -2  10  867.28   23.42
   6  -2  11  208.47    8.10
   6  -2  11  201.37    7.82
   6  -2  12  184.28    7.99
   6  -2  12  197.76    8.16
   6  -2  13  557.66   16.20
   6  -2  13  548.61   15.93
  -6   1  17    3.94    4.44
   6  -1 -17   -0.11    4.49
  -6   1  16    2.77    3.94
   6  -1 -16    3.88    4.11
  -6   1  15    2.55    3.72
   6  -1 -15   -1.00    3.88
  -6   1  14   -1.05    3.94
   6  -1 -14    7.82    3.72
  -6   1  13    1.33    3.66
   6  -1 -13    2.77    3.66
  -6   1  12  855.63   23.25
   6  -1 -12  786.27   21.64
  -6   1  11  252.75    8.55
   6  -1 -11  266.34    9.21
  -6   1  10 2169.59   55.65
   6  -1 -10 2104.12   54.10
  -6   1   9  481.03   14.09
   6  -1  -9  462.77   13.65
  -6   1   8 2639.03   67.31
   6  -1  -8 2589.64   66.09
  -6   1   7  205.42    7.49
   6  -1  -7  194.10    7.27
  -6   1   6  392.14   11.99
   6  -1  -6  372.22   11.54
  -6   1   5 1040.41   27.80
   6  -1  -5 1022.10   27.36
  -6   1   4   15.20    3.11
   6  -1  -4   21.81    3.66
  -6   1   3  541.57   15.48
   6  -1  -3  518.76   14.98
  -6   1   2   93.33    4.83
   6  -1  -2   87.06    4.55
  -6   1   1  341.59   10.65
   6  -1  -1  318.61   10.10
  -6   1   0  347.47   10.93
   6  -1   0  354.68   10.99
  -6   1  -1  247.42    8.49
   6  -1   1  247.64    8.43
  -6   1  -2  721.35   19.98
   6  -1   2  705.26   19.53
  -6   1  -3  266.84    9.04
   6  -1   3  262.13    8.88
  -6   1  -4  576.52   16.42
   6  -1   4  538.35   15.54
  -6   1  -5  362.67   11.43
   6  -1   5  368.55   11.60
  -6   1  -6  573.75   16.42
   6  -1   6  583.18   16.81
  -6   1  -7  865.06   23.64
   6  -1   7  882.82   24.03
   6  -1   8  199.76    7.88
   6  -1   8  192.49    7.60
   6  -1   9  418.22   12.87
   6  -1   9  429.70   12.87
   6  -1  10 1234.06   32.41
   6  -1  10 1228.51   32.57
   6  -1  11  763.52   21.14
   6  -1  11  720.79   20.14
   6  -1  13  327.60   11.04
   6  -1  13  325.99   10.60
   6  -1  14   30.41    5.16
   6  -1  14   29.41    4.83
  -6   0  17    6.21    4.49
   6   0 -17    3.66    4.27
  -6   0  16   30.13    4.61
   6   0 -16   36.34    4.61
  -6   0  15   43.23    4.55
   6   0 -15   55.16    4.72
  -6   0  14  142.11    6.60
   6   0 -14  146.38    6.33
  -6   0  13  630.35   17.65
   6   0 -13  630.90   17.76
  -6   0  12   11.38    3.94
   6   0 -12   13.98    3.77
  -6   0  11 1565.33   40.95
   6   0 -11 1542.58   40.17
  -6   0  10  188.22    7.44
   6   0 -10  188.49    7.16
  -6   0   9  165.97    6.83
   6   0  -9  158.59    6.55
  -6   0   8  902.24   24.30
   6   0  -8  898.36   24.36
  -6   0   7  522.59   15.09
   6   0  -7  488.85   14.26
  -6   0   6 2875.41   73.13
   6   0  -6 2960.30   75.24
  -6   0   5   78.35    4.38
   6   0  -5   73.74    4.49
  -6   0   4  700.82   19.20
   6   0  -4  716.35   19.81
  -6   0   3    2.28    2.83
   6   0  -3    0.17    3.00
  -6   0   2    2.05    2.72
   6   0  -2    7.16    3.00
  -6   0   1  135.84    5.66
   6   0  -1  130.12    5.66
  -6   0   0   40.40    3.55
   6   0   0   34.46    3.72
  -6   0  -1  117.91    5.22
   6   0   1  114.20    5.27
  -6   0  -2   69.42    4.16
   6   0   2   62.70    4.33
  -6   0  -3 1715.70   44.34
   6   0   3 1677.41   43.50
  -6   0  -4  610.93   17.37
   6   0   4  605.38   17.09
  -6   0  -5  555.44   15.87
   6   0   5  594.28   16.98
  -6   0  -6  644.22   18.20
   6   0   6  640.34   18.14
  -6   0  -7  245.65    8.77
   6   0   7  229.28    8.32
   6   0   8 2558.57   65.42
   6   0   9    7.71    4.05
   6   0   9   18.87    4.16
   6   0  10 2462.02   62.98
   6   0  10 2368.80   60.65
   6   0  11  519.76   15.31
   6   0  11  523.87   15.48
   6   0  12  331.43   10.71
   6   0  12  337.20   10.76
   6   0  13   29.58    4.88
   6   0  13   32.18    4.77
   6   0  14   28.13    4.94
   6   0  14   29.19    4.55
   6   0  15   73.24    5.05
   6   0  15   73.85    6.49
  -6  -1  16   17.65    4.49
   6   1 -16    9.65    4.05
  -6  -1  15   72.80    5.10
   6   1 -15   82.46    5.22
  -6  -1  14   20.36    4.00
   6   1 -14   25.08    4.11
  -6  -1  13  468.77   13.93
   6   1 -13  457.45   13.59
  -6  -1  12  279.94    9.65
   6   1 -12  266.73    8.99
  -6  -1  11  155.03    6.49
   6   1 -11  162.03    6.77
  -6  -1  10  731.34   20.31
   6   1 -10  709.14   19.81
  -6  -1   9  177.23    6.99
   6   1  -9  177.56    7.05
  -6  -1   8  611.48   17.42
   6   1  -8  632.01   17.92
  -6  -1   7 2450.92   62.59
   6   1  -7 2505.30   64.09
  -6  -1   6  814.01   22.25
   6   1  -6  772.95   21.31
  -6  -1   5  368.33   11.32
   6   1  -5  365.89   11.43
  -6  -1   4    4.94    3.00
   6   1  -4   -0.39    3.00
  -6  -1   3  733.00   20.25
   6   1  -3  715.24   19.75
  -6  -1   2 1522.05   39.67
   6   1  -2 1577.53   41.01
  -6  -1   1  221.56    7.88
   6   1  -1  236.32    8.16
  -6  -1   0  174.90    6.66
   6   1   0  158.31    6.33
  -6  -1  -1    9.65    3.05
   6   1   1    7.44    2.94
  -6  -1  -2   92.55    4.83
   6   1   2   81.73    4.66
  -6  -1  -3  831.77   22.64
   6   1   3  833.43   22.75
  -6  -1  -4   95.27    5.10
   6   1   4   81.90    4.61
  -6  -1  -5 2732.80   69.75
   6   1   5 2746.67   69.97
  -6  -1  -6   82.51    4.83
   6   1   6   90.00    4.88
  -6  -1  -7 1142.51   30.24
   6   1   7 1154.71   30.74
  -6  -1  -8  956.62   25.86
   6   1   8  996.02   26.86
   6   1   9 1392.20   36.62
   6   1   9 1387.76   36.57
   6   1  10 1748.44   45.33
   6   1  10 1837.22   47.66
   6   1  11   12.87    4.38
   6   1  11   11.26    4.16
   6   1  12  199.31    7.82
   6   1  12  176.01    7.16
   6   1  13    8.10    4.33
   6   1  13    2.22    4.49
   6   1  14   20.75    4.77
   6   1  14   24.14    4.77
   6   1  15    0.00    4.55
   6   1  15    7.55    4.33
  -6  -2  16   86.06    5.66
   6   2 -16   64.92    4.94
  -6  -2  15   20.14    4.44
   6   2 -15   22.03    4.05
  -6  -2  14  343.42   10.93
   6   2 -14  311.96   10.15
  -6  -2  13  381.15   11.93
   6   2 -13  430.37   12.87
  -6  -2  12   70.08    4.72
   6   2 -12   65.48    4.77
  -6  -2  11    0.83    3.27
   6   2 -11    5.16    3.66
  -6  -2  10  837.32   22.97
   6   2 -10  822.34   22.53
  -6  -2   9 1016.55   27.52
   6   2  -9 1048.17   27.97
  -6  -2   8  733.00   20.48
   6   2  -8  754.09   20.92
  -6  -2   7  606.49   17.15
   6   2  -7  670.30   18.87
  -6  -2   6  651.43   18.31
   6   2  -6  666.97   18.53
  -6  -2   5 1301.20   34.24
   6   2  -5 1281.23   33.74
  -6  -2   4   34.57    3.44
   6   2  -4   34.85    3.72
  -6  -2   3  320.11   10.04
   6   2  -3  326.99   10.43
  -6  -2   2  699.15   19.20
   6   2  -2  709.70   19.70
  -6  -2   1 1589.19   41.17
   6   2  -1 1485.42   38.68
  -6  -2   0  833.99   22.58
   6   2   0  809.02   22.08
  -6  -2  -1  114.86    5.22
   6   2   1  119.74    5.38
  -6  -2  -2  467.05   13.54
   6   2   2  456.89   13.48
  -6  -2  -3  247.70    8.21
   6   2   3  243.15    8.32
  -6  -2  -4  549.83   15.54
   6   2   4  540.73   15.65
  -6  -2  -5 1424.39   37.23
   6   2   5 1524.27   39.79
  -6  -2  -6  406.40   12.21
   6   2   6  380.26   11.76
  -6  -2  -7 2987.49   75.91
   6   2   7 2994.15   76.24
  -6  -2  -8 1341.15   35.29
   6   2   8 1261.81   33.46
   6   2   9  914.45   24.91
   6   2   9  917.22   24.91
   6   2  10  316.78   10.49
   6   2  10  318.11   10.15
   6   2  11   17.70    4.16
   6   2  11   14.54    3.94
   6   2  12   22.92    4.22
   6   2  12   22.92    4.49
   6   2  13    7.16    3.77
   6   2  13    3.05    4.05
   6   2  14   -1.28    4.27
   6   2  14    0.28    4.05
   6   2  15    4.00    4.55
   6   2  15   -0.55    4.00
   6   2  16  124.46    6.88
   6   2  16  104.43    5.72
  -6  -3  16   20.64    5.33
   6   3 -16   22.97    4.66
  -6  -3  15   48.94    5.22
   6   3 -15   39.67    4.88
  -6  -3  14   41.73    4.77
   6   3 -14   57.26    4.72
  -6  -3  13  502.06   14.87
   6   3 -13  507.00   14.82
  -6  -3  12  273.06    9.21
   6   3 -12  259.19    8.66
  -6  -3  11   98.71    5.72
   6   3 -11  111.70    5.94
  -6  -3  10  163.97    6.83
   6   3 -10  154.09    6.49
  -6  -3   9  826.78   22.64
   6   3  -9  808.47   22.14
  -6  -3   8 1335.60   35.18
   6   3  -8 1345.59   35.40
  -6  -3   7  486.36   14.43
   6   3  -7  466.10   13.87
  -6  -3   6 1677.41   43.39
   6   3  -6 1658.55   43.00
  -6  -3   5  304.41    9.71
   6   3  -5  289.87    9.43
  -6  -3   4  326.77   10.15
   6   3  -4  344.69   10.76
  -6  -3   3   93.16    4.66
   6   3  -3   97.60    4.94
  -6  -3   2    9.99    2.89
   6   3  -2   13.04    2.94
  -6  -3   1   25.41    3.22
   6   3  -1   31.85    3.27
  -6  -3   0  614.81   17.20
   6   3   0  628.68   17.37
  -6  -3  -1    6.71    2.89
   6   3   1    5.22    2.89
  -6  -3  -2  690.28   19.09
   6   3   2  667.52   18.37
  -6  -3  -3  473.04   13.76
   6   3   3  434.70   12.76
  -6  -3  -4  598.16   16.87
   6   3   4  574.86   16.31
  -6  -3  -5 1264.02   33.29
   6   3   5 1215.19   32.02
  -6  -3  -6 1387.21   36.40
   6   3   6 1426.05   37.23
  -6  -3  -7 1011.55   27.13
   6   3   7 1015.44   27.36
  -6  -3  -8 2408.75   61.76
   6   3   8 2495.87   63.92
   6   3   9  357.23   11.43
   6   3   9  349.58   11.10
   6   3  10  251.08    8.88
   6   3  10  254.19    8.99
   6   3  11    7.32    4.11
   6   3  11    4.88    4.27
   6   3  12   -3.05    3.94
   6   3  12   -0.61    3.72
   6   3  13   66.59    4.99
   6   3  13   76.91    5.10
   6   3  14   45.78    4.83
   6   3  14   51.60    4.94
   6   3  15   58.26    5.38
   6   3  15   62.48    5.10
   6   3  16  265.18    9.43
   6   3  16  262.52    8.88
  -6  -4  15  260.57    9.49
   6   4 -15  232.16    8.38
  -6  -4  14   -0.06    4.49
   6   4 -14   10.27    4.33
  -6  -4  13  281.60    9.82
   6   4 -13  271.62    9.16
  -6  -4  12  159.86    6.77
   6   4 -12  148.71    6.33
  -6  -4  11 1694.61   43.89
   6   4 -11 1823.90   47.22
  -6  -4  10  933.31   25.19
   6   4 -10  939.42   25.36
  -6  -4   9   91.94    5.16
   6   4  -9   97.88    5.44
  -6  -4   8 1389.98   36.46
   6   4  -8 1393.87   36.68
  -6  -4   7  152.98    6.55
   6   4  -7  136.39    6.05
  -6  -4   6 1339.49   35.18
   6   4  -6 1384.43   36.29
  -6  -4   5  289.15    9.38
   6   4  -5  298.14    9.82
  -6  -4   4  820.12   22.31
   6   4  -4  785.16   21.42
  -6  -4   3   15.09    3.11
   6   4  -3   18.03    3.11
  -6  -4   2   15.65    3.05
   6   4  -2   11.49    2.94
  -6  -4   1  273.72    8.88
   6   4  -1  255.36    8.43
  -6  -4   0  414.33   12.21
   6   4   0  399.41   11.87
  -6  -4  -1  339.03   10.38
   6   4   1  321.00   10.04
  -6  -4  -2 1236.84   32.52
   6   4   2 1205.21   31.57
  -6  -4  -3 1188.56   31.30
   6   4   3 1196.33   31.35
  -6  -4  -4  259.24    8.49
   6   4   4  267.62    8.77
  -6  -4  -5 1800.60   46.50
   6   4   5 1761.76   45.50
  -6  -4  -6  164.69    6.55
   6   4   6  162.47    6.44
  -6  -4  -7 1311.19   34.46
   6   4   7 1330.06   34.90
  -6  -4  -8 2325.52   59.59
   6   4   8 2264.48   58.10
   6   4   9   88.17    5.33
   6   4   9   90.72    5.16
   6   4  10  299.14    9.99
   6   4  10  285.65    9.38
   6   4  11   11.93    3.55
   6   4  11   21.14    4.44
   6   4  12  168.35    6.88
   6   4  12  180.56    6.99
   6   4  13  435.31   13.10
   6   4  13  455.28   13.65
   6   4  14   17.81    4.22
   6   4  14   10.71    4.33
   6   4  15    4.49    4.22
   6   4  15    5.77    4.05
   6   4  16   29.35    4.27
   6   4  16   20.36    4.66
   6   4  17    8.93    4.38
  -6  -5  15    0.44    4.72
   6   5 -15    5.22    4.38
  -6  -5  14  286.71    9.88
   6   5 -14  284.66    9.65
  -6  -5  13  250.25    8.93
   6   5 -13  261.41    8.99
  -6  -5  12  242.10    8.77
   6   5 -12  236.66    8.55
  -6  -5  11  723.01   20.03
   6   5 -11  720.24   19.81
  -6  -5  10  233.55    8.21
   6   5 -10  246.59    8.77
  -6  -5   9 1157.49   30.74
   6   5  -9 1165.26   30.85
  -6  -5   8  318.23   10.43
   6   5  -8  315.12   10.04
  -6  -5   7  885.59   24.08
   6   5  -7  842.31   23.08
  -6  -5   6 2141.30   54.99
   6   5  -6 2108.00   54.10
  -6  -5   5   20.81    3.27
   6   5  -5   22.64    3.72
  -6  -5   4   10.32    3.27
   6   5  -4    8.16    3.05
  -6  -5   3   96.99    4.88
   6   5  -3   89.67    4.83
  -6  -5   2   -2.16    2.77
   6   5  -2   -1.61    2.83
  -6  -5   1   40.06    3.33
   6   5  -1   40.28    3.77
  -6  -5   0 2089.69   53.44
   6   5   0 2106.34   54.05
  -6  -5  -1  255.30    8.43
   6   5   1  249.86    8.43
  -6  -5  -2 1032.64   27.36
   6   5   2 1034.30   27.58
  -6  -5  -3  587.62   16.37
   6   5   3  570.42   16.15
  -6  -5  -4  336.87   10.32
   6   5   4  342.53   10.43
  -6  -5  -5 4604.42  115.86
   6   5   5 4614.41  115.92
  -6  -5  -6   47.00    4.00
   6   5   6   41.56    3.77
  -6  -5  -7 2101.34   53.99
   6   5   7 2030.87   52.38
  -6  -5  -8  253.53    8.88
   6   5   8  247.15    8.71
   6   5   9 1195.22   31.85
   6   5   9 1183.01   31.52
   6   5  10  104.87    5.83
   6   5  10   92.33    5.33
   6   5  11   -1.83    3.88
   6   5  11   -2.61    3.61
   6   5  12  324.22   10.76
   6   5  12  295.20    9.71
   6   5  13  165.74    6.99
   6   5  13  164.30    7.32
   6   5  14   51.88    4.38
   6   5  14   51.77    5.05
   6   5  15   11.93    4.33
   6   5  15   12.54    4.44
   6   5  16  142.99    6.94
   6   5  16  144.82    6.16
   6   5  17  246.92    9.16
   6   5  17  259.91    8.71
  -6  -6  14  136.45    7.05
   6   6 -14  128.46    6.27
  -6  -6  13  363.17   11.65
   6   6 -13  341.03   10.82
  -6  -6  12  528.47   15.43
   6   6 -12  528.42   15.31
  -6  -6  11  361.23   11.32
   6   6 -11  377.99   11.60
  -6  -6  10  657.54   18.31
   6   6 -10  634.23   17.76
  -6  -6   9  809.02   22.31
   6   6  -9  771.29   21.36
  -6  -6   8 2098.57   53.93
   6   6  -8 2042.53   52.49
  -6  -6   7    4.05    3.55
   6   6  -7    7.99    3.44
  -6  -6   6 2164.60   55.49
   6   6  -6 2059.17   52.99
  -6  -6   5  599.27   16.87
   6   6  -5  589.29   16.76
  -6  -6   4  199.15    7.27
   6   6  -4  200.15    7.38
  -6  -6   3    1.83    2.89
   6   6  -3    4.44    3.05
  -6  -6   2 1028.75   27.30
   6   6  -2 1054.83   27.80
  -6  -6   1   58.21    3.66
   6   6  -1   54.71    3.72
  -6  -6   0 2706.17   68.58
   6   6   0 2714.49   68.75
  -6  -6  -1   66.36    3.83
   6   6   1   64.42    3.83
  -6  -6  -2 2436.49   61.98
   6   6   2 2479.22   62.92
  -6  -6  -3 1537.58   39.79
   6   6   3 1528.70   39.40
  -6  -6  -4   18.81    3.05
   6   6   4   16.98    2.94
  -6  -6  -5  320.33   10.15
   6   6   5  314.62    9.93
  -6  -6  -6  478.25   13.98
   6   6   6  502.89   14.54
  -6  -6  -7 2672.87   68.14
   6   6   7 2768.31   70.36
  -6  -6  -8  455.50   13.54
   6   6   8  471.32   13.87
   6   6   9  320.72   10.49
   6   6   9  309.24    9.43
   6   6  10  778.50   21.47
   6   6  10  786.27   21.36
   6   6  11   57.15    4.49
   6   6  11   45.78    4.38
   6   6  12   22.47    3.88
   6   6  12   21.25    4.00
   6   6  14   37.01    4.44
   6   6  14   42.56    4.72
   6   6  15   11.38    4.33
   6   6  15    1.50    4.38
   6   6  16  121.46    6.38
   6   6  16  128.34    5.94
   6   6  17  134.78    6.66
   6   6  17  135.78    6.44
  -6  -7  13  335.82   11.43
   6   7 -13  358.29   11.38
  -6  -7  12  191.43    7.66
   6   7 -12  189.83    7.60
  -6  -7  11  653.10   18.26
   6   7 -11  647.55   18.09
  -6  -7  10  455.84   13.76
   6   7 -10  440.30   13.04
  -6  -7   9  347.36   10.99
   6   7  -9  362.17   11.32
  -6  -7   8 2108.56   54.16
   6   7  -8 2253.94   57.82
  -6  -7   7  259.24    8.88
   6   7  -7  272.95    9.27
  -6  -7   6  738.00   20.31
   6   7  -6  739.66   20.25
  -6  -7   5 1423.28   37.07
   6   7  -5 1433.82   37.18
  -6  -7   4  216.63    7.49
   6   7  -4  217.79    7.55
  -6  -7   3  565.43   15.87
   6   7  -3  576.52   16.20
  -6  -7   2  166.35    6.21
   6   7  -2  156.26    6.16
  -6  -7   1  126.85    5.33
   6   7  -1  120.63    5.33
  -6  -7   0  139.94    5.49
   6   7   0  151.26    5.94
  -6  -7  -1   98.16    4.55
   6   7   1   98.44    4.66
  -6  -7  -2 2544.70   64.59
   6   7   2 2619.05   66.53
  -6  -7  -3 2039.20   52.10
   6   7   3 2046.97   52.44
  -6  -7  -4 1948.20   49.88
   6   7   4 1903.25   48.83
  -6  -7  -5  627.57   17.42
   6   7   5  601.49   16.65
  -6  -7  -6 1520.94   39.40
   6   7   6 1519.83   39.34
  -6  -7  -7   60.70    4.16
   6   7   7   73.08    4.44
  -6  -7  -8  369.89   11.32
   6   7   8  368.78   11.38
   6   7   9  126.01    5.88
   6   7   9  137.78    6.10
   6   7  10 2190.13   56.15
   6   7  10 2144.62   55.27
   6   7  11  192.93    7.55
   6   7  11  193.10    7.55
   6   7  12   40.67    4.27
   6   7  12   34.68    4.22
   6   7  13   44.39    4.66
   6   7  13   36.46    4.27
   6   7  14   38.18    4.44
   6   7  14   41.01    4.49
   6   7  15   79.18    5.88
   6   7  15   90.50    5.44
   6   7  16  353.52   11.54
   6   7  16  347.75   10.99
   6   7  17  131.51    6.71
   6   7  17  143.27    6.44
  -6  -8  12  201.76    8.60
   6   8 -12  190.60    7.82
  -6  -8  11  761.30   21.09
   6   8 -11  703.59   19.53
  -6  -8  10   67.64    4.94
   6   8 -10   73.30    4.88
  -6  -8   9  561.54   16.20
   6   8  -9  548.89   15.59
  -6  -8   8  568.20   16.20
   6   8  -8  572.08   16.20
  -6  -8   7   50.00    4.33
   6   8  -7   50.49    4.38
  -6  -8   6   46.17    4.27
   6   8  -6   58.21    4.49
  -6  -8   5    8.77    3.11
   6   8  -5    4.33    3.22
  -6  -8   4    0.83    2.94
   6   8  -4    4.99    2.83
  -6  -8   3 1396.64   36.29
   6   8  -3 1342.26   34.85
  -6  -8   2  330.77    9.99
   6   8  -2  315.23    9.60
  -6  -8   1  267.18    8.43
   6   8  -1  250.75    8.05
  -6  -8   0  361.34   10.60
   6   8   0  351.96   10.43
  -6  -8  -1  570.42   15.70
   6   8   1  558.77   15.43
  -6  -8  -2 1059.83   27.80
   6   8   2 1046.51   27.41
  -6  -8  -3 1421.06   36.73
   6   8   3 1394.98   35.96
  -6  -8  -4 1981.49   50.61
   6   8   4 1978.71   50.44
  -6  -8  -5  293.76    9.27
   6   8   5  294.59    9.10
  -6  -8  -6 1261.81   32.85
   6   8   6 1322.84   34.46
  -6  -8  -7  108.81    4.94
   6   8   7  129.68    5.66
  -6  -8  -8 1130.30   29.96
   6   8   8 1008.22   26.75
   6   8   9  257.80    8.43
   6   8   9  262.02    8.60
   6   8  10  233.33    7.82
   6   8  10  232.50    8.10
   6   8  11   45.61    4.33
   6   8  11   42.00    3.72
   6   8  12   69.75    4.83
   6   8  12   77.13    4.88
   6   8  13  188.16    7.44
   6   8  13  182.33    7.16
   6   8  14    4.11    3.83
   6   8  14   -2.22    3.77
   6   8  15  452.67   13.54
   6   8  15  451.90   13.43
   6   8  16  403.68   12.48
   6   8  16  373.16   11.54
   6   8  17  171.68    7.55
   6   8  17  161.86    6.77
  -6  -9  12  330.88   11.87
   6   9 -12  357.96   11.65
  -6  -9  11  524.92   15.76
   6   9 -11  484.86   14.32
  -6  -9  10   11.04    4.22
   6   9 -10   17.70    4.66
  -6  -9   9  302.36    9.99
   6   9  -9  291.42    9.82
  -6  -9   8   42.23    4.49
   6   9  -8   38.84    4.16
  -6  -9   7  288.26    9.71
   6   9  -7  290.37    9.38
  -6  -9   6   11.65    3.33
   6   9  -6   11.21    3.16
  -6  -9   5    7.99    3.11
   6   9  -5    7.82    3.55
  -6  -9   4  395.41   11.76
   6   9  -4  402.68   11.93
  -6  -9   3  423.04   12.32
   6   9  -3  446.29   12.87
  -6  -9   2  971.05   25.75
   6   9  -2 1017.66   26.86
  -6  -9   1    5.22    2.50
   6   9  -1    2.39    2.61
  -6  -9   0 1099.78   28.69
   6   9   0 1169.14   30.41
  -6  -9  -1  243.09    7.55
   6   9   1  245.70    7.71
  -6  -9  -2 3071.83   77.46
   6   9   2 3036.88   76.63
  -6  -9  -3 1706.82   43.67
   6   9   3 1758.43   45.00
  -6  -9  -4   44.11    3.11
   6   9   4   38.51    3.11
  -6  -9  -5 2978.06   75.35
   6   9   5 2863.20   72.36
  -6  -9  -6  277.44    8.82
   6   9   6  283.60    8.88
  -6  -9  -7  416.33   12.32
   6   9   7  446.68   12.93
   6   9   8  107.09    4.99
   6   9   8  101.99    4.77
   6   9   9  512.77   14.82
   6   9   9  524.53   14.98
   6   9  10  141.00    6.21
   6   9  10  140.61    6.10
   6   9  11    1.17    3.44
   6   9  11    5.94    3.61
   6   9  12   -3.33    3.44
   6   9  12    3.11    3.83
   6   9  13  243.15    8.60
   6   9  13  244.20    8.43
   6   9  14   25.25    4.22
   6   9  14   21.97    3.88
   6   9  15  690.28   19.20
   6   9  15  679.73   18.92
   6   9  16  464.38   13.71
   6   9  16  461.83   14.09
   6   9  17  592.62   16.65
   6   9  17  577.63   16.70
  -6 -10  11    4.72    8.99
   6  10 -11  221.23    8.16
  -6 -10  10   17.26    5.16
   6  10 -10   17.42    4.88
  -6 -10   9   27.97    4.94
   6  10  -9   38.12    4.72
  -6 -10   8  128.18    6.38
   6  10  -8  123.57    5.83
  -6 -10   7   86.84    5.16
   6  10  -7  105.76    5.44
  -6 -10   6  287.98    9.38
   6  10  -6  286.32    9.16
  -6 -10   5   91.00    4.94
   6  10  -5  102.32    4.99
  -6 -10   4   14.48    3.44
   6  10  -4   21.36    3.61
  -6 -10   3  479.47   13.65
   6  10  -3  480.20   13.71
  -6 -10   2  193.21    6.83
   6  10  -2  184.00    6.55
  -6 -10   1  916.67   24.25
   6  10  -1  880.60   23.42
  -6 -10   0 2540.81   64.37
   6  10   0 2626.26   66.42
  -6 -10  -1  279.11    8.43
   6  10   1  279.11    8.43
  -6 -10  -2 1556.45   39.95
   6  10   2 1543.69   39.56
  -6 -10  -3   66.14    3.50
   6  10   3   74.13    3.61
  -6 -10  -4 1872.18   47.78
   6  10   4 1806.15   46.11
  -6 -10  -5   47.28    3.22
   6  10   5   45.17    3.22
  -6 -10  -6 1019.88   26.75
   6  10   6 1045.96   27.41
   6  10   7 1458.79   37.57
   6  10   8  283.55    8.88
   6  10   8  296.47    9.16
   6  10   9    2.16    3.05
   6  10   9    4.44    2.89
   6  10  10   -0.89    3.22
   6  10  10    5.27    2.89
   6  10  11    7.93    3.27
   6  10  11   12.04    3.50
   6  10  12    2.61    3.38
   6  10  12    4.00    3.44
   6  10  13  243.87    8.49
   6  10  13  220.40    8.16
   6  10  14  531.25   15.54
   6  10  14  512.66   14.82
   6  10  15  686.39   19.25
   6  10  15  689.17   19.14
   6  10  16  695.27   19.59
   6  10  16  701.93   19.42
   6  10  17  113.53    6.49
   6  10  17  132.51    6.44
  -6 -11  10   -2.61    8.77
   6  11 -10   20.53    4.38
  -6 -11   9  524.42   16.31
   6  11  -9  503.39   14.93
  -6 -11   8    2.33    4.72
   6  11  -8   12.43    4.27
  -6 -11   7   40.17    4.66
   6  11  -7   31.91    4.33
  -6 -11   6   46.28    4.55
   6  11  -6   40.56    4.16
  -6 -11   5  673.07   18.59
   6  11  -5  681.95   18.81
  -6 -11   4   79.85    4.49
   6  11  -4   81.96    4.55
  -6 -11   3  548.61   15.31
   6  11  -3  530.91   14.87
  -6 -11   2  102.43    4.66
   6  11  -2  111.25    4.99
  -6 -11   1  818.45   21.64
   6  11  -1  810.68   21.53
  -6 -11   0 2948.10   74.47
   6  11   0 2978.06   75.30
  -6 -11  -1 2078.04   52.88
   6  11   1 2045.30   52.10
  -6 -11  -2   71.52    3.55
   6  11   2   67.47    3.55
  -6 -11  -3    0.11    2.11
   6  11   3    0.55    2.44
  -6 -11  -4  852.30   22.47
   6  11   4  862.29   22.75
  -6 -11  -5  907.23   23.86
   6  11   5  898.36   23.64
  -6 -11  -6  189.38    6.38
   6  11   6  192.88    6.38
   6  11   7 1256.81   32.63
   6  11   7 1179.68   30.63
   6  11   8  385.09   11.21
   6  11   8  375.10   10.93
   6  11   9   93.00    4.66
   6  11   9   87.62    4.77
   6  11  10   96.55    4.88
   6  11  10  104.82    5.22
   6  11  11  487.41   13.98
   6  11  11  462.72   13.26
   6  11  12    1.11    3.44
   6  11  12   -0.11    3.38
   6  11  13  471.71   13.87
   6  11  13  451.62   13.32
   6  11  14  376.82   11.60
   6  11  14  355.29   11.21
   6  11  15  755.20   20.97
   6  11  15  736.89   20.31
   6  11  16  369.83   12.10
   6  11  16  348.86   10.99
   6  11  17  251.70    9.49
   6  11  17  252.86    9.16
   6  12  -9  197.32    8.60
  -6 -12   8   66.64    6.83
   6  12  -8   59.04    5.49
  -6 -12   7    4.88    4.83
   6  12  -7   11.26    4.77
  -6 -12   6   57.04    5.10
   6  12  -6   66.31    5.10
  -6 -12   5  193.65    7.55
   6  12  -5  200.37    7.44
  -6 -12   4   19.14    3.72
   6  12  -4   19.31    3.55
  -6 -12   3   64.64    4.16
   6  12  -3   69.97    4.16
  -6 -12   2  239.38    7.60
   6  12  -2  236.38    7.60
  -6 -12   1  705.26   18.87
   6  12  -1  679.73   18.14
  -6 -12   0 1474.33   37.84
   6  12   0 1406.07   36.07
  -6 -12  -1 1252.93   32.24
   6  12   1 1265.13   32.52
  -6 -12  -2  629.24   16.70
   6  12   2  667.52   17.70
  -6 -12  -3  677.51   17.92
   6  12   3  688.06   18.26
  -6 -12  -4  102.15    4.05
   6  12   4  103.49    4.38
   6  12   5  848.97   22.25
   6  12   6   20.14    2.55
   6  12   6   17.03    2.39
   6  12   7  790.15   20.81
   6  12   7  811.79   21.31
   6  12   8   34.40    3.05
   6  12   8   43.67    3.27
   6  12   9   14.59    3.00
   6  12   9   14.98    3.27
   6  12  10   57.26    4.11
   6  12  10   53.38    4.11
   6  12  11  420.10   12.37
   6  12  11  418.88   12.32
   6  12  12  253.86    8.66
   6  12  12  253.47    8.55
   6  12  13  577.08   16.37
   6  12  13  563.21   15.93
   6  12  14  136.39    6.60
   6  12  14  144.60    6.38
   6  12  15  968.27   26.14
   6  12  15  951.63   25.52
   6  12  16  330.04   11.15
   6  12  16  330.66   10.82
   6  12  17  315.95   10.43
   6  12  17  347.52   11.21
  -6 -13   7   17.70    6.44
   6  13  -7   20.03    4.94
  -6 -13   6   11.32    5.38
   6  13  -6    2.11    4.61
  -6 -13   5   73.91    5.60
   6  13  -5   85.34    5.49
  -6 -13   4   53.55    4.72
   6  13  -4   76.35    4.83
  -6 -13   3  262.29    8.77
   6  13  -3  249.31    8.16
  -6 -13   2  957.73   25.30
   6  13  -2  924.44   24.25
  -6 -13   1  557.10   15.20
   6  13  -1  544.95   14.98
  -6 -13   0  488.74   13.37
   6  13   0  462.16   12.60
  -6 -13  -1  520.20   13.93
   6  13   1  493.35   13.26
  -6 -13  -2  827.89   21.58
   6  13   2  767.40   20.09
  -6 -13  -3  183.61    5.49
   6  13   3  194.32    5.77
   6  13   4   79.79    3.11
   6  13   4   71.69    2.83
   6  13   5  193.99    5.88
   6  13   5  191.55    5.77
   6  13   6   39.67    2.61
   6  13   6   34.85    2.66
   6  13   7    0.78    2.33
   6  13   7    0.78    2.28
   6  13   8    5.99    2.55
   6  13   8    6.83    2.66
   6  13   9   81.79    4.00
   6  13   9   81.96    4.11
   6  13  10  525.86   14.54
   6  13  10  523.03   14.48
   6  13  11   41.12    3.77
   6  13  11   44.06    3.94
   6  13  12  323.77   10.15
   6  13  12  332.87   10.27
   6  13  13  471.93   13.93
   6  13  13  460.05   13.65
   6  13  14  209.75    7.99
   6  13  14  214.07    8.10
   6  13  15  588.18   17.15
   6  13  15  590.40   16.81
   6  13  16  217.68    8.99
   6  13  16  201.76    8.05
  -6 -14   6   21.42    6.77
  -6 -14   6    6.83    6.49
  -6 -14   5  212.74    9.27
  -6 -14   4   40.45    5.83
   6  14  -4   48.77    4.83
  -6 -14   3  392.52   11.99
   6  14  -3  411.89   12.04
  -6 -14   2  193.77    7.05
   6  14  -2  195.21    6.55
  -6 -14   1  313.23    9.21
   6  14  -1  309.29    8.99
  -6 -14   0  863.40   25.80
   6  14   8   22.08    2.44
   6  14   8   19.03    2.44
   6  14   9    1.78    2.61
   6  14   9    3.33    2.72
   6  14  10  126.35    5.16
   6  14  10  114.25    4.83
   6  14  11  136.33    5.49
   6  14  11  125.07    5.44
   6  14  12  166.63    6.60
   6  14  12  145.71    6.16
   6  14  13  570.98   15.98
   6  14  13  611.48   17.37
   6  14  14  135.56    6.99
   6  14  14  137.78    6.49
   6  14  15  671.41   19.25
   6  14  15  684.73   19.25
   6  14  16  211.41    8.71
   6  14  16  220.57    8.55
  -6 -15   4    9.49    5.88
  -6 -15   4   18.53    4.44
  -6 -15   3  499.45   14.37
  -6 -15   3  492.85   13.76
   6  15  10  103.76    3.88
   6  15  10  110.98    4.11
   6  15  12   58.76    4.27
   6  15  12   71.69    4.99
   6  15  13  459.89   13.59
   6  15  13  415.11   12.26
   6  15  14   11.93    4.94
   6  15  14    3.22    4.88
   6  15  15  548.11   16.09
   6  15  15  518.59   15.54
   6  16  13  407.51   12.21
   6  16  13  422.16   12.26
   6  16  14    8.38    5.66
   6  16  14    7.88    5.66
  -7  11  10   90.67    5.72
   7 -11 -10  116.14    6.33
  -7  11   9   40.40    4.83
   7 -11  -9   45.33    5.10
  -7  11   8  266.29    9.21
   7 -11  -8  250.92    8.99
  -7  11   7  149.43    6.88
   7 -11  -7  147.43    6.99
  -7  11   6   26.19    4.94
   7 -11  -6   37.45    4.72
  -7  11   5    4.00    4.44
   7 -11  -5    9.32    4.77
  -7  11   4   -5.55    4.55
   7 -11  -4    0.28    4.61
  -7  11   3   10.60    4.83
   7 -11  -3    3.66    4.83
  -7  11   2   33.46    5.22
   7 -11  -2   33.96    5.99
  -7  10  12   46.94    5.38
   7 -10 -12   40.12    5.05
  -7  10  11   68.36    5.27
   7 -10 -11   64.09    5.38
  -7  10  10  364.17   11.49
   7 -10 -10  360.84   11.43
  -7  10   9    1.78    4.05
   7 -10  -9   12.04    4.72
  -7  10   8  439.69   13.21
   7 -10  -8  446.02   13.54
  -7  10   7  195.54    7.60
   7 -10  -7  191.77    7.60
  -7  10   6  153.04    6.49
   7 -10  -6  151.21    6.77
  -7  10   5   -1.22    4.00
   7 -10  -5    1.17    4.49
  -7  10   4   41.17    4.72
   7 -10  -4   50.83    5.22
  -7  10   3   -0.28    4.61
   7 -10  -3   -4.49    4.38
  -7  10   2  108.76    6.10
   7 -10  -2  135.06    6.77
  -7  10   1   13.37    4.49
   7 -10  -1    8.38    4.49
  -7  10   0   74.74    5.55
   7 -10   0   74.74    5.66
  -7  10  -1    1.00    4.61
   7 -10   1   -2.83    4.77
  -7   9  13  173.07    7.21
   7  -9 -13  153.98    7.16
  -7   9  12   38.12    5.16
   7  -9 -12   51.77    4.88
  -7   9  11  451.29   13.37
   7  -9 -11  438.69   13.21
  -7   9  10  334.59   10.82
   7  -9 -10  328.93   10.71
  -7   9   9  159.75    6.71
   7  -9  -9  149.60    6.60
  -7   9   8   78.13    5.10
   7  -9  -8   85.34    5.55
  -7   9   7  368.11   11.43
   7  -9  -7  368.17   11.60
  -7   9   6   17.59    3.88
   7  -9  -6   14.32    4.11
  -7   9   5   71.30    4.88
   7  -9  -5   76.57    5.27
  -7   9   4   17.70    4.05
   7  -9  -4   11.71    4.22
  -7   9   3   23.58    4.22
   7  -9  -3   19.20    4.22
  -7   9   2   56.71    4.99
   7  -9  -2   61.20    5.44
  -7   9   1   61.92    5.10
   7  -9  -1   55.88    4.99
  -7   9   0   16.31    4.22
   7  -9   0   22.92    4.38
  -7   9  -1    7.05    4.44
   7  -9   1   15.15    4.94
  -7   9  -2  153.43    7.16
   7  -9   2  170.52    7.77
  -7   8  14   11.99    4.00
   7  -8 -14   11.87    4.61
  -7   8  13  660.87   18.48
   7  -8 -13  628.13   17.65
  -7   8  12   13.37    4.33
   7  -8 -12    9.16    4.33
  -7   8  11  756.86   20.75
   7  -8 -11  750.76   20.64
  -7   8  10   42.95    4.49
   7  -8 -10   44.39    4.66
  -7   8   9  353.02   11.15
   7  -8  -9  330.66   10.65
  -7   8   8  133.17    5.99
   7  -8  -8  119.58    6.05
  -7   8   7    1.61    3.55
   7  -8  -7    2.89    3.83
  -7   8   6  148.99    6.60
   7  -8  -6  141.38    6.27
  -7   8   5    4.61    3.72
   7  -8  -5   -2.50    3.44
  -7   8   4    1.72    3.66
   7  -8  -4   -0.44    3.72
  -7   8   3   22.53    3.83
   7  -8  -3   21.75    4.05
  -7   8   2   96.88    5.33
   7  -8  -2  100.99    5.49
  -7   8   1  191.66    7.21
   7  -8  -1  183.28    7.16
  -7   8   0   51.83    4.72
   7  -8   0   44.72    4.27
  -7   8  -1  144.10    6.49
   7  -8   1  168.68    7.27
  -7   8  -2  118.02    6.16
   7  -8   2  102.10    6.16
  -7   8  -3  338.92   10.93
   7  -8   3  364.39   11.82
   7  -8   4    2.66    4.94
   7  -8   4   -2.00    5.44
   7  -8   5  612.59   17.92
   7  -8   5  585.96   16.98
  -7   7  15   34.90    4.61
   7  -7 -15   36.18    5.05
  -7   7  14  114.42    6.27
   7  -7 -14  107.98    6.05
  -7   7  13  295.03    9.77
   7  -7 -13  273.28    9.38
  -7   7  12  280.11    9.43
   7  -7 -12  273.00    9.27
  -7   7  11  456.50   13.65
   7  -7 -11  421.77   12.87
  -7   7  10   64.59    4.88
   7  -7 -10   66.97    5.05
  -7   7   9  198.70    7.60
   7  -7  -9  200.37    7.55
  -7   7   8  104.48    5.38
   7  -7  -8  113.47    5.66
  -7   7   7    5.99    3.61
   7  -7  -7    9.71    3.38
  -7   7   6   36.18    4.05
   7  -7  -6   36.07    4.05
  -7   7   5   62.37    4.61
   7  -7  -5   60.04    4.44
  -7   7   4   45.67    4.11
   7  -7  -4   50.38    4.38
  -7   7   3   20.36    3.72
   7  -7  -3   18.53    3.94
  -7   7   2  268.95    8.93
   7  -7  -2  260.57    8.99
  -7   7   1   55.77    4.05
   7  -7  -1   50.83    4.27
  -7   7   0  190.33    7.21
   7  -7   0  191.05    7.66
  -7   7  -1  395.08   11.99
   7  -7   1  418.27   12.87
  -7   7  -2  436.53   13.21
   7  -7   2  449.90   13.71
  -7   7  -3  175.57    7.10
   7  -7   3  173.46    7.55
  -7   7  -4   50.27    4.77
   7  -7   4   61.26    5.60
   7  -7   5  328.77   11.21
   7  -7   5  330.27   11.10
   7  -7   6   -2.66    5.38
   7  -7   6    9.21    5.22
  -7   6  15  113.70    5.66
   7  -6 -15  115.19    6.21
  -7   6  14  122.30    6.27
   7  -6 -14  128.95    6.44
  -7   6  13  582.63   16.59
   7  -6 -13  577.08   16.42
  -7   6  12  522.26   15.04
   7  -6 -12  502.34   14.65
  -7   6  11   48.27    4.49
   7  -6 -11   57.10    4.72
  -7   6  10  123.79    5.77
   7  -6 -10  111.64    5.77
  -7   6   9    2.44    3.00
   7  -6  -9    3.77    3.61
  -7   6   8  309.74    9.88
   7  -6  -8  294.75    9.71
  -7   6   7   -0.22    3.11
   7  -6  -7    1.83    3.61
  -7   6   6  250.92    8.38
   7  -6  -6  255.63    8.71
  -7   6   5   32.13    3.50
   7  -6  -5   36.12    4.11
  -7   6   4   53.16    4.11
   7  -6  -4   44.39    3.88
  -7   6   3  176.95    6.77
   7  -6  -3  196.93    7.66
  -7   6   2  369.33   11.10
   7  -6  -2  380.04   11.76
  -7   6   1  197.54    7.05
   7  -6  -1  203.81    7.49
  -7   6   0  557.10   15.87
   7  -6   0  547.06   15.76
  -7   6  -1  176.95    7.32
   7  -6   1  161.80    6.83
  -7   6  -2  477.87   14.09
   7  -6   2  446.63   13.26
  -7   6  -3  312.57   10.21
   7  -6   3  289.37    9.93
  -7   6  -4  297.20    9.88
   7  -6   4  293.20   10.15
  -7   6  -5  322.50   10.76
   7  -6   5  280.11    9.88
   7  -6   6   65.64    5.66
   7  -6   6   82.23    5.99
   7  -6   7   91.06    6.27
   7  -6   7   89.28    5.94
   7  -6   8   80.51    6.49
   7  -6   8   75.63    6.33
  -7   5  16   21.58    4.66
   7  -5 -16   16.42    4.66
  -7   5  15  349.24   10.93
   7  -5 -15  346.14   10.99
  -7   5  14   88.45    5.22
   7  -5 -14   90.78    5.44
  -7   5  13  656.43   18.42
   7  -5 -13  673.63   18.87
  -7   5  12   44.17    4.27
   7  -5 -12   63.26    4.72
  -7   5  11  228.06    7.82
   7  -5 -11  205.97    7.60
  -7   5  10   80.46    4.72
   7  -5 -10   83.29    5.05
  -7   5   9    9.99    3.55
   7  -5  -9    6.66    3.61
  -7   5   8   80.57    4.66
   7  -5  -8   83.57    5.16
  -7   5   7   39.51    3.77
   7  -5  -7   40.73    4.16
  -7   5   6   30.80    3.83
   7  -5  -6   32.29    3.77
  -7   5   5   59.71    4.38
   7  -5  -5   58.76    4.27
  -7   5   4   64.20    4.44
   7  -5  -4   70.36    4.72
  -7   5   3  357.62   11.21
   7  -5  -3  334.54   10.71
  -7   5   2  188.05    7.38
   7  -5  -2  184.22    7.16
  -7   5   1  552.72   16.09
   7  -5  -1  537.52   15.43
  -7   5   0  446.57   13.59
   7  -5   0  455.17   13.54
  -7   5  -1 1004.34   26.97
   7  -5   1 1010.44   27.13
  -7   5  -2  355.85   11.38
   7  -5   2  362.28   11.49
  -7   5  -3  642.00   18.03
   7  -5   3  616.48   17.59
  -7   5  -4  128.62    5.99
   7  -5   4  124.68    6.21
  -7   5  -5  475.15   13.87
   7  -5   5  437.08   13.26
   7  -5   6   17.98    4.72
   7  -5   6   14.82    4.38
   7  -5   7  128.34    6.60
   7  -5   7  133.34    6.77
   7  -5   8   72.47    6.05
   7  -5   8   72.19    5.77
   7  -5   9   39.45    5.66
   7  -5   9   45.56    5.83
  -7   4  16  119.08    6.10
   7  -4 -16  106.20    5.99
  -7   4  15   98.05    5.16
   7  -4 -15  100.43    5.66
  -7   4  14   85.78    5.33
   7  -4 -14   84.84    5.38
  -7   4  13  904.46   24.08
   7  -4 -13  892.25   24.14
  -7   4  12   51.33    4.66
   7  -4 -12   43.89    4.27
  -7   4  11  198.20    7.66
   7  -4 -11  200.65    7.38
  -7   4  10   -0.78    3.50
   7  -4 -10   -0.61    3.33
  -7   4   9  393.86   12.04
   7  -4  -9  408.12   12.26
  -7   4   8   17.48    3.61
   7  -4  -8   21.14    3.72
  -7   4   7   11.93    3.27
   7  -4  -7   13.15    3.44
  -7   4   6  119.97    5.55
   7  -4  -6  113.86    5.55
  -7   4   5   25.75    3.44
   7  -4  -5   28.91    3.83
  -7   4   4  694.71   18.87
   7  -4  -4  702.48   19.48
  -7   4   3  678.62   18.59
   7  -4  -3  711.36   19.81
  -7   4   2  177.29    6.44
   7  -4  -2  181.61    6.94
  -7   4   1  891.70   23.69
   7  -4  -1  858.96   23.31
  -7   4   0  675.85   18.48
   7  -4   0  717.46   20.03
  -7   4  -1  639.23   17.81
   7  -4   1  595.94   17.03
  -7   4  -2  153.37    6.44
   7  -4   2  153.15    6.71
  -7   4  -3  971.05   25.86
   7  -4   3  958.84   25.91
  -7   4  -4  609.26   17.15
   7  -4   4  621.47   17.65
  -7   4  -5  136.45    6.10
   7  -4   5  153.31    6.94
  -7   4  -6   29.74    4.16
   7  -4   6   33.07    4.77
   7  -4   7    7.16    4.38
   7  -4   7   -0.11    4.27
   7  -4   8    5.10    4.77
   7  -4   8   -0.78    4.38
   7  -4   9   66.03    5.66
   7  -4   9   66.64    5.38
   7  -4  10    2.77    4.55
   7  -4  10   -4.88    4.88
  -7   3  16  117.69    6.38
   7  -3 -16  125.24    6.27
  -7   3  15  326.88   10.49
   7  -3 -15  340.09   10.99
  -7   3  14  256.69    8.77
   7  -3 -14  256.58    8.93
  -7   3  13   16.42    4.22
   7  -3 -13   16.81    4.00
  -7   3  12  382.54   11.71
   7  -3 -12  380.71   11.76
  -7   3  11  232.88    7.99
   7  -3 -11  241.82    8.49
  -7   3  10   30.52    3.72
   7  -3 -10   27.47    3.88
  -7   3   9   33.63    3.94
   7  -3  -9   25.14    3.94
  -7   3   8   -5.16    3.33
   7  -3  -8    5.77    3.38
  -7   3   7   23.97    3.72
   7  -3  -7   27.36    3.77
  -7   3   6   84.62    4.77
   7  -3  -6   74.91    4.55
  -7   3   5   13.93    3.50
   7  -3  -5    9.54    3.38
  -7   3   4   -1.61    3.33
   7  -3  -4    6.88    3.11
  -7   3   3  971.05   26.30
   7  -3  -3  978.81   26.41
  -7   3   2 2124.09   54.77
   7  -3  -2 1978.16   50.88
  -7   3   1  261.41    9.16
   7  -3  -1  265.40    9.04
  -7   3   0 1774.52   46.06
   7  -3   0 1820.57   47.11
  -7   3  -1   49.77    4.33
   7  -3   1   56.93    4.55
  -7   3  -2 2262.81   58.21
   7  -3   2 2252.27   57.76
  -7   3  -3  135.00    6.10
   7  -3   3  148.65    6.60
  -7   3  -4  152.54    6.55
   7  -3   4  139.66    6.16
  -7   3  -5  363.62   11.43
   7  -3   5  377.49   11.87
  -7   3  -6  129.45    6.44
   7  -3   6  141.61    6.55
   7  -3   7  493.46   14.59
   7  -3   8  371.22   11.87
   7  -3   8  364.67   11.65
   7  -3   9   22.53    4.72
   7  -3   9   36.18    4.77
   7  -3  10   22.86    5.27
   7  -3  10   28.13    4.83
   7  -3  11   56.82    5.60
   7  -3  11   57.37    5.27
  -7   2  16  346.86   10.93
   7  -2 -16  311.79   10.27
  -7   2  15  463.55   13.71
   7  -2 -15  445.57   13.37
  -7   2  14   68.69    4.94
   7  -2 -14   71.69    4.99
  -7   2  13  192.82    7.21
   7  -2 -13  204.03    7.66
  -7   2  12   20.75    3.72
   7  -2 -12   20.81    3.88
  -7   2  11  427.04   12.93
   7  -2 -11  403.68   12.32
  -7   2  10   12.65    3.72
   7  -2 -10   10.99    3.61
  -7   2   9   40.78    4.16
   7  -2  -9   30.74    4.00
  -7   2   8  330.77   10.54
   7  -2  -8  304.30    9.99
  -7   2   7   30.13    3.61
   7  -2  -7   43.50    4.11
  -7   2   6   36.79    3.50
   7  -2  -6   43.11    4.05
  -7   2   5 1795.60   46.22
   7  -2  -5 1834.44   47.39
  -7   2   4  117.97    5.49
   7  -2  -4  112.53    5.33
  -7   2   3 1512.06   39.23
   7  -2  -3 1648.00   42.89
  -7   2   2  259.30    8.49
   7  -2  -2  253.64    8.49
  -7   2   1 1366.68   35.68
   7  -2  -1 1330.06   34.85
  -7   2   0 1315.63   34.46
   7  -2   0 1345.59   35.35
  -7   2  -1  354.52   10.82
   7  -2   1  359.68   11.26
  -7   2  -2 1265.69   33.18
   7  -2   2 1277.34   33.68
  -7   2  -3    9.27    3.27
   7  -2   3    7.21    3.44
  -7   2  -4  170.90    6.88
   7  -2   4  167.35    7.16
  -7   2  -5    6.71    3.27
   7  -2   5   -1.44    3.88
  -7   2  -6   45.33    4.16
   7  -2   6   49.94    4.55
  -7   2  -7   69.08    4.77
   7  -2   7   73.36    5.44
   7  -2   8   15.54    4.05
   7  -2   8   24.19    4.33
   7  -2   9   10.76    4.16
   7  -2   9    7.27    4.27
   7  -2  10  127.62    6.27
   7  -2  10  150.37    7.10
   7  -2  11  324.88   10.82
   7  -2  11  305.74   10.10
   7  -2  12   98.55    6.10
   7  -2  12  104.32    5.88
  -7   1  16  378.10   11.65
   7  -1 -16  389.31   11.93
  -7   1  15  204.97    7.88
   7  -1 -15  200.48    7.88
  -7   1  14  451.62   13.54
   7  -1 -14  486.97   14.32
  -7   1  13  273.34    9.27
   7  -1 -13  256.41    8.88
  -7   1  12   16.65    3.94
   7  -1 -12   26.08    4.05
  -7   1  11   99.16    5.10
   7  -1 -11  104.54    5.44
  -7   1  10   62.65    4.33
   7  -1 -10   65.92    4.55
  -7   1   9  334.76   10.54
   7  -1  -9  324.50   10.60
  -7   1   8   28.80    3.77
   7  -1  -8   24.91    3.77
  -7   1   7    7.38    3.55
   7  -1  -7    8.71    3.33
  -7   1   6  259.24    8.88
   7  -1  -6  246.37    8.43
  -7   1   5 1024.31   27.58
   7  -1  -5 1037.08   27.80
  -7   1   4  414.94   12.71
   7  -1  -4  399.79   12.15
  -7   1   3 3175.60   80.57
   7  -1  -3 3088.48   78.41
  -7   1   2   68.03    4.33
   7  -1  -2   83.01    4.88
  -7   1   1  811.79   22.31
   7  -1  -1  789.04   21.53
  -7   1   0  627.57   17.76
   7  -1   0  626.46   17.65
  -7   1  -1 1169.69   31.13
   7  -1   1 1117.54   29.74
  -7   1  -2  262.40    8.93
   7  -1   2  260.63    9.04
  -7   1  -3  203.53    7.55
   7  -1   3  214.41    8.05
  -7   1  -4   30.96    3.77
   7  -1   4   24.80    4.27
  -7   1  -5    8.05    3.50
   7  -1   5   16.65    3.88
  -7   1  -6   18.76    3.83
   7  -1   6   27.41    4.22
  -7   1  -7   87.62    5.44
   7  -1   7   85.84    5.33
   7  -1   8    0.61    3.77
   7  -1   9  194.26    7.82
   7  -1   9  189.88    7.60
   7  -1  10  242.76    8.71
   7  -1  10  244.09    8.88
   7  -1  11  386.53   12.32
   7  -1  11  379.48   12.04
   7  -1  12   56.82    5.55
   7  -1  12   55.77    5.27
   7  -1  13  270.51    9.65
   7  -1  13  259.91    9.54
  -7   0  16  714.69   19.48
   7   0 -16  676.40   18.76
  -7   0  15  105.65    5.83
   7   0 -15   97.55    5.33
  -7   0  14  435.75   12.98
   7   0 -14  432.20   12.98
  -7   0  13   11.04    4.05
   7   0 -13   12.54    3.94
  -7   0  12   32.63    3.94
   7   0 -12   41.06    4.27
  -7   0  11   29.85    4.16
   7   0 -11   25.80    4.05
  -7   0  10    5.77    3.66
   7   0 -10   -0.39    3.33
  -7   0   9   13.04    3.61
   7   0  -9    8.05    3.50
  -7   0   8   57.82    4.38
   7   0  -8   57.04    4.38
  -7   0   7  103.87    5.27
   7   0  -7   93.16    5.16
  -7   0   6  853.97   22.97
   7   0  -6  847.86   23.14
  -7   0   5  648.66   18.03
   7   0  -5  632.57   17.81
  -7   0   4  847.86   22.81
   7   0  -4  833.99   22.69
  -7   0   3  285.38    9.21
   7   0  -3  278.55    9.21
  -7   0   2  534.02   15.31
   7   0  -2  518.21   14.93
  -7   0   1 1963.73   50.49
   7   0  -1 1977.05   50.83
  -7   0   0 1604.17   41.62
   7   0   0 1674.08   43.39
  -7   0  -1   14.59    3.38
   7   0   1   15.26    3.33
  -7   0  -2  242.32    8.27
   7   0   2  244.87    8.49
  -7   0  -3    4.99    3.16
   7   0   3    3.00    3.55
  -7   0  -4    2.33    3.11
   7   0   4    0.50    3.66
  -7   0  -5  197.48    7.49
   7   0   5  182.17    7.32
  -7   0  -6    3.11    3.44
   7   0   6    5.10    4.00
  -7   0  -7  587.62   16.76
   7   0   7  584.29   16.87
  -7   0  -8  642.56   17.92
   7   0   8  651.99   18.59
   7   0   9   67.03    5.10
   7   0   9   67.31    5.10
   7   0  10  232.88    8.43
   7   0  10  233.11    8.38
   7   0  11  392.47   12.21
   7   0  11  408.28   12.60
   7   0  12  215.91    8.43
   7   0  12  216.68    8.21
   7   0  13  277.55    9.77
   7   0  13  265.73    9.38
  -7  -1  16  383.70   11.76
   7   1 -16  336.20   10.93
  -7  -1  15  196.48    7.82
   7   1 -15  218.18    7.88
  -7  -1  14  383.92   11.87
   7   1 -14  358.90   11.43
  -7  -1  13   51.38    4.61
   7   1 -13   78.18    5.22
  -7  -1  12   15.98    4.11
   7   1 -12   14.70    3.94
  -7  -1  11  273.28    9.32
   7   1 -11  272.56    9.16
  -7  -1  10   77.79    4.66
   7   1 -10   77.63    4.83
  -7  -1   9  161.36    6.60
   7   1  -9  172.68    7.05
  -7  -1   8   65.75    4.44
   7   1  -8   57.49    4.72
  -7  -1   7  539.74   15.59
   7   1  -7  551.78   15.98
  -7  -1   6  396.91   12.15
   7   1  -6  400.13   12.26
  -7  -1   5 1831.12   47.39
   7   1  -5 1914.90   49.50
  -7  -1   4   89.72    5.05
   7   1  -4  100.43    5.22
  -7  -1   3  491.29   14.54
   7   1  -3  462.44   13.76
  -7  -1   2  829.00   22.69
   7   1  -2  818.45   22.42
  -7  -1   1  468.65   13.93
   7   1  -1  524.81   15.15
  -7  -1   0 1295.65   34.29
   7   1   0 1318.96   34.68
  -7  -1  -1  119.63    5.77
   7   1   1  116.36    5.44
  -7  -1  -2  575.41   16.54
   7   1   2  585.40   16.81
  -7  -1  -3    3.55    3.00
   7   1   3    5.72    3.38
  -7  -1  -4  968.27   26.08
   7   1   4 1014.33   27.30
  -7  -1  -5  133.73    5.99
   7   1   5  129.23    6.21
  -7  -1  -6  180.67    6.94
   7   1   6  186.72    7.38
  -7  -1  -7  296.20    9.88
   7   1   7  281.21    9.65
  -7  -1  -8   63.03    4.83
   7   1   8   55.27    4.77
   7   1   9  384.87   12.04
   7   1   9  393.63   12.32
   7   1  10  549.83   15.93
   7   1  10  535.02   15.37
   7   1  11    3.27    4.05
   7   1  11   14.09    4.27
   7   1  12  272.34    9.49
   7   1  12  276.22    9.32
   7   1  13  257.02    9.04
   7   1  13  248.59    9.16
   7   1  14  245.87    8.55
   7   1  14  268.62    9.77
  -7  -2  15  323.66   10.49
   7   2 -15  327.60   10.43
  -7  -2  14  146.82    6.71
   7   2 -14  142.94    6.33
  -7  -2  13  275.50    9.27
   7   2 -13  267.95    9.21
  -7  -2  12   58.10    4.88
   7   2 -12   60.93    4.61
  -7  -2  11   51.44    4.38
   7   2 -11   54.27    4.49
  -7  -2  10    4.11    3.44
   7   2 -10    2.16    3.38
  -7  -2   9  137.17    6.27
   7   2  -9  135.11    6.21
  -7  -2   8  847.86   23.25
   7   2  -8  884.48   23.97
  -7  -2   7   61.54    4.55
   7   2  -7   61.54    4.49
  -7  -2   6    8.66    3.55
   7   2  -6    4.94    3.50
  -7  -2   5  820.12   22.25
   7   2  -5  872.28   23.80
  -7  -2   4  449.73   13.15
   7   2  -4  426.93   12.93
  -7  -2   3  883.93   23.80
   7   2  -3  896.69   24.36
  -7  -2   2  493.90   14.26
   7   2  -2  515.82   15.04
  -7  -2   1 1052.61   27.91
   7   2  -1 1030.42   27.52
  -7  -2   0  972.16   25.91
   7   2   0  988.25   26.52
  -7  -2  -1  861.18   23.25
   7   2   1  821.78   22.42
  -7  -2  -2 1172.47   30.91
   7   2   2 1197.99   31.74
  -7  -2  -3  131.73    5.88
   7   2   3  123.91    5.83
  -7  -2  -4  653.65   18.31
   7   2   4  612.59   17.42
  -7  -2  -5   76.02    4.77
   7   2   5   81.51    5.05
  -7  -2  -6   61.15    4.44
   7   2   6   46.28    4.72
  -7  -2  -7   41.84    4.05
   7   2   7   32.18    4.22
  -7  -2  -8    3.16    3.66
   7   2   8    2.28    3.77
   7   2   9   36.29    4.33
   7   2  10  414.78   12.65
   7   2  10  433.20   13.10
   7   2  11  664.75   18.64
   7   2  11  681.40   19.37
   7   2  12  283.21    9.77
   7   2  12  286.49    9.49
   7   2  13  582.63   16.70
   7   2  13  585.40   16.70
   7   2  14   68.03    5.44
   7   2  14   71.14    5.44
   7   2  15  270.78    9.99
   7   2  15  256.47    9.16
  -7  -3  15    5.66    4.44
   7   3 -15   11.49    4.22
  -7  -3  14  140.22    6.77
   7   3 -14  153.98    6.66
  -7  -3  13   35.18    4.55
   7   3 -13   37.34    4.27
  -7  -3  12   -1.33    3.77
   7   3 -12    0.44    4.05
  -7  -3  11    0.39    3.72
   7   3 -11   10.04    3.61
  -7  -3  10  395.80   12.37
   7   3 -10  406.29   12.43
  -7  -3   9  456.72   13.76
   7   3  -9  456.17   13.59
  -7  -3   8 1290.10   33.90
   7   3  -8 1273.46   33.57
  -7  -3   7  152.04    6.27
   7   3  -7  138.78    6.16
  -7  -3   6 2503.08   63.92
   7   3  -6 2486.43   63.48
  -7  -3   5  188.22    7.21
   7   3  -5  189.05    7.27
  -7  -3   4  711.36   19.70
   7   3  -4  709.14   19.70
  -7  -3   3 1914.35   49.33
   7   3  -3 1969.84   50.77
  -7  -3   2  222.56    7.77
   7   3  -2  242.37    8.27
  -7  -3   1  958.28   25.75
   7   3  -1  938.86   25.25
  -7  -3   0  100.82    5.05
   7   3   0  102.15    4.99
  -7  -3  -1 1313.41   34.57
   7   3   1 1275.12   33.51
  -7  -3  -2 2285.01   58.54
   7   3   2 2262.26   57.87
  -7  -3  -3  238.49    8.27
   7   3   3  229.00    8.05
  -7  -3  -4  134.06    6.05
   7   3   4  129.95    6.05
  -7  -3  -5    8.66    3.50
   7   3   5    5.22    3.77
  -7  -3  -6  101.71    5.27
   7   3   6  106.54    5.83
  -7  -3  -7    7.44    3.72
   7   3   7   -4.00    3.55
  -7  -3  -8  589.29   16.98
   7   3   8  627.02   17.76
  -7  -3  -9   39.45    4.16
   7   3   9   37.62    4.33
   7   3  10  191.60    7.44
   7   3  10  195.54    7.71
   7   3  11  695.82   19.48
   7   3  11  675.29   18.70
   7   3  12  377.32   11.87
   7   3  12  376.71   11.60
   7   3  13 1028.75   27.52
   7   3  13  964.39   26.02
   7   3  14  160.92    7.21
   7   3  14  173.96    7.55
   7   3  15  599.83   17.15
   7   3  15  600.38   16.87
  -7  -4  14  369.00   11.65
   7   4 -14  371.83   11.43
  -7  -4  13    4.88    4.11
   7   4 -13   -1.39    3.88
  -7  -4  12   54.21    5.16
   7   4 -12   60.32    4.94
  -7  -4  11   48.00    4.72
   7   4 -11   48.16    4.55
  -7  -4  10  609.26   17.37
   7   4 -10  628.68   17.65
  -7  -4   9   38.07    4.11
   7   4  -9   43.45    4.22
  -7  -4   8  542.18   15.59
   7   4  -8  561.54   16.04
  -7  -4   7   38.07    4.22
   7   4  -7   32.35    3.94
  -7  -4   6 2296.66   58.93
   7   4  -6 2250.61   57.82
  -7  -4   5  151.54    6.33
   7   4  -5  158.20    6.55
  -7  -4   4 1313.41   34.51
   7   4  -4 1274.01   33.51
  -7  -4   3 1820.02   47.11
   7   4  -3 1735.12   44.89
  -7  -4   2  657.54   18.31
   7   4  -2  697.49   19.37
  -7  -4   1  628.68   17.59
   7   4  -1  660.31   18.42
  -7  -4   0 1240.72   32.63
   7   4   0 1195.77   31.52
  -7  -4  -1  699.71   19.37
   7   4   1  672.52   18.76
  -7  -4  -2 1327.28   34.79
   7   4   2 1358.35   35.51
  -7  -4  -3    1.83    3.00
   7   4   3    0.17    3.05
  -7  -4  -4    9.43    3.27
   7   4   4    6.49    3.27
  -7  -4  -5   97.66    5.22
   7   4   5   88.56    5.27
  -7  -4  -6  147.38    6.27
   7   4   6  141.94    6.27
  -7  -4  -7  191.21    7.32
   7   4   7  187.61    7.32
  -7  -4  -8 1796.71   46.33
   7   4   8 1926.00   49.72
  -7  -4  -9   63.09    4.49
   7   4   9   70.80    4.88
   7   4  10 1570.32   41.01
   7   4  10 1635.80   42.34
   7   4  11   70.19    5.05
   7   4  11   70.14    5.05
   7   4  12  506.89   14.76
   7   4  12  505.05   14.98
   7   4  13  527.31   15.26
   7   4  13  526.03   15.09
   7   4  14  618.14   17.76
   7   4  14  638.67   18.03
   7   4  15  348.97   10.76
   7   4  15  332.32   10.88
  -7  -5  14    1.94    4.61
   7   5 -14   -0.78    4.00
  -7  -5  13   -1.11    4.11
   7   5 -13    4.49    4.00
  -7  -5  12   33.79    4.72
   7   5 -12   40.78    4.49
  -7  -5  11   26.41    4.44
   7   5 -11   23.58    4.05
  -7  -5  10  275.33    9.38
   7   5 -10  282.94    9.32
  -7  -5   9   73.85    4.88
   7   5  -9   71.86    5.05
  -7  -5   8  105.21    5.44
   7   5  -8  104.71    5.44
  -7  -5   7 1021.54   27.47
   7   5  -7 1009.89   27.08
  -7  -5   6  573.75   16.37
   7   5  -6  550.50   15.87
  -7  -5   5 1012.11   27.13
   7   5  -5 1062.05   28.47
  -7  -5   4  244.76    8.38
   7   5  -4  275.44    9.32
  -7  -5   3 2574.10   65.70
   7   5  -3 2523.61   64.42
  -7  -5   2  590.95   16.70
   7   5  -2  598.72   16.92
  -7  -5   1  924.44   24.91
   7   5  -1  899.47   24.30
  -7  -5   0 1726.80   44.72
   7   5   0 1709.04   44.28
  -7  -5  -1  260.96    8.77
   7   5   1  252.47    8.49
  -7  -5  -2  688.61   19.09
   7   5   2  701.37   19.48
  -7  -5  -3    3.11    3.00
   7   5   3   -3.33    3.11
  -7  -5  -4   98.99    4.99
   7   5   4  101.21    5.27
  -7  -5  -5   15.26    3.33
   7   5   5   15.59    3.27
  -7  -5  -6  824.56   22.58
   7   5   6  866.73   23.64
  -7  -5  -7  747.43   20.70
   7   5   7  712.47   19.92
  -7  -5  -8  948.85   25.64
   7   5   8  909.45   24.69
  -7  -5  -9  209.80    7.93
   7   5   9  192.27    7.32
   7   5  10  581.52   16.65
   7   5  10  564.87   16.37
   7   5  11  169.02    7.16
   7   5  11  175.18    7.21
   7   5  12  612.04   17.42
   7   5  12  597.05   16.98
   7   5  13  489.46   14.54
   7   5  13  483.58   14.15
   7   5  14  575.97   16.59
   7   5  14  595.94   17.03
   7   5  15  510.10   15.15
   7   5  15  512.88   14.76
   7   5  16  153.26    7.38
   7   5  16  135.72    5.99
  -7  -6  13    8.66    4.66
   7   6 -13   11.82    4.44
  -7  -6  12   25.69    4.66
   7   6 -12   28.19    4.38
  -7  -6  11    7.99    4.16
   7   6 -11    8.66    3.88
  -7  -6  10   87.34    5.22
   7   6 -10   79.46    4.83
  -7  -6   9  238.93    8.55
   7   6  -9  220.46    7.82
  -7  -6   8 1217.41   32.18
   7   6  -8 1293.99   34.07
  -7  -6   7  830.66   22.69
   7   6  -7  795.15   21.75
  -7  -6   6  188.33    7.21
   7   6  -6  195.04    7.44
  -7  -6   5 2129.64   54.71
   7   6  -5 2101.90   53.93
  -7  -6   4  213.46    7.66
   7   6  -4  209.69    7.55
  -7  -6   3 1265.13   33.24
   7   6  -3 1327.84   34.85
  -7  -6   2  821.78   22.25
   7   6  -2  802.36   21.81
  -7  -6   1 3542.93   89.61
   7   6  -1 3675.55   92.78
  -7  -6   0  402.29   12.21
   7   6   0  401.46   12.10
  -7  -6  -1    6.33    3.22
   7   6   1   -1.22    2.77
  -7  -6  -2  565.98   16.20
   7   6   2  562.10   15.93
  -7  -6  -3  461.83   13.65
   7   6   3  442.41   12.98
  -7  -6  -4   28.80    3.66
   7   6   4   24.08    3.38
  -7  -6  -5   52.66    3.88
   7   6   5   49.61    3.88
  -7  -6  -6 1140.29   30.30
   7   6   6 1147.50   30.35
  -7  -6  -7  375.38   11.49
   7   6   7  385.14   11.99
  -7  -6  -8 1844.99   47.55
   7   6   8 1893.26   48.89
  -7  -6  -9  495.68   14.59
   7   6   9  495.40   14.54
   7   6  10  576.52   16.65
   7   6  10  583.18   16.48
   7   6  11  378.32   11.87
   7   6  11  375.93   11.49
   7   6  12  200.92    7.55
   7   6  12  197.21    7.66
   7   6  13  485.30   14.59
   7   6  13  458.89   13.71
   7   6  14  392.58   12.15
   7   6  14  393.30   12.10
   7   6  15  508.33   14.98
   7   6  15  482.64   14.09
   7   6  16  182.78    7.93
   7   6  16  190.66    7.55
  -7  -7  13  194.60    8.38
   7   7 -13  167.13    7.55
  -7  -7  12   13.15    4.44
   7   7 -12    9.16    4.33
  -7  -7  11  245.37    8.88
   7   7 -11  256.30    8.71
  -7  -7  10  397.91   12.26
   7   7 -10  418.66   12.65
  -7  -7   9    4.22    3.77
   7   7  -9   -1.72    3.44
  -7  -7   8 1432.15   37.45
   7   7  -8 1402.19   36.57
  -7  -7   7  516.04   15.04
   7   7  -7  516.76   14.87
  -7  -7   6  856.74   23.08
   7   7  -6  847.31   23.08
  -7  -7   5  232.00    8.05
   7   7  -5  226.12    8.05
  -7  -7   4 1308.42   34.29
   7   7  -4 1346.15   35.29
  -7  -7   3  420.32   12.54
   7   7  -3  402.90   11.93
  -7  -7   2  703.59   19.25
   7   7  -2  724.68   19.64
  -7  -7   1 1685.18   43.56
   7   7  -1 1714.04   44.06
  -7  -7   0 1018.21   27.08
   7   7   0 1045.96   27.58
  -7  -7  -1  458.11   13.32
   7   7   1  478.37   13.71
  -7  -7  -2  640.89   17.76
   7   7   2  607.04   16.76
  -7  -7  -3   12.60    3.05
   7   7   3   10.82    2.77
  -7  -7  -4  814.01   22.03
   7   7   4  825.67   22.20
  -7  -7  -5  365.67   11.10
   7   7   5  372.33   11.26
  -7  -7  -6  740.77   20.36
   7   7   6  719.68   19.86
  -7  -7  -7    7.38    3.11
   7   7   7    9.32    3.50
  -7  -7  -8  997.13   26.58
   7   7   8 1048.73   27.91
  -7  -7  -9 1083.69   28.91
   7   7   9 1025.42   27.47
   7   7  10 1515.39   39.45
   7   7  10 1538.14   40.28
   7   7  11  405.29   12.32
   7   7  11  419.55   12.71
   7   7  12  239.04    8.43
   7   7  12  239.49    8.60
   7   7  13  306.63   10.21
   7   7  13  313.01   10.10
   7   7  14  196.04    7.88
   7   7  14  202.81    8.10
   7   7  15  851.19   23.03
   7   7  15  881.15   24.19
   7   7  16   -2.16    4.72
   7   7  16    3.88    4.22
  -7  -8  12    1.50    5.16
   7   8 -12    0.33    4.27
  -7  -8  11  397.41   12.48
   7   8 -11  406.12   12.54
  -7  -8  10   40.12    4.61
   7   8 -10   43.45    4.66
  -7  -8   9  609.82   17.15
   7   8  -9  611.48   17.31
  -7  -8   8  984.92   26.47
   7   8  -8  896.14   23.97
  -7  -8   7   79.46    4.88
   7   8  -7   61.09    4.44
  -7  -8   6 1714.04   44.34
   7   8  -6 1798.93   46.39
  -7  -8   5  516.82   14.87
   7   8  -5  510.10   14.82
  -7  -8   4  582.07   16.37
   7   8  -4  594.28   16.81
  -7  -8   3  617.03   17.03
   7   8  -3  639.23   17.87
  -7  -8   2  211.91    7.32
   7   8  -2  211.58    7.49
  -7  -8   1 1090.35   28.74
   7   8  -1 1078.69   28.58
  -7  -8   0  657.54   18.20
   7   8   0  676.40   18.59
  -7  -8  -1  247.98    8.21
   7   8   1  216.74    7.44
  -7  -8  -2   71.52    4.16
   7   8   2   76.35    4.16
  -7  -8  -3  801.25   21.70
   7   8   3  797.92   21.58
  -7  -8  -4   97.33    4.61
   7   8   4  107.26    4.99
  -7  -8  -5 2557.46   65.03
   7   8   5 2554.68   65.09
  -7  -8  -6   37.95    3.38
   7   8   6   41.78    3.55
  -7  -8  -7  117.52    5.38
   7   8   7  121.96    5.38
  -7  -8  -8  575.41   16.26
   7   8   8  570.98   16.15
   7   8   9  615.37   17.53
   7   8   9  587.62   16.76
   7   8  10 2179.58   55.65
   7   8  10 2121.87   54.43
   7   8  11  136.95    6.10
   7   8  11  143.66    5.83
   7   8  12  896.14   24.36
   7   8  12  890.03   23.97
   7   8  13  151.82    6.60
   7   8  13  150.82    6.60
   7   8  14  493.74   14.54
   7   8  14  486.36   14.21
   7   8  15  157.48    6.94
   7   8  15  150.60    6.60
   7   8  16   13.98    4.94
   7   8  16    8.27    4.16
  -7  -9  11  118.36    6.94
   7   9 -11  102.21    6.16
  -7  -9  10   89.50    5.99
   7   9 -10   81.29    5.72
  -7  -9   9  793.48   21.86
   7   9  -9  799.03   21.86
  -7  -9   8  632.01   17.98
   7   9  -8  619.25   17.59
  -7  -9   7  477.20   13.93
   7   9  -7  496.18   14.43
  -7  -9   6  341.03   10.71
   7   9  -6  348.08   10.76
  -7  -9   5  540.35   15.37
   7   9  -5  547.12   15.37
  -7  -9   4   80.51    4.72
   7   9  -4   91.94    4.77
  -7  -9   3 1657.99   42.95
   7   9  -3 1643.01   42.45
  -7  -9   2    6.38    2.83
   7   9  -2    4.61    3.16
  -7  -9   1  538.85   15.04
   7   9  -1  558.21   15.65
  -7  -9   0   79.79    4.16
   7   9   0   80.90    4.38
  -7  -9  -1  168.85    6.21
   7   9   1  168.07    6.33
  -7  -9  -2   10.60    2.66
   7   9   2    7.05    2.66
  -7  -9  -3 1850.54   47.61
   7   9   3 1802.26   46.33
  -7  -9  -4  141.50    5.72
   7   9   4  137.50    5.38
  -7  -9  -5 2275.02   58.04
   7   9   5 2276.13   57.87
  -7  -9  -6  153.59    6.10
   7   9   6  160.03    5.99
  -7  -9  -7 2258.93   57.71
   7   9   7 2170.70   55.43
  -7  -9  -8 1247.93   32.79
   7   9   8 1295.10   34.01
   7   9   9  557.10   16.09
   7   9   9  565.43   16.20
   7   9  10  756.86   20.70
   7   9  10  728.01   20.03
   7   9  11   80.18    4.77
   7   9  11   76.30    4.83
   7   9  12  878.94   23.69
   7   9  12  847.31   22.69
   7   9  13  340.59   10.93
   7   9  13  337.09   10.65
   7   9  14  300.80    9.99
   7   9  14  302.19    9.88
   7   9  15   51.27    5.22
   7   9  15   61.70    4.94
   7   9  16   34.24    4.49
   7   9  16   30.91    4.99
  -7 -10  10  789.04   22.75
   7  10 -10  663.64   18.48
  -7 -10   9   75.08    5.77
   7  10  -9   93.39    5.94
  -7 -10   8  900.02   24.47
   7  10  -8  833.99   22.92
  -7 -10   7  211.08    8.05
   7  10  -7  190.60    7.32
  -7 -10   6  884.48   23.86
   7  10  -6  864.51   23.25
  -7 -10   5  133.23    5.83
   7  10  -5  140.05    5.94
  -7 -10   4    7.38    3.44
   7  10  -4    3.72    3.27
  -7 -10   3  419.60   12.43
   7  10  -3  392.14   11.65
  -7 -10   2  297.36    9.10
   7  10  -2  306.24    9.49
  -7 -10   1   59.26    3.77
   7  10  -1   65.03    4.11
  -7 -10   0   -0.94    2.39
   7  10   0   -1.00    2.83
  -7 -10  -1   -4.38    2.55
   7  10   1    2.22    3.00
  -7 -10  -2  103.76    4.61
   7  10   2  103.60    4.61
  -7 -10  -3  526.86   14.82
   7  10   3  529.64   14.76
  -7 -10  -4  486.91   13.76
   7  10   4  472.65   13.32
  -7 -10  -5  119.19    4.94
   7  10   5  126.46    5.16
  -7 -10  -6  826.22   22.14
   7  10   6  825.11   21.97
  -7 -10  -7  921.66   24.41
   7  10   7  974.93   25.86
  -7 -10  -8  504.39   14.65
   7  10   8  472.48   13.71
   7  10   9  406.73   12.04
   7  10   9  418.94   12.21
   7  10  10  402.57   11.93
   7  10  10  390.53   11.54
   7  10  11  494.68   14.32
   7  10  11  485.63   14.15
   7  10  12  447.07   13.26
   7  10  12  471.43   13.87
   7  10  13  447.85   13.26
   7  10  13  481.97   14.21
   7  10  15   94.94    5.99
   7  10  15   90.61    5.44
   7  10  16   21.42    5.10
   7  10  16   21.47    4.49
  -7 -11   9    5.60    6.99
   7  11  -9  110.64    5.88
  -7 -11   8  475.59   14.76
   7  11  -8  425.32   13.10
  -7 -11   7  140.61    6.71
   7  11  -7  147.82    6.83
  -7 -11   6  511.55   14.93
   7  11  -6  543.06   15.59
  -7 -11   5   59.15    4.77
   7  11  -5   72.80    4.77
  -7 -11   4  358.07   10.99
   7  11  -4  378.04   11.43
  -7 -11   3  170.29    6.60
   7  11  -3  174.07    6.49
  -7 -11   2   13.26    3.11
   7  11  -2   15.87    3.22
  -7 -11   1   12.26    3.00
   7  11  -1   17.87    3.22
  -7 -11   0  131.95    5.27
   7  11   0  136.72    5.60
  -7 -11  -1    5.66    2.77
   7  11   1    6.05    2.77
  -7 -11  -2   -0.72    2.44
   7  11   2   -0.50    2.77
  -7 -11  -3  201.92    6.66
   7  11   3  199.43    6.66
  -7 -11  -4  201.87    6.83
   7  11   4  191.93    6.44
  -7 -11  -5  831.22   22.14
   7  11   5  836.76   22.20
  -7 -11  -6  882.82   23.42
   7  11   6  883.93   23.42
  -7 -11  -7  631.46   17.37
   7  11   7  649.77   17.70
   7  11   8 1195.22   31.24
   7  11   8 1208.54   31.63
   7  11   9  311.79    9.77
   7  11   9  325.72   10.04
   7  11  10  218.07    7.55
   7  11  10  214.68    7.49
   7  11  11   33.68    3.94
   7  11  11   44.89    4.44
   7  11  12 1013.77   26.97
   7  11  12 1003.78   26.80
   7  11  13   26.14    4.05
   7  11  13   26.58    4.44
   7  11  14   85.23    5.60
   7  11  14   78.46    5.22
   7  11  15  144.33    6.60
   7  11  15  125.85    6.99
   7  11  16   54.21    5.49
   7  11  16   56.10    5.44
  -7 -12   8    3.66   10.27
   7  12  -8  227.78    8.93
  -7 -12   7   31.63    5.49
   7  12  -7   31.57    5.10
  -7 -12   6  485.19   14.59
   7  12  -6  489.07   14.48
  -7 -12   5   49.44    4.88
   7  12  -5   69.58    5.10
  -7 -12   4   53.77    4.83
   7  12  -4   53.38    4.66
  -7 -12   3   15.31    3.66
   7  12  -3   18.92    3.50
  -7 -12   2  102.82    4.99
   7  12  -2  102.21    4.94
  -7 -12   1  139.66    5.44
   7  12  -1  145.16    5.77
  -7 -12   0    0.33    2.55
   7  12   0    0.22    3.00
  -7 -12  -1   27.52    3.00
   7  12   1   24.75    3.05
  -7 -12  -2  100.66    4.33
   7  12   2  101.16    4.44
  -7 -12  -3  559.32   15.26
   7  12   3  584.29   15.87
  -7 -12  -4    0.22    2.55
   7  12   4    1.83    2.50
  -7 -12  -5 1140.29   29.80
   7  12   5 1062.60   27.58
  -7 -12  -6  516.87   14.37
   7  12   6  496.40   13.76
   7  12   7  968.83   25.52
   7  12   7  947.74   24.97
   7  12   8   79.40    4.27
   7  12   8   94.72    4.66
   7  12   9  450.84   12.98
   7  12   9  479.53   13.71
   7  12  10  748.54   20.31
   7  12  10  729.67   19.92
   7  12  11   60.37    4.49
   7  12  11   67.97    4.72
   7  12  12  760.75   20.92
   7  12  12  759.64   20.81
   7  12  13   62.48    5.05
   7  12  13   70.80    5.22
   7  12  14  236.71    8.71
   7  12  14  231.05    8.49
   7  12  15   27.97    5.10
   7  12  15   25.36    4.94
   7  12  16   15.65    4.88
   7  12  16   13.93    4.77
  -7 -13   7   -2.83    8.88
   7  13  -7  173.79    7.71
  -7 -13   6  185.72    8.88
   7  13  -6  190.88    7.77
  -7 -13   5  205.31    8.43
   7  13  -5  238.71    8.77
  -7 -13   4   65.37    5.22
   7  13  -4   73.69    5.22
  -7 -13   3  370.66   11.43
   7  13  -3  393.47   11.82
  -7 -13   2   25.52    3.77
   7  13  -2   28.85    3.66
  -7 -13   1    6.44    3.55
   7  13  -1    0.39    3.16
  -7 -13   0  244.04    7.93
   7  13   0  246.31    7.88
  -7 -13  -1   23.47    3.33
   7  13   1   27.47    3.50
  -7 -13  -2   86.28    4.27
   7  13   2   83.68    4.16
  -7 -13  -3  316.78    9.38
   7  13   3  309.35    9.21
  -7 -13  -4  173.62    5.99
   7  13   4  171.74    6.05
  -7 -13  -5  684.73   18.37
   7  13   5  670.30   17.92
   7  13   6   31.13    3.16
   7  13   6   34.68    3.22
   7  13   7 2267.81   57.54
   7  13   7 2171.26   55.10
   7  13   8   74.80    4.11
   7  13   8   76.19    4.11
   7  13   9  797.37   21.31
   7  13   9  794.59   21.31
   7  13  10  230.89    7.82
   7  13  10  230.78    7.93
   7  13  11   22.92    3.77
   7  13  11   23.64    4.22
   7  13  12  171.13    6.99
   7  13  12  174.12    7.05
   7  13  13    5.49    4.55
   7  13  13   14.32    4.66
   7  13  14  124.35    6.66
   7  13  14  132.67    6.44
   7  13  15   71.36    6.33
   7  13  15   68.31    5.60
   7  13  16    5.55    4.61
   7  13  16    6.05    5.49
  -7 -14   5   47.83    6.27
   7  14  -5   52.94    5.60
  -7 -14   4  202.81    8.60
   7  14  -4  217.90    8.16
  -7 -14   3   -0.11    4.94
   7  14  -3    0.22    4.38
  -7 -14   2   70.75    5.27
   7  14  -2   66.86    4.88
  -7 -14   1   39.56    4.27
   7  14  -1   37.95    4.16
  -7 -14   0  159.42    6.16
   7  14   0  165.91    6.10
  -7 -14  -1   33.63    3.44
   7  14   1   29.91    3.27
  -7 -14  -2  272.67    8.16
   7  14   2  248.14    7.38
  -7 -14  -3    1.22    2.44
   7  14   3    4.88    2.72
   7  14   7  779.61   20.59
   7  14   7  711.36   18.87
   7  14   9  373.77   11.10
   7  14   9  358.51   10.49
   7  14  10  172.01    6.71
   7  14  10  172.85    6.49
   7  14  11   26.47    4.11
   7  14  11   25.58    4.27
   7  14  12   34.68    4.49
   7  14  12   36.23    4.55
   7  14  13  -11.32    4.33
   7  14  13   -3.88    4.88
   7  14  14   27.36    5.44
   7  14  14   38.51    5.72
   7  14  15    2.39    4.94
   7  14  15   10.88    5.10
  -7 -15   3   21.42    6.10
   7  15  -3   10.65    4.77
  -7 -15   2   42.62    5.16
   7  15  -2   23.64    4.55
  -7 -15   1   16.20    4.11
   7  15  -1    8.38    3.66
  -7 -15   0   33.29    2.61
   7  15  10   73.85    4.49
   7  15  10   65.48    4.33
   7  15  11    8.16    4.38
   7  15  11    9.04    3.83
   7  15  12    6.77    4.16
   7  15  12   17.70    4.61
   7  15  13    1.83    4.88
   7  15  13   -1.61    5.10
   7  15  14   -1.33    5.27
   7  15  14   -1.66    5.83
   7  16  11    5.16    3.38
   7  16  11    3.05    3.94
  -8  10   7   63.98    5.72
   8 -10  -7   69.97    6.05
  -8  10   6   38.90    5.10
   8 -10  -6   42.23    5.16
  -8  10   5  124.29    6.66
   8 -10  -5  118.08    6.60
  -8  10   4   39.90    5.60
  -8   9  11    3.33    4.88
  -8   9  10  278.83    9.54
   8  -9 -10  288.10    9.88
  -8   9   9  149.32    6.49
   8  -9  -9  144.66    6.66
  -8   9   8  331.71   10.65
   8  -9  -8  363.00   11.54
  -8   9   7   -3.83    4.38
   8  -9  -7   -0.89    4.55
  -8   9   6   99.88    5.55
   8  -9  -6  104.54    6.21
  -8   9   5  237.60    8.55
   8  -9  -5  250.70    9.10
  -8   9   4  152.54    6.71
   8  -9  -4  153.26    7.10
  -8   9   3  179.34    7.16
   8  -9  -3  192.16    7.93
  -8   9   2  200.26    8.10
   8  -9  -2  202.92    8.21
  -8   9   1  134.12    6.71
   8  -9  -1  152.20    7.49
  -8   9   0   39.29    5.16
   8  -9   0   39.12    6.05
  -8   8  12  105.21    5.77
   8  -8 -12  106.32    6.05
  -8   8  11   58.60    5.27
   8  -8 -11   64.87    5.22
  -8   8  10   79.90    5.44
   8  -8 -10   78.57    5.49
  -8   8   9  282.38    9.43
   8  -8  -9  267.79    9.21
  -8   8   8  430.53   12.93
   8  -8  -8  422.38   12.82
  -8   8   7  118.13    5.94
   8  -8  -7  125.90    6.33
  -8   8   6    6.38    4.16
   8  -8  -6   -0.72    4.16
  -8   8   5  320.06   10.49
   8  -8  -5  323.61   10.54
  -8   8   4  376.60   11.60
   8  -8  -4  387.59   12.21
  -8   8   3  227.00    8.16
   8  -8  -3  243.15    8.77
  -8   8   2  186.22    7.44
   8  -8  -2  217.24    8.32
  -8   8   1   11.93    4.22
   8  -8  -1   14.82    4.49
  -8   8   0  164.02    7.21
   8  -8   0  172.07    7.44
  -8   8  -1   98.10    5.72
   8  -8   1   97.94    5.77
  -8   8  -2   38.79    4.99
   8  -8   2   37.62    5.88
  -8   7  13   11.49    4.11
   8  -7 -13    6.27    4.83
  -8   7  12   54.55    4.88
   8  -7 -12   52.71    4.83
  -8   7  11   98.82    5.77
   8  -7 -11   93.61    5.55
  -8   7  10  212.08    7.93
   8  -7 -10  194.15    7.82
  -8   7   9  204.81    7.66
   8  -7  -9  202.26    7.99
  -8   7   8  399.24   12.21
   8  -7  -8  391.47   12.21
  -8   7   7  563.21   16.09
   8  -7  -7  552.50   15.81
  -8   7   6   29.46    4.22
   8  -7  -6   25.03    4.38
  -8   7   5  358.62   11.21
   8  -7  -5  358.23   11.32
  -8   7   4  160.47    6.77
   8  -7  -4  155.42    6.66
  -8   7   3  129.34    5.99
   8  -7  -3  116.75    5.88
  -8   7   2   14.21    4.00
   8  -7  -2   20.03    4.38
  -8   7   1  157.64    6.77
   8  -7  -1  150.10    6.60
  -8   7   0  137.61    6.60
   8  -7   0  128.12    6.38
  -8   7  -1   32.85    4.55
   8  -7   1   27.19    4.94
  -8   7  -2   19.31    4.38
   8  -7   2   21.75    5.05
  -8   7  -3   57.21    4.99
   8  -7   3   68.53    5.44
  -8   7  -4  113.86    6.16
   8  -7   4  107.59    6.55
  -8   6  14   16.15    4.55
   8  -6 -14    6.10    4.38
  -8   6  13  103.71    5.49
   8  -6 -13  113.81    5.99
  -8   6  12  265.73    9.27
   8  -6 -12  248.42    8.82
  -8   6  11  142.66    6.55
   8  -6 -11  134.12    6.27
  -8   6  10  337.04   10.60
   8  -6 -10  355.01   11.38
  -8   6   9   56.82    4.44
   8  -6  -9   55.49    4.83
  -8   6   8  236.60    8.16
   8  -6  -8  244.81    8.71
  -8   6   7  294.25    9.49
   8  -6  -7  295.86    9.77
  -8   6   6  966.05   25.69
   8  -6  -6  983.25   26.41
  -8   6   5  114.03    5.38
   8  -6  -5  117.58    5.88
  -8   6   4    3.94    3.38
   8  -6  -4    1.39    3.88
  -8   6   3  196.43    7.27
   8  -6  -3  207.08    7.66
  -8   6   2   23.03    3.88
   8  -6  -2   22.69    4.11
  -8   6   1  431.48   12.98
   8  -6  -1  427.82   12.93
  -8   6   0   77.24    5.05
   8  -6   0   72.13    4.88
  -8   6  -1  138.28    6.33
   8  -6   1  142.27    6.60
  -8   6  -2   30.52    4.44
   8  -6   2   29.69    4.49
  -8   6  -3  189.44    7.55
   8  -6   3  199.87    8.05
  -8   6  -4   76.85    5.22
   8  -6   4   74.02    5.94
  -8   6  -5  413.17   12.71
   8  -6   5  412.17   12.93
   8  -6   6    5.38    5.33
   8  -6   6   -2.22    5.33
  -8   5  14   12.98    4.44
   8  -5 -14   16.26    4.55
  -8   5  13  404.51   12.26
   8  -5 -13  401.01   12.21
  -8   5  12   48.39    4.72
   8  -5 -12   44.39    4.49
  -8   5  11  297.70    9.71
   8  -5 -11  290.98    9.65
  -8   5  10  470.87   13.65
   8  -5 -10  487.13   14.43
  -8   5   9    8.60    3.50
   8  -5  -9    2.66    3.66
  -8   5   8  343.36   10.76
   8  -5  -8  338.92   10.82
  -8   5   7   44.50    4.33
   8  -5  -7   42.28    4.44
  -8   5   6  985.47   26.47
   8  -5  -6  977.15   26.25
  -8   5   5   81.73    4.83
   8  -5  -5   82.34    5.05
  -8   5   4  154.65    6.66
   8  -5  -4  163.86    6.88
  -8   5   3    5.33    3.66
   8  -5  -3   11.49    3.83
  -8   5   2   23.64    3.77
   8  -5  -2   20.59    3.94
  -8   5   1   23.08    3.94
   8  -5  -1   22.53    4.00
  -8   5   0    7.88    3.94
   8  -5   0    3.66    3.66
  -8   5  -1   41.01    4.27
   8  -5   1   46.11    4.61
  -8   5  -2   60.76    4.72
   8  -5   2   61.43    5.16
  -8   5  -3  119.36    5.72
   8  -5   3  104.26    6.10
  -8   5  -4  126.62    6.05
   8  -5   4  124.79    6.71
  -8   5  -5  300.91    9.93
   8  -5   5  321.22   10.76
   8  -5   6  122.85    6.49
   8  -5   7  233.49    8.77
   8  -5   7  225.45    8.88
  -8   4  15    9.82    4.27
   8  -4 -15   13.76    4.88
  -8   4  14   22.36    4.16
   8  -4 -14   20.70    4.55
  -8   4  13  442.63   13.21
   8  -4 -13  454.28   13.48
  -8   4  12   89.50    5.33
   8  -4 -12   94.77    5.66
  -8   4  11  563.21   15.87
   8  -4 -11  578.74   16.59
  -8   4  10   93.61    5.22
   8  -4 -10   78.02    5.16
  -8   4   9  186.44    7.21
   8  -4  -9  180.45    6.99
  -8   4   8  111.48    5.66
   8  -4  -8  108.65    5.66
  -8   4   7  337.48   10.49
   8  -4  -7  331.27   10.60
  -8   4   6  416.11   12.37
   8  -4  -6  391.08   11.93
  -8   4   5   93.94    4.72
   8  -4  -5   88.39    5.05
  -8   4   4  135.72    5.60
   8  -4  -4  138.94    6.05
  -8   4   3   24.36    3.38
   8  -4  -3   26.41    3.66
  -8   4   2   70.08    4.44
   8  -4  -2   72.97    4.83
  -8   4   1   11.99    3.11
   8  -4  -1    6.44    3.38
  -8   4   0    1.44    3.22
   8  -4   0   -1.89    3.72
  -8   4  -1  143.10    5.83
   8  -4   1  161.53    6.77
  -8   4  -2    0.61    3.27
   8  -4   2    0.33    3.83
  -8   4  -3  458.78   13.32
   8  -4   3  497.01   14.70
  -8   4  -4   62.54    4.55
   8  -4   4   73.52    5.22
  -8   4  -5  322.05   10.49
   8  -4   5  331.88   10.99
  -8   4  -6  139.50    6.49
   8  -4   6  147.32    6.77
   8  -4   7  130.73    6.99
   8  -4   7  149.37    6.88
   8  -4   8  381.15   12.04
   8  -4   8  411.95   12.93
  -8   3  15   19.86    4.44
   8  -3 -15   14.59    4.44
  -8   3  14  204.09    7.49
   8  -3 -14  201.42    7.71
  -8   3  13  197.37    7.77
   8  -3 -13  206.25    7.82
  -8   3  12  316.12    9.99
   8  -3 -12  325.22   10.43
  -8   3  11   75.58    5.05
   8  -3 -11   74.30    4.88
  -8   3  10  205.36    7.44
   8  -3 -10  208.97    7.82
  -8   3   9  194.26    7.10
   8  -3  -9  197.04    7.49
  -8   3   8  125.90    5.55
   8  -3  -8  141.11    6.33
  -8   3   7  525.81   15.09
   8  -3  -7  526.47   15.26
  -8   3   6   81.46    5.16
   8  -3  -6   88.12    5.05
  -8   3   5  460.72   13.65
   8  -3  -5  474.26   13.98
  -8   3   4   68.42    4.44
   8  -3  -4   64.20    4.38
  -8   3   3   70.19    4.61
   8  -3  -3   89.50    4.94
  -8   3   2   46.22    4.22
   8  -3  -2   46.06    4.00
  -8   3   1  387.70   11.93
   8  -3  -1  384.92   11.82
  -8   3   0  226.28    8.27
   8  -3   0  212.24    7.66
  -8   3  -1    0.22    3.33
   8  -3   1    9.16    3.72
  -8   3  -2   56.27    4.55
   8  -3   2   51.38    4.38
  -8   3  -3  347.41   11.21
   8  -3   3  352.96   11.26
  -8   3  -4  188.72    7.55
   8  -3   4  181.89    7.27
  -8   3  -5  827.89   22.69
   8  -3   5  798.48   21.97
  -8   3  -6    3.27    3.83
   8  -3   6   -1.61    4.16
  -8   3  -7  558.77   15.98
   8  -3   7  554.88   16.31
   8  -3   8  454.62   13.93
   8  -3   8  460.00   13.93
   8  -3   9  285.93    9.99
   8  -3   9  281.16   10.04
  -8   2  15   92.00    5.66
   8  -2 -15   72.02    5.33
  -8   2  14   10.93    4.05
   8  -2 -14    4.49    4.11
  -8   2  13  468.77   13.65
   8  -2 -13  499.56   14.65
  -8   2  12    3.27    3.77
   8  -2 -12   -3.11    3.72
  -8   2  11  280.55    9.04
   8  -2 -11  278.72    9.27
  -8   2  10  482.30   14.15
   8  -2 -10  488.41   14.43
  -8   2   9  203.03    7.82
   8  -2  -9  219.57    8.10
  -8   2   8 1068.71   28.52
   8  -2  -8 1101.44   29.30
  -8   2   7    3.50    3.55
   8  -2  -7    5.60    3.61
  -8   2   6  942.75   25.36
   8  -2  -6  876.72   23.80
  -8   2   5   -1.66    3.33
   8  -2  -5    5.44    3.33
  -8   2   4  119.47    5.16
   8  -2  -4  131.51    6.05
  -8   2   3  360.95   10.88
   8  -2  -3  353.90   11.10
  -8   2   2   23.03    3.55
   8  -2  -2   28.19    3.83
  -8   2   1   16.76    3.11
   8  -2  -1   15.43    3.55
  -8   2   0   57.82    3.77
   8  -2   0   63.37    4.55
  -8   2  -1   47.44    3.88
   8  -2   1   39.23    4.16
  -8   2  -2  825.67   22.36
   8  -2   2  820.67   22.53
  -8   2  -3   59.65    4.27
   8  -2   3   55.93    4.61
  -8   2  -4  143.99    6.05
   8  -2   4  129.29    6.05
  -8   2  -5  332.76   10.43
   8  -2   5  337.31   10.93
  -8   2  -6  576.52   16.26
   8  -2   6  592.62   17.09
  -8   2  -7  195.04    7.71
   8  -2   7  199.65    8.10
   8  -2   8  624.80   17.98
   8  -2   8  635.90   17.87
   8  -2   9  271.34    9.82
   8  -2   9  273.72    9.65
   8  -2  10   51.55    5.66
   8  -2  10   59.26    5.44
  -8   1  15  218.74    8.05
   8  -1 -15  202.20    8.05
  -8   1  14    5.77    3.94
   8  -1 -14   10.43    4.05
  -8   1  13   61.26    4.72
   8  -1 -13   49.61    4.61
  -8   1  12  289.93    9.43
   8  -1 -12  310.12    9.88
  -8   1  11  236.77    8.66
   8  -1 -11  251.36    8.71
  -8   1  10  155.98    6.33
   8  -1 -10  149.43    6.44
  -8   1   9 1235.17   32.35
   8  -1  -9 1195.77   31.57
  -8   1   8  853.97   23.03
   8  -1  -8  897.80   24.41
  -8   1   7  144.55    6.27
   8  -1  -7  140.61    6.33
  -8   1   6  460.33   13.76
   8  -1  -6  489.24   14.43
  -8   1   5   95.44    5.27
   8  -1  -5   89.06    4.99
  -8   1   4   10.54    3.33
   8  -1  -4   12.65    3.33
  -8   1   3   68.42    4.55
   8  -1  -3   62.42    4.61
  -8   1   2    4.33    3.16
   8  -1  -2    0.89    3.05
  -8   1   1   96.33    5.44
   8  -1  -1   85.95    5.16
  -8   1   0   52.55    4.27
   8  -1   0   49.00    4.27
  -8   1  -1    5.27    3.22
   8  -1   1   10.43    3.55
  -8   1  -2  439.75   13.15
   8  -1   2  430.26   13.10
  -8   1  -3  622.58   17.76
   8  -1   3  635.34   17.98
  -8   1  -4  324.27   10.82
   8  -1   4  300.36   10.15
  -8   1  -5  952.18   25.80
   8  -1   5  934.98   25.25
  -8   1  -6  308.96   10.21
   8  -1   6  297.20   10.04
  -8   1  -7  570.98   16.26
   8  -1   7  576.52   16.70
  -8   1  -8  409.34   12.26
   8  -1   8  380.87   12.04
   8  -1   9    5.10    4.27
   8  -1   9   -1.44    4.72
   8  -1  10  138.22    6.83
   8  -1  10  152.15    6.83
   8  -1  11    0.50    4.22
   8  -1  11    9.99    4.99
  -8   0  15   21.97    4.27
   8   0 -15   31.79    4.83
  -8   0  14   13.43    4.11
   8   0 -14    0.94    4.16
  -8   0  13  140.39    6.27
   8   0 -13  152.26    6.77
  -8   0  12  285.32    9.77
   8   0 -12  296.75    9.77
  -8   0  11 1483.20   38.45
   8   0 -11 1481.54   38.51
  -8   0  10   45.00    4.44
   8   0 -10   47.83    4.38
  -8   0   9 1418.28   37.23
   8   0  -9 1431.60   37.40
  -8   0   8   19.03    3.72
   8   0  -8   16.15    3.61
  -8   0   7  876.16   23.80
   8   0  -7  906.68   24.58
  -8   0   6   42.62    3.83
   8   0  -6   40.06    4.16
  -8   0   5  231.33    7.93
   8   0  -5  244.43    8.49
  -8   0   4   34.07    3.88
   8   0  -4   32.07    3.83
  -8   0   3  102.15    4.94
   8   0  -3  105.21    5.44
  -8   0   2  101.16    4.88
   8   0  -2  108.48    5.22
  -8   0   1   17.09    3.22
   8   0  -1   16.09    3.33
  -8   0   0  118.75    5.33
   8   0   0  119.41    5.60
  -8   0  -1   77.13    4.72
   8   0   1   88.45    5.16
  -8   0  -2  267.34    8.93
   8   0   2  283.93    9.54
  -8   0  -3 1136.96   30.07
   8   0   3 1125.86   29.96
  -8   0  -4  105.71    5.55
   8   0   4  110.59    5.88
  -8   0  -5 1591.41   41.23
   8   0   5 1554.23   40.45
  -8   0  -6  123.24    5.55
   8   0   6  105.48    5.88
  -8   0  -7  828.44   22.31
   8   0   7  863.40   23.53
  -8   0  -8   77.52    5.05
   8   0   8   88.84    5.60
   8   0   9    6.05    4.11
   8   0   9   10.76    4.05
   8   0  10  123.13    6.21
   8   0  10  125.51    6.66
   8   0  11    6.71    4.66
   8   0  11   -0.17    4.49
   8   0  12  119.24    6.55
   8   0  12  105.98    6.10
  -8  -1  15   30.52    4.66
   8   1 -15   36.79    5.22
  -8  -1  14  338.09   10.60
   8   1 -14  333.04   10.65
  -8  -1  13  102.82    5.60
   8   1 -13  110.53    5.77
  -8  -1  12  138.44    6.16
   8   1 -12  149.21    6.38
  -8  -1  11 1285.67   33.79
   8   1 -11 1228.51   32.29
  -8  -1  10  498.90   14.76
   8   1 -10  472.87   13.87
  -8  -1   9  627.57   17.53
   8   1  -9  627.57   17.65
  -8  -1   8  305.07    9.77
   8   1  -8  310.79   10.10
  -8  -1   7 1284.00   33.68
   8   1  -7 1330.61   35.01
  -8  -1   6  247.59    8.55
   8   1  -6  225.28    8.10
  -8  -1   5   29.91    3.55
   8   1  -5   29.13    3.77
  -8  -1   4    8.38    3.61
   8   1  -4   12.65    3.55
  -8  -1   3   22.97    3.66
   8   1  -3   21.47    3.50
  -8  -1   2  148.32    6.33
   8   1  -2  153.43    6.49
  -8  -1   1   15.70    3.27
   8   1  -1   18.81    3.72
  -8  -1   0  898.91   24.53
   8   1   0  809.02   22.08
  -8  -1  -1    9.77    3.61
   8   1   1    5.55    3.61
  -8  -1  -2  558.77   16.15
   8   1   2  553.22   15.93
  -8  -1  -3  876.16   23.92
   8   1   3  887.26   24.14
  -8  -1  -4  474.98   14.04
   8   1   4  469.04   13.93
  -8  -1  -5 1014.88   27.30
   8   1   5  992.69   26.69
  -8  -1  -6  510.66   15.04
   8   1   6  524.31   15.37
  -8  -1  -7  867.84   23.86
   8   1   7  908.34   24.75
  -8  -1  -8   42.84    4.72
   8   1   8   46.89    4.61
   8   1   9  340.81   10.93
   8   1  10    8.32    4.27
   8   1  10   13.26    4.16
   8   1  11   56.65    5.22
   8   1  11   65.25    5.44
   8   1  12   -5.38    4.44
   8   1  12    5.60    4.77
   8   1  13   41.62    5.16
   8   1  13   39.17    5.10
  -8  -2  14  309.57   10.15
   8   2 -14  321.39   10.27
  -8  -2  13 1073.14   28.63
   8   2 -13 1114.76   29.63
  -8  -2  12  415.83   12.48
   8   2 -12  441.30   13.04
  -8  -2  11  211.52    8.05
   8   2 -11  197.15    7.38
  -8  -2  10  481.14   13.98
   8   2 -10  477.09   13.93
  -8  -2   9  243.54    8.66
   8   2  -9  265.57    8.99
  -8  -2   8 1358.91   35.85
   8   2  -8 1372.78   36.07
  -8  -2   7   12.93    3.94
   8   2  -7   18.20    3.55
  -8  -2   6  398.13   12.37
   8   2  -6  430.70   12.93
  -8  -2   5  148.43    6.33
   8   2  -5  136.45    5.94
  -8  -2   4  204.42    7.60
   8   2  -4  224.45    8.05
  -8  -2   3  305.80    9.99
   8   2  -3  310.73    9.99
  -8  -2   2  275.56    9.16
   8   2  -2  286.10    9.43
  -8  -2   1   20.64    3.27
   8   2  -1   11.71    3.27
  -8  -2   0  716.91   19.81
   8   2   0  716.35   19.81
  -8  -2  -1  183.22    6.94
   8   2   1  188.22    7.27
  -8  -2  -2 1046.51   27.86
   8   2   2 1018.77   27.30
  -8  -2  -3  527.92   15.15
   8   2   3  539.74   15.70
  -8  -2  -4  167.80    6.66
   8   2   4  164.74    6.83
  -8  -2  -5 1043.74   27.86
   8   2   5  996.57   26.91
  -8  -2  -6  867.84   23.47
   8   2   6  885.59   24.14
  -8  -2  -7  344.47   10.82
   8   2   7  334.43   10.99
  -8  -2  -8  222.06    7.88
   8   2   8  230.72    8.32
  -8  -2  -9  357.40   11.21
   8   2   9  387.20   12.04
   8   2  10   53.10    4.77
   8   2  10   62.48    4.94
   8   2  11   54.71    5.05
   8   2  11   65.37    5.10
   8   2  12   21.86    4.72
   8   2  12   30.46    4.55
   8   2  13    0.83    4.38
   8   2  13    6.21    4.38
  -8  -3  14  174.18    7.32
   8   3 -14  157.53    6.83
  -8  -3  13  596.50   16.92
   8   3 -13  600.38   16.81
  -8  -3  12  236.88    8.49
   8   3 -12  229.50    8.32
  -8  -3  11 1011.55   27.02
   8   3 -11  991.02   26.41
  -8  -3  10   52.60    4.61
   8   3 -10   51.22    4.44
  -8  -3   9  828.44   22.69
   8   3  -9  815.12   22.25
  -8  -3   8  825.67   22.58
   8   3  -8  830.11   22.69
  -8  -3   7   31.63    3.83
   8   3  -7   26.91    3.83
  -8  -3   6  255.52    8.60
   8   3  -6  293.81    9.65
  -8  -3   5   60.15    4.16
   8   3  -5   60.09    4.49
  -8  -3   4   -3.55    3.05
   8   3  -4    0.61    3.38
  -8  -3   3  470.21   13.93
   8   3  -3  480.09   14.15
  -8  -3   2  266.34    9.04
   8   3  -2  258.02    8.88
  -8  -3   1   70.91    4.44
   8   3  -1   68.53    4.55
  -8  -3   0 1244.60   32.96
   8   3   0 1214.09   32.18
  -8  -3  -1   52.49    4.11
   8   3   1   58.93    4.44
  -8  -3  -2  674.74   18.92
   8   3   2  675.85   19.03
  -8  -3  -3 1428.27   37.62
   8   3   3 1442.14   37.73
  -8  -3  -4   37.57    4.11
   8   3   4   41.95    4.11
  -8  -3  -5 2398.76   61.54
   8   3   5 2265.03   58.04
  -8  -3  -6  111.48    5.60
   8   3   6  134.06    6.21
  -8  -3  -7 1494.86   39.23
   8   3   7 1533.70   40.17
  -8  -3  -8   59.15    4.88
   8   3   8   53.66    4.61
  -8  -3  -9   47.05    4.44
   8   3   9   50.44    4.55
   8   3  10  385.37   12.04
   8   3  10  420.16   12.54
   8   3  11   78.79    5.55
   8   3  11   81.07    5.55
   8   3  12    1.83    4.33
   8   3  12   -5.22    3.88
   8   3  13   32.35    4.72
   8   3  13   32.63    4.83
  -8  -4  14  502.45   14.82
   8   4 -14  557.66   16.15
  -8  -4  13  208.03    8.10
   8   4 -13  262.52    9.38
  -8  -4  12  273.28    9.38
   8   4 -12  257.19    9.10
  -8  -4  11  962.17   25.86
   8   4 -11  942.19   25.36
  -8  -4  10  354.68   11.21
   8   4 -10  399.68   12.21
  -8  -4   9  410.11   12.37
   8   4  -9  413.72   12.54
  -8  -4   8  273.78    9.10
   8   4  -8  267.84    9.04
  -8  -4   7   89.11    5.05
   8   4  -7   81.23    4.99
  -8  -4   6   27.24    4.00
   8   4  -6   22.31    3.66
  -8  -4   5   20.03    3.55
   8   4  -5   16.42    3.50
  -8  -4   4  175.90    6.94
   8   4  -4  168.41    6.66
  -8  -4   3   78.02    4.72
   8   4  -3   77.07    4.77
  -8  -4   2  653.65   18.42
   8   4  -2  596.50   16.92
  -8  -4   1  141.00    5.99
   8   4  -1  129.45    5.99
  -8  -4   0  662.53   18.53
   8   4   0  654.76   18.42
  -8  -4  -1  958.84   25.80
   8   4   1  912.78   24.58
  -8  -4  -2  380.93   11.71
   8   4   2  393.19   12.04
  -8  -4  -3 1215.75   32.13
   8   4   3 1254.04   33.07
  -8  -4  -4  592.06   16.81
   8   4   4  585.40   16.76
  -8  -4  -5 2078.59   53.49
   8   4   5 2101.90   54.05
  -8  -4  -6   42.84    4.22
   8   4   6   31.79    4.16
  -8  -4  -7 1199.66   31.68
   8   4   7 1186.34   31.52
  -8  -4  -8  424.71   12.76
   8   4   8  408.39   12.65
  -8  -4  -9   42.39    4.61
   8   4   9   43.00    4.44
   8   4  10   -5.66    3.83
   8   4  10   -1.55    3.83
   8   4  11   -0.39    3.83
   8   4  11    0.11    4.00
   8   4  12   12.15    4.33
   8   4  12   13.98    4.33
   8   4  13  114.08    6.10
   8   4  13  123.13    6.10
   8   4  14    4.27    4.66
   8   4  14   -2.00    4.61
  -8  -5  13  112.20    6.27
   8   5 -13  110.98    5.99
  -8  -5  12  473.37   14.04
   8   5 -12  463.72   13.54
  -8  -5  11  198.43    7.55
   8   5 -11  201.09    7.71
  -8  -5  10  517.65   15.04
   8   5 -10  525.92   15.09
  -8  -5   9  221.18    8.10
   8   5  -9  225.78    8.16
  -8  -5   8    6.38    3.50
   8   5  -8   -4.38    3.38
  -8  -5   7  116.86    5.66
   8   5  -7  136.28    6.21
  -8  -5   6  110.98    5.60
   8   5  -6  117.25    5.60
  -8  -5   5  280.33    9.38
   8   5  -5  262.35    8.99
  -8  -5   4   34.18    3.77
   8   5  -4   30.30    3.72
  -8  -5   3  340.59   10.76
   8   5  -3  306.68    9.88
  -8  -5   2   82.51    4.72
   8   5  -2   74.80    4.55
  -8  -5   1    6.05    3.05
   8   5  -1    2.33    2.94
  -8  -5   0 2807.71   71.41
   8   5   0 2817.14   71.75
  -8  -5  -1 1061.49   28.30
   8   5   1 1107.55   29.46
  -8  -5  -2 2353.82   60.20
   8   5   2 2336.61   59.87
  -8  -5  -3    4.38    3.00
   8   5   3    6.33    3.27
  -8  -5  -4 1459.34   38.18
   8   5   4 1487.64   38.95
  -8  -5  -5  253.47    8.66
   8   5   5  225.01    8.16
  -8  -5  -6  509.60   14.87
   8   5   6  529.41   15.37
  -8  -5  -7  735.22   20.31
   8   5   7  668.08   18.76
  -8  -5  -8  617.03   17.53
   8   5   8  585.96   16.70
  -8  -5  -9   76.30    4.94
   8   5   9   83.40    5.44
   8   5  10  126.46    6.38
   8   5  10  126.68    6.21
   8   5  11   -0.17    3.88
   8   5  11    2.39    3.77
   8   5  12  101.32    5.83
   8   5  12   98.10    5.66
   8   5  13   45.11    5.05
   8   5  13   44.39    4.88
   8   5  14  180.61    7.66
   8   5  14  208.36    8.38
   8   5  15  186.11    7.55
   8   5  15  203.31    8.32
  -8  -6  12   41.62    4.83
   8   6 -12   44.56    4.83
  -8  -6  11  203.48    7.99
   8   6 -11  185.11    7.21
  -8  -6  10  378.43   11.76
   8   6 -10  358.90   11.26
  -8  -6   9  174.34    7.05
   8   6  -9  179.45    7.16
  -8  -6   8  122.57    5.99
   8   6  -8  124.29    5.83
  -8  -6   7    0.72    3.27
   8   6  -7    4.49    3.50
  -8  -6   6    3.11    3.38
   8   6  -6    3.33    3.50
  -8  -6   5 1744.55   45.11
   8   6  -5 1730.68   44.72
  -8  -6   4   57.32    4.38
   8   6  -4   51.88    4.49
  -8  -6   3  353.29   10.88
   8   6  -3  352.41   11.10
  -8  -6   2   -0.28    2.94
   8   6  -2    3.16    3.11
  -8  -6   1  393.41   11.87
   8   6  -1  377.93   11.54
  -8  -6   0 2306.10   58.98
   8   6   0 2334.95   59.76
  -8  -6  -1  493.62   14.32
   8   6   1  505.83   14.59
  -8  -6  -2 3653.91   92.33
   8   6   2 3546.82   89.72
  -8  -6  -3   61.43    4.27
   8   6   3   59.54    4.33
  -8  -6  -4 2492.54   63.70
   8   6   4 2524.16   64.53
  -8  -6  -5   82.18    4.77
   8   6   5   82.18    4.94
  -8  -6  -6  653.65   18.37
   8   6   6  689.72   19.14
  -8  -6  -7  491.90   14.37
   8   6   7  472.32   13.98
  -8  -6  -8  174.84    6.88
   8   6   8  193.38    7.60
  -8  -6  -9  126.07    6.10
   8   6   9  144.94    6.60
   8   6  10   93.05    5.55
   8   6  10   79.85    4.72
   8   6  11  136.17    6.44
   8   6  11  139.28    6.33
   8   6  12   64.81    5.16
   8   6  12   68.97    5.22
   8   6  13  477.03   14.26
   8   6  13  492.46   14.59
   8   6  14  426.04   13.04
   8   6  14  420.38   12.82
   8   6  15  219.35    8.66
   8   6  15  205.58    8.05
  -8  -7  12   26.58    5.27
   8   7 -12   17.42    4.49
  -8  -7  11  413.28   12.82
   8   7 -11  410.28   12.60
  -8  -7  10    2.00    4.00
   8   7 -10    1.89    3.83
  -8  -7   9  465.27   13.87
   8   7  -9  441.58   13.10
  -8  -7   8   15.59    3.88
   8   7  -8   11.93    3.88
  -8  -7   7  112.09    5.66
   8   7  -7  126.18    5.94
  -8  -7   6   13.82    3.61
   8   7  -6   11.10    3.55
  -8  -7   5  517.48   14.87
   8   7  -5  531.30   15.20
  -8  -7   4  269.90    8.99
   8   7  -4  272.61    9.10
  -8  -7   3  139.05    5.94
   8   7  -3  144.66    6.33
  -8  -7   2  485.30   14.04
   8   7  -2  464.38   13.59
  -8  -7   1  496.29   14.43
   8   7  -1  524.03   15.09
  -8  -7   0 1694.06   43.84
   8   7   0 1701.83   44.11
  -8  -7  -1  770.73   21.09
   8   7   1  798.48   21.92
  -8  -7  -2  265.79    8.71
   8   7   2  270.28    8.99
  -8  -7  -3 1375.56   36.01
   8   7   3 1397.20   36.57
  -8  -7  -4  125.96    5.60
   8   7   4  129.45    5.55
  -8  -7  -5  689.17   19.09
   8   7   5  699.71   19.31
  -8  -7  -6  404.73   12.26
   8   7   6  415.00   12.43
  -8  -7  -7  574.30   16.26
   8   7   7  573.75   16.37
  -8  -7  -8   10.65    3.38
   8   7   8    8.27    3.44
  -8  -7  -9   30.69    3.88
   8   7   9   24.64    3.72
   8   7  10   31.79    4.05
   8   7  10   35.29    4.22
   8   7  11  289.70    9.60
   8   7  11  303.13   10.10
   8   7  12   36.51    4.38
   8   7  12   40.12    4.77
   8   7  13  900.02   24.41
   8   7  13  913.34   24.58
   8   7  14  148.15    6.99
   8   7  14  156.26    7.21
   8   7  15  690.83   19.09
   8   7  15  714.69   19.86
  -8  -8  11  159.53    7.44
   8   8 -11  171.02    7.32
  -8  -8  10   10.32    4.55
   8   8 -10    9.49    4.27
  -8  -8   9  127.96    6.33
   8   8  -9  130.23    5.99
  -8  -8   8  156.87    6.66
   8   8  -8  144.10    6.21
  -8  -8   7    3.05    3.66
   8   8  -7    2.66    3.66
  -8  -8   6  115.36    5.60
   8   8  -6  112.03    5.60
  -8  -8   5  397.63   12.15
   8   8  -5  386.09   11.65
  -8  -8   4   87.45    4.88
   8   8  -4   74.35    4.61
  -8  -8   3  799.03   21.64
   8   8  -3  759.64   20.81
  -8  -8   2 1494.86   38.84
   8   8  -2 1498.19   39.01
  -8  -8   1  262.68    8.60
   8   8  -1  270.45    8.88
  -8  -8   0 1120.86   29.69
   8   8   0 1120.31   29.58
  -8  -8  -1  117.86    5.38
   8   8   1  123.24    5.33
  -8  -8  -2 1751.77   45.28
   8   8   2 1747.33   44.95
  -8  -8  -3   15.15    3.27
   8   8   3   15.48    3.16
  -8  -8  -4 1057.05   28.08
   8   8   4 1077.58   28.47
  -8  -8  -5 1264.58   33.13
   8   8   5 1306.20   34.13
  -8  -8  -6   19.53    3.55
   8   8   6   14.93    3.55
  -8  -8  -7   10.71    3.05
   8   8   7   11.93    3.44
  -8  -8  -8   54.55    4.11
   8   8   8   52.66    4.38
  -8  -8  -9   44.78    4.11
   8   8   9   36.57    4.00
   8   8  10  293.09    9.77
   8   8  10  298.47    9.71
   8   8  11  164.74    6.88
   8   8  11  146.60    6.33
   8   8  12  548.56   15.76
   8   8  12  546.39   15.65
   8   8  13  548.11   15.76
   8   8  13  587.62   16.70
   8   8  14  188.83    7.60
   8   8  14  172.74    7.38
   8   8  15  416.38   13.10
   8   8  15  401.74   12.26
  -8  -9  10    9.43    5.05
   8   9 -10    1.22    4.38
  -8  -9   9   16.15    4.66
   8   9  -9   11.60    4.38
  -8  -9   8    9.16    4.11
   8   9  -8    3.16    3.94
  -8  -9   7   79.13    5.22
   8   9  -7   76.96    4.99
  -8  -9   6  126.51    5.99
   8   9  -6  132.40    6.10
  -8  -9   5  244.59    8.38
   8   9  -5  244.87    8.49
  -8  -9   4  152.09    6.44
   8   9  -4  139.89    5.77
  -8  -9   3 1168.03   30.91
   8   9  -3 1174.13   30.80
  -8  -9   2 1562.00   40.56
   8   9  -2 1596.40   41.12
  -8  -9   1 1108.66   29.24
   8   9  -1 1135.85   29.80
  -8  -9   0   69.58    4.11
   8   9   0   68.20    4.16
  -8  -9  -1   54.88    3.83
   8   9   1   55.93    3.83
  -8  -9  -2 1773.96   45.67
   8   9   2 1797.82   46.17
  -8  -9  -3  199.26    7.21
   8   9   3  187.77    6.66
  -8  -9  -4  703.04   19.37
   8   9   4  706.92   19.25
  -8  -9  -5  290.87    9.32
   8   9   5  281.94    9.10
  -8  -9  -6  553.22   15.87
   8   9   6  573.19   16.37
  -8  -9  -7   47.61    4.05
   8   9   7   51.22    4.27
  -8  -9  -8  319.78   10.04
   8   9   8  319.56   10.04
  -8  -9  -9  187.77    7.21
   8   9   9  197.09    7.21
   8   9  10  133.73    6.05
   8   9  10  131.73    5.72
   8   9  11    4.77    3.61
   8   9  11    4.72    3.50
   8   9  12  777.95   21.42
   8   9  12  797.37   21.81
   8   9  13  284.49    9.77
   8   9  13  286.32    9.60
   8   9  14  365.39   11.71
   8   9  14  342.92   10.88
   8   9  15  146.05    7.10
   8   9  15  141.27    6.44
  -8 -10   9   35.79    5.94
   8  10  -9   40.17    4.94
  -8 -10   8   20.42    4.88
   8  10  -8   24.80    4.83
  -8 -10   7   81.23    5.33
   8  10  -7   88.28    5.49
  -8 -10   6   21.97    4.05
   8  10  -6   20.20    4.33
  -8 -10   5  419.16   12.65
   8  10  -5  393.08   11.76
  -8 -10   4   18.48    3.72
   8  10  -4   10.99    3.61
  -8 -10   3 1052.61   27.80
   8  10  -3 1080.36   28.58
  -8 -10   2  391.75   11.76
   8  10  -2  365.45   11.04
  -8 -10   1 1710.15   44.11
   8  10  -1 1662.43   42.78
  -8 -10   0  379.32   11.32
   8  10   0  381.82   11.43
  -8 -10  -1  293.37    9.32
   8  10   1  296.86    9.27
  -8 -10  -2  226.06    7.66
   8  10   2  226.56    7.60
  -8 -10  -3   75.69    4.38
   8  10   3   75.24    4.33
  -8 -10  -4  195.21    6.99
   8  10   4  192.05    6.83
  -8 -10  -5    5.33    2.89
   8  10   5   -0.11    3.05
  -8 -10  -6  353.35   10.76
   8  10   6  363.50   10.99
  -8 -10  -7   34.46    3.44
   8  10   7   39.23    3.50
  -8 -10  -8   12.87    3.50
   8  10   8   16.04    3.38
   8  10   9  102.88    5.10
   8  10   9  111.59    5.38
   8  10  10  380.15   11.71
   8  10  10  384.65   11.82
   8  10  11  140.16    6.38
   8  10  11  149.60    6.33
   8  10  12  249.20    8.93
   8  10  12  241.87    8.60
   8  10  13  331.60   10.82
   8  10  13  329.82   10.76
   8  10  14  271.06    9.77
   8  10  14  269.84    9.43
   8  10  15  423.04   12.76
   8  10  15  396.91   12.48
  -8 -11   8    0.33    6.60
   8  11  -8   37.57    4.72
  -8 -11   7   -1.39    4.77
   8  11  -7   -0.17    4.22
  -8 -11   6  266.46    9.49
   8  11  -6  260.80    8.88
  -8 -11   5  122.85    6.10
   8  11  -5  141.55    6.55
  -8 -11   4  547.84   15.76
   8  11  -4  539.01   15.37
  -8 -11   3  635.34   17.70
   8  11  -3  617.59   17.15
  -8 -11   2  255.25    8.43
   8  11  -2  273.67    8.82
  -8 -11   1  847.86   22.81
   8  11  -1  861.18   23.03
  -8 -11   0  499.23   14.32
   8  11   0  479.25   13.65
  -8 -11  -1  402.01   11.71
   8  11   1  386.86   11.43
  -8 -11  -2   34.24    3.38
   8  11   2   32.18    3.38
  -8 -11  -3  135.67    5.38
   8  11   3  137.22    5.49
  -8 -11  -4   60.70    3.88
   8  11   4   57.54    3.77
  -8 -11  -5   37.34    3.61
   8  11   5   34.24    3.38
  -8 -11  -6  118.25    5.22
   8  11   6  117.25    5.16
  -8 -11  -7  195.21    7.10
   8  11   7  186.33    6.83
  -8 -11  -8  259.85    8.55
   8  11   8  256.02    8.38
   8  11   9   10.60    3.66
   8  11   9    7.38    3.72
   8  11  10  540.79   15.37
   8  11  10  560.99   15.87
   8  11  11  268.90    9.04
   8  11  11  251.36    8.60
   8  11  12   82.90    5.27
   8  11  12   86.34    5.55
   8  11  13  658.65   18.53
   8  11  13  667.52   18.70
   8  11  14  138.78    6.44
   8  11  14  145.93    7.10
   8  11  15  739.10   20.42
   8  11  15  744.10   20.81
  -8 -12   7    1.55    7.71
   8  12  -7   87.89    6.33
  -8 -12   6  265.79    9.88
   8  12  -6  227.00    8.60
  -8 -12   5  143.55    6.83
   8  12  -5  147.38    6.77
  -8 -12   4  560.99   15.98
   8  12  -4  595.39   17.09
  -8 -12   3  194.32    7.27
   8  12  -3  185.50    7.38
  -8 -12   2  422.93   12.48
   8  12  -2  435.86   12.82
  -8 -12   1  311.84    9.82
   8  12  -1  308.68    9.71
  -8 -12   0  928.32   24.64
   8  12   0  926.10   24.58
  -8 -12  -1   72.91    4.05
   8  12   1   88.17    4.66
  -8 -12  -2   54.60    3.61
   8  12   2   61.04    4.22
  -8 -12  -3    4.72    2.83
   8  12   3    3.88    3.11
  -8 -12  -4  633.12   17.31
   8  12   4  644.77   17.65
  -8 -12  -5   29.30    3.33
   8  12   5   25.97    3.27
  -8 -12  -6   10.10    3.16
   8  12   6   11.71    3.22
  -8 -12  -7   34.85    3.94
   8  12   7   39.40    3.72
   8  12   8  142.72    5.99
   8  12   8  143.33    5.88
   8  12   9   19.70    3.72
   8  12   9   19.03    3.77
   8  12  10  235.16    8.21
   8  12  10  241.98    8.32
   8  12  11  126.13    5.94
   8  12  11  145.21    6.38
   8  12  12  332.93   10.71
   8  12  12  326.66   10.71
   8  12  13  658.65   18.81
   8  12  13  629.79   17.76
   8  12  14  180.78    7.71
   8  12  14  174.73    7.44
   8  12  15  111.14    6.21
   8  12  15  125.63    6.66
  -8 -13   6    8.43   10.76
   8  13  -6   76.74    5.88
  -8 -13   5  594.28   17.76
   8  13  -5  586.51   17.03
  -8 -13   4   79.29    5.83
   8  13  -4   91.00    5.72
  -8 -13   3  434.58   13.21
   8  13  -3  463.61   13.71
  -8 -13   2  194.49    7.32
   8  13  -2  195.10    7.44
  -8 -13   1  663.09   18.42
   8  13  -1  624.80   17.26
  -8 -13   0  194.10    6.99
   8  13   0  203.25    7.16
  -8 -13  -1  130.79    5.38
   8  13   1  137.83    5.72
  -8 -13  -2  290.76    9.10
   8  13   2  304.30    9.27
  -8 -13  -3    5.22    3.22
   8  13   3    2.55    3.27
  -8 -13  -4  335.54   10.10
   8  13   4  349.30   10.38
  -8 -13  -5    6.21    3.33
   8  13   5    2.77    2.89
  -8 -13  -6  157.75    6.16
   8  13   6  143.99    5.60
   8  13   7  119.91    5.16
   8  13   7  114.92    5.16
   8  13   8   64.59    4.38
   8  13   8   66.70    4.38
   8  13   9   12.21    3.88
   8  13   9   12.43    3.94
   8  13  10  459.33   13.43
   8  13  10  471.71   13.76
   8  13  11  208.25    7.93
   8  13  11  235.27    8.66
   8  13  12  259.24    9.16
   8  13  12  278.61    9.49
   8  13  13  316.62   10.88
   8  13  13  297.03    9.99
   8  13  14  148.38    7.44
   8  13  14  173.62    7.32
  -8 -14   4   42.50    5.99
   8  14  -4   36.96    5.27
  -8 -14   3  942.19   25.69
   8  14  -3  954.95   25.64
  -8 -14   2    5.27    4.61
   8  14  -2    6.33    4.33
  -8 -14   1  410.23   12.65
   8  14  -1  421.88   12.60
  -8 -14   0   53.49    4.94
   8  14   0   60.43    4.94
  -8 -14  -1  456.61   13.37
   8  14   1  439.69   12.82
  -8 -14  -2  278.22    9.16
   8  14   2  254.69    8.21
  -8 -14  -3   58.82    4.44
   8  14   3   53.60    4.27
  -8 -14  -4  321.94    9.82
   8  14   4  317.12    9.77
  -8 -14  -5    2.77    3.44
   8  14   5    1.33    3.66
   8  14   6    4.99    3.33
   8  14   6    3.83    3.27
   8  14   7   22.47    3.61
   8  14   7   25.91    3.61
   8  14   8  221.90    7.44
   8  14   8  215.24    7.38
   8  14   9   11.38    3.77
   8  14   9   18.70    4.22
   8  14  10  435.64   12.87
   8  14  10  444.79   13.15
   8  14  11  342.97   10.99
   8  14  11  347.69   10.93
   8  14  12  109.76    6.66
   8  14  12  121.85    6.55
   8  14  13  220.51    8.77
   8  14  13  240.43    8.93
   8  14  14   39.17    5.38
   8  14  14   39.12    5.55
  -8 -15   2   97.16    7.27
   8  15  -2  115.30    6.77
  -8 -15   1  310.85   10.54
   8  15  -1  287.82    9.77
  -8 -15   0  184.00    7.32
   8  15   0  192.77    7.49
  -8 -15  -1  293.03    9.49
   8  15   1  280.55    8.99
  -8 -15  -2   36.96    4.33
   8  15   2   36.07    4.05
  -8 -15  -3   28.80    3.88
   8  15   3   32.29    4.00
   8  15   6   -2.94    3.77
   8  15   6    2.05    3.05
   8  15   7   21.64    4.38
   8  15   7    7.32    3.44
   8  15   9    5.10    4.33
   8  15   9    6.99    3.88
   8  15  13  244.37    9.60
   8  15  13  210.91    9.27
   8  16  11   14.98    5.60
   8  16  11   -2.94    5.72
  -9   8   8   15.59    4.72
  -9   8   7    5.38    4.44
   9  -8  -7    9.88    4.83
  -9   8   6   34.18    4.72
   9  -8  -6   33.57    5.05
  -9   8   5   51.22    4.83
   9  -8  -5   47.28    5.27
  -9   8   4   81.68    5.55
   9  -8  -4   85.12    5.88
  -9   8   3   47.22    5.22
   9  -8  -3   57.37    5.99
  -9   8   2  119.13    6.60
  -9   7  10   55.54    4.99
   9  -7 -10   60.15    5.22
  -9   7   9   38.62    4.61
   9  -7  -9   39.29    4.72
  -9   7   8   29.08    4.27
   9  -7  -8   29.30    4.44
  -9   7   7   39.06    4.49
   9  -7  -7   30.19    4.61
  -9   7   6   32.96    4.55
   9  -7  -6   43.67    4.99
  -9   7   5  105.93    5.72
   9  -7  -5  107.15    5.99
  -9   7   4   79.24    5.05
   9  -7  -4   78.52    5.60
  -9   7   3  258.08    8.88
   9  -7  -3  246.70    8.93
  -9   7   2  157.48    6.94
   9  -7  -2  179.50    7.44
  -9   7   1   69.30    5.10
   9  -7  -1   63.09    5.38
  -9   7   0  136.67    6.66
   9  -7   0  165.36    7.44
  -9   7  -1   62.37    5.27
   9  -7   1   67.36    6.10
  -9   6  11  175.68    7.21
   9  -6 -11  162.91    7.16
  -9   6  10    9.49    4.33
   9  -6 -10   10.10    4.38
  -9   6   9    0.06    3.83
   9  -6  -9    6.99    4.11
  -9   6   8   66.53    4.94
   9  -6  -8   85.45    5.66
  -9   6   7   12.32    4.16
   9  -6  -7   19.48    4.16
  -9   6   6   62.59    4.83
   9  -6  -6   59.26    4.83
  -9   6   5  389.92   11.93
   9  -6  -5  397.96   12.43
  -9   6   4   23.42    4.00
   9  -6  -4   13.48    4.33
  -9   6   3  471.93   13.82
   9  -6  -3  484.41   14.48
  -9   6   2   22.81    4.05
   9  -6  -2   28.13    4.66
  -9   6   1  364.61   11.26
   9  -6  -1  334.65   10.99
  -9   6   0   85.95    5.77
   9  -6   0   89.95    5.83
  -9   6  -1  153.09    6.83
   9  -6   1  160.42    7.38
  -9   6  -2  237.38    8.60
   9  -6   2  243.70    9.21
  -9   6  -3    1.94    4.55
   9  -6   3    5.94    5.44
  -9   5  12    1.78    4.22
   9  -5 -12    2.83    4.11
  -9   5  11   85.73    4.94
   9  -5 -11   92.72    5.66
  -9   5  10   11.32    4.11
   9  -5 -10   11.43    4.22
  -9   5   9  117.80    5.83
   9  -5  -9  117.69    5.83
  -9   5   8  101.32    5.27
   9  -5  -8  114.20    5.94
  -9   5   7   36.79    3.94
   9  -5  -7   30.80    4.38
  -9   5   6   70.08    4.94
   9  -5  -6   66.97    5.10
  -9   5   5  566.54   16.15
   9  -5  -5  533.24   15.48
  -9   5   4  348.97   10.93
   9  -5  -4  356.96   11.38
  -9   5   3  176.84    7.05
   9  -5  -3  179.12    7.44
  -9   5   2  199.76    7.49
   9  -5  -2  203.92    7.93
  -9   5   1   62.98    4.83
   9  -5  -1   66.36    5.10
  -9   5   0  170.63    6.88
   9  -5   0  162.97    6.83
  -9   5  -1   82.23    5.60
   9  -5   1   76.35    5.27
  -9   5  -2  103.32    5.77
   9  -5   2  104.26    6.38
  -9   5  -3  125.90    6.16
   9  -5   3  117.52    6.33
  -9   5  -4   10.43    4.22
   9  -5   4    5.94    4.88
  -9   5  -5  116.53    6.49
   9  -5   5  100.27    6.66
  -9   4  13  116.53    6.27
   9  -4 -13  134.00    6.66
  -9   4  12  179.78    7.10
   9  -4 -12  177.62    7.05
  -9   4  11   -1.44    3.61
   9  -4 -11    0.50    4.16
  -9   4  10   68.86    4.94
   9  -4 -10   62.31    4.88
  -9   4   9    2.33    3.66
   9  -4  -9    1.78    3.66
  -9   4   8   20.42    3.88
   9  -4  -8   20.09    4.22
  -9   4   7  273.50    9.10
   9  -4  -7  265.18    9.10
  -9   4   6   32.02    3.83
   9  -4  -6   32.79    4.27
  -9   4   5  382.20   11.65
   9  -4  -5  395.30   12.04
  -9   4   4   58.60    4.66
   9  -4  -4   57.37    4.38
  -9   4   3  554.27   15.81
   9  -4  -3  593.73   16.87
  -9   4   2  163.41    6.60
   9  -4  -2  165.97    6.94
  -9   4   1  121.46    5.60
   9  -4  -1  115.19    5.77
  -9   4   0  356.79   10.93
   9  -4   0  343.69   10.88
  -9   4  -1    2.77    3.66
   9  -4   1    2.11    3.77
  -9   4  -2   99.27    5.60
   9  -4   2   99.27    5.83
  -9   4  -3   11.60    4.22
   9  -4   3   14.48    4.61
  -9   4  -4  238.16    8.49
   9  -4   4  237.88    8.71
  -9   4  -5   56.76    4.94
   9  -4   5   53.66    5.16
  -9   4  -6    3.16    4.27
   9  -4   6    4.99    4.55
  -9   3  13   21.31    4.16
   9  -3 -13   22.64    4.55
  -9   3  12   26.52    4.49
   9  -3 -12   31.41    4.38
  -9   3  11   -4.66    3.94
   9  -3 -11   -1.22    3.77
  -9   3  10  197.98    7.27
   9  -3 -10  196.82    7.66
  -9   3   9   11.49    4.05
   9  -3  -9    8.93    3.77
  -9   3   8   40.17    4.16
   9  -3  -8   29.41    4.16
  -9   3   7  416.27   12.26
   9  -3  -7  394.74   12.10
  -9   3   6  112.47    5.38
   9  -3  -6  117.14    5.66
  -9   3   5  901.13   24.19
   9  -3  -5  886.70   23.97
  -9   3   4    0.50    3.33
   9  -3  -4    6.49    3.44
  -9   3   3  384.03   11.99
   9  -3  -3  391.91   11.99
  -9   3   2  132.78    6.10
   9  -3  -2  121.08    5.66
  -9   3   1  471.10   13.82
   9  -3  -1  477.98   13.98
  -9   3   0  131.95    5.99
   9  -3   0  120.19    5.77
  -9   3  -1   14.04    3.72
   9  -3   1   18.81    3.94
  -9   3  -2  154.31    6.44
   9  -3   2  172.85    7.32
  -9   3  -3    6.21    3.77
   9  -3   3    6.88    3.94
  -9   3  -4  409.67   12.37
   9  -3   4  420.05   12.98
  -9   3  -5    2.94    3.83
   9  -3   5   -4.38    4.27
  -9   3  -6   16.26    4.16
   9  -3   6   17.37    4.61
  -9   3  -7   13.59    4.11
   9  -3   7   10.38    4.61
  -9   2  13    9.54    4.16
   9  -2 -13   11.71    3.88
  -9   2  12   20.75    4.27
   9  -2 -12   28.85    4.44
  -9   2  11   41.28    4.49
   9  -2 -11   61.37    4.99
  -9   2  10   13.98    4.16
   9  -2 -10   15.43    4.22
  -9   2   9    4.55    3.33
   9  -2  -9    3.27    3.61
  -9   2   8  256.41    8.60
   9  -2  -8  282.82    9.49
  -9   2   7  155.92    6.71
   9  -2  -7  144.05    6.33
  -9   2   6  200.53    7.49
   9  -2  -6  212.08    7.93
  -9   2   5  197.87    7.32
   9  -2  -5  202.03    7.55
  -9   2   4  135.17    5.83
   9  -2  -4  137.17    6.21
  -9   2   3 1290.10   33.79
   9  -2  -3 1250.15   33.02
  -9   2   2  105.76    5.05
   9  -2  -2  107.04    5.38
  -9   2   1  275.61    8.99
   9  -2  -1  275.11    9.16
  -9   2   0   81.07    4.55
   9  -2   0   72.47    4.83
  -9   2  -1  241.82    8.10
   9  -2   1  228.11    8.38
  -9   2  -2  182.89    6.94
   9  -2   2  180.67    7.16
  -9   2  -3   29.58    4.33
   9  -2   3   27.69    4.11
  -9   2  -4   73.30    5.05
   9  -2   4   75.08    5.38
  -9   2  -5  105.26    5.49
   9  -2   5  117.30    6.21
  -9   2  -6    5.49    3.50
   9  -2   6    4.16    4.11
  -9   2  -7  110.75    5.83
   9  -2   7  105.59    6.05
   9  -2   8   18.53    4.61
   9  -2   8   27.69    4.66
  -9   1  13   77.41    5.27
   9  -1 -13   85.17    5.44
  -9   1  12   -6.21    3.77
   9  -1 -12    3.50    4.00
  -9   1  11   35.12    4.38
   9  -1 -11   44.45    4.55
  -9   1  10  230.05    8.21
   9  -1 -10  221.18    8.10
  -9   1   9    8.49    3.88
   9  -1  -9   14.48    3.72
  -9   1   8  242.26    8.49
   9  -1  -8  234.27    8.32
  -9   1   7  189.05    6.88
   9  -1  -7  197.48    7.44
  -9   1   6  434.31   12.65
   9  -1  -6  475.20   14.09
  -9   1   5   98.38    5.10
   9  -1  -5   92.11    5.10
  -9   1   4  368.17   11.49
   9  -1  -4  373.66   11.60
  -9   1   3  684.17   19.09
   9  -1  -3  659.76   18.53
  -9   1   2  380.93   11.87
   9  -1  -2  363.56   11.32
  -9   1   1  545.56   15.87
   9  -1  -1  530.80   15.37
  -9   1   0  214.35    7.82
   9  -1   0  212.35    7.77
  -9   1  -1  127.62    5.88
   9  -1   1  134.06    6.27
  -9   1  -2  628.13   17.76
   9  -1   2  620.91   17.59
  -9   1  -3   16.09    3.66
   9  -1   3   16.31    4.00
  -9   1  -4    0.78    3.33
   9  -1   4    9.60    4.00
  -9   1  -5  198.37    7.27
   9  -1   5  195.76    7.93
  -9   1  -6   29.08    3.94
   9  -1   6   28.13    4.49
  -9   1  -7  110.98    6.05
   9  -1   7  105.09    5.94
  -9   1  -8  137.44    5.94
   9  -1   8  144.10    6.99
   9  -1   9   -3.22    4.22
   9  -1   9    0.11    4.83
  -9   0  13  133.34    6.27
   9   0 -13  124.63    5.83
  -9   0  12   79.63    5.33
   9   0 -12   66.42    5.05
  -9   0  11   93.55    5.22
   9   0 -11  106.98    5.49
  -9   0  10   59.32    4.61
   9   0 -10   61.15    4.94
  -9   0   9    9.65    3.38
   9   0  -9    8.93    3.72
  -9   0   8  264.68    9.16
   9   0  -8  255.30    8.77
  -9   0   7  285.32    9.60
   9   0  -7  281.38    9.49
  -9   0   6  481.92   14.32
   9   0  -6  470.93   13.82
  -9   0   5  467.21   13.82
   9   0  -5  443.74   13.26
  -9   0   4  538.63   15.37
   9   0  -4  559.32   15.93
  -9   0   3  764.63   20.86
   9   0  -3  730.78   20.09
  -9   0   2  151.82    6.16
   9   0  -2  159.14    6.83
  -9   0   1 1095.34   28.91
   9   0  -1 1086.46   28.91
  -9   0   0  685.28   18.81
   9   0   0  669.19   18.70
  -9   0  -1    2.28    2.89
   9   0   1   -3.88    3.44
  -9   0  -2  691.38   18.92
   9   0   2  718.02   19.98
  -9   0  -3  348.02   10.71
   9   0   3  372.16   11.60
  -9   0  -4   43.61    3.94
   9   0   4   44.28    4.33
  -9   0  -5  209.75    7.71
   9   0   5  234.99    8.49
  -9   0  -6  154.81    6.77
   9   0   6  141.00    6.55
  -9   0  -7   -1.11    3.77
   9   0   7    3.55    4.22
  -9   0  -8  551.50   15.70
   9   0   8  588.73   17.03
   9   0   9  184.78    7.55
   9   0   9  173.46    7.77
   9   0  10  359.56   11.65
   9   0  10  336.43   11.10
  -9  -1  13   14.32    4.55
   9   1 -13    2.72    3.88
  -9  -1  12   19.20    4.22
   9   1 -12   15.20    4.11
  -9  -1  11   58.26    5.10
   9   1 -11   69.36    4.88
  -9  -1  10  362.56   11.15
   9   1 -10  357.96   11.15
  -9  -1   9   19.14    4.16
   9   1  -9   15.20    4.00
  -9  -1   8  863.40   23.47
   9   1  -8  825.11   22.47
  -9  -1   7   69.80    4.61
   9   1  -7   67.20    4.77
  -9  -1   6  764.63   20.92
   9   1  -6  741.32   20.42
  -9  -1   5 2009.79   51.72
   9   1  -5 2039.75   52.44
  -9  -1   4   38.45    3.88
   9   1  -4   40.45    4.16
  -9  -1   3  918.33   24.86
   9   1  -3  944.41   25.52
  -9  -1   2   98.82    5.27
   9   1  -2  120.24    5.94
  -9  -1   1 1309.53   34.62
   9   1  -1 1275.12   33.63
  -9  -1   0  747.98   20.75
   9   1   0  751.87   20.75
  -9  -1  -1   50.44    4.22
   9   1   1   50.44    4.33
  -9  -1  -2    3.27    3.38
   9   1   2   -1.94    3.61
  -9  -1  -3   67.70    4.94
   9   1   3   69.86    4.72
  -9  -1  -4   94.33    5.38
   9   1   4   98.44    5.44
  -9  -1  -5  253.47    8.93
   9   1   5  255.19    8.93
  -9  -1  -6   78.35    5.05
   9   1   6   85.17    5.55
  -9  -1  -7   15.76    3.72
   9   1   7   20.48    4.11
  -9  -1  -8  186.94    7.55
   9   1   8  214.02    8.10
  -9  -1  -9  420.88   12.87
   9   1   9  385.59   12.32
   9   1  10  521.92   15.59
   9   1  10  494.01   14.70
   9   1  11  352.85   11.82
   9   1  11  342.75   10.54
  -9  -2  13   14.54    4.33
   9   2 -13   10.04    4.16
  -9  -2  12  166.08    6.94
   9   2 -12  155.31    6.44
  -9  -2  11    6.77    4.00
   9   2 -11   12.98    4.05
  -9  -2  10  163.80    6.88
   9   2 -10  160.03    6.71
  -9  -2   9    0.89    3.50
   9   2  -9   -6.99    3.44
  -9  -2   8 1985.37   50.88
   9   2  -8 1991.48   51.05
  -9  -2   7   98.10    5.38
   9   2  -7  106.76    5.44
  -9  -2   6 1393.87   36.62
   9   2  -6 1339.49   35.12
  -9  -2   5  470.87   14.09
   9   2  -5  473.32   13.98
  -9  -2   4  313.95   10.32
   9   2  -4  300.86    9.88
  -9  -2   3  846.20   23.03
   9   2  -3  806.25   22.14
  -9  -2   2   96.83    5.10
   9   2  -2   96.05    5.27
  -9  -2   1 1106.44   29.35
   9   2  -1 1102.00   29.41
  -9  -2   0  170.24    6.60
   9   2   0  179.50    7.21
  -9  -2  -1  324.38   10.10
   9   2   1  332.60   10.71
  -9  -2  -2  151.87    6.21
   9   2   2  141.38    6.38
  -9  -2  -3    7.10    3.16
   9   2   3    6.71    3.50
  -9  -2  -4  227.06    7.93
   9   2   4  229.56    8.38
  -9  -2  -5  287.49    9.38
   9   2   5  279.94    9.49
  -9  -2  -6  484.97   14.37
   9   2   6  488.69   14.43
  -9  -2  -7    5.72    3.83
   9   2   7    9.60    3.77
  -9  -2  -8  461.89   13.71
   9   2   8  508.66   15.15
  -9  -2  -9  154.31    6.60
   9   2   9  150.87    6.88
   9   2  10  324.55   10.82
   9   2  10  306.74    9.99
   9   2  11  392.80   12.04
   9   2  11  426.71   12.98
   9   2  12  293.64    9.71
   9   2  12  276.50   10.04
  -9  -3  13   61.48    5.49
   9   3 -13   70.53    5.22
  -9  -3  12  145.93    6.44
   9   3 -12  144.49    6.55
  -9  -3  11   74.74    5.10
   9   3 -11   82.23    5.10
  -9  -3  10  100.49    5.60
   9   3 -10  104.48    5.44
  -9  -3   9  261.46    8.77
   9   3  -9  261.85    8.71
  -9  -3   8  615.37   17.48
   9   3  -8  630.35   17.76
  -9  -3   7  112.81    5.83
   9   3  -7  114.25    5.49
  -9  -3   6 1090.90   28.96
   9   3  -6 1126.41   29.91
  -9  -3   5  764.07   20.86
   9   3  -5  760.75   21.03
  -9  -3   4 1064.27   28.30
   9   3  -4 1059.83   28.30
  -9  -3   3  305.24    9.93
   9   3  -3  310.18    9.99
  -9  -3   2  204.64    7.60
   9   3  -2  182.00    6.99
  -9  -3   1  627.57   17.76
   9   3  -1  628.13   17.81
  -9  -3   0   10.60    3.38
   9   3   0    6.16    3.33
  -9  -3  -1   12.65    3.83
   9   3   1   25.36    3.94
  -9  -3  -2  148.76    6.38
   9   3   2  167.08    6.88
  -9  -3  -3   55.38    4.61
   9   3   3   48.22    4.27
  -9  -3  -4  579.85   16.65
   9   3   4  584.29   16.76
  -9  -3  -5  344.86   11.04
   9   3   5  362.01   11.32
  -9  -3  -6  395.69   12.21
   9   3   6  414.94   12.43
  -9  -3  -7  161.58    6.55
   9   3   7  151.98    6.66
  -9  -3  -8  354.29   10.99
   9   3   8  329.77   10.65
  -9  -3  -9  160.14    7.10
   9   3   9  144.99    6.83
   9   3  10  568.20   16.42
   9   3  10  593.73   16.70
   9   3  11  169.63    7.21
   9   3  11  170.68    7.49
   9   3  12  462.77   13.98
   9   3  12  450.73   13.37
  -9  -4  12   23.03    4.55
   9   4 -12   30.96    4.77
  -9  -4  11  455.56   13.65
   9   4 -11  440.85   13.10
  -9  -4  10  288.26    9.65
   9   4 -10  297.64    9.82
  -9  -4   9  540.96   15.70
   9   4  -9  506.05   14.70
  -9  -4   8  154.70    6.38
   9   4  -8  157.53    6.77
  -9  -4   7  882.26   23.75
   9   4  -7  874.50   23.69
  -9  -4   6  396.35   12.04
   9   4  -6  384.92   11.93
  -9  -4   5  299.42    9.88
   9   4  -5  308.85   10.04
  -9  -4   4  186.39    7.27
   9   4  -4  191.77    7.38
  -9  -4   3 1594.18   41.56
   9   4  -3 1640.79   42.56
  -9  -4   2  155.59    6.38
   9   4  -2  140.33    6.05
  -9  -4   1   38.73    4.00
   9   4  -1   35.46    3.77
  -9  -4   0   52.99    4.22
   9   4   0   50.00    4.11
  -9  -4  -1  316.73   10.21
   9   4   1  291.54    9.54
  -9  -4  -2  135.67    5.94
   9   4   2  131.06    5.99
  -9  -4  -3  448.51   13.43
   9   4   3  463.83   13.71
  -9  -4  -4  344.69   10.99
   9   4   4  341.48   10.93
  -9  -4  -5  329.71   10.60
   9   4   5  313.73   10.32
  -9  -4  -6  220.07    8.10
   9   4   6  213.91    7.82
  -9  -4  -7  371.94   11.71
   9   4   7  359.29   11.26
  -9  -4  -8  367.83   11.60
   9   4   8  385.81   11.99
  -9  -4  -9  149.37    6.44
   9   4   9  154.04    6.71
   9   4  11  147.54    6.60
   9   4  11  144.44    6.94
   9   4  12  811.79   22.31
   9   4  12  775.73   20.97
   9   4  13  110.92    5.77
   9   4  13  127.18    6.99
  -9  -5  12   47.50    5.22
   9   5 -12   48.44    4.99
  -9  -5  11   35.24    4.61
   9   5 -11   45.28    4.55
  -9  -5  10  568.76   16.37
   9   5 -10  567.65   16.20
  -9  -5   9  178.17    7.27
   9   5  -9  198.59    7.66
  -9  -5   8  484.30   14.26
   9   5  -8  478.64   14.21
  -9  -5   7   42.50    4.05
   9   5  -7   50.61    4.72
  -9  -5   6 1082.58   28.74
   9   5  -6 1048.73   28.08
  -9  -5   5  151.54    6.38
   9   5  -5  149.54    6.49
  -9  -5   4  377.27   11.65
   9   5  -4  356.12   11.10
  -9  -5   3 1616.93   42.06
   9   5  -3 1648.56   42.67
  -9  -5   2   29.08    3.83
   9   5  -2   23.80    3.66
  -9  -5   1  298.47    9.77
   9   5  -1  301.36    9.65
  -9  -5   0 1132.52   30.02
   9   5   0 1185.23   31.30
  -9  -5  -1   67.53    4.33
   9   5   1   70.91    4.61
  -9  -5  -2  890.59   24.03
   9   5   2  882.26   23.75
  -9  -5  -3  176.12    6.94
   9   5   3  183.11    6.99
  -9  -5  -4   22.25    3.61
   9   5   4   20.36    3.72
  -9  -5  -5   60.59    4.61
   9   5   5   66.20    4.72
  -9  -5  -6  259.13    8.77
   9   5   6  265.73    9.16
  -9  -5  -7 1276.79   33.46
   9   5   7 1301.20   34.18
  -9  -5  -8  620.36   17.48
   9   5   8  645.33   18.14
  -9  -5  -9  459.33   13.82
   9   5   9  442.30   13.32
   9   5  10  148.38    6.88
   9   5  11  158.70    7.32
   9   5  11  152.32    6.88
   9   5  12  327.66   10.49
   9   5  12  327.55   11.04
   9   5  13  382.09   11.65
   9   5  13  393.52   12.60
  -9  -6  11  383.04   11.99
   9   6 -11  376.60   11.65
  -9  -6  10  259.69    9.27
   9   6 -10  258.52    8.88
  -9  -6   9   13.54    4.00
   9   6  -9    6.83    3.94
  -9  -6   8 1538.69   39.95
   9   6  -8 1591.41   41.23
  -9  -6   7   28.58    4.05
   9   6  -7   28.24    4.27
  -9  -6   6  735.78   20.25
   9   6  -6  710.81   19.75
  -9  -6   5   80.96    4.94
   9   6  -5   83.23    5.27
  -9  -6   4  186.39    6.94
   9   6  -4  184.83    7.10
  -9  -6   3  421.43   12.54
   9   6  -3  424.04   12.65
  -9  -6   2  228.45    7.99
   9   6  -2  254.97    8.49
  -9  -6   1   46.06    3.88
   9   6  -1   42.62    3.72
  -9  -6   0  322.72   10.21
   9   6   0  306.13    9.65
  -9  -6  -1    6.21    3.11
   9   6   1    6.55    2.94
  -9  -6  -2  265.90    8.82
   9   6   2  279.05    9.27
  -9  -6  -3  300.64    9.71
   9   6   3  327.77   10.38
  -9  -6  -4   19.70    3.38
   9   6   4   13.82    3.44
  -9  -6  -5   72.86    4.49
   9   6   5   61.04    4.44
  -9  -6  -6  314.06   10.10
   9   6   6  308.35   10.27
  -9  -6  -7  566.54   16.15
   9   6   7  568.76   16.26
  -9  -6  -8 1343.93   35.24
   9   6   8 1231.29   32.41
  -9  -6  -9  288.71    9.65
   9   6   9  290.65    9.82
  -9  -6 -10  433.64   13.65
   9   6  10  462.27   14.09
   9   6  11  198.65    7.71
   9   6  11  202.53    8.10
   9   6  12  295.92    9.99
   9   6  12  299.19    9.71
   9   6  13  110.42    6.10
   9   6  13  129.23    6.49
  -9  -7  11  569.31   16.59
   9   7 -11  551.55   15.98
  -9  -7  10  173.23    7.44
   9   7 -10  175.62    7.38
  -9  -7   9  254.47    9.04
   9   7  -9  250.97    8.82
  -9  -7   8  234.55    8.32
   9   7  -8  214.96    7.71
  -9  -7   7   58.71    4.55
   9   7  -7   59.82    4.61
  -9  -7   6  451.79   13.48
   9   7  -6  452.73   13.48
  -9  -7   5  323.55   10.21
   9   7  -5  323.94   10.38
  -9  -7   4  230.33    7.99
   9   7  -4  224.89    8.10
  -9  -7   3  145.32    6.33
   9   7  -3  149.49    6.38
  -9  -7   2  256.47    8.66
   9   7  -2  262.96    8.82
  -9  -7   1   49.44    4.11
   9   7  -1   38.68    3.66
  -9  -7   0   23.69    3.50
   9   7   0   24.80    3.55
  -9  -7  -1  242.93    8.43
   9   7   1  261.07    8.66
  -9  -7  -2   27.30    3.44
   9   7   2   27.69    3.44
  -9  -7  -3  604.82   17.09
   9   7   3  612.59   17.26
  -9  -7  -4    8.82    3.11
   9   7   4   11.76    3.50
  -9  -7  -5  561.54   15.93
   9   7   5  567.65   16.20
  -9  -7  -6  562.10   16.09
   9   7   6  580.41   16.48
  -9  -7  -7  498.34   14.43
   9   7   7  509.55   14.93
  -9  -7  -8  474.15   13.87
   9   7   8  475.04   14.09
  -9  -7  -9  136.89    6.05
   9   7   9  144.77    6.38
   9   7  10  720.24   20.14
   9   7  11  187.94    7.49
   9   7  11  195.60    8.05
   9   7  12  377.65   12.04
   9   7  12  382.31   11.82
   9   7  13   10.10    4.61
   9   7  13    3.38    5.05
   9   7  14   63.26    5.55
   9   7  14   57.15    5.66
  -9  -8  10  136.89    6.94
   9   8 -10  139.33    6.60
  -9  -8   9  265.23    9.49
   9   8  -9  287.26    9.60
  -9  -8   8  322.83   10.60
   9   8  -8  303.58    9.88
  -9  -8   7  290.15    9.60
   9   8  -7  273.06    9.32
  -9  -8   6   40.67    4.38
   9   8  -6   43.23    4.49
  -9  -8   5  330.82   10.49
   9   8  -5  334.37   10.54
  -9  -8   4  490.68   14.37
   9   8  -4  505.61   14.54
  -9  -8   3   61.26    4.61
   9   8  -3   50.27    4.55
  -9  -8   2   27.47    3.50
   9   8  -2   31.68    3.83
  -9  -8   1  138.44    5.88
   9   8  -1  130.95    5.77
  -9  -8   0    0.11    2.89
   9   8   0   -0.61    2.94
  -9  -8  -1  270.23    8.93
   9   8   1  249.03    8.49
  -9  -8  -2  254.75    8.55
   9   8   2  271.73    8.99
  -9  -8  -3  104.87    5.05
   9   8   3  102.43    5.05
  -9  -8  -4  258.52    8.66
   9   8   4  268.40    8.93
  -9  -8  -5  949.96   25.52
   9   8   5  949.41   25.41
  -9  -8  -6  254.08    8.71
   9   8   6  274.28    9.04
  -9  -8  -7  858.40   23.31
   9   8   7  804.03   21.86
  -9  -8  -8   63.53    4.61
   9   8   8   65.31    4.72
  -9  -8  -9  540.35   15.54
   9   8   9  559.32   16.04
   9   8  10  560.43   15.98
   9   8  11   98.38    5.27
   9   8  11   89.84    5.44
   9   8  12  319.56   10.38
   9   8  12  294.70    9.71
   9   8  13   -2.66    4.38
   9   8  13    1.44    4.16
   9   8  14   72.36    5.49
   9   8  14   62.42    5.10
  -9  -9   9  163.64    7.60
   9   9  -9  179.45    7.44
  -9  -9   8  537.74   15.76
   9   9  -8  546.45   15.98
  -9  -9   7  123.46    6.21
   9   9  -7  133.95    6.49
  -9  -9   6  234.60    8.49
   9   9  -6  225.06    8.05
  -9  -9   5  148.04    6.38
   9   9  -5  130.01    6.10
  -9  -9   4  151.37    6.21
   9   9  -4  151.04    6.21
  -9  -9   3  281.77    9.27
   9   9  -3  296.75    9.65
  -9  -9   2   16.59    3.44
   9   9  -2   16.15    3.61
  -9  -9   1  205.97    7.49
   9   9  -1  203.20    7.55
  -9  -9   0   90.34    4.88
   9   9   0   99.71    4.94
  -9  -9  -1   10.27    3.11
   9   9   1   12.98    3.05
  -9  -9  -2  576.52   16.04
   9   9   2  613.70   17.15
  -9  -9  -3  191.55    6.88
   9   9   3  188.44    6.94
  -9  -9  -4  590.95   16.54
   9   9   4  643.11   17.87
  -9  -9  -5  583.18   16.48
   9   9   5  567.09   16.04
  -9  -9  -6  284.16    9.43
   9   9   6  276.39    8.93
  -9  -9  -7  538.35   15.31
   9   9   7  541.62   15.43
  -9  -9  -8  145.49    6.16
   9   9   8  142.61    6.21
  -9  -9  -9  445.02   13.15
   9   9   9  453.23   13.26
   9   9  10  510.60   14.76
   9   9  10  537.52   15.54
   9   9  11   14.15    4.11
   9   9  11   19.75    4.77
   9   9  12  170.29    7.32
   9   9  12  172.79    7.05
   9   9  13   70.14    5.60
   9   9  13   72.13    5.49
   9   9  14    7.88    4.38
   9   9  14    9.04    4.66
  -9 -10   8  880.05   24.36
   9  10  -8  827.89   22.69
  -9 -10   7    2.16    4.61
   9  10  -7   14.43    4.88
  -9 -10   6  807.36   22.36
   9  10  -6  782.94   21.53
  -9 -10   5   19.98    4.11
   9  10  -5   21.31    4.11
  -9 -10   4  393.97   12.10
   9  10  -4  381.32   11.54
  -9 -10   3   14.09    3.72
   9  10  -3   13.87    3.66
  -9 -10   2   62.48    4.27
   9  10  -2   56.65    4.44
  -9 -10   1    9.54    3.27
   9  10  -1    6.66    3.38
  -9 -10   0  263.35    8.60
   9  10   0  256.74    8.43
  -9 -10  -1   67.97    4.27
   9  10   1   61.31    4.27
  -9 -10  -2  236.38    8.05
   9  10   2  233.77    8.05
  -9 -10  -3  380.32   11.49
   9  10   3  369.27   11.15
  -9 -10  -4  890.59   24.08
   9  10   4  860.62   23.14
  -9 -10  -5  456.84   13.48
   9  10   5  425.21   12.37
  -9 -10  -6  279.72    9.16
   9  10   6  298.53    9.60
  -9 -10  -7  984.36   26.30
   9  10   7  985.47   26.25
  -9 -10  -8  346.69   10.82
   9  10   8  361.90   11.21
  -9 -10  -9   38.34    4.11
   9  10   9   38.79    4.44
   9  10  10  359.84   11.32
   9  10  10  339.09   10.76
   9  10  11   -6.49    4.22
   9  10  11   -4.16    4.11
   9  10  12  405.68   12.65
   9  10  12  386.20   11.76
   9  10  13   58.26    5.22
   9  10  13   49.77    5.33
   9  10  14  109.92    6.16
   9  10  14  115.36    6.66
  -9 -11   7   -8.05    7.44
   9  11  -7  291.31    9.49
  -9 -11   6  227.95    8.88
   9  11  -6  220.51    8.49
  -9 -11   5    6.71    4.66
   9  11  -5    6.94    4.55
  -9 -11   4  237.99    8.66
   9  11  -4  232.44    8.55
  -9 -11   3    9.71    3.83
   9  11  -3    9.93    4.00
  -9 -11   2   10.04    3.50
   9  11  -2    9.65    4.00
  -9 -11   1   11.99    3.66
   9  11  -1    7.49    3.44
  -9 -11   0  115.08    5.38
   9  11   0  119.08    5.60
  -9 -11  -1  255.47    8.43
   9  11   1  258.69    8.66
  -9 -11  -2  433.64   12.65
   9  11   2  424.26   12.37
  -9 -11  -3  258.02    8.43
   9  11   3  246.15    8.16
  -9 -11  -4  148.88    5.99
   9  11   4  160.92    6.27
  -9 -11  -5 2063.61   52.88
   9  11   5 2034.20   52.05
  -9 -11  -6   81.46    4.88
   9  11   6   90.61    4.77
  -9 -11  -7  866.17   23.42
   9  11   7  893.36   23.97
  -9 -11  -8  168.07    6.94
   9  11   8  170.46    6.60
   9  11   9  268.56    8.93
   9  11  10  256.36    8.88
   9  11  10  255.69    9.10
   9  11  11   71.75    5.05
   9  11  11   63.59    4.94
   9  11  12  295.53   10.32
   9  11  12  319.39   10.54
   9  11  13  107.37    5.72
   9  11  13  109.42    6.60
   9  11  14  176.51    7.93
   9  11  14  172.35    8.43
  -9 -12   6   -0.72    7.49
   9  12  -6  142.72    6.99
  -9 -12   5   14.04    5.44
   9  12  -5    8.82    4.83
  -9 -12   4  151.15    7.32
   9  12  -4  151.32    7.05
  -9 -12   3   37.07    4.49
   9  12  -3   40.56    4.66
  -9 -12   2  137.17    6.21
   9  12  -2  144.66    6.27
  -9 -12   1   38.62    4.33
   9  12  -1   30.57    4.11
  -9 -12   0  110.81    5.27
   9  12   0  120.24    5.88
  -9 -12  -1   26.52    3.66
   9  12   1   33.24    4.11
  -9 -12  -2  775.73   21.03
   9  12   2  784.61   21.14
  -9 -12  -3  435.31   12.65
   9  12   3  430.26   12.43
  -9 -12  -4  685.28   18.81
   9  12   4  683.62   18.53
  -9 -12  -5  785.72   21.36
   9  12   5  806.80   21.64
  -9 -12  -6  291.59    9.38
   9  12   6  288.37    9.27
  -9 -12  -7  958.28   25.58
   9  12   7  978.26   25.91
  -9 -12  -8    0.89    3.77
   9  12   8    2.55    3.44
   9  12   9  171.57    6.94
   9  12   9  181.61    6.94
   9  12  10    2.77    4.05
   9  12  10    5.33    4.11
   9  12  11   23.47    4.72
   9  12  11   29.74    4.94
   9  12  12  105.04    6.21
   9  12  12  122.91    6.49
   9  12  13   11.65    4.22
   9  12  13    7.38    4.77
   9  13  -5   34.85    5.38
  -9 -13   4    1.72    6.05
   9  13  -4   83.23    5.99
  -9 -13   3   -6.05    4.72
   9  13  -3   -0.50    4.72
  -9 -13   2   -2.77    4.27
   9  13  -2   -4.77    4.61
  -9 -13   1   52.66    4.88
   9  13  -1   59.87    5.05
  -9 -13   0  877.83   23.80
   9  13   0  858.40   23.19
  -9 -13  -1  183.22    7.16
   9  13   1  183.61    6.99
  -9 -13  -2  674.74   18.64
   9  13   2  673.07   18.64
  -9 -13  -3  176.67    6.77
   9  13   3  182.39    7.05
  -9 -13  -4  569.31   16.09
   9  13   4  570.98   16.04
  -9 -13  -5  486.91   14.09
   9  13   5  501.84   14.37
  -9 -13  -6  426.21   12.65
   9  13   6  418.05   12.26
  -9 -13  -7  293.31    9.60
   9  13   7  270.23    9.10
   9  13   8   29.52    4.22
   9  13   8   26.52    4.27
   9  13   9  322.83   10.49
   9  13   9  324.16   10.21
   9  13  10    9.71    4.38
   9  13  10   13.98    4.22
   9  13  11   43.11    5.16
   9  13  11   49.61    5.38
   9  13  12    7.66    4.99
   9  13  12   24.47    4.94
   9  13  13   -1.28    4.38
   9  13  13    5.33    4.94
  -9 -14   3   12.60    5.94
   9  14  -3  176.18    7.71
  -9 -14   2   20.97    5.27
   9  14  -2   19.31    5.05
  -9 -14   1  410.34   12.87
   9  14  -1  411.78   12.60
  -9 -14   0  157.03    6.99
   9  14   0  154.59    6.88
  -9 -14  -1  247.48    8.66
   9  14   1  236.16    8.38
  -9 -14  -2  695.82   19.20
   9  14   2  703.04   19.25
  -9 -14  -3  142.77    6.38
   9  14   3  130.12    5.99
  -9 -14  -4  688.06   18.98
   9  14   4  701.37   19.20
  -9 -14  -5  306.63    9.82
   9  14   5  298.47    9.60
  -9 -14  -6  257.08    8.93
   9  14   6  248.14    8.38
   9  14   7  119.24    5.88
   9  14   7  118.52    5.60
   9  14   8  152.93    6.55
   9  14   8  136.33    6.05
   9  14   9    6.55    4.22
   9  14   9    2.83    4.38
   9  14  10  215.02    8.49
   9  14  10  235.94    8.66
   9  14  11   11.93    5.10
   9  14  11    7.77    4.83
   9  14  12  182.78    7.71
   9  14  12  172.18    7.55
  -9 -15   1  181.00    9.38
   9  15  -1  185.61    8.60
  -9 -15   0  272.17   10.21
   9  15   0  264.12    9.54
  -9 -15  -1  209.41    8.71
   9  15   1  205.81    8.38
  -9 -15  -2  399.90   12.76
   9  15   2  431.87   13.04
  -9 -15  -3  231.16    8.71
   9  15   3  243.98    8.71
  -9 -15  -4  355.35   11.21
   9  15   4  386.59   12.04
  -9 -15  -5  780.72   21.64
   9  15   5  656.43   18.42
   9  15   6   -0.83    5.16
   9  15   6    9.32    4.44
   9  15   8   23.47    4.44
   9  15   8   12.54    5.05
   9  15  10   27.02    4.99
   9  15  10   22.31    5.94
   9  15  11   63.42    6.27
   9  15  11   41.95    6.83
  -9 -16  -2  335.43   10.88
   9  16   2  317.84   10.43
   9  16   3  196.76    7.66
   9  16   8    8.16    5.88
   9  16   8  -11.60    5.44
 -10   6   7    5.44    5.10
 -10   6   6  254.91    9.04
  10  -6  -6  270.06    9.43
 -10   6   5    6.16    4.27
  10  -6  -5   -8.27    4.49
 -10   6   4  110.42    5.83
  10  -6  -4  116.41    6.27
 -10   6   3   11.26    4.33
  10  -6  -3   -5.72    4.66
 -10   6   2    6.88    4.44
 -10   5   9  274.89    9.21
  10  -5  -9  248.48    8.77
 -10   5   8  111.70    5.55
  10  -5  -8  102.54    5.83
 -10   5   7  203.81    7.60
  10  -5  -7  205.58    7.88
 -10   5   6  160.69    6.77
  10  -5  -6  151.26    6.99
 -10   5   5    1.78    3.61
  10  -5  -5   -0.55    4.38
 -10   5   4   37.57    4.22
  10  -5  -4   33.90    4.55
 -10   5   3   49.55    4.27
  10  -5  -3   47.89    5.22
 -10   5   2   -0.50    3.94
  10  -5  -2    7.55    4.77
 -10   5   1   22.47    4.22
  10  -5  -1   18.70    5.05
 -10   5   0   19.03    4.94
  10  -5   0   21.81    5.05
 -10   5  -1   32.24    4.77
  10  -5   1   36.46    5.16
 -10   4  10  254.58    8.99
  10  -4 -10  234.27    8.55
 -10   4   9   73.63    4.88
  10  -4  -9   74.96    5.22
 -10   4   8  227.67    8.43
  10  -4  -8  230.28    8.38
 -10   4   7   18.14    3.94
  10  -4  -7   19.31    4.33
 -10   4   6   93.44    5.05
  10  -4  -6   90.22    5.49
 -10   4   5  108.31    5.38
  10  -4  -5  111.20    5.83
 -10   4   4    4.05    3.50
  10  -4  -4    8.71    4.00
 -10   4   3   -3.27    3.27
  10  -4  -3   -4.94    3.94
 -10   4   2    8.32    3.83
  10  -4  -2    5.38    3.88
 -10   4   1    8.93    3.61
  10  -4  -1    4.11    3.83
 -10   4   0  288.21    9.43
  10  -4   0  260.24    8.93
 -10   4  -1    4.00    3.72
  10  -4   1   -3.72    4.05
 -10   4  -2  172.79    6.99
  10  -4   2  175.23    7.38
 -10   4  -3  203.20    7.60
  10  -4   3  216.29    8.66
 -10   3  11  366.22   11.15
  10  -3 -11  423.99   12.87
 -10   3  10   93.61    5.33
  10  -3 -10  105.71    5.72
 -10   3   9   72.41    5.38
  10  -3  -9   70.03    4.88
 -10   3   8  268.34    8.66
  10  -3  -8  273.56    9.38
 -10   3   7   43.84    4.16
  10  -3  -7   51.77    4.77
 -10   3   6   12.82    3.72
  10  -3  -6   21.20    4.33
 -10   3   5    6.94    3.72
  10  -3  -5    7.49    3.83
 -10   3   4   46.55    4.55
  10  -3  -4   41.56    4.49
 -10   3   3    5.72    3.44
  10  -3  -3   -6.16    3.55
 -10   3   2   10.76    3.88
  10  -3  -2   16.20    4.33
 -10   3   1    9.38    3.50
  10  -3  -1    4.99    4.00
 -10   3   0  571.53   16.31
  10  -3   0  549.11   15.70
 -10   3  -1   28.80    4.05
  10  -3   1   25.08    4.27
 -10   3  -2  401.90   12.43
  10  -3   2  403.79   12.32
 -10   3  -3   62.54    4.83
  10  -3   3   67.09    5.27
 -10   3  -4  216.52    7.93
  10  -3   4  238.49    8.82
 -10   3  -5  175.07    7.55
 -10   2  11  588.73   16.59
  10  -2 -11  572.08   16.15
 -10   2  10    4.44    3.77
  10  -2 -10    4.94    4.22
 -10   2   9  790.71   21.25
  10  -2  -9  777.95   21.25
 -10   2   8   15.31    4.27
  10  -2  -8   15.43    4.16
 -10   2   7   21.64    4.11
  10  -2  -7   14.65    4.05
 -10   2   6  194.93    7.10
  10  -2  -6  208.53    7.88
 -10   2   5   73.80    4.49
  10  -2  -5   79.40    5.22
 -10   2   4    0.50    3.38
  10  -2  -4    5.05    3.77
 -10   2   3   61.92    4.66
  10  -2  -3   67.70    4.72
 -10   2   2    6.16    3.50
  10  -2  -2    7.44    4.11
 -10   2   1   35.07    3.94
  10  -2  -1   20.92    4.00
 -10   2   0  172.90    6.88
  10  -2   0  166.74    6.77
 -10   2  -1  353.96   10.88
  10  -2   1  350.80   11.21
 -10   2  -2  326.44   10.15
  10  -2   2  311.35   10.32
 -10   2  -3  371.61   11.43
  10  -2   3  387.92   12.10
 -10   2  -4  137.11    6.66
  10  -2   4  143.71    6.83
 -10   2  -5  193.71    7.44
  10  -2   5  188.33    7.71
 -10   2  -6   23.97    4.33
  10  -2   6   37.68    5.10
 -10   1  11  430.98   12.93
  10  -1 -11  436.42   12.93
 -10   1  10    2.39    3.55
  10  -1 -10    8.71    3.94
 -10   1   9  748.54   20.64
  10  -1  -9  774.06   21.20
 -10   1   8    7.49    3.72
  10  -1  -8    3.72    4.11
 -10   1   7   37.07    4.16
  10  -1  -7   35.01    4.27
 -10   1   6   -0.89    3.50
  10  -1  -6    9.60    3.55
 -10   1   5   11.71    3.55
  10  -1  -5   10.32    3.72
 -10   1   4   14.26    3.44
  10  -1  -4   14.98    3.55
 -10   1   3   73.30    4.55
  10  -1  -3   70.25    4.72
 -10   1   2  128.18    5.55
  10  -1  -2  128.57    5.88
 -10   1   1   54.82    4.22
  10  -1  -1   61.54    4.72
 -10   1   0  125.85    5.55
  10  -1   0  120.80    5.88
 -10   1  -1  522.09   15.04
  10  -1   1  504.28   14.76
 -10   1  -2  163.19    6.77
  10  -1   2  182.06    7.44
 -10   1  -3  381.76   12.04
  10  -1   3  387.36   12.10
 -10   1  -4  210.25    8.05
  10  -1   4  207.08    8.10
 -10   1  -5  649.21   17.81
  10  -1   5  675.29   18.87
 -10   1  -6   11.15    4.05
  10  -1   6    7.88    4.88
 -10   1  -7  338.15   10.93
  10  -1   7  344.58   11.26
 -10   0  12   89.34    5.55
 -10   0  11  155.98    6.49
  10   0 -11  156.31    6.77
 -10   0  10  302.13    9.93
  10   0 -10  294.25    9.60
 -10   0   9  116.36    5.60
  10   0  -9  127.40    6.10
 -10   0   8   51.72    4.61
  10   0  -8   54.16    4.77
 -10   0   7   17.53    3.83
  10   0  -7   16.98    4.00
 -10   0   6    7.05    3.16
  10   0  -6    8.82    3.72
 -10   0   5  101.65    5.27
  10   0  -5  104.98    5.44
 -10   0   4   16.09    3.38
  10   0  -4    8.32    3.66
 -10   0   3    3.77    3.66
  10   0  -3   -3.94    3.38
 -10   0   2  122.13    6.16
  10   0  -2  124.07    5.77
 -10   0   1  113.20    5.66
  10   0  -1  107.48    5.38
 -10   0   0  563.21   16.31
  10   0   0  535.85   15.31
 -10   0  -1  299.91   10.04
  10   0   1  297.14    9.82
 -10   0  -2  239.71    8.55
  10   0   2  219.07    8.05
 -10   0  -3  670.30   18.76
  10   0   3  660.87   18.64
 -10   0  -4  484.52   14.21
  10   0   4  450.29   13.59
 -10   0  -5  219.29    7.93
  10   0   5  185.05    7.71
 -10   0  -6   30.02    3.94
  10   0   6   27.08    4.66
 -10   0  -7  380.04   11.71
  10   0   7  394.91   12.43
 -10   0  -8    4.05    4.38
  10   0   8   13.15    4.83
 -10  -1  12   21.31    4.77
 -10  -1  11  245.37    8.43
  10   1 -11  248.75    8.60
 -10  -1  10  249.86    8.88
  10   1 -10  242.65    8.43
 -10  -1   9   35.96    4.55
  10   1  -9   37.95    4.72
 -10  -1   8   74.96    4.61
  10   1  -8   81.18    4.99
 -10  -1   7   16.37    4.05
  10   1  -7   10.76    3.83
 -10  -1   6   84.79    5.16
  10   1  -6   87.62    4.94
 -10  -1   5  268.40    9.16
  10   1  -5  269.40    9.10
 -10  -1   4    4.00    3.50
  10   1  -4    0.17    3.38
 -10  -1   3   95.16    4.94
  10   1  -3   89.89    4.99
 -10  -1   2  276.44    9.04
  10   1  -2  280.33    9.32
 -10  -1   1    4.77    3.22
  10   1  -1    3.27    3.83
 -10  -1   0  985.47   26.30
  10   1   0  975.49   26.19
 -10  -1  -1  257.41    8.60
  10   1   1  247.09    8.60
 -10  -1  -2  351.46   10.82
  10   1   2  362.12   11.38
 -10  -1  -3  750.76   20.36
  10   1   3  738.00   20.48
 -10  -1  -4  162.30    6.66
  10   1   4  152.43    6.60
 -10  -1  -5  590.40   16.92
  10   1   5  578.74   16.65
 -10  -1  -6   73.08    4.94
  10   1   6   64.75    5.22
 -10  -1  -7  146.88    6.38
  10   1   7  147.60    6.77
 -10  -1  -8   62.87    5.10
  10   1   8   47.61    5.10
 -10  -1  -9    0.67    4.00
  10   1   9    4.49    4.55
 -10  -2  11  311.84   10.27
  10   2 -11  300.75    9.93
 -10  -2  10    5.94    4.05
  10   2 -10    1.55    3.77
 -10  -2   9   24.41    4.22
  10   2  -9   36.96    4.16
 -10  -2   8   37.07    4.55
  10   2  -8   36.90    4.33
 -10  -2   7   69.14    4.66
  10   2  -7   83.29    5.16
 -10  -2   6   52.21    4.44
  10   2  -6   51.77    4.49
 -10  -2   5   42.95    4.05
  10   2  -5   44.50    4.33
 -10  -2   4    8.49    3.44
  10   2  -4    3.61    3.66
 -10  -2   3  304.41    9.93
  10   2  -3  291.81    9.49
 -10  -2   2   27.97    3.94
  10   2  -2   18.53    3.83
 -10  -2   1 1405.52   36.84
  10   2  -1 1441.03   37.73
 -10  -2   0   81.85    5.22
  10   2   0   86.78    4.88
 -10  -2  -1  804.58   22.03
  10   2   1  816.23   22.20
 -10  -2  -2  648.66   18.26
  10   2   2  683.06   19.14
 -10  -2  -3  456.17   13.71
  10   2   3  441.08   13.26
 -10  -2  -4   48.55    4.38
  10   2   4   41.95    4.66
 -10  -2  -5  439.30   13.04
  10   2   5  413.39   12.82
 -10  -2  -6  209.69    7.71
  10   2   6  225.56    8.43
 -10  -2  -7    5.49    4.11
  10   2   7   -3.33    4.11
 -10  -2  -8    5.60    3.61
  10   2   8    3.83    4.22
 -10  -2  -9    1.44    4.55
  10   2   9    3.50    4.38
  10   2  10   -3.38    5.22
  10   2  10    0.00    4.33
 -10  -3  11  194.04    7.99
  10   3 -11  207.19    7.93
 -10  -3  10   65.92    5.22
  10   3 -10   76.80    5.05
 -10  -3   9  278.00    9.27
  10   3  -9  276.55    9.21
 -10  -3   8   23.53    4.27
  10   3  -8   14.21    3.88
 -10  -3   7    2.55    3.27
  10   3  -7    3.22    3.61
 -10  -3   6   11.54    3.77
  10   3  -6   10.21    3.77
 -10  -3   5   22.69    4.16
  10   3  -5   18.26    3.88
 -10  -3   4    1.11    3.61
  10   3  -4    1.00    3.33
 -10  -3   3  141.44    5.94
  10   3  -3  152.48    6.38
 -10  -3   2  977.70   26.02
  10   3  -2  971.05   26.02
 -10  -3   1  805.69   21.81
  10   3  -1  861.18   23.31
 -10  -3   0  830.11   22.36
  10   3   0  787.38   21.42
 -10  -3  -1   93.55    4.83
  10   3   1   88.84    4.94
 -10  -3  -2  624.24   17.31
  10   3   2  642.00   18.03
 -10  -3  -3   41.45    3.94
  10   3   3   41.06    4.16
 -10  -3  -4  258.58    8.66
  10   3   4  258.85    8.93
 -10  -3  -5  465.05   13.71
  10   3   5  468.93   13.76
 -10  -3  -6  160.03    6.77
  10   3   6  162.30    7.05
 -10  -3  -7  207.58    7.88
  10   3   7  194.54    7.77
 -10  -3  -8  260.57    8.99
  10   3   8  257.02    9.04
 -10  -3  -9    0.11    4.38
  10   3   9   -0.78    4.55
  10   3  10  106.43    6.10
  10   3  10   96.61    5.49
 -10  -4  11   99.66    5.88
  10   4 -11   98.21    5.88
 -10  -4  10   89.23    5.77
  10   4 -10   74.41    5.10
 -10  -4   9   45.50    4.72
  10   4  -9   49.44    4.44
 -10  -4   8   24.91    4.38
  10   4  -8   21.92    4.11
 -10  -4   7  265.01    8.93
  10   4  -7  254.58    8.77
 -10  -4   6    7.55    3.77
  10   4  -6    6.49    3.94
 -10  -4   5  245.54    8.49
  10   4  -5  264.40    8.99
 -10  -4   4    9.16    3.55
  10   4  -4    9.04    3.72
 -10  -4   3   90.67    4.94
  10   4  -3   87.78    5.05
 -10  -4   2  969.94   26.08
  10   4  -2  967.16   26.02
 -10  -4   1  344.03   10.88
  10   4  -1  331.93   10.60
 -10  -4   0 1932.10   49.77
  10   4   0 1933.77   49.83
 -10  -4  -1   15.70    3.55
  10   4   1   14.93    3.61
 -10  -4  -2 1083.13   28.91
  10   4   2 1047.07   27.97
 -10  -4  -3   68.75    4.72
  10   4   3   77.18    4.94
 -10  -4  -4  615.92   17.48
  10   4   4  588.18   16.70
 -10  -4  -5  246.92    8.71
  10   4   5  250.14    8.60
 -10  -4  -6   49.33    4.33
  10   4   6   44.28    4.38
 -10  -4  -7   84.56    4.99
  10   4   7   85.56    5.55
 -10  -4  -8  266.18    9.27
  10   4   8  264.46    9.27
 -10  -4  -9   -0.55    3.88
  10   4   9   -0.94    4.11
  10   4  10  136.39    6.88
  10   4  11   58.87    4.99
  10   4  11   54.05    5.60
 -10  -5  10   21.53    4.33
  10   5 -10   20.59    4.33
 -10  -5   9   87.34    5.60
  10   5  -9   88.56    5.38
 -10  -5   8    0.83    4.16
  10   5  -8   -1.28    3.83
 -10  -5   7  316.51   10.21
  10   5  -7  314.01   10.27
 -10  -5   6  114.08    5.94
  10   5  -6  104.71    5.55
 -10  -5   5   24.91    3.94
  10   5  -5   40.01    4.38
 -10  -5   4   46.83    4.38
  10   5  -4   49.44    4.33
 -10  -5   3  590.40   16.70
  10   5  -3  636.45   17.92
 -10  -5   2  734.67   20.25
  10   5  -2  735.22   20.31
 -10  -5   1  413.67   12.54
  10   5  -1  400.29   12.10
 -10  -5   0  150.76    6.33
  10   5   0  163.02    6.71
 -10  -5  -1  553.77   15.81
  10   5   1  559.88   15.98
 -10  -5  -2  379.82   11.60
  10   5   2  379.10   11.54
 -10  -5  -3  141.88    6.10
  10   5   3  145.16    6.21
 -10  -5  -4  242.93    8.55
  10   5   4  255.14    8.93
 -10  -5  -5   63.76    4.61
  10   5   5   68.31    4.77
 -10  -5  -6   53.21    4.49
  10   5   6   50.94    4.55
 -10  -5  -7   12.21    3.55
  10   5   7   24.08    4.49
 -10  -5  -8   18.81    4.05
  10   5   8   22.42    4.27
 -10  -5  -9   45.11    4.94
  10   5   9   38.90    4.94
 -10  -5 -10  140.11    6.44
  10   5  10  119.52    6.49
  10   5  11  176.45    7.55
  10   5  11  167.96    7.16
 -10  -6  10   16.37    4.83
  10   6 -10   22.58    4.61
 -10  -6   9  112.42    5.94
  10   6  -9  102.65    6.05
 -10  -6   8  134.12    6.38
  10   6  -8  135.72    6.16
 -10  -6   7   57.49    4.66
  10   6  -7   51.94    4.66
 -10  -6   6   93.94    5.27
  10   6  -6  102.88    5.44
 -10  -6   5  637.01   17.81
  10   6  -5  617.03   17.42
 -10  -6   4  489.80   14.26
  10   6  -4  491.63   14.32
 -10  -6   3  316.45   10.04
  10   6  -3  312.84    9.88
 -10  -6   2   10.38    3.44
  10   6  -2    4.05    3.33
 -10  -6   1  319.50   10.10
  10   6  -1  332.60   10.54
 -10  -6   0  643.11   17.87
  10   6   0  650.88   18.20
 -10  -6  -1  201.53    7.21
  10   6   1  196.60    7.49
 -10  -6  -2  368.50   11.26
  10   6   2  361.23   11.26
 -10  -6  -3  604.27   16.87
  10   6   3  617.59   17.48
 -10  -6  -4   51.38    4.22
  10   6   4   55.43    4.44
 -10  -6  -5   21.25    3.77
  10   6   5   21.42    4.16
 -10  -6  -6    3.38    3.66
  10   6   6   -6.27    4.00
 -10  -6  -7    2.61    3.77
  10   6   7    8.32    4.16
 -10  -6  -8   88.00    5.38
  10   6   8   87.23    5.60
 -10  -6  -9    6.66    3.94
  10   6   9   14.98    4.49
 -10  -6 -10  310.12   10.27
  10   6  10  309.57   10.27
  10   6  11   98.27    5.88
  10   6  11   96.66    6.05
  10   6  12    9.93    5.55
  10   6  12   10.82    5.27
 -10  -7   9   90.50    5.72
  10   7  -9   92.67    5.60
 -10  -7   8   82.34    5.22
  10   7  -8   71.19    5.05
 -10  -7   7   15.81    4.11
  10   7  -7    6.60    4.05
 -10  -7   6  368.83   11.49
  10   7  -6  380.48   11.65
 -10  -7   5  265.96    8.88
  10   7  -5  269.90    9.10
 -10  -7   4  721.90   19.98
  10   7  -4  673.07   18.70
 -10  -7   3  439.80   13.10
  10   7  -3  441.80   13.04
 -10  -7   2   25.47    3.50
  10   7  -2   23.69    3.94
 -10  -7   1  110.48    5.22
  10   7  -1  116.64    5.44
 -10  -7   0  938.86   25.14
  10   7   0  938.86   25.19
 -10  -7  -1  224.06    7.82
  10   7   1  231.16    8.10
 -10  -7  -2  441.19   12.98
  10   7   2  425.98   12.60
 -10  -7  -3  229.94    8.05
  10   7   3  228.22    7.99
 -10  -7  -4  336.26   10.54
  10   7   4  354.46   11.15
 -10  -7  -5   98.16    5.27
  10   7   5   99.32    5.05
 -10  -7  -6    5.94    3.55
  10   7   6    9.21    3.61
 -10  -7  -7   33.29    3.88
  10   7   7   31.63    4.33
 -10  -7  -8   87.56    5.10
  10   7   8   94.00    5.55
 -10  -7  -9   29.96    4.16
 -10  -7 -10  849.53   23.08
  10   7  10  812.35   22.36
  10   7  11    7.16    4.55
  10   7  11    8.71    4.88
  10   7  12  385.37   12.32
  10   7  12  392.52   12.10
  10   8  -9   35.90    5.77
 -10  -8   8   18.31    4.55
  10   8  -8   21.58    4.44
 -10  -8   7   44.17    4.66
  10   8  -7   30.19    4.61
 -10  -8   6  122.24    5.99
  10   8  -6  126.24    5.94
 -10  -8   5  630.35   17.81
  10   8  -5  603.71   17.03
 -10  -8   4  367.00   11.38
  10   8  -4  355.57   11.21
 -10  -8   3  822.89   22.31
  10   8  -3  843.42   22.81
 -10  -8   2  166.19    6.60
  10   8  -2  165.24    6.55
 -10  -8   1  169.46    6.60
  10   8  -1  182.72    6.88
 -10  -8   0  199.59    7.21
  10   8   0  194.15    7.38
 -10  -8  -1  165.97    6.38
  10   8   1  164.25    6.66
 -10  -8  -2  610.37   17.03
  10   8   2  612.59   17.37
 -10  -8  -3   27.86    3.55
  10   8   3   24.14    3.61
 -10  -8  -4 1568.66   40.67
  10   8   4 1540.91   40.01
 -10  -8  -5    4.88    3.50
  10   8   5    4.99    3.61
 -10  -8  -6   82.29    4.88
  10   8   6   79.40    4.83
 -10  -8  -7  165.41    6.44
  10   8   7  163.97    6.60
 -10  -8  -8  354.57   10.99
  10   8   8  364.50   11.21
 -10  -8  -9   28.08    4.16
  10   8   9   27.13    4.55
 -10  -8 -10  368.66   11.38
  10   8  10  350.02   10.99
  10   8  11   10.99    4.33
  10   8  11    2.55    4.55
  10   8  12  639.23   18.09
  10   8  12  612.59   17.15
 -10  -9   8  262.52    9.99
  10   9  -8  235.71    8.82
 -10  -9   7  185.61    7.93
  10   9  -7  173.79    7.21
 -10  -9   6  418.27   12.82
  10   9  -6  409.00   12.43
 -10  -9   5   82.90    5.27
  10   9  -5   86.28    5.38
 -10  -9   4   96.66    5.27
  10   9  -4   93.83    5.33
 -10  -9   3  797.37   21.75
  10   9  -3  822.89   22.31
 -10  -9   2  336.81   10.60
  10   9  -2  366.45   11.43
 -10  -9   1  708.03   19.42
  10   9  -1  731.34   20.09
 -10  -9   0   12.71    3.22
  10   9   0   22.31    3.66
 -10  -9  -1  298.19    9.65
  10   9   1  296.47    9.43
 -10  -9  -2   75.46    4.72
  10   9   2   79.63    4.72
 -10  -9  -3  143.22    6.16
  10   9   3  139.89    5.88
 -10  -9  -4  613.70   17.31
  10   9   4  570.42   16.20
 -10  -9  -5   11.10    3.38
  10   9   5   14.15    3.44
 -10  -9  -6    3.22    3.77
  10   9   6    2.77    3.66
 -10  -9  -7   87.23    5.22
  10   9   7   82.18    5.16
 -10  -9  -8  118.91    5.83
  10   9   8  123.41    6.05
 -10  -9  -9  234.60    8.43
  10   9   9  240.10    8.77
  10   9  10  248.14    8.77
  10   9  11  230.17    8.49
  10   9  11  206.81    7.82
  10   9  12  223.01    8.27
  10   9  12  207.58    7.82
 -10 -10   7    1.55    5.33
  10  10  -7   -2.61    5.10
 -10 -10   6  671.96   18.92
  10  10  -6  686.39   19.14
 -10 -10   5   69.08    5.60
  10  10  -5   71.19    5.16
 -10 -10   4  498.06   14.76
  10  10  -4  484.08   14.09
 -10 -10   3  356.73   11.10
  10  10  -3  378.99   11.87
 -10 -10   2  369.16   11.49
  10  10  -2  342.03   10.65
 -10 -10   1  470.60   13.82
  10  10  -1  473.04   13.93
 -10 -10   0   24.41    3.88
  10  10   0   19.09    4.11
 -10 -10  -1  249.31    8.49
  10  10   1  255.25    8.60
 -10 -10  -2  620.91   17.42
  10  10   2  585.40   16.42
 -10 -10  -3  206.97    7.49
  10  10   3  214.13    7.66
 -10 -10  -4   34.18    3.94
  10  10   4   36.68    3.88
 -10 -10  -5   26.41    3.83
  10  10   5   32.57    4.00
 -10 -10  -6   11.38    3.83
  10  10   6   10.71    3.55
 -10 -10  -7  218.85    7.99
  10  10   7  236.05    8.21
 -10 -10  -8  268.34    9.21
  10  10   8  284.32    9.38
 -10 -10  -9  177.67    7.27
  10  10   9  189.60    7.71
  10  10  10  301.41   10.32
  10  10  10  321.28   10.60
  10  10  11  288.54    9.99
  10  10  11  303.08   10.21
  10  10  12  321.89   10.71
  10  10  12  338.53   10.88
 -10 -11   6   -4.99    9.82
  10  11  -6  235.66    8.60
 -10 -11   5   18.37    6.83
  10  11  -5   25.86    4.55
 -10 -11   4  328.71   10.99
  10  11  -4  352.13   11.32
 -10 -11   3  228.67    8.43
  10  11  -3  232.77    8.55
 -10 -11   2  497.23   14.76
  10  11  -2  500.78   14.70
 -10 -11   1  486.91   14.32
  10  11  -1  494.01   14.21
 -10 -11   0  192.49    7.44
  10  11   0  184.28    7.55
 -10 -11  -1  113.75    5.44
  10  11   1  123.91    5.88
 -10 -11  -2  220.07    7.93
  10  11   2  200.92    7.32
 -10 -11  -3   34.40    4.05
  10  11   3   39.01    4.00
 -10 -11  -4  159.86    6.66
  10  11   4  165.63    6.60
 -10 -11  -5  173.46    7.05
  10  11   5  165.97    6.71
 -10 -11  -6   51.44    4.44
  10  11   6   65.98    4.72
 -10 -11  -7   39.23    4.27
  10  11   7   45.39    4.55
 -10 -11  -8  600.94   16.81
  10  11   8  639.23   17.92
 -10 -11  -9   48.83    4.77
  10  11   9   46.06    4.94
  10  11  10  881.15   24.03
  10  11  10  840.65   22.75
  10  11  11   51.22    5.44
  10  11  11   50.38    4.83
  10  11  12  460.28   13.76
  10  11  12  475.26   14.54
 -10 -12   4    4.11    5.99
  10  12  -4    4.27    5.10
 -10 -12   3  553.77   16.65
  10  12  -3  564.32   16.37
 -10 -12   2  159.86    7.71
  10  12  -2  148.82    6.94
 -10 -12   1  520.92   15.31
  10  12  -1  511.33   15.04
 -10 -12   0  180.56    7.27
  10  12   0  188.99    7.38
 -10 -12  -1  146.16    6.38
  10  12   1  137.83    6.71
 -10 -12  -2  136.06    6.05
  10  12   2  144.21    6.44
 -10 -12  -3   72.47    4.94
  10  12   3   72.19    4.88
 -10 -12  -4  109.59    5.55
  10  12   4  123.30    5.72
 -10 -12  -5  397.68   12.15
  10  12   5  395.47   11.93
 -10 -12  -6   56.27    4.66
  10  12   6   51.22    4.44
 -10 -12  -7  270.45    9.27
  10  12   7  276.72    9.43
 -10 -12  -8  413.67   12.76
  10  12   8  415.72   12.87
  10  12  10  272.95    9.60
  10  12  10  274.22    9.54
  10  12  11    4.83    4.16
  10  12  11   15.87    4.33
 -10 -13   3   -7.10   13.76
  10  13  -3  183.67    8.16
 -10 -13   2   -1.33    7.71
  10  13  -2  146.71    7.05
 -10 -13   1  695.27   19.86
  10  13  -1  607.60   17.20
 -10 -13   0   17.98    4.55
  10  13   0   21.64    4.88
 -10 -13  -1  157.98    6.88
  10  13   1  150.65    6.88
 -10 -13  -2   14.04    4.16
  10  13   2   22.53    4.94
 -10 -13  -3    5.16    4.11
  10  13   3   -0.55    4.16
 -10 -13  -4    5.77    4.27
  10  13   4   -4.77    4.05
 -10 -13  -5  223.51    8.21
  10  13   5  234.38    8.49
 -10 -13  -6  109.15    5.94
  10  13   6  105.37    5.94
 -10 -13  -7  292.92    9.93
  10  13   7  284.99    9.65
 -10 -13  -8  379.60   12.21
  10  13   8  354.18   11.26
  10  13   9  253.36    9.04
  10  13   9  246.48    9.10
  10  13  10  227.11    8.88
  10  13  10  234.83    8.43
  10  13  11  265.01    9.65
  10  13  11  253.25    9.43
 -10 -14   1   -0.67    5.72
  10  14  -1   27.69    5.72
 -10 -14   0    1.28    5.44
  10  14   0   -4.77    4.88
 -10 -14  -1   52.44    5.49
  10  14   1   43.56    5.22
 -10 -14  -2    2.05    4.99
  10  14   2   10.49    4.61
 -10 -14  -3    3.55    5.05
  10  14   3    3.94    4.61
 -10 -14  -4  106.82    6.44
  10  14   4   98.55    5.99
 -10 -14  -5  157.53    7.27
  10  14   5  159.42    7.10
 -10 -14  -6  145.05    7.21
  10  14   6  136.61    6.55
 -10 -14  -7  491.52   14.98
  10  14   7  438.75   13.10
  10  14   8  184.17    7.71
  10  14   8  170.02    7.32
  10  14   9   29.69    5.33
  10  14   9   41.56    5.16
  10  15   2   44.95    6.27
 -10 -15  -3  331.99   11.49
  10  15   3  343.81   11.43
 -10 -15  -4   -0.17    5.16
  10  15   4   48.39    5.66
 -10 -15  -5  462.44   14.04
  10  15   5  472.15   14.37
 -10 -15  -6    5.94    5.38
  10  15   6   -1.39    5.22
 -11   3   6  233.27    8.16
  11  -3  -6  233.88    8.49
 -11   3   5  327.66   10.49
  11  -3  -5  310.68   10.15
 -11   3   4  148.21    6.66
  11  -3  -4  139.61    6.38
 -11   3   3  296.36    9.93
  11  -3  -3  273.72    9.32
 -11   3   2    9.82    4.05
  11  -3  -2    8.82    4.22
 -11   3   1  202.64    7.88
  11  -3  -1  222.29    8.38
 -11   3   0  114.25    6.27
  11  -3   0   91.67    6.21
 -11   2   8  436.86   12.60
  11  -2  -8  460.66   13.76
 -11   2   7  109.26    5.77
  11  -2  -7  108.20    5.83
 -11   2   6  388.86   11.60
  11  -2  -6  368.44   11.38
 -11   2   5   97.88    4.99
  11  -2  -5  109.37    6.10
 -11   2   4   31.13    3.61
  11  -2  -4   37.12    4.88
 -11   2   3  504.94   14.37
  11  -2  -3  516.98   15.04
 -11   2   2   82.29    4.72
  11  -2  -2   93.78    5.55
 -11   2   1   62.48    4.22
  11  -2  -1   52.82    5.05
 -11   2   0   45.17    4.22
  11  -2   0   35.51    4.49
 -11   2  -1   62.48    4.88
  11  -2   1   60.65    4.94
 -11   2  -2   40.56    4.55
  11  -2   2   36.40    4.72
 -11   1   8  194.15    7.49
  11  -1  -8  205.53    7.60
 -11   1   7  445.52   12.93
  11  -1  -7  444.63   13.37
 -11   1   6  103.71    5.55
  11  -1  -6   90.67    5.49
 -11   1   5  121.13    6.05
  11  -1  -5  113.92    5.83
 -11   1   4  148.04    6.60
  11  -1  -4  158.47    6.88
 -11   1   3  160.36    6.33
  11  -1  -3  149.43    6.66
 -11   1   2  359.07   10.88
  11  -1  -2  360.40   11.26
 -11   1   1    4.83    3.61
  11  -1  -1    2.22    4.00
 -11   1   0   -1.33    3.50
  11  -1   0   -5.60    3.94
 -11   1  -1   16.54    4.05
  11  -1   1   13.15    4.16
 -11   1  -2   16.09    4.16
  11  -1   2   17.48    4.44
 -11   1  -3  249.20    9.21
  11  -1   3  247.87    9.21
 -11   1  -4   -0.33    3.77
  11  -1   4    7.32    4.66
 -11   0   9   45.17    4.66
  11   0  -9   41.23    4.44
 -11   0   8  437.91   12.82
  11   0  -8  436.25   12.93
 -11   0   7  260.74    8.88
  11   0  -7  260.07    8.99
 -11   0   6  132.73    5.88
  11   0  -6  148.76    6.60
 -11   0   5  114.75    5.16
  11   0  -5  110.37    5.77
 -11   0   4   16.20    3.88
  11   0  -4    5.38    4.00
 -11   0   3  549.72   15.87
  11   0  -3  561.54   16.26
 -11   0   2   21.03    4.00
  11   0  -2   16.98    4.27
 -11   0   1  168.52    7.16
  11   0  -1  157.14    6.83
 -11   0   0  108.76    5.66
  11   0   0  123.02    6.05
 -11   0  -1   21.14    4.27
  11   0   1   17.26    4.00
 -11   0  -2  101.99    5.49
  11   0   2   94.16    5.49
 -11   0  -3   66.81    5.16
  11   0   3   82.62    5.33
 -11   0  -4   35.01    4.44
  11   0   4   30.46    4.83
 -11   0  -5   38.07    4.77
  11   0   5   24.69    5.05
 -11  -1   9   86.73    4.99
  11   1  -9   87.28    5.10
 -11  -1   8  564.87   16.09
  11   1  -8  573.75   16.26
 -11  -1   7   21.09    4.00
  11   1  -7   28.52    4.49
 -11  -1   6  469.04   13.76
  11   1  -6  445.79   13.32
 -11  -1   5   89.95    5.33
  11   1  -5   80.01    5.22
 -11  -1   4   28.80    4.11
  11   1  -4   32.90    4.38
 -11  -1   3  361.56   11.10
  11   1  -3  367.94   11.38
 -11  -1   2   30.96    3.83
  11   1  -2   32.79    4.11
 -11  -1   1  246.65    8.32
  11   1  -1  256.30    8.88
 -11  -1   0  240.87    8.27
  11   1   0  257.52    8.93
 -11  -1  -1  161.53    6.44
  11   1   1  152.93    6.83
 -11  -1  -2  381.20   11.54
  11   1   2  383.92   11.93
 -11  -1  -3   22.92    4.22
  11   1   3   27.47    4.77
 -11  -1  -4   37.95    4.88
  11   1   4   47.39    4.88
 -11  -1  -5   43.00    4.33
  11   1   5   39.29    5.05
 -11  -1  -6    4.77    4.16
  11   1   6   14.98    4.44
 -11  -2   9  161.58    6.83
  11   2  -9  157.64    6.55
 -11  -2   8  226.34    8.32
  11   2  -8  191.99    7.21
 -11  -2   7  107.09    5.99
  11   2  -7  117.25    5.99
 -11  -2   6  372.66   11.65
  11   2  -6  394.58   12.10
 -11  -2   5  338.42   10.65
  11   2  -5  329.27   10.49
 -11  -2   4   86.78    5.10
  11   2  -4   92.17    5.49
 -11  -2   3    6.60    3.83
  11   2  -3   15.20    4.00
 -11  -2   2   38.07    4.49
  11   2  -2   27.08    4.16
 -11  -2   1   30.57    3.88
  11   2  -1   28.80    4.49
 -11  -2   0   20.59    4.05
  11   2   0   21.58    3.88
 -11  -2  -1   40.12    4.16
  11   2   1   36.29    4.16
 -11  -2  -2   43.00    4.44
  11   2   2   31.85    4.27
 -11  -2  -3   18.42    4.16
  11   2   3    5.55    4.16
 -11  -2  -4   35.79    4.27
  11   2   4   34.51    4.49
 -11  -2  -5  195.26    7.60
  11   2   5  199.54    7.88
 -11  -2  -6  198.04    7.32
  11   2   6  181.11    7.44
 -11  -2  -7  122.80    5.72
  11   2   7  109.15    6.21
 -11  -3   9  108.87    6.21
  11   3  -9  104.82    5.77
 -11  -3   8  504.67   14.59
  11   3  -8  524.03   14.98
 -11  -3   7   43.17    4.83
  11   3  -7   40.62    4.27
 -11  -3   6  146.10    6.21
  11   3  -6  145.10    6.49
 -11  -3   5  507.88   14.87
  11   3  -5  528.58   15.15
 -11  -3   4  219.35    7.82
  11   3  -4  208.36    7.71
 -11  -3   3   89.61    4.99
  11   3  -3   94.83    5.16
 -11  -3   2  287.10    9.43
  11   3  -2  286.87    9.60
 -11  -3   1  129.23    6.05
  11   3  -1  141.11    6.27
 -11  -3   0  136.28    6.05
  11   3   0  140.00    6.33
 -11  -3  -1    0.39    3.44
  11   3   1    3.38    3.50
 -11  -3  -2   51.38    4.66
  11   3   2   49.22    4.44
 -11  -3  -3   54.71    4.49
  11   3   3   59.04    4.77
 -11  -3  -4   37.51    4.38
  11   3   4   36.40    4.66
 -11  -3  -5  596.50   17.03
  11   3   5  607.60   17.26
 -11  -3  -6  179.78    7.10
  11   3   6  179.89    7.66
 -11  -3  -7  372.94   11.82
  11   3   7  360.01   11.32
 -11  -3  -8   35.96    4.55
  11   3   8   43.67    5.66
 -11  -4   9  111.92    6.49
  11   4  -9  103.37    5.88
 -11  -4   8  256.69    8.99
  11   4  -8  244.20    8.60
 -11  -4   7  158.20    6.99
  11   4  -7  149.32    6.60
 -11  -4   6  268.56    9.21
  11   4  -6  275.00    9.38
 -11  -4   5  307.79    9.99
  11   4  -5  312.07   10.21
 -11  -4   4  159.09    6.44
  11   4  -4  165.24    6.88
 -11  -4   3   22.25    3.83
  11   4  -3   19.37    3.83
 -11  -4   2   76.74    4.99
  11   4  -2   75.46    4.72
 -11  -4   1  185.22    7.32
  11   4  -1  168.07    6.77
 -11  -4   0  213.69    7.71
  11   4   0  208.08    7.82
 -11  -4  -1   13.82    3.55
  11   4   1   19.81    3.72
 -11  -4  -2   22.53    3.94
  11   4   2   17.92    3.77
 -11  -4  -3    5.72    3.88
  11   4   3   11.43    4.11
 -11  -4  -4  269.17    9.21
  11   4   4  294.42    9.93
 -11  -4  -5  583.18   16.48
  11   4   5  592.62   16.92
 -11  -4  -6  381.26   11.65
  11   4   6  360.06   11.26
 -11  -4  -7  442.91   13.21
  11   4   7  442.52   13.37
 -11  -4  -8   19.59    4.16
  11   4   8   13.82    4.77
 -11  -5   8  380.37   11.54
  11   5  -8  388.14   11.87
 -11  -5   7  144.27    6.49
  11   5  -7  162.86    6.77
 -11  -5   6  374.71   11.82
  11   5  -6  362.62   11.26
 -11  -5   5   11.15    3.66
  11   5  -5    8.88    4.27
 -11  -5   4  473.54   13.98
  11   5  -4  457.00   13.59
 -11  -5   3   25.30    4.05
  11   5  -3   37.23    4.16
 -11  -5   2   13.76    3.88
  11   5  -2    2.16    3.83
 -11  -5   1   11.49    4.05
  11   5  -1   18.87    3.72
 -11  -5   0   57.32    4.49
  11   5   0   66.86    4.66
 -11  -5  -1    2.05    3.44
  11   5   1   -0.22    3.50
 -11  -5  -2  517.26   14.98
  11   5   2  487.19   14.37
 -11  -5  -3   20.86    3.88
  11   5   3   18.42    3.83
 -11  -5  -4  567.65   16.15
  11   5   4  618.70   17.53
 -11  -5  -5  113.58    6.21
  11   5   5  105.48    5.72
 -11  -5  -6  179.62    7.05
  11   5   6  184.28    7.38
 -11  -5  -7  443.24   13.21
  11   5   7  442.30   13.59
 -11  -5  -8  179.12    7.38
  11   5   8  171.46    7.38
 -11  -5  -9  339.26   10.88
  11   5   9  358.01   11.54
 -11  -6   8   90.61    5.60
  11   6  -8   76.41    5.38
 -11  -6   7  386.70   12.15
  11   6  -7  375.93   11.60
 -11  -6   6  459.17   13.65
  11   6  -6  462.55   13.65
 -11  -6   5   15.93    4.16
  11   6  -5   13.59    4.33
 -11  -6   4  191.77    7.27
  11   6  -4  176.73    7.27
 -11  -6   3    1.28    3.44
  11   6  -3    6.27    4.05
 -11  -6   2   13.76    3.94
  11   6  -2    8.16    3.66
 -11  -6   1  240.99    8.38
  11   6  -1  235.16    8.27
 -11  -6   0   33.35    4.22
  11   6   0   45.00    4.38
 -11  -6  -1   74.74    4.66
  11   6   1   65.70    5.05
 -11  -6  -2  285.04    9.38
  11   6   2  296.92    9.77
 -11  -6  -3  191.82    7.38
  11   6   3  201.70    7.66
 -11  -6  -4  247.03    8.60
  11   6   4  232.16    8.32
 -11  -6  -5  501.34   14.65
  11   6   5  483.47   14.32
 -11  -6  -6  146.99    6.60
  11   6   6  129.90    6.38
 -11  -6  -7  401.01   12.26
  11   6   7  404.90   12.43
 -11  -6  -8  242.71    8.77
  11   6   8  230.55    8.49
 -11  -6  -9   83.12    5.44
  11   6   9   67.70    5.55
 -11  -7   7  241.43    8.71
  11   7  -7  234.83    8.43
 -11  -7   6   68.31    5.44
  11   7  -6   68.69    5.27
 -11  -7   5  220.40    7.99
  11   7  -5  225.06    8.05
 -11  -7   4    9.60    3.72
  11   7  -4    5.55    3.94
 -11  -7   3   65.86    4.72
  11   7  -3   67.14    4.99
 -11  -7   2   -3.83    3.33
  11   7  -2    5.88    3.94
 -11  -7   1   67.31    4.61
  11   7  -1   74.96    4.83
 -11  -7   0  661.42   18.37
  11   7   0  711.36   19.64
 -11  -7  -1  106.26    5.33
  11   7   1  117.41    5.55
 -11  -7  -2  257.41    8.77
  11   7   2  247.59    8.55
 -11  -7  -3  321.83   10.27
  11   7   3  334.37   10.60
 -11  -7  -4  249.36    8.60
  11   7   4  262.46    8.82
 -11  -7  -5  459.44   13.65
  11   7   5  464.33   13.65
 -11  -7  -6   79.46    5.05
  11   7   6   83.18    5.55
 -11  -7  -7  502.23   14.59
  11   7   7  526.31   15.31
 -11  -7  -8  231.94    8.38
  11   7   8  221.01    8.49
 -11  -7  -9  107.59    5.94
  11   7   9  113.03    6.05
 -11  -8   6  112.42    6.44
  11   8  -6  112.03    5.99
 -11  -8   5   13.87    3.94
  11   8  -5   12.87    4.44
 -11  -8   4   27.63    4.33
  11   8  -4   21.58    4.33
 -11  -8   3   39.56    4.22
  11   8  -3   40.84    4.55
 -11  -8   2  187.61    7.21
  11   8  -2  174.29    6.88
 -11  -8   1   39.17    4.22
  11   8  -1   43.45    4.55
 -11  -8   0  244.81    8.27
  11   8   0  223.17    8.05
 -11  -8  -1   36.12    3.83
  11   8   1   33.79    4.27
 -11  -8  -2 1030.97   27.36
  11   8   2 1022.65   27.24
 -11  -8  -3   82.62    4.77
  11   8   3   83.40    4.94
 -11  -8  -4  354.52   10.99
  11   8   4  349.47   10.99
 -11  -8  -5  635.90   17.81
  11   8   5  622.02   17.53
 -11  -8  -6  223.06    8.05
  11   8   6  210.86    7.82
 -11  -8  -7  324.50   10.60
  11   8   7  323.89   10.49
 -11  -8  -8   20.59    4.11
  11   8   8    9.71    4.33
 -11  -8  -9  202.09    7.66
  11   8   9  203.75    8.05
 -11  -8 -10   57.10    4.83
  11   8  10   62.48    5.83
 -11  -9   6  245.42    8.93
  11   9  -6  240.04    8.71
 -11  -9   5  142.94    6.83
  11   9  -5  148.43    6.83
 -11  -9   4   85.78    5.49
  11   9  -4   93.66    5.72
 -11  -9   3   70.14    4.88
  11   9  -3   67.03    5.22
 -11  -9   2   12.65    4.16
  11   9  -2   20.14    4.22
 -11  -9   1  268.40    9.04
  11   9  -1  252.64    9.04
 -11  -9   0  457.22   13.37
  11   9   0  461.27   13.71
 -11  -9  -1   84.40    5.05
  11   9   1   74.91    5.27
 -11  -9  -2  608.71   17.26
  11   9   2  606.49   17.20
 -11  -9  -3  329.60   10.43
  11   9   3  332.26   10.49
 -11  -9  -4  444.96   13.32
  11   9   4  425.43   12.76
 -11  -9  -5  373.71   11.65
  11   9   5  405.73   12.26
 -11  -9  -6  225.28    8.21
  11   9   6  231.28    8.27
 -11  -9  -7  202.09    7.60
  11   9   7  195.98    7.66
 -11  -9  -8   55.88    4.99
  11   9   8   50.72    4.99
 -11  -9  -9   45.78    4.77
  11   9   9   38.40    4.66
 -11  -9 -10   91.50    5.94
  11   9  10   80.29    6.10
  11  10  -5   10.93    5.16
 -11 -10   4    1.44    4.44
  11  10  -4    3.61    4.22
 -11 -10   3  134.50    6.77
  11  10  -3  112.86    6.16
 -11 -10   2   -3.50    3.88
  11  10  -2   -5.72    4.44
 -11 -10   1  349.69   11.21
  11  10  -1  348.97   11.15
 -11 -10   0  337.42   10.76
  11  10   0  330.71   10.88
 -11 -10  -1  322.50   10.43
  11  10   1  346.58   10.99
 -11 -10  -2  349.19   11.04
  11  10   2  335.98   10.54
 -11 -10  -3  251.92    8.77
  11  10   3  244.37    8.43
 -11 -10  -4  494.79   14.59
  11  10   4  499.84   14.54
 -11 -10  -5  424.43   12.93
  11  10   5  435.58   12.98
 -11 -10  -6   13.59    3.88
  11  10   6   13.15    4.27
 -11 -10  -7  358.45   11.21
  11  10   7  359.62   11.49
 -11 -10  -8   36.79    4.83
  11  10   8   24.19    4.72
 -11 -10  -9   54.99    5.22
  11  10   9   56.38    5.38
 -11 -11   3  -13.54    7.10
  11  11  -3   39.06    4.61
 -11 -11   2  394.69   12.98
  11  11  -2  283.10    9.65
 -11 -11   1  257.91    9.38
  11  11  -1  216.24    8.38
 -11 -11   0  259.63    9.10
  11  11   0  259.08    9.27
 -11 -11  -1  141.50    6.55
  11  11   1  137.83    6.55
 -11 -11  -2  460.28   13.71
  11  11   2  441.24   13.43
 -11 -11  -3  269.67    9.04
  11  11   3  286.21    9.88
 -11 -11  -4  384.26   11.76
  11  11   4  397.68   12.32
 -11 -11  -5  176.84    7.16
  11  11   5  176.56    7.38
 -11 -11  -6  103.93    5.77
  11  11   6   94.61    5.49
 -11 -11  -7  352.02   11.43
  11  11   7  349.13   11.21
 -11 -11  -8   34.29    5.22
  11  11   8   38.56    4.99
 -11 -11  -9  204.59    8.32
  11  11   9  252.75    9.21
 -11 -12   2    7.44    7.55
  11  12  -2   94.22    5.55
 -11 -12   1    1.28    6.60
  11  12  -1  230.33    8.27
 -11 -12   0  -10.04    5.33
  11  12   0  517.71   14.87
 -11 -12  -1    0.11    5.22
  11  12   1    1.50    4.22
 -11 -12  -2 1045.96   28.24
  11  12   2  902.24   24.47
 -11 -12  -3   34.46    5.16
  11  12   3   21.25    4.66
 -11 -12  -4  874.50   24.25
  11  12   4  710.25   19.86
 -11 -12  -5   22.08    5.33
  11  12   5   11.99    4.38
 -11 -12  -6  266.51   10.32
  11  12   6  301.41    9.99
 -11 -12  -7   -5.38    6.60
  11  12   7    3.94    4.22
 -11 -12  -8   -1.44    7.38
  11  12   8  114.81    5.94
 -11 -13  -1   -4.94   10.49
  11  13   1  111.59    6.27
 -11 -13  -2   -3.77    8.10
  11  13   2  794.04   21.86
 -11 -13  -3   -6.88    6.99
  11  13   3  118.58    6.44
 -11 -13  -4   -1.83    6.83
  11  13   4  134.67    6.60
 -11 -13  -5   -0.22    6.55
  11  13   5   14.82    4.72
 -11 -13  -6   -2.72    6.94
  11  13   6  119.91    6.33
 -11 -13  -7   -5.77    7.21
  11  13   7   49.00    5.38
 -12   0   2    1.22    3.55
 -12  -1   4  177.67    6.66
  12   1  -4  168.85    6.88
 -12  -1   3  568.76   15.87
  12   1  -3  581.52   16.54
 -12  -1   2   44.28    4.38
  12   1  -2   44.11    4.77
 -12  -1   1  166.63    6.94
  12   1  -1  176.34    7.38
 -12  -1   0   90.72    5.33
  12   1   0   83.29    5.77
 -12  -1  -1   31.07    4.38
  12   1   1   39.01    5.33
 -12  -2   5   34.79    4.44
  12   2  -5   34.29    4.55
 -12  -2   4  407.01   12.60
  12   2  -4  405.73   12.26
 -12  -2   3  133.34    6.38
  12   2  -3  134.50    6.27
 -12  -2   2  338.42   10.65
  12   2  -2  319.11   10.10
 -12  -2   1   40.73    4.27
  12   2  -1   23.42    4.16
 -12  -2   0  148.88    6.21
  12   2   0  130.51    6.16
 -12  -2  -1   37.07    4.16
  12   2   1   28.19    4.66
 -12  -2  -2  151.26    6.71
  12   2   2  144.60    6.55
 -12  -2  -3  197.70    8.27
  12   2   3  194.71    7.93
 -12  -3   5   72.25    4.88
  12   3  -5   76.19    5.27
 -12  -3   4  153.76    6.33
  12   3  -4  155.64    6.60
 -12  -3   3  115.92    5.77
  12   3  -3  118.25    5.83
 -12  -3   2  202.64    7.60
  12   3  -2  228.94    8.10
 -12  -3   1  253.08    8.77
  12   3  -1  257.02    8.82
 -12  -3   0  206.14    7.77
  12   3   0  227.78    8.21
 -12  -3  -1  116.69    6.10
  12   3   1  113.36    5.99
 -12  -3  -2  109.15    5.77
  12   3   2  113.20    5.99
 -12  -3  -3   26.52    4.44
  12   3   3   28.47    4.66
 -12  -3  -4  116.30    5.66
  12   3   4   89.72    5.83
 -12  -4   5  128.29    5.83
  12   4  -5  125.63    6.10
 -12  -4   4    3.05    4.00
  12   4  -4   -0.83    3.88
 -12  -4   3  383.15   11.82
  12   4  -3  404.45   12.15
 -12  -4   2  151.37    6.27
  12   4  -2  154.37    6.77
 -12  -4   1  371.27   11.26
  12   4  -1  377.38   11.82
 -12  -4   0  191.99    7.21
  12   4   0  199.54    7.82
 -12  -4  -1  349.19   10.82
  12   4   1  356.18   11.49
 -12  -4  -2   62.37    4.55
  12   4   2   60.65    5.22
 -12  -4  -3    4.44    4.16
  12   4   3    3.94    3.88
 -12  -4  -4  125.24    6.94
  12   4   4  133.67    6.21
 -12  -4  -5    0.94    4.61
  12   4   5   -1.72    4.27
 -12  -5   5  112.75    5.55
  12   5  -5  104.71    5.83
 -12  -5   4    5.66    4.00
  12   5  -4   -3.83    3.94
 -12  -5   3  157.86    6.77
  12   5  -3  176.12    7.32
 -12  -5   2  441.41   13.15
  12   5  -2  411.34   12.60
 -12  -5   1  703.04   19.42
  12   5  -1  669.74   18.81
 -12  -5   0   36.07    4.44
  12   5   0   26.41    4.49
 -12  -5  -1  343.31   10.99
  12   5   1  358.29   11.21
 -12  -5  -2  142.88    6.44
  12   5   2  128.79    6.05
 -12  -5  -3   -3.33    4.11
  12   5   3   -0.22    3.88
 -12  -5  -4   41.89    4.66
  12   5   4   39.17    4.49
 -12  -5  -5    2.00    4.27
  12   5   5    0.33    4.22
 -12  -6   5   93.11    5.22
  12   6  -5   90.39    5.83
 -12  -6   4  273.61    9.32
  12   6  -4  274.56    9.21
 -12  -6   3  181.84    7.32
  12   6  -3  171.13    7.21
 -12  -6   2  157.31    6.71
  12   6  -2  169.24    7.16
 -12  -6   1  222.95    8.10
  12   6  -1  219.51    8.05
 -12  -6   0  185.00    7.38
  12   6   0  197.65    7.60
 -12  -6  -1   96.11    5.38
  12   6   1  116.25    5.83
 -12  -6  -2  630.90   17.76
  12   6   2  648.10   18.31
 -12  -6  -3    2.72    3.94
  12   6   3   -2.77    4.33
 -12  -6  -4   21.42    4.27
  12   6   4   17.92    4.66
 -12  -6  -5   76.74    5.49
  12   6   5   69.86    5.55
 -12  -6  -6   76.35    5.44
  12   6   6   73.74    5.66
 -12  -7   4  358.62   11.26
  12   7  -4  371.00   11.49
 -12  -7   3  173.29    7.16
  12   7  -3  178.95    7.32
 -12  -7   2   93.94    5.33
  12   7  -2   69.80    5.05
 -12  -7   1  335.04   10.60
  12   7  -1  355.18   11.26
 -12  -7   0  120.30    5.72
  12   7   0  107.76    5.77
 -12  -7  -1  152.20    6.60
  12   7   1  135.72    6.49
 -12  -7  -2  182.72    7.05
  12   7   2  198.04    7.66
 -12  -7  -3    9.32    3.72
  12   7   3   13.54    4.22
 -12  -7  -4   24.41    4.11
  12   7   4   22.08    4.55
 -12  -7  -5  369.61   11.60
  12   7   5  353.29   11.32
 -12  -7  -6   44.95    4.83
  12   7   6   39.23    5.05
 -12  -8   3  497.62   14.59
  12   8  -3  507.00   14.76
 -12  -8   2   28.91    4.77
  12   8  -2   26.97    4.49
 -12  -8   1  262.74    8.99
  12   8  -1  279.49    9.32
 -12  -8   0   67.97    4.77
  12   8   0   73.24    5.16
 -12  -8  -1  182.50    7.32
  12   8   1  179.28    7.38
 -12  -8  -2   -0.94    3.72
  12   8   2   -3.88    4.16
 -12  -8  -3    5.16    4.00
  12   8   3    3.16    4.05
 -12  -8  -4   23.75    4.49
  12   8   4   16.48    4.38
 -12  -8  -5  342.03   10.93
  12   8   5  312.57   10.43
 -12  -8  -6    2.28    4.27
  12   8   6    3.50    4.44
 -12  -9   2   34.85    4.61
  12   9  -2   36.34    4.77
 -12  -9   1  279.88    9.49
  12   9  -1  289.59    9.71
 -12  -9   0    2.66    4.05
  12   9   0   -5.66    4.16
 -12  -9  -1  261.02    9.27
  12   9   1  264.29    8.99
 -12  -9  -2   37.18    4.38
  12   9   2   26.58    4.55
 -12  -9  -3   30.63    4.38
  12   9   3   27.97    4.61
 -12  -9  -4   79.40    5.27
  12   9   4   82.73    5.55
 -12  -9  -5   28.35    4.99
  12   9   5   31.63    4.55
 -12  -9  -6  422.71   13.04
  12   9   6  471.76   14.26
 -12 -10   0    9.10    4.61
  12  10   0   10.27    4.49
 -12 -10  -1   -1.39    4.33
  12  10   1   -0.78    4.44
 -12 -10  -2   37.12    4.72
  12  10   2   22.64    4.72
 -12 -10  -3   90.22    5.66
  12  10   3   75.52    5.55
 -12 -10  -4   47.72    5.33
  12  10   4   33.79    4.72
 -12 -10  -5  176.95    7.66
  12  10   5  172.79    7.32
   0   0   0    0.00    0.00

_computing_structure_solution     'SHELXT 2014/5 (Sheldrick, 2014)'
;
_shelx_hkl_checksum   32423

