 
data_er965
 
_audit_creation_method            'SHELXL-2018/3'
_shelx_SHELXL_version_number      '2018/3'
_chemical_name_systematic         ?
_chemical_name_common             ?
_chemical_melting_point           ?
_chemical_formula_moiety          ?
_chemical_formula_sum
 'C H Cd N O S' 
_chemical_formula_weight          187.49

loop_
 _atom_type_symbol
 _atom_type_description
 _atom_type_scat_dispersion_real
 _atom_type_scat_dispersion_imag
 _atom_type_scat_source
 'C'  'C'   0.0027   0.0018
 'International Tables Vol C Tables 4.2.6.8 and 6.1.1.4'
 'H'  'H'   0.0000   0.0000
 'International Tables Vol C Tables 4.2.6.8 and 6.1.1.4'
 'N'  'N'   0.0051   0.0037
 'International Tables Vol C Tables 4.2.6.8 and 6.1.1.4'
 'O'  'O'   0.0094   0.0069
 'International Tables Vol C Tables 4.2.6.8 and 6.1.1.4'
 'S'  'S'   0.1230   0.1390
 'International Tables Vol C Tables 4.2.6.8 and 6.1.1.4'
 'Cd'  'Cd'  -0.8902   1.3364
 'International Tables Vol C Tables 4.2.6.8 and 6.1.1.4'
 
_space_group_crystal_system       triclinic
_space_group_IT_number            2
_space_group_name_H-M_alt         'P -1'
_space_group_name_Hall            '-P 1'
 
_shelx_space_group_comment
;
The symmetry employed for this shelxl refinement is uniquely defined
by the following loop, which should always be used as a source of
symmetry information in preference to the above space-group names.
They are only intended as comments.
;
 
loop_
 _space_group_symop_operation_xyz
 'x, y, z'
 '-x, -y, -z'
 
_cell_length_a                    7.8910(16)
_cell_length_b                    13.999(3)
_cell_length_c                    17.521(4)
_cell_angle_alpha                 111.29(3)
_cell_angle_beta                  93.19(3)
_cell_angle_gamma                 104.95(3)
_cell_volume                      1718.3(7)
_cell_formula_units_Z             16
_cell_measurement_temperature     293(2)
_cell_measurement_reflns_used     ?
_cell_measurement_theta_min       ?
_cell_measurement_theta_max       ?
 
_exptl_crystal_description        ?
_exptl_crystal_colour             ?
_exptl_crystal_density_meas       ?
_exptl_crystal_density_method     ?
_exptl_crystal_density_diffrn     2.899          
_exptl_crystal_F_000              1376
_exptl_transmission_factor_min    ?
_exptl_transmission_factor_max    ?
_exptl_crystal_size_max           ?
_exptl_crystal_size_mid           ?
_exptl_crystal_size_min           ?
_exptl_absorpt_coefficient_mu     6.248
_shelx_estimated_absorpt_T_min    ?
_shelx_estimated_absorpt_T_max    ?
_exptl_absorpt_correction_type    ?
_exptl_absorpt_correction_T_min   ?
_exptl_absorpt_correction_T_max   ?
_exptl_absorpt_process_details    ?
_exptl_absorpt_special_details    ?
_diffrn_ambient_temperature       293(2)
_diffrn_radiation_wavelength      0.7527
_diffrn_radiation_type            ?
_diffrn_source                    ?
_diffrn_measurement_device_type   ?
_diffrn_measurement_method        ?
_diffrn_detector_area_resol_mean  ?
_diffrn_reflns_number             16180
_diffrn_reflns_av_unetI/netI      0.0319
_diffrn_reflns_av_R_equivalents   0.0217
_diffrn_reflns_limit_h_min        -10
_diffrn_reflns_limit_h_max        10
_diffrn_reflns_limit_k_min        -18
_diffrn_reflns_limit_k_max        18
_diffrn_reflns_limit_l_min        -23
_diffrn_reflns_limit_l_max        23
_diffrn_reflns_theta_min          1.733
_diffrn_reflns_theta_max          30.997
_diffrn_reflns_theta_full         26.848
_diffrn_measured_fraction_theta_max   0.883
_diffrn_measured_fraction_theta_full  0.914
_diffrn_reflns_Laue_measured_fraction_max    0.883
_diffrn_reflns_Laue_measured_fraction_full   0.914
_diffrn_reflns_point_group_measured_fraction_max   0.883
_diffrn_reflns_point_group_measured_fraction_full  0.914
_reflns_number_total              8160
_reflns_number_gt                 7044
_reflns_threshold_expression      'I > 2\s(I)'
_reflns_Friedel_coverage          0.000
_reflns_Friedel_fraction_max      .
_reflns_Friedel_fraction_full     .
 
_reflns_special_details
;
 Reflections were merged by SHELXL according to the crystal
 class for the calculation of statistics and refinement.
 
 _reflns_Friedel_fraction is defined as the number of unique
 Friedel pairs measured divided by the number that would be
 possible theoretically, ignoring centric projections and
 systematic absences.
;
 
_computing_data_collection        ?
_computing_cell_refinement        ?
_computing_data_reduction         ?
_computing_structure_solution     'SHELXT 2014/5 (Sheldrick, 2014)'
_computing_structure_refinement 'SHELXL-2018/3 (Sheldrick, 2018)'
_computing_molecular_graphics     ?
_computing_publication_material   ?
_refine_special_details           ?
_refine_ls_structure_factor_coef  Fsqd
_refine_ls_matrix_type            full
_refine_ls_weighting_scheme       calc
_refine_ls_weighting_details
'w=1/[\s^2^(Fo^2^)+(0.1881P)^2^+13.8480P] where P=(Fo^2^+2Fc^2^)/3'
_atom_sites_solution_primary      ?
_atom_sites_solution_secondary    ?
_atom_sites_solution_hydrogens    geom
_refine_ls_hydrogen_treatment     constr
_refine_ls_extinction_method      none
_refine_ls_extinction_coef        .
_refine_ls_number_reflns          8160
_refine_ls_number_parameters      415
_refine_ls_number_restraints      0
_refine_ls_R_factor_all           0.0995
_refine_ls_R_factor_gt            0.0891
_refine_ls_wR_factor_ref          0.2802
_refine_ls_wR_factor_gt           0.2652
_refine_ls_goodness_of_fit_ref    1.040
_refine_ls_restrained_S_all       1.040
_refine_ls_shift/su_max           0.015
_refine_ls_shift/su_mean          0.003
 
loop_
 _atom_site_label
 _atom_site_type_symbol
 _atom_site_fract_x
 _atom_site_fract_y
 _atom_site_fract_z
 _atom_site_U_iso_or_equiv
 _atom_site_adp_type
 _atom_site_occupancy
 _atom_site_site_symmetry_order  
 _atom_site_calc_flag
 _atom_site_refinement_flags_posn
 _atom_site_refinement_flags_adp
 _atom_site_refinement_flags_occupancy
 _atom_site_disorder_assembly
 _atom_site_disorder_group
Cd01 Cd 0.86516(5) 1.10847(4) 0.55171(2) 0.02101(18) Uani 1 1 d . . . . .
S002 S 0.5794(3) 0.5898(2) 0.72739(15) 0.0462(6) Uani 1 1 d . . . . .
O003 O 0.6497(6) 0.1935(4) -0.3932(3) 0.0243(9) Uani 1 1 d . . . . .
O004 O 0.8583(6) 0.8994(5) 0.4100(3) 0.0317(11) Uani 1 1 d . . . . .
O005 O 0.7273(7) 1.0259(4) 0.4191(3) 0.0301(10) Uani 1 1 d . . . . .
O006 O 0.9050(6) 0.2492(4) -0.3073(3) 0.0282(10) Uani 1 1 d . . . . .
N007 N 0.7504(7) 0.9785(5) 0.5981(3) 0.0238(11) Uani 1 1 d . . . . .
O008 O 1.0862(7) 0.6646(5) 0.0396(3) 0.0367(13) Uani 1 1 d . . . . .
O009 O 1.1405(7) 0.4477(5) -0.2211(4) 0.0380(12) Uani 1 1 d . . . . .
N00A N 0.1517(8) 0.3941(5) 0.5018(3) 0.0249(11) Uani 1 1 d . . . . .
N00B N 0.4785(7) 0.4164(5) -0.2086(3) 0.0257(11) Uani 1 1 d . . . . .
N00C N 0.6906(8) 0.8052(5) 0.1539(3) 0.0263(12) Uani 1 1 d . . . . .
N00D N 0.6349(7) 0.4582(5) -0.1550(3) 0.0239(11) Uani 1 1 d . . . . .
N00E N 0.6031(7) 0.8249(5) 0.6047(3) 0.0241(11) Uani 1 1 d . . . . .
N00F N -0.0046(8) 0.2412(5) 0.5060(4) 0.0260(11) Uani 1 1 d . . . . .
N00G N 0.9775(8) 0.5886(5) -0.0318(4) 0.0314(13) Uani 1 1 d . . . . .
N00H N 0.6181(9) 0.6897(6) 0.6993(4) 0.0397(16) Uani 1 1 d . . . . .
N00I N 0.4216(8) 0.5012(6) 0.6536(4) 0.0342(14) Uani 1 1 d . . . . .
N00J N 0.5746(9) 0.8648(6) 0.1600(4) 0.0350(14) Uani 1 1 d . . . . .
N00K N 0.9957(8) 0.7265(6) 0.0928(4) 0.0339(14) Uani 1 1 d . . . . .
C00L C 0.6494(8) 0.8801(6) 0.5548(4) 0.0252(12) Uani 1 1 d . . . . .
H00L H 0.613778 0.851377 0.497500 0.030 Uiso 1 1 calc R U . . .
C00M C 0.4925(8) 0.7178(6) 0.5784(4) 0.0254(13) Uani 1 1 d . . . . .
C00N C 0.1051(9) 0.3371(6) 0.5505(4) 0.0259(13) Uani 1 1 d . . . . .
H00N H 0.145594 0.362705 0.607200 0.031 Uiso 1 1 calc R U . . .
C00O C 0.7256(8) 0.9016(6) 0.2867(4) 0.0251(13) Uani 1 1 d . . . . .
C00P C 0.7581(8) 0.4091(6) -0.1862(4) 0.0254(13) Uani 1 1 d . . . . .
H00P H 0.874476 0.425801 -0.160809 0.031 Uiso 1 1 calc R U . . .
C00Q C 0.2650(8) 0.5006(6) 0.5266(4) 0.0248(12) Uani 1 1 d . . . . .
C00R C 0.2605(9) 0.5602(6) 0.4809(4) 0.0277(13) Uani 1 1 d . . . . .
H00R H 0.181906 0.529571 0.430926 0.033 Uiso 1 1 calc R U . . .
C00S C 0.3722(8) 0.6687(6) 0.5066(4) 0.0267(13) Uani 1 1 d . . . . .
H00S H 0.362310 0.706635 0.473448 0.032 Uiso 1 1 calc R U . . .
C00T C 0.5042(9) 0.6570(6) 0.6273(4) 0.0280(13) Uani 1 1 d . . . . .
C00U C 0.6786(9) 0.7210(6) 0.0769(4) 0.0256(13) Uani 1 1 d . . . . .
C00V C 0.7807(8) 0.8249(6) 0.2282(4) 0.0245(12) Uani 1 1 d . . . . .
H00V H 0.864258 0.792658 0.237966 0.029 Uiso 1 1 calc R U . . .
C00W C 0.5043(8) 0.3389(6) -0.2732(4) 0.0258(13) Uani 1 1 d . . . . .
H00W H 0.418652 0.295397 -0.320028 0.031 Uiso 1 1 calc R U . . .
C00X C 0.3918(9) 0.5493(6) 0.6017(4) 0.0273(13) Uani 1 1 d . . . . .
C00Y C 0.7487(8) 0.2531(6) -0.3243(4) 0.0234(12) Uani 1 1 d . . . . .
C00Z C 0.8309(9) 0.6877(6) 0.0536(4) 0.0280(14) Uani 1 1 d . . . . .
C010 C 0.5248(9) 0.6695(6) 0.0220(4) 0.0280(14) Uani 1 1 d . . . . .
H010 H 0.424936 0.691922 0.034580 0.034 Uiso 1 1 calc R U . . .
C011 C 0.6776(8) 0.3299(6) -0.2626(4) 0.0243(12) Uani 1 1 d . . . . .
C012 C 0.8194(9) 0.6018(6) -0.0240(4) 0.0269(13) Uani 1 1 d . . . . .
C013 C 0.5999(10) 0.9240(7) 0.2408(4) 0.0337(16) Uani 1 1 d . . . . .
H013 H 0.541288 0.974583 0.264411 0.040 Uiso 1 1 calc R U . . .
C014 C 0.7703(9) 0.9891(6) 0.6806(4) 0.0287(14) Uani 1 1 d . . . . .
H014 H 0.834427 1.051226 0.725541 0.034 Uiso 1 1 calc R U . . .
C015 C 0.6825(9) 0.8956(6) 0.6853(4) 0.0298(14) Uani 1 1 d . . . . .
H015 H 0.676254 0.881188 0.733072 0.036 Uiso 1 1 calc R U . . .
C016 C 0.6521(8) 0.5456(5) -0.0793(4) 0.0234(12) Uani 1 1 d . . . . .
C017 C 0.0647(10) 0.3287(7) 0.4218(4) 0.0329(15) Uani 1 1 d . . . . .
H017 H 0.069571 0.345338 0.375059 0.039 Uiso 1 1 calc R U . . .
C018 C 0.7755(8) 0.9452(6) 0.3784(4) 0.0255(13) Uani 1 1 d . . . . .
C019 C 0.5108(9) 0.5811(6) -0.0554(4) 0.0277(14) Uani 1 1 d . . . . .
H019 H 0.401255 0.547071 -0.090294 0.033 Uiso 1 1 calc R U . . .
C01A C -0.0291(11) 0.2355(7) 0.4258(4) 0.0339(16) Uani 1 1 d . . . . .
H01A H -0.100224 0.175968 0.380726 0.041 Uiso 1 1 calc R U . . .
 
loop_
 _atom_site_aniso_label
 _atom_site_aniso_U_11
 _atom_site_aniso_U_22
 _atom_site_aniso_U_33
 _atom_site_aniso_U_23
 _atom_site_aniso_U_13
 _atom_site_aniso_U_12
Cd01 0.0193(2) 0.0205(3) 0.0195(2) 0.00408(18) 0.00454(15) 0.00511(18)
S002 0.0402(10) 0.0429(14) 0.0489(11) 0.0300(10) -0.0174(9) -0.0107(9)
O003 0.025(2) 0.022(3) 0.022(2) 0.0048(17) 0.0029(16) 0.0068(18)
O004 0.021(2) 0.047(3) 0.028(2) 0.015(2) 0.0068(17) 0.011(2)
O005 0.035(2) 0.025(3) 0.023(2) 0.0036(18) 0.0034(18) 0.005(2)
O006 0.025(2) 0.029(3) 0.023(2) 0.0010(18) 0.0023(17) 0.0107(19)
N007 0.023(2) 0.019(3) 0.025(2) 0.005(2) 0.0048(19) 0.004(2)
O008 0.024(2) 0.043(3) 0.030(2) -0.003(2) -0.0007(19) 0.016(2)
O009 0.026(2) 0.040(3) 0.042(3) 0.009(2) 0.005(2) 0.011(2)
N00A 0.028(3) 0.020(3) 0.025(2) 0.009(2) 0.007(2) 0.005(2)
N00B 0.020(2) 0.027(3) 0.023(2) 0.003(2) 0.0020(18) 0.006(2)
N00C 0.027(3) 0.024(3) 0.023(2) 0.002(2) 0.001(2) 0.011(2)
N00D 0.020(2) 0.028(3) 0.020(2) 0.005(2) 0.0040(18) 0.007(2)
N00E 0.021(2) 0.023(3) 0.028(3) 0.011(2) 0.0049(19) 0.004(2)
N00F 0.027(3) 0.023(3) 0.025(2) 0.007(2) 0.005(2) 0.005(2)
N00G 0.022(2) 0.032(4) 0.028(3) -0.001(2) 0.001(2) 0.008(2)
N00H 0.035(3) 0.037(4) 0.040(3) 0.023(3) -0.012(3) -0.008(3)
N00I 0.028(3) 0.033(4) 0.039(3) 0.020(3) -0.003(2) -0.001(2)
N00J 0.036(3) 0.038(4) 0.028(3) 0.003(2) 0.000(2) 0.022(3)
N00K 0.025(3) 0.037(4) 0.028(3) -0.002(2) 0.002(2) 0.013(2)
C00L 0.023(3) 0.025(4) 0.027(3) 0.011(2) 0.004(2) 0.005(2)
C00M 0.019(2) 0.029(4) 0.027(3) 0.010(3) 0.006(2) 0.006(2)
C00N 0.026(3) 0.023(4) 0.027(3) 0.010(2) 0.006(2) 0.003(2)
C00O 0.022(3) 0.027(4) 0.022(3) 0.005(2) 0.001(2) 0.005(2)
C00P 0.024(3) 0.030(4) 0.021(3) 0.006(2) 0.003(2) 0.011(3)
C00Q 0.020(3) 0.026(4) 0.025(3) 0.008(2) 0.004(2) 0.004(2)
C00R 0.026(3) 0.027(4) 0.026(3) 0.008(3) 0.003(2) 0.005(3)
C00S 0.021(3) 0.029(4) 0.029(3) 0.012(3) 0.003(2) 0.005(2)
C00T 0.023(3) 0.028(4) 0.028(3) 0.011(3) -0.001(2) 0.002(3)
C00U 0.026(3) 0.028(4) 0.019(3) 0.004(2) 0.002(2) 0.010(3)
C00V 0.020(2) 0.028(4) 0.021(3) 0.007(2) 0.000(2) 0.005(2)
C00W 0.022(3) 0.028(4) 0.023(3) 0.004(2) 0.004(2) 0.009(2)
C00X 0.023(3) 0.030(4) 0.029(3) 0.013(3) 0.003(2) 0.007(3)
C00Y 0.024(3) 0.021(3) 0.022(3) 0.005(2) 0.005(2) 0.007(2)
C00Z 0.025(3) 0.032(4) 0.023(3) 0.005(2) 0.003(2) 0.011(3)
C010 0.025(3) 0.032(4) 0.025(3) 0.006(3) 0.006(2) 0.013(3)
C011 0.020(3) 0.029(4) 0.023(3) 0.007(2) 0.005(2) 0.009(2)
C012 0.025(3) 0.030(4) 0.022(3) 0.004(2) 0.004(2) 0.011(3)
C013 0.035(3) 0.037(4) 0.027(3) 0.004(3) 0.001(3) 0.020(3)
C014 0.026(3) 0.035(4) 0.022(3) 0.009(3) 0.002(2) 0.008(3)
C015 0.030(3) 0.034(4) 0.024(3) 0.011(3) 0.003(2) 0.008(3)
C016 0.024(3) 0.022(3) 0.021(3) 0.004(2) 0.003(2) 0.008(2)
C017 0.038(4) 0.032(4) 0.023(3) 0.008(3) 0.004(3) 0.005(3)
C018 0.017(2) 0.027(4) 0.022(3) 0.004(2) 0.003(2) -0.001(2)
C019 0.023(3) 0.031(4) 0.024(3) 0.003(2) 0.002(2) 0.011(3)
C01A 0.040(4) 0.034(5) 0.022(3) 0.009(3) 0.005(3) 0.004(3)
 
_geom_special_details
;
 All esds (except the esd in the dihedral angle between two l.s. planes)
 are estimated using the full covariance matrix.  The cell esds are taken
 into account individually in the estimation of esds in distances, angles
 and torsion angles; correlations between esds in cell parameters are only
 used when they are defined by crystal symmetry.  An approximate (isotropic)
 treatment of cell esds is used for estimating esds involving l.s. planes.
;
 
loop_
 _geom_bond_atom_site_label_1
 _geom_bond_atom_site_label_2
 _geom_bond_distance
 _geom_bond_site_symmetry_2
 _geom_bond_publ_flag
Cd01 O005 2.245(5) . ?
Cd01 N007 2.259(6) . ?
Cd01 O004 2.288(5) 2_776 ?
Cd01 N00F 2.311(6) 1_665 ?
Cd01 O003 2.373(5) 1_566 ?
Cd01 O006 2.478(5) 1_566 ?
S002 N00I 1.619(7) . ?
S002 N00H 1.609(7) . ?
O003 C00Y 1.261(8) . ?
O004 C018 1.256(9) . ?
O005 C018 1.264(9) . ?
O006 C00Y 1.272(8) . ?
N007 C00L 1.310(9) . ?
N007 C014 1.393(8) . ?
O008 N00G 1.370(7) . ?
O008 N00K 1.391(7) . ?
N00A C00N 1.372(9) . ?
N00A C017 1.381(9) . ?
N00A C00Q 1.418(9) . ?
N00B C00W 1.322(8) . ?
N00B N00D 1.360(7) . ?
N00C C00V 1.345(8) . ?
N00C N00J 1.372(8) . ?
N00C C00U 1.412(8) . ?
N00D C00P 1.359(8) . ?
N00D C016 1.411(8) . ?
N00E C00L 1.370(9) . ?
N00E C015 1.390(9) . ?
N00E C00M 1.414(9) . ?
N00F C00N 1.313(9) . ?
N00F C01A 1.377(9) . ?
N00G C012 1.315(8) . ?
N00H C00T 1.360(9) . ?
N00I C00X 1.356(9) . ?
N00J C013 1.327(9) . ?
N00K C00Z 1.313(9) . ?
C00L H00L 0.9300 . ?
C00M C00S 1.364(9) . ?
C00M C00T 1.424(10) . ?
C00N H00N 0.9300 . ?
C00O C00V 1.373(9) . ?
C00O C013 1.408(9) . ?
C00O C018 1.485(8) . ?
C00P C011 1.373(9) . ?
C00P H00P 0.9300 . ?
C00Q C00R 1.355(10) . ?
C00Q C00X 1.431(9) . ?
C00R C00S 1.434(10) . ?
C00R H00R 0.9300 . ?
C00S H00S 0.9300 . ?
C00T C00X 1.427(11) . ?
C00U C010 1.354(9) . ?
C00U C00Z 1.427(9) . ?
C00V H00V 0.9300 . ?
C00W C011 1.413(8) . ?
C00W H00W 0.9300 . ?
C00Y C011 1.476(8) . ?
C00Z C012 1.429(9) . ?
C010 C019 1.441(9) . ?
C010 H010 0.9300 . ?
C012 C016 1.439(9) . ?
C013 H013 0.9300 . ?
C014 C015 1.348(11) . ?
C014 H014 0.9300 . ?
C015 H015 0.9300 . ?
C016 C019 1.361(8) . ?
C017 C01A 1.352(12) . ?
C017 H017 0.9300 . ?
C019 H019 0.9300 . ?
C01A H01A 0.9300 . ?
 
loop_
 _geom_angle_atom_site_label_1
 _geom_angle_atom_site_label_2
 _geom_angle_atom_site_label_3
 _geom_angle
 _geom_angle_site_symmetry_1
 _geom_angle_site_symmetry_3
 _geom_angle_publ_flag
O005 Cd01 N007 99.6(2) . . ?
O005 Cd01 O004 121.40(19) . 2_776 ?
N007 Cd01 O004 88.0(2) . 2_776 ?
O005 Cd01 N00F 81.8(2) . 1_665 ?
N007 Cd01 N00F 177.39(19) . 1_665 ?
O004 Cd01 N00F 89.4(2) 2_776 1_665 ?
O005 Cd01 O003 97.49(17) . 1_566 ?
N007 Cd01 O003 89.45(18) . 1_566 ?
O004 Cd01 O003 140.90(17) 2_776 1_566 ?
N00F Cd01 O003 92.58(19) 1_665 1_566 ?
O005 Cd01 O006 150.10(18) . 1_566 ?
N007 Cd01 O006 90.95(19) . 1_566 ?
O004 Cd01 O006 86.61(18) 2_776 1_566 ?
N00F Cd01 O006 88.9(2) 1_665 1_566 ?
O003 Cd01 O006 54.42(15) 1_566 1_566 ?
N00I S002 N00H 101.2(3) . . ?
C00Y O003 Cd01 94.1(4) . 1_544 ?
C018 O004 Cd01 144.3(5) . 2_776 ?
C018 O005 Cd01 112.7(4) . . ?
C00Y O006 Cd01 89.0(4) . 1_544 ?
C00L N007 C014 106.1(6) . . ?
C00L N007 Cd01 127.9(5) . . ?
C014 N007 Cd01 126.0(5) . . ?
N00G O008 N00K 112.6(5) . . ?
C00N N00A C017 107.1(6) . . ?
C00N N00A C00Q 127.8(6) . . ?
C017 N00A C00Q 125.1(6) . . ?
C00W N00B N00D 104.6(5) . . ?
C00V N00C N00J 112.7(5) . . ?
C00V N00C C00U 128.1(6) . . ?
N00J N00C C00U 118.1(5) . . ?
N00B N00D C00P 112.0(5) . . ?
N00B N00D C016 118.7(5) . . ?
C00P N00D C016 129.2(5) . . ?
C00L N00E C015 106.5(6) . . ?
C00L N00E C00M 126.0(6) . . ?
C015 N00E C00M 127.5(6) . . ?
C00N N00F C01A 106.1(6) . . ?
C00N N00F Cd01 127.5(5) . 1_445 ?
C01A N00F Cd01 126.4(5) . 1_445 ?
C012 N00G O008 104.7(5) . . ?
C00T N00H S002 106.5(5) . . ?
C00X N00I S002 105.9(5) . . ?
C013 N00J N00C 103.4(6) . . ?
C00Z N00K O008 104.2(5) . . ?
N007 C00L N00E 111.2(6) . . ?
N007 C00L H00L 124.4 . . ?
N00E C00L H00L 124.4 . . ?
C00S C00M N00E 122.3(6) . . ?
C00S C00M C00T 117.5(7) . . ?
N00E C00M C00T 120.2(6) . . ?
N00F C00N N00A 110.6(6) . . ?
N00F C00N H00N 124.7 . . ?
N00A C00N H00N 124.7 . . ?
C00V C00O C013 104.6(6) . . ?
C00V C00O C018 127.9(6) . . ?
C013 C00O C018 127.3(6) . . ?
N00D C00P C011 106.9(5) . . ?
N00D C00P H00P 126.6 . . ?
C011 C00P H00P 126.6 . . ?
C00R C00Q N00A 122.3(6) . . ?
C00R C00Q C00X 117.1(6) . . ?
N00A C00Q C00X 120.6(6) . . ?
C00Q C00R C00S 122.5(6) . . ?
C00Q C00R H00R 118.7 . . ?
C00S C00R H00R 118.7 . . ?
C00M C00S C00R 121.7(7) . . ?
C00M C00S H00S 119.2 . . ?
C00R C00S H00S 119.2 . . ?
N00H C00T C00M 126.7(7) . . ?
N00H C00T C00X 112.8(6) . . ?
C00M C00T C00X 120.5(6) . . ?
C010 C00U N00C 122.1(6) . . ?
C010 C00U C00Z 117.3(6) . . ?
N00C C00U C00Z 120.6(6) . . ?
N00C C00V C00O 106.8(6) . . ?
N00C C00V H00V 126.6 . . ?
C00O C00V H00V 126.6 . . ?
N00B C00W C011 112.0(6) . . ?
N00B C00W H00W 124.0 . . ?
C011 C00W H00W 124.0 . . ?
N00I C00X C00T 113.6(6) . . ?
N00I C00X C00Q 125.8(7) . . ?
C00T C00X C00Q 120.6(6) . . ?
O003 C00Y O006 122.5(6) . . ?
O003 C00Y C011 117.6(5) . . ?
O006 C00Y C011 119.9(6) . . ?
N00K C00Z C00U 129.7(6) . . ?
N00K C00Z C012 109.3(6) . . ?
C00U C00Z C012 120.9(6) . . ?
C00U C010 C019 122.2(6) . . ?
C00U C010 H010 118.9 . . ?
C019 C010 H010 118.9 . . ?
C00P C011 C00W 104.5(5) . . ?
C00P C011 C00Y 130.4(6) . . ?
C00W C011 C00Y 125.1(6) . . ?
N00G C012 C00Z 109.3(6) . . ?
N00G C012 C016 130.3(6) . . ?
C00Z C012 C016 120.4(6) . . ?
N00J C013 C00O 112.4(6) . . ?
N00J C013 H013 123.8 . . ?
C00O C013 H013 123.8 . . ?
C015 C014 N007 109.7(6) . . ?
C015 C014 H014 125.1 . . ?
N007 C014 H014 125.2 . . ?
C014 C015 N00E 106.5(6) . . ?
C014 C015 H015 126.8 . . ?
N00E C015 H015 126.8 . . ?
C019 C016 N00D 121.4(6) . . ?
C019 C016 C012 116.8(6) . . ?
N00D C016 C012 121.8(5) . . ?
C01A C017 N00A 105.7(6) . . ?
C01A C017 H017 127.2 . . ?
N00A C017 H017 127.2 . . ?
O005 C018 O004 125.0(6) . . ?
O005 C018 C00O 116.3(6) . . ?
O004 C018 C00O 118.8(6) . . ?
C016 C019 C010 122.4(6) . . ?
C016 C019 H019 118.8 . . ?
C010 C019 H019 118.8 . . ?
C017 C01A N00F 110.5(7) . . ?
C017 C01A H01A 124.8 . . ?
N00F C01A H01A 124.8 . . ?
 
loop_
 _geom_torsion_atom_site_label_1
 _geom_torsion_atom_site_label_2
 _geom_torsion_atom_site_label_3
 _geom_torsion_atom_site_label_4
 _geom_torsion
 _geom_torsion_site_symmetry_1
 _geom_torsion_site_symmetry_2
 _geom_torsion_site_symmetry_3
 _geom_torsion_site_symmetry_4
 _geom_torsion_publ_flag
C00W N00B N00D C00P 1.3(8) . . . . ?
C00W N00B N00D C016 178.7(6) . . . . ?
N00K O008 N00G C012 -0.2(9) . . . . ?
N00I S002 N00H C00T 0.0(7) . . . . ?
N00H S002 N00I C00X -0.2(6) . . . . ?
C00V N00C N00J C013 1.5(9) . . . . ?
C00U N00C N00J C013 170.6(7) . . . . ?
N00G O008 N00K C00Z 0.2(9) . . . . ?
C014 N007 C00L N00E -0.6(7) . . . . ?
Cd01 N007 C00L N00E -179.0(4) . . . . ?
C015 N00E C00L N007 0.0(7) . . . . ?
C00M N00E C00L N007 178.7(6) . . . . ?
C00L N00E C00M C00S -22.7(10) . . . . ?
C015 N00E C00M C00S 155.7(7) . . . . ?
C00L N00E C00M C00T 157.3(6) . . . . ?
C015 N00E C00M C00T -24.3(10) . . . . ?
C01A N00F C00N N00A 0.4(8) . . . . ?
Cd01 N00F C00N N00A -178.9(4) 1_445 . . . ?
C017 N00A C00N N00F 0.0(8) . . . . ?
C00Q N00A C00N N00F 179.1(6) . . . . ?
N00B N00D C00P C011 -1.6(8) . . . . ?
C016 N00D C00P C011 -178.7(7) . . . . ?
C00N N00A C00Q C00R -159.4(7) . . . . ?
C017 N00A C00Q C00R 19.5(10) . . . . ?
C00N N00A C00Q C00X 21.3(10) . . . . ?
C017 N00A C00Q C00X -159.8(7) . . . . ?
N00A C00Q C00R C00S 178.7(6) . . . . ?
C00X C00Q C00R C00S -2.0(10) . . . . ?
N00E C00M C00S C00R -179.8(6) . . . . ?
C00T C00M C00S C00R 0.3(10) . . . . ?
C00Q C00R C00S C00M 1.2(10) . . . . ?
S002 N00H C00T C00M -178.6(6) . . . . ?
S002 N00H C00T C00X 0.2(8) . . . . ?
C00S C00M C00T N00H 178.0(7) . . . . ?
N00E C00M C00T N00H -2.0(11) . . . . ?
C00S C00M C00T C00X -0.7(10) . . . . ?
N00E C00M C00T C00X 179.3(6) . . . . ?
C00V N00C C00U C010 140.4(8) . . . . ?
N00J N00C C00U C010 -26.8(11) . . . . ?
C00V N00C C00U C00Z -40.4(11) . . . . ?
N00J N00C C00U C00Z 152.4(7) . . . . ?
N00J N00C C00V C00O -0.8(9) . . . . ?
C00U N00C C00V C00O -168.5(7) . . . . ?
C013 C00O C00V N00C -0.2(8) . . . . ?
C018 C00O C00V N00C 175.3(7) . . . . ?
N00D N00B C00W C011 -0.4(8) . . . . ?
S002 N00I C00X C00T 0.3(8) . . . . ?
S002 N00I C00X C00Q 178.9(6) . . . . ?
N00H C00T C00X N00I -0.4(9) . . . . ?
C00M C00T C00X N00I 178.5(6) . . . . ?
N00H C00T C00X C00Q -179.1(7) . . . . ?
C00M C00T C00X C00Q -0.2(10) . . . . ?
C00R C00Q C00X N00I -176.9(7) . . . . ?
N00A C00Q C00X N00I 2.4(10) . . . . ?
C00R C00Q C00X C00T 1.5(10) . . . . ?
N00A C00Q C00X C00T -179.2(6) . . . . ?
Cd01 O003 C00Y O006 -1.2(7) 1_544 . . . ?
Cd01 O003 C00Y C011 178.4(5) 1_544 . . . ?
Cd01 O006 C00Y O003 1.2(7) 1_544 . . . ?
Cd01 O006 C00Y C011 -178.4(6) 1_544 . . . ?
O008 N00K C00Z C00U -178.2(8) . . . . ?
O008 N00K C00Z C012 -0.1(9) . . . . ?
C010 C00U C00Z N00K 176.6(8) . . . . ?
N00C C00U C00Z N00K -2.6(13) . . . . ?
C010 C00U C00Z C012 -1.3(11) . . . . ?
N00C C00U C00Z C012 179.4(7) . . . . ?
N00C C00U C010 C019 -177.8(7) . . . . ?
C00Z C00U C010 C019 2.9(11) . . . . ?
N00D C00P C011 C00W 1.2(8) . . . . ?
N00D C00P C011 C00Y 178.9(7) . . . . ?
N00B C00W C011 C00P -0.5(9) . . . . ?
N00B C00W C011 C00Y -178.4(7) . . . . ?
O003 C00Y C011 C00P -174.5(7) . . . . ?
O006 C00Y C011 C00P 5.1(12) . . . . ?
O003 C00Y C011 C00W 2.8(11) . . . . ?
O006 C00Y C011 C00W -177.6(7) . . . . ?
O008 N00G C012 C00Z 0.2(9) . . . . ?
O008 N00G C012 C016 179.9(8) . . . . ?
N00K C00Z C012 N00G -0.1(9) . . . . ?
C00U C00Z C012 N00G 178.3(7) . . . . ?
N00K C00Z C012 C016 -179.8(7) . . . . ?
C00U C00Z C012 C016 -1.4(11) . . . . ?
N00C N00J C013 C00O -1.6(10) . . . . ?
C00V C00O C013 N00J 1.2(10) . . . . ?
C018 C00O C013 N00J -174.4(7) . . . . ?
C00L N007 C014 C015 1.0(8) . . . . ?
Cd01 N007 C014 C015 179.4(5) . . . . ?
N007 C014 C015 N00E -1.0(8) . . . . ?
C00L N00E C015 C014 0.6(7) . . . . ?
C00M N00E C015 C014 -178.0(6) . . . . ?
N00B N00D C016 C019 6.9(10) . . . . ?
C00P N00D C016 C019 -176.2(7) . . . . ?
N00B N00D C016 C012 -172.7(6) . . . . ?
C00P N00D C016 C012 4.3(11) . . . . ?
N00G C012 C016 C019 -177.1(8) . . . . ?
C00Z C012 C016 C019 2.5(11) . . . . ?
N00G C012 C016 N00D 2.5(13) . . . . ?
C00Z C012 C016 N00D -177.9(7) . . . . ?
C00N N00A C017 C01A -0.3(8) . . . . ?
C00Q N00A C017 C01A -179.5(7) . . . . ?
Cd01 O005 C018 O004 15.4(9) . . . . ?
Cd01 O005 C018 C00O -165.8(4) . . . . ?
Cd01 O004 C018 O005 -94.0(9) 2_776 . . . ?
Cd01 O004 C018 C00O 87.3(9) 2_776 . . . ?
C00V C00O C018 O005 170.5(7) . . . . ?
C013 C00O C018 O005 -14.9(11) . . . . ?
C00V C00O C018 O004 -10.7(11) . . . . ?
C013 C00O C018 O004 163.9(7) . . . . ?
N00D C016 C019 C010 179.4(7) . . . . ?
C012 C016 C019 C010 -1.0(11) . . . . ?
C00U C010 C019 C016 -1.8(12) . . . . ?
N00A C017 C01A N00F 0.6(9) . . . . ?
C00N N00F C01A C017 -0.6(9) . . . . ?
Cd01 N00F C01A C017 178.6(5) 1_445 . . . ?
 
_refine_diff_density_max    6.389
_refine_diff_density_min   -2.294
_refine_diff_density_rms    0.252

_shelx_res_file
;
TITL er965_a.res in P-1
    er965.res
    created by SHELXL-2018/3 at 12:48:54 on 01-Dec-2022
REM Old TITL er965 in P-1
REM SHELXT solution in P-1
REM R1 0.109, Rweak 0.009, Alpha 0.051, Orientation as input
REM Formula found by SHELXT: C32 N11 O4 S Cd
CELL 0.7527 7.891 13.999 17.521 111.286 93.188 104.946
ZERR 16 0.0016 0.0028 0.0035 0.03 0.03 0.03
LATT 1
SFAC C H N O S Cd
DISP C 0.0027 0.0018 12.944
DISP Cd -0.8902 1.3364 6011.3492
DISP H 0 0 0.6262
DISP N 0.0051 0.0037 22.4473
DISP O 0.0094 0.0069 37.6033
DISP S 0.123 0.139 624.6015
UNIT 16 16 16 16 16 16
ACTA

L.S. 4
PLAN  26
CONF
BOND $H
list 4
MORE -1
fmap 2
REM <olex2.extras>
REM <HklSrc "%.\\er965fin.hkl">
REM </olex2.extras>

WGHT    0.188100   13.848001
FVAR       0.74327
CD01  6    0.865162    1.108467    0.551708    11.00000    0.01930    0.02054 =
         0.01951    0.00408    0.00454    0.00511
S002  5    0.579382    0.589769    0.727390    11.00000    0.04023    0.04292 =
         0.04886    0.03001   -0.01740   -0.01067
O003  4    0.649704    0.193467   -0.393172    11.00000    0.02522    0.02213 =
         0.02179    0.00477    0.00291    0.00679
O004  4    0.858348    0.899353    0.409972    11.00000    0.02113    0.04706 =
         0.02814    0.01542    0.00684    0.01052
O005  4    0.727281    1.025946    0.419061    11.00000    0.03471    0.02465 =
         0.02341    0.00361    0.00337    0.00542
O006  4    0.904993    0.249208   -0.307311    11.00000    0.02510    0.02938 =
         0.02330    0.00104    0.00230    0.01072
N007  3    0.750398    0.978451    0.598150    11.00000    0.02282    0.01879 =
         0.02530    0.00512    0.00483    0.00392
O008  4    1.086183    0.664612    0.039642    11.00000    0.02434    0.04343 =
         0.02991   -0.00270   -0.00069    0.01590
O009  4    1.140527    0.447746   -0.221133    11.00000    0.02588    0.03965 =
         0.04220    0.00861    0.00489    0.01058
N00A  3    0.151738    0.394141    0.501753    11.00000    0.02781    0.02040 =
         0.02520    0.00850    0.00691    0.00539
N00B  3    0.478477    0.416422   -0.208620    11.00000    0.01959    0.02745 =
         0.02296    0.00306    0.00197    0.00558
N00C  3    0.690574    0.805233    0.153912    11.00000    0.02698    0.02417 =
         0.02279    0.00159    0.00137    0.01108
N00D  3    0.634940    0.458218   -0.154988    11.00000    0.01985    0.02816 =
         0.02006    0.00523    0.00400    0.00714
N00E  3    0.603094    0.824916    0.604747    11.00000    0.02102    0.02297 =
         0.02761    0.01088    0.00489    0.00370
N00F  3   -0.004634    0.241204    0.505961    11.00000    0.02660    0.02322 =
         0.02500    0.00719    0.00504    0.00529
N00G  3    0.977480    0.588590   -0.031811    11.00000    0.02225    0.03209 =
         0.02770   -0.00106    0.00119    0.00764
N00H  3    0.618144    0.689684    0.699256    11.00000    0.03502    0.03739 =
         0.04005    0.02324   -0.01221   -0.00789
N00I  3    0.421609    0.501177    0.653560    11.00000    0.02827    0.03331 =
         0.03925    0.02022   -0.00257   -0.00105
N00J  3    0.574609    0.864785    0.160014    11.00000    0.03606    0.03805 =
         0.02777    0.00263    0.00010    0.02174
N00K  3    0.995681    0.726523    0.092801    11.00000    0.02460    0.03740 =
         0.02836   -0.00204    0.00185    0.01270
C00L  1    0.649402    0.880059    0.554767    11.00000    0.02254    0.02533 =
         0.02663    0.01074    0.00448    0.00454
AFIX  43
H00L  2    0.613778    0.851377    0.497500    11.00000   -1.20000
AFIX   0
C00M  1    0.492479    0.717813    0.578420    11.00000    0.01868    0.02896 =
         0.02737    0.00984    0.00564    0.00636
C00N  1    0.105107    0.337068    0.550486    11.00000    0.02555    0.02279 =
         0.02746    0.01015    0.00588    0.00329
AFIX  43
H00N  2    0.145594    0.362705    0.607200    11.00000   -1.20000
AFIX   0
C00O  1    0.725553    0.901612    0.286667    11.00000    0.02158    0.02657 =
         0.02155    0.00495    0.00088    0.00484
C00P  1    0.758066    0.409052   -0.186245    11.00000    0.02393    0.02950 =
         0.02147    0.00639    0.00347    0.01099
AFIX  43
H00P  2    0.874476    0.425801   -0.160809    11.00000   -1.20000
AFIX   0
C00Q  1    0.265022    0.500641    0.526587    11.00000    0.01965    0.02601 =
         0.02517    0.00778    0.00411    0.00391
C00R  1    0.260496    0.560233    0.480899    11.00000    0.02604    0.02717 =
         0.02569    0.00793    0.00311    0.00468
AFIX  43
H00R  2    0.181906    0.529571    0.430926    11.00000   -1.20000
AFIX   0
C00S  1    0.372170    0.668742    0.506603    11.00000    0.02095    0.02891 =
         0.02905    0.01192    0.00262    0.00496
AFIX  43
H00S  2    0.362310    0.706635    0.473448    11.00000   -1.20000
AFIX   0
C00T  1    0.504233    0.657005    0.627332    11.00000    0.02342    0.02828 =
         0.02825    0.01146   -0.00103    0.00179
C00U  1    0.678552    0.720973    0.076888    11.00000    0.02576    0.02793 =
         0.01935    0.00365    0.00248    0.01007
C00V  1    0.780683    0.824872    0.228157    11.00000    0.02007    0.02768 =
         0.02139    0.00662    0.00037    0.00499
AFIX  43
H00V  2    0.864258    0.792658    0.237966    11.00000   -1.20000
AFIX   0
C00W  1    0.504344    0.338895   -0.273173    11.00000    0.02236    0.02775 =
         0.02303    0.00398    0.00358    0.00934
AFIX  43
H00W  2    0.418652    0.295397   -0.320028    11.00000   -1.20000
AFIX   0
C00X  1    0.391791    0.549326    0.601689    11.00000    0.02257    0.03049 =
         0.02917    0.01279    0.00312    0.00706
C00Y  1    0.748686    0.253063   -0.324348    11.00000    0.02395    0.02148 =
         0.02195    0.00474    0.00503    0.00747
C00Z  1    0.830908    0.687676    0.053567    11.00000    0.02524    0.03243 =
         0.02262    0.00536    0.00268    0.01080
C010  1    0.524784    0.669489    0.021957    11.00000    0.02472    0.03235 =
         0.02508    0.00573    0.00567    0.01300
AFIX  43
H010  2    0.424936    0.691922    0.034580    11.00000   -1.20000
AFIX   0
C011  1    0.677650    0.329936   -0.262553    11.00000    0.02024    0.02922 =
         0.02253    0.00738    0.00544    0.00936
C012  1    0.819363    0.601817   -0.023952    11.00000    0.02510    0.03001 =
         0.02223    0.00444    0.00414    0.01129
C013  1    0.599944    0.923985    0.240777    11.00000    0.03482    0.03691 =
         0.02676    0.00403    0.00096    0.01968
AFIX  43
H013  2    0.541288    0.974583    0.264411    11.00000   -1.20000
AFIX   0
C014  1    0.770285    0.989059    0.680574    11.00000    0.02580    0.03521 =
         0.02211    0.00933    0.00161    0.00765
AFIX  43
H014  2    0.834427    1.051226    0.725541    11.00000   -1.20000
AFIX   0
C015  1    0.682479    0.895569    0.685314    11.00000    0.02959    0.03423 =
         0.02446    0.01124    0.00308    0.00831
AFIX  43
H015  2    0.676254    0.881188    0.733072    11.00000   -1.20000
AFIX   0
C016  1    0.652084    0.545578   -0.079272    11.00000    0.02354    0.02216 =
         0.02096    0.00403    0.00327    0.00758
C017  1    0.064673    0.328725    0.421846    11.00000    0.03799    0.03211 =
         0.02326    0.00838    0.00377    0.00549
AFIX  43
H017  2    0.069571    0.345338    0.375059    11.00000   -1.20000
AFIX   0
C018  1    0.775503    0.945215    0.378436    11.00000    0.01725    0.02745 =
         0.02223    0.00410    0.00336   -0.00088
C019  1    0.510782    0.581084   -0.055412    11.00000    0.02331    0.03080 =
         0.02386    0.00323    0.00221    0.01097
AFIX  43
H019  2    0.401255    0.547071   -0.090294    11.00000   -1.20000
AFIX   0
C01A  1   -0.029140    0.235531    0.425797    11.00000    0.03976    0.03376 =
         0.02250    0.00920    0.00483    0.00446
AFIX  43
H01A  2   -0.100224    0.175968    0.380726    11.00000   -1.20000
AFIX   0
HKLF 4




REM  er965_a.res in P-1
REM wR2 = 0.2802, GooF = S = 1.040, Restrained GooF = 1.040 for all data
REM R1 = 0.0891 for 7044 Fo > 4sig(Fo) and 0.0995 for all 8160 data
REM 415 parameters refined using 0 restraints

END

WGHT      0.1906     13.5866

REM Highest difference peak  6.389,  deepest hole -2.294,  1-sigma level  0.252
Q1    1  -0.0262  0.4162  0.2776  11.00000  0.05    6.39
Q2    1   0.8957  0.7566  0.8651  11.00000  0.05    4.39
Q3    1   0.8376  0.9135  0.8957  11.00000  0.05    4.27
Q4    1   0.9278  0.8427  0.8605  11.00000  0.05    3.20
Q5    1   0.6940  0.8746  0.9284  11.00000  0.05    2.79
Q6    1  -0.0428  0.3407  0.2214  11.00000  0.05    2.71
Q7    1  -0.0763  0.1160  0.1832  11.00000  0.05    2.69
Q8    1   0.8083  0.7994  0.9062  11.00000  0.05    2.57
Q9    1   0.8675  1.0180  0.8983  11.00000  0.05    2.45
Q10   1   0.7313  1.0452  0.9147  11.00000  0.05    1.98
Q11   1   0.9948  0.9733  0.8855  11.00000  0.05    1.91
Q12   1   0.5452  0.8598 -0.0716  11.00000  0.05    1.67
Q13   1   1.2368  0.7290 -0.1726  11.00000  0.05    1.33
Q14   1  -0.0754  0.2257  0.5722  11.00000  0.05    0.91
Q15   1   0.8744  1.1700  0.5256  11.00000  0.05    0.80
Q16   1   0.8606  1.0543  0.5797  11.00000  0.05    0.78
Q17   1   0.9064  1.1288  0.6286  11.00000  0.05    0.76
Q18   1   1.2595  0.4512 -0.2081  11.00000  0.05    0.76
Q19   1   0.8136  0.9963  0.5401  11.00000  0.05    0.75
Q20   1   0.9005  1.0910  0.4808  11.00000  0.05    0.73
Q21   1   0.8056  1.1209  0.6183  11.00000  0.05    0.71
Q22   1   0.7801  1.0888  0.4804  11.00000  0.05    0.59
Q23   1   0.9174  1.0296  0.5191  11.00000  0.05    0.56
Q24   1   0.8804  1.1243  0.6797  11.00000  0.05    0.56
Q25   1   0.9555  1.0737  0.5863  11.00000  0.05    0.53
Q26   1  -0.0359  0.3038  0.5877  11.00000  0.05    0.52
;
_shelx_res_checksum   68861

_shelx_hkl_file
;
   0   0  -3  741.84   20.82
   0   0   3  731.62   20.72
   0   0  -4  664.52   20.44
   0   0   4  671.40   20.91
   0   0  -5   89.21   11.06
   0   0   5  106.40   11.43
   0   0  -6 3893.66   92.09
   0   0   6 3932.69   92.83
   0   0  -7 2311.11   56.59
   0   0   7 2291.59   56.13
   0   0  -8 2129.90   52.69
   0   0   8 2144.77   52.60
   0   0  -9   -1.30    8.92
   0   0   9    3.16    9.11
   0   0 -10  249.70   12.82
   0   0  10  274.79   13.01
   0   0 -11   71.37   10.78
   0   0  11   68.95   10.41
   0   0 -12   93.86   10.69
   0   0  12  115.42   10.50
   0   0 -13  180.74   13.94
   0   0  13  166.80   12.08
   0   0 -14    9.01   13.01
   0   0  14   23.98   10.50
   0   0 -15   94.14   14.40
   0   0  15   77.13   11.89
   0   0 -16   -6.69   12.08
   0   0  16   14.50   10.87
   0   0 -17  981.31   28.71
   0   0 -17  956.22   28.25
   0   0 -18  410.37   17.56
   0   0 -18  412.78   16.82
   0   0 -19  262.98   14.87
   0   0 -19  283.89   14.03
   0   0 -20  214.10   12.82
   0   0 -20  185.30   13.47
   0   0 -21  239.85   11.99
   0   0 -21  262.80   13.10
   0   0 -22   94.79    8.83
   0   1 -22  234.55   11.99
   0   1 -22  274.60   13.85
   0   1 -21  189.11   13.38
   0   1 -21  203.60   12.17
   0   1 -20  433.32   17.94
   0   1 -20  439.36   16.54
   0   1 -19  164.76   13.66
   0   1 -19  157.51   13.47
   0   1 -18  117.55   12.73
   0   1 -18   89.58   11.52
   0   1 -17  157.79   13.66
   0   1 -17  139.11   11.52
   0  -1  16    5.95    9.85
   0   1 -16  -11.62   12.45
   0  -1  15  173.03   13.38
   0   1 -15  127.59   14.03
   0  -1  14 1758.19   45.91
   0   1 -14 1756.33   45.72
   0  -1  13 1356.74   36.43
   0   1 -13 1318.64   35.59
   0  -1  12   63.28   10.41
   0   1 -12   54.64   10.13
   0  -1  11  576.43   19.14
   0   1 -11  581.91   19.61
   0  -1  10  191.34   11.52
   0   1 -10  151.29   12.08
   0  -1   9 1296.34   34.48
   0   1  -9 1269.39   33.73
   0  -1   8  181.30   11.71
   0   1  -8  206.58   12.08
   0  -1   7   41.54    9.85
   0   1  -7   48.32   10.04
   0  -1   6  854.93   24.63
   0   1  -6  796.30   23.32
   0  -1   5  643.71   20.72
   0   1  -5  649.10   20.26
   0  -1   4 2411.47   58.17
   0   1  -4 2457.00   59.19
   0  -1   3  980.39   25.46
   0   1  -3  972.95   25.00
   0  -1   2 1513.79   35.87
   0   1  -2 1484.05   35.22
   0  -1   0   40.14    2.14
   0  -1  -1  891.45   21.65
   0   1   1  888.76   21.56
   0  -1  -2 1499.85   36.43
   0   1   2 1432.01   34.94
   0  -1  -3  315.77   13.57
   0   1   3  295.97   13.20
   0  -1  -4 8464.77  195.80
   0  -1  -5 2481.16   60.12
   0   1   5 2493.25   60.22
   0  -1  -6 3621.39   85.68
   0   1   6 3767.28   89.21
   0  -1  -7 7855.16  181.77
   0   1   7 7689.75  177.96
   0  -1  -8 3206.00   76.85
   0   1   8 3157.68   75.83
   0  -1  -9 3919.68   93.02
   0   1   9 3995.88   94.60
   0  -1 -10  447.45   16.63
   0   1  10  481.74   17.28
   0  -1 -11   31.41    9.85
   0   1  11   41.17    9.85
   0  -1 -12   44.79   10.04
   0   1  12   37.64    9.76
   0  -1 -13  289.75   16.63
   0   1  13  256.94   14.59
   0  -1 -14  139.39   14.31
   0   1  14  138.55   13.10
   0  -1 -15  709.97   23.88
   0   1  15  662.67   21.09
   0  -1 -16 1073.31   30.94
   0  -1 -16 1071.45   29.92
   0  -1 -17  558.96   20.44
   0  -1 -17  549.95   19.33
   0  -1 -18  329.24   15.61
   0  -1 -18  345.97   16.17
   0  -1 -19  226.74   13.10
   0  -1 -19  236.41   14.12
   0  -1 -20  170.15   11.89
   0  -1 -20  168.01   12.92
   0  -1 -21   13.01    8.27
   0  -1 -21    8.46    9.85
   0   2 -22   40.80   10.69
   0   2 -22   39.22    9.39
   0   2 -21   65.14   11.34
   0   2 -21   53.90   10.13
   0   2 -20   49.53   11.62
   0   2 -20   43.86   11.34
   0   2 -19   18.31   10.78
   0   2 -19   18.12   11.62
   0   2 -18   62.45   12.55
   0   2 -18   70.35   11.62
   0   2 -17  476.16   19.51
   0   2 -17  441.59   18.49
   0  -2  16  614.53   20.63
   0   2 -16  603.01   22.21
   0  -2  15  632.84   21.19
   0   2 -15  605.79   21.75
   0  -2  14 1332.58   35.87
   0   2 -14 1287.05   35.13
   0  -2  13  611.37   20.07
   0   2 -13  575.78   19.79
   0  -2  12  790.35   23.88
   0   2 -12  731.25   22.95
   0  -2  11 1109.55   30.29
   0   2 -11 1086.32   29.92
   0  -2  10   18.31    9.29
   0   2 -10   22.21    9.29
   0  -2   9   45.26    9.39
   0   2  -9   55.66    9.57
   0  -2   8  287.70   13.01
   0   2  -8  268.28   12.82
   0  -2   7  149.43   10.59
   0   2  -7  182.04   11.34
   0  -2   6 1398.56   36.15
   0   2  -6 1378.11   35.50
   0  -2   5 1357.67   35.31
   0   2  -5 1382.76   35.78
   0  -2   4 2399.39   57.62
   0   2  -4 2388.24   57.24
   0  -2   3 1075.17   27.13
   0   2  -3 1069.60   26.95
   0  -2   0  324.78    8.83
   0   2   0  318.83    8.46
   0  -2  -1  429.79   12.45
   0   2   1  427.19   12.27
   0  -2  -2 5806.11  134.19
   0  -2  -3  382.03   14.12
   0   2   3  425.89   15.52
   0  -2  -4 1513.79   38.10
   0   2   4 1444.09   36.61
   0  -2  -5 3784.01   89.12
   0   2   5 3727.32   88.10
   0  -2  -6 2904.91   69.60
   0   2   6 2980.19   71.18
   0  -2  -7  167.18   11.34
   0   2   7  170.52   10.59
   0  -2  -8   70.25    9.85
   0   2   8   73.97    9.29
   0  -2  -9  800.20   23.70
   0   2   9  805.40   23.70
   0  -2 -10  168.01   11.34
   0   2  10  168.57   11.15
   0  -2 -11    4.18    9.66
   0   2  11  -18.77    9.57
   0  -2 -12  163.74   12.73
   0   2  12  136.42   11.15
   0  -2 -13  745.65   24.25
   0   2  13  740.82   23.23
   0  -2 -14  764.61   25.09
   0   2  14  749.46   24.07
   0  -2 -15   85.59   12.73
   0  -2 -16   92.37   11.89
   0  -2 -16   80.66   12.36
   0  -2 -17  163.55   12.64
   0  -2 -17  131.68   12.73
   0  -2 -18  199.70   12.64
   0  -2 -18  194.03   13.10
   0  -2 -19    3.44    9.85
   0  -2 -19   -1.30   11.06
   0  -2 -20    4.93    8.83
   0  -2 -20    5.67   10.41
   0   3 -23   26.30   10.22
   0   3 -23   30.85    9.48
   0   3 -22   14.03   10.78
   0   3 -22   30.57   10.04
   0   3 -21   32.62   11.24
   0   3 -21   30.02   10.97
   0   3 -20   55.29   11.80
   0   3 -20   47.21   11.43
   0   3 -19  347.27   16.45
   0   3 -19  344.02   15.89
   0   3 -18  631.26   21.84
   0   3 -18  596.97   20.91
   0   3 -17  176.19   14.78
   0   3 -17  225.72   14.50
   0  -3  16   -5.67   11.24
   0   3 -16  -15.24   12.64
   0  -3  15  157.61   13.66
   0   3 -15  155.19   14.31
   0  -3  14  670.01   21.84
   0   3 -14  684.50   22.86
   0  -3  13   20.17    9.66
   0   3 -13    7.53   10.22
   0  -3  12   65.42   10.22
   0   3 -12   74.53   10.59
   0  -3  11   19.14    8.83
   0   3 -11    7.16    9.66
   0  -3  10  121.18   10.59
   0   3 -10  137.53   11.15
   0  -3   9 1205.27   31.78
   0   3  -9 1137.43   30.48
   0  -3   8 1714.51   43.12
   0   3  -8 1747.97   43.58
   0  -3   7  725.86   21.28
   0   3  -7  737.75   21.47
   0  -3   6  226.09   11.99
   0   3  -6  234.64   11.52
   0  -3   5 1634.59   40.89
   0   3  -5 1593.71   39.77
   0  -3   3 1710.80   40.89
   0   3  -3 1681.06   40.05
   0   3  -2  881.42   21.19
   0   3  -2  884.21   21.28
   0  -3   0    3.35    4.37
   0   3   0    4.74    4.37
   0  -3  -1  600.96   16.54
   0   3   1  573.55   16.08
   0  -3  -2  651.79   18.40
   0   3   2  628.65   18.03
   0  -3  -3 4962.33  115.23
   0   3   3 4854.53  112.81
   0  -3  -4 8868.07  204.07
   0  -3  -5  160.67   10.04
   0   3   5  167.83   10.50
   0  -3  -6 1248.95   32.43
   0   3   6 1254.52   32.62
   0  -3  -7  375.15   14.50
   0   3   7  385.37   14.59
   0  -3  -8  270.23   12.73
   0   3   8  277.20   12.64
   0  -3  -9   75.46    9.94
   0   3   9   66.81    9.85
   0  -3 -10  955.29   27.23
   0   3  10  952.51   26.86
   0  -3 -11  742.58   23.14
   0   3  11  748.44   22.77
   0  -3 -12  647.15   22.21
   0   3  12  598.17   19.79
   0  -3 -13 3296.14   80.10
   0   3  13 3251.53   78.52
   0  -3 -14  520.49   19.70
   0  -3 -15  351.36   15.89
   0  -3 -15  342.90   15.24
   0  -3 -16  111.79   12.17
   0  -3 -16  131.31   12.27
   0  -3 -17   75.27   11.52
   0  -3 -17   86.61   11.24
   0  -3 -18    8.74   10.87
   0  -3 -18   -7.53   10.41
   0  -3 -19   88.19   10.69
   0  -3 -19   97.20   10.97
   0  -3 -20  183.81   11.24
   0  -3 -20  190.69   10.87
   0   4 -23    0.84   10.04
   0   4 -23   -6.78    9.11
   0   4 -22   25.74   10.97
   0   4 -22   20.26   10.04
   0   4 -21  364.00   16.26
   0   4 -21  363.25   15.33
   0   4 -20  102.13   12.36
   0   4 -20  131.49   13.20
   0   4 -19  612.49   21.56
   0   4 -19  590.37   19.98
   0   4 -18 1432.01   38.94
   0   4 -18 1396.70   37.26
   0   4 -17 1333.51   37.17
   0   4 -17 1238.72   33.83
   0  -4  16 1454.32   37.91
   0   4 -16 1517.51   40.98
   0  -4  15  541.77   19.14
   0   4 -15  555.33   20.91
   0  -4  14    4.46    9.20
   0   4 -14    2.51    9.85
   0  -4  13  168.38   11.52
   0   4 -13  156.40   11.80
   0  -4  12   40.24    9.76
   0   4 -12   63.56   10.31
   0  -4  11 1600.21   40.70
   0   4 -11 1663.40   42.47
   0  -4  10 4887.99  114.58
   0   4 -10 4940.03  115.79
   0  -4   9  929.28   25.09
   0   4  -9  887.55   24.90
   0  -4   8   23.42    8.08
   0   4  -8   29.18    8.74
   0  -4   7 1597.42   39.40
   0   4  -7 1619.73   40.24
   0  -4   6 1424.58   35.50
   0   4  -6 1431.08   35.78
   0   4  -3  192.73    7.25
   0   4  -3  204.63    7.43
   0  -4   0 4268.16   99.06
   0  -4  -1 1190.40   28.99
   0   4   1 1168.10   28.71
   0  -4  -2 1418.07   34.66
   0   4   2 1372.54   33.64
   0  -4  -3 3107.50   72.95
   0   4   3 3289.63   77.13
   0  -4  -4   48.14    7.90
   0   4   4   61.52    8.08
   0  -4  -5 1985.86   48.79
   0   4   5 1986.79   48.42
   0  -4  -6    8.74    8.92
   0   4   6    7.62    8.36
   0  -4  -7  785.70   22.86
   0   4   7  776.50   22.30
   0  -4  -8 1016.63   28.06
   0   4   8 1006.40   27.69
   0  -4  -9   14.59    9.57
   0   4   9    5.85    8.55
   0  -4 -10  757.17   22.95
   0   4  10  766.28   22.95
   0  -4 -11 1884.57   48.04
   0   4  11 1891.07   48.14
   0  -4 -12 3345.39   81.13
   0   4  12 3375.13   81.31
   0  -4 -13  174.80   12.73
   0  -4 -13  182.97   12.82
   0  -4 -14   96.92   11.52
   0  -4 -14  113.74   11.99
   0  -4 -15  118.02   11.71
   0  -4 -15  106.12   11.15
   0  -4 -16   78.06   10.69
   0  -4 -16   70.16   11.52
   0  -4 -17   79.55   10.41
   0  -4 -17   83.82   10.97
   0  -4 -18  172.85   11.52
   0  -4 -18  162.07   11.52
   0   5 -23   41.45   10.13
   0   5 -23   47.39    9.11
   0   5 -22   64.68   10.59
   0   5 -22   87.44   12.27
   0   5 -21   74.25   12.36
   0   5 -21   85.49   11.52
   0   5 -20  255.46   14.96
   0   5 -20  244.77   13.57
   0   5 -19  189.39   13.75
   0   5 -19  205.65   13.66
   0   5 -18    2.23   11.89
   0   5 -18    2.04   11.15
   0   5 -17   79.27   13.20
   0   5 -17  102.13   12.45
   0   5 -16   45.72   12.64
   0  -5  15   48.14   10.31
   0   5 -15   68.02   12.92
   0  -5  14    2.88    9.57
   0   5 -14    5.30    9.57
   0  -5  13  892.57   25.83
   0   5 -13  827.15   24.44
   0  -5  12 2113.17   52.41
   0   5 -12 2066.71   51.48
   0  -5  11 2822.21   68.49
   0   5 -11 2843.58   68.58
   0  -5  10 3613.95   85.96
   0   5 -10 3747.77   89.02
   0  -5   9 2865.88   68.86
   0   5  -9 2931.86   70.07
   0  -5   8 9534.36  219.68
   0   5  -8 9710.92  223.40
   0  -5   7  692.68   19.42
   0   5  -7  673.45   19.05
   0  -5   6   -6.97    6.97
   0   5  -6   -2.42    6.13
   0   5  -5 3495.00   81.31
   0   5  -5 3589.79   83.54
   0   5  -4  195.89    7.53
   0   5  -4  182.97    7.25
   0  -5   0 1996.08   46.93
   0   5   0 2056.49   48.32
   0  -5  -1 2565.73   60.12
   0   5   1 2457.93   57.62
   0  -5  -2 1839.96   44.23
   0   5   2 1825.10   43.68
   0  -5  -3   36.06    6.88
   0   5   3   35.31    6.69
   0  -5  -4   14.59    7.06
   0   5   4   16.45    6.97
   0  -5  -5  255.74   11.24
   0   5   5  277.20   11.24
   0  -5  -6  689.89   20.44
   0   5   6  660.99   19.61
   0  -5  -7  830.21   24.16
   0   5   7  726.88   21.28
   0  -5  -8  601.89   18.86
   0   5   8  594.27   18.68
   0  -5  -9 2270.22   55.94
   0   5   9 2299.96   56.59
   0  -5 -10 1205.27   33.36
   0   5  10 1240.58   33.36
   0  -5 -11  486.38   17.84
   0   5  11  482.29   18.12
   0  -5 -12    6.13   10.13
   0  -5 -12   -9.76    9.94
   0  -5 -13  107.33   11.15
   0  -5 -13   99.06   11.06
   0  -5 -14   24.44   10.31
   0  -5 -14    4.55   10.22
   0  -5 -15  127.31   11.15
   0  -5 -15  126.75   12.27
   0  -5 -16  325.62   15.15
   0  -5 -16  283.71   13.47
   0  -5 -17  304.24   13.47
   0  -5 -17  297.00   14.03
   0  -5 -18  286.50   12.92
   0  -5 -18  274.41   12.45
   0   6 -23  189.67   11.62
   0   6 -23  211.13   12.45
   0   6 -22  190.32   12.45
   0   6 -22  198.12   13.66
   0   6 -21  136.05   13.20
   0   6 -21  105.38   11.52
   0   6 -20   11.71   11.43
   0   6 -20   14.31   10.78
   0   6 -19  121.08   13.57
   0   6 -19  109.65   12.08
   0   6 -18   53.81   11.62
   0   6 -18   50.83   11.06
   0   6 -17   -1.67   12.36
   0   6 -17   -0.74   10.78
   0   6 -16  -12.82   12.55
   0   6 -16   11.34   10.69
   0   6 -15   49.44   12.36
   0   6 -15   29.37   11.34
   0  -6  14  162.07   10.87
   0   6 -14  135.95   11.71
   0  -6  13  178.89   10.50
   0   6 -13  166.99   11.99
   0  -6  12 1121.64   29.27
   0   6 -12 1169.96   31.60
   0  -6  11 1367.89   35.03
   0   6 -11 1378.11   35.87
   0  -6  10  184.83    9.94
   0   6 -10  189.20   10.78
   0  -6   9   50.00    7.53
   0   6  -9   31.69    8.27
   0  -6   8  358.70   13.01
   0   6  -8  352.10   12.92
   0   6  -7   52.23    7.34
   0   6  -7   41.35    6.60
   0   6  -6  520.49   14.78
   0   6  -6  551.52   15.43
   0   6  -5 4898.21  113.28
   0   6  -5 4939.10  114.21
   0   6  -4 5660.21  131.86
   0   6  -4 5565.43  129.63
   0  -6   0 1728.45   40.89
   0  -6   0 1671.77   39.59
   0  -6  -1   13.75    4.46
   0   6   1   18.31    5.11
   0  -6  -2  105.47    6.60
   0   6   2  113.46    6.88
   0  -6  -3  160.11    7.99
   0   6   3  167.46    8.55
   0  -6  -4   49.72    7.53
   0   6   4   42.00    7.34
   0  -6  -5  330.17   12.64
   0   6   5  333.70   12.45
   0  -6  -6 1156.02   30.02
   0   6   6 1189.47   31.04
   0  -6  -7 1208.06   31.87
   0   6   7 1190.40   31.41
   0  -6  -8 1138.36   30.85
   0   6   8 1125.35   30.20
   0  -6  -9  698.54   21.65
   0   6   9  690.64   21.75
   0  -6 -10   -4.46    8.92
   0  -6 -10  -10.59    9.20
   0  -6 -11   -5.30    9.85
   0  -6 -11   14.31    9.76
   0  -6 -12   46.65   11.06
   0  -6 -12   45.16   10.41
   0  -6 -13  144.41   12.27
   0  -6 -13  124.80   11.71
   0  -6 -14  257.69   13.10
   0  -6 -14  266.70   13.75
   0  -6 -15  210.39   13.38
   0  -6 -15  175.54   12.27
   0  -6 -16  488.52   17.19
   0  -6 -16  452.74   16.45
   0  -6 -17  404.42   14.96
   0  -6 -17  382.40   14.50
   0   7 -23   79.27   11.62
   0   7 -23   74.53   10.78
   0   7 -22   69.23   11.80
   0   7 -22   62.63   10.41
   0   7 -21   31.04   11.71
   0   7 -21   17.75   10.59
   0   7 -20   65.61   12.08
   0   7 -20   50.18   11.15
   0   7 -19   83.82   11.89
   0   7 -19   80.75   11.71
   0   7 -18  416.50   18.21
   0   7 -18  420.50   17.56
   0   7 -17   92.28   13.10
   0   7 -17   55.76   11.52
   0   7 -16   55.66   12.55
   0   7 -16   59.29   11.24
   0   7 -15  272.93   15.15
   0   7 -15  266.61   14.78
   0   7 -14  952.51   28.06
   0   7 -14  922.03   26.86
   0   7 -13  192.92   11.62
   0   7 -13  214.10   11.15
   0   7 -12   11.06    9.20
   0   7 -12   32.34    7.81
   0   7 -11    7.43    8.27
   0   7 -11   23.70    7.71
   0   7 -10  246.91   11.34
   0   7 -10  248.86   11.15
   0   7  -9 1914.31   46.65
   0   7  -9 1866.91   45.72
   0   7  -8 3620.46   84.84
   0   7  -8 3774.72   88.56
   0   7  -7  873.33   22.49
   0   7  -7  855.86   22.02
   0   7  -6 2747.87   64.31
   0   7  -6 2596.39   60.96
   0   7  -5  138.46    5.67
   0   7  -5  143.76    5.48
   0  -7   0  589.25   14.59
   0  -7   0  608.49   15.43
   0  -7  -1   73.51    5.30
   0  -7  -1   64.68    5.02
   0  -7  -2 2024.89   48.14
   0  -7  -2 1998.87   47.67
   0  -7  -3 2336.20   56.04
   0  -7  -3 2235.84   53.15
   0  -7  -4 1923.60   46.37
   0  -7  -5  427.75   14.31
   0  -7  -6  833.28   23.23
   0  -7  -6  777.43   22.21
   0  -7  -7  258.52   11.99
   0  -7  -7  257.04   12.27
   0  -7  -8   57.15    9.39
   0  -7  -8   50.74   10.31
   0  -7  -9  455.07   17.84
   0  -7  -9  482.20   17.28
   0  -7 -10   -5.76   10.22
   0  -7 -10  -16.08    9.76
   0  -7 -11   46.74   10.13
   0  -7 -11   31.69    9.94
   0  -7 -12   37.17    9.94
   0  -7 -12   28.99    9.94
   0  -7 -13  239.94   13.85
   0  -7 -13  201.47   12.36
   0  -7 -14  196.54   12.55
   0  -7 -14  180.65   11.71
   0  -7 -15  354.61   14.59
   0  -7 -15  318.18   14.50
   0  -7 -16  187.06   11.06
   0  -7 -16  170.43   10.97
   0   8 -23   41.91   11.06
   0   8 -23   44.70   10.13
   0   8 -22  -11.06    9.48
   0   8 -22    4.65   11.24
   0   8 -21   81.96   12.17
   0   8 -21   72.48   10.97
   0   8 -20  129.82   12.82
   0   8 -20  127.78   11.62
   0   8 -19  126.75   13.20
   0   8 -19  148.22   11.99
   0   8 -18  248.12   14.50
   0   8 -18  264.84   14.96
   0   8 -17 1320.50   36.33
   0   8 -17 1367.89   37.08
   0   8 -16 1471.97   39.59
   0   8 -16 1476.62   39.22
   0   8 -15  242.82   14.96
   0   8 -15  229.62   13.01
   0   8 -14   15.70   12.55
   0   8 -14   13.20    9.94
   0   8 -13  317.35   15.05
   0   8 -13  338.44   14.50
   0   8 -12  478.20   16.08
   0   8 -12  470.58   16.45
   0   8 -11   81.96    9.01
   0   8 -11   84.38    8.74
   0   8 -10  331.84   12.17
   0   8 -10  304.06   11.89
   0   8  -9 4258.87   99.53
   0   8  -9 4345.29  101.48
   0   8  -8   43.86    6.13
   0   8  -8   38.38    5.95
   0   8  -7 1698.71   40.42
   0   8  -7 1773.99   42.37
   0   8  -6  390.67   10.69
   0   8  -6  374.50   10.50
   0  -8  -1 3997.74   93.02
   0  -8  -1 4053.50   94.51
   0  -8  -2 3080.55   72.02
   0  -8  -2 3073.11   72.02
   0  -8  -3 1003.62   25.93
   0  -8  -3  978.53   25.00
   0  -8  -5 3097.27   73.97
   0  -8  -5 3174.40   75.36
   0  -8  -6 1200.62   31.78
   0  -8  -6 1196.91   30.94
   0  -8  -7    6.13    8.83
   0  -8  -7   -0.19    8.64
   0  -8  -8 2106.67   52.23
   0  -8  -8 2028.61   50.46
   0  -8  -9  160.67   11.06
   0  -8  -9  157.51   11.99
   0  -8 -10  500.32   17.66
   0  -8 -10  505.80   17.38
   0  -8 -11  507.29   17.84
   0  -8 -11  509.43   17.19
   0  -8 -12  362.79   15.52
   0  -8 -12  352.20   15.33
   0  -8 -13  199.98   12.45
   0  -8 -13  199.24   12.36
   0  -8 -14   84.56   10.78
   0  -8 -14   86.89   10.78
   0  -8 -15    5.48    9.76
   0  -8 -15   38.19    9.76
   0   9 -23   55.57   11.24
   0   9 -23   22.86    9.76
   0   9 -22  143.20   12.92
   0   9 -22  158.44   11.89
   0   9 -21  220.42   13.94
   0   9 -21  255.36   13.75
   0   9 -20  218.57   14.31
   0   9 -20  270.23   14.87
   0   9 -19  299.13   15.05
   0   9 -19  301.83   14.59
   0   9 -18  942.28   27.79
   0   9 -18  988.75   28.25
   0   9 -17  239.10   14.31
   0   9 -17  212.34   13.29
   0   9 -16  221.73   13.94
   0   9 -16  252.39   13.66
   0   9 -15  161.14   11.80
   0   9 -15  166.34   14.03
   0   9 -14   13.38   10.13
   0   9 -14   22.49    9.39
   0   9 -13   62.91   11.34
   0   9 -13   75.92    9.85
   0   9 -12 1048.22   28.71
   0   9 -12 1119.78   29.83
   0   9 -11  123.59    8.55
   0   9 -11  123.22    8.74
   0   9 -10  501.90   15.33
   0   9 -10  485.08   15.15
   0   9  -9  695.93   18.77
   0   9  -9  738.49   19.89
   0   9  -8 2674.45   63.00
   0   9  -8 2786.90   65.42
   0   9  -7  829.66   20.54
   0   9  -7  828.26   20.63
   0  -9  -1 1573.26   37.45
   0  -9  -1 1457.10   35.03
   0  -9  -2 1152.30   28.53
   0  -9  -2 1169.96   28.90
   0  -9  -4 1548.17   38.29
   0  -9  -4 1614.15   40.14
   0  -9  -5   -3.62    7.53
   0  -9  -5    9.94    7.06
   0  -9  -6  384.53   14.22
   0  -9  -6  381.28   13.94
   0  -9  -7 1069.60   29.55
   0  -9  -7 1075.17   29.09
   0  -9  -8  639.53   20.44
   0  -9  -8  597.80   18.96
   0  -9  -9  635.53   20.07
   0  -9  -9  627.07   19.79
   0  -9 -10  661.09   20.72
   0  -9 -10  642.22   20.54
   0  -9 -11  338.81   14.31
   0  -9 -11  357.40   15.43
   0  -9 -12  210.02   12.36
   0  -9 -12  222.93   12.27
   0  -9 -13   79.55   10.69
   0  -9 -13   92.09   10.87
   0  -9 -14    4.09    9.94
   0  -9 -14    1.58    8.36
   0  10 -23   90.05   11.62
   0  10 -23   72.20   10.50
   0  10 -22  258.99   14.78
   0  10 -22  274.79   13.94
   0  10 -21  438.34   17.84
   0  10 -21  455.81   17.38
   0  10 -20  273.39   14.78
   0  10 -20  278.88   14.31
   0  10 -19  122.94   12.36
   0  10 -19  118.30   11.71
   0  10 -18  179.44   13.47
   0  10 -18  197.01   13.01
   0  10 -17   -7.43   10.87
   0  10 -17  -13.66   10.22
   0  10 -16  164.57   12.45
   0  10 -16  142.46   12.36
   0  10 -15  414.09   16.91
   0  10 -15  419.29   16.45
   0  10 -14  324.97   14.78
   0  10 -14  360.65   15.24
   0  10 -13   46.84    9.94
   0  10 -13   27.32    9.66
   0  10 -12 1148.58   30.57
   0  10 -12 1076.10   28.62
   0  10 -11  756.80   21.37
   0  10 -11  711.55   20.35
   0  10 -10  483.87   14.59
   0  10 -10  498.46   14.78
   0  10  -9   22.12    5.20
   0  10  -9   27.79    5.11
   0  10  -8  217.64    7.34
   0  10  -8  245.51    8.18
   0 -10  -1  945.07   23.42
   0 -10  -1  932.06   23.05
   0 -10  -2  295.88   10.04
   0 -10  -2  263.17    8.74
   0 -10  -3    2.88    6.13
   0 -10  -3   -1.49    5.39
   0 -10  -4    1.77    7.62
   0 -10  -4   13.66    6.50
   0 -10  -5  106.40    7.99
   0 -10  -5  128.80   10.41
   0 -10  -6  336.40   13.10
   0 -10  -6  312.98   12.82
   0 -10  -7 1108.63   29.74
   0 -10  -7 1008.26   27.32
   0 -10  -8  714.15   21.28
   0 -10  -8  670.75   20.35
   0 -10 -10  322.55   14.31
   0 -10 -10  310.75   13.01
   0 -10 -11  265.77   14.22
   0 -10 -11  240.87   12.08
   0 -10 -12   -0.74   11.24
   0 -10 -12    6.69    8.55
   0 -10 -13   39.96   10.04
   0 -10 -13   15.52    8.64
   0  11 -23   74.71   11.71
   0  11 -23   87.35   10.78
   0  11 -22   42.75   11.34
   0  11 -22   55.29   10.69
   0  11 -21  127.12   13.01
   0  11 -21  159.28   11.71
   0  11 -20  233.43   14.03
   0  11 -20  212.34   13.20
   0  11 -19   46.09   11.34
   0  11 -19   34.48   10.41
   0  11 -18   30.39   11.15
   0  11 -18   13.38   10.04
   0  11 -17  248.21   13.57
   0  11 -17  250.35   13.57
   0  11 -16  284.27   14.03
   0  11 -16  302.11   14.50
   0  11 -15  159.65   11.80
   0  11 -15  184.18   11.99
   0  11 -14  838.02   24.35
   0  11 -14  832.07   23.98
   0  11 -13 3616.74   85.87
   0  11 -13 3703.16   87.63
   0  11 -12  148.41   10.31
   0  11 -12  132.05    9.48
   0  11 -11   79.36    7.99
   0  11 -11   78.34    6.78
   0  11 -10   89.68    6.97
   0  11 -10   89.02    5.85
   0  11  -9  141.44    6.50
   0  11  -9  163.27    6.32
   0 -11  -2   12.45    4.83
   0 -11  -2   14.22    3.90
   0 -11  -7  142.36   11.80
   0 -11  -7  128.70    8.55
   0 -11  -9  196.82   10.97
   0 -11  -9  238.08   13.85
   0 -11 -10   19.98    8.74
   0 -11 -10   17.47   11.62
   0 -11 -11   30.48   11.71
   0 -11 -11   27.13    8.55
   0 -11 -12   63.75   12.55
   0 -11 -12   50.00    6.97
   0  12 -22  169.41   12.82
   0  12 -22  208.99   12.55
   0  12 -21    8.64   10.78
   0  12 -21   11.43    9.94
   0  12 -20   21.56    9.85
   0  12 -20    7.25   10.97
   0  12 -19   56.78   10.87
   0  12 -19   68.58   11.62
   0  12 -18   74.43   11.24
   0  12 -18   84.47   10.87
   0  12 -17  226.00   13.20
   0  12 -17  254.62   13.29
   0  12 -16  526.43   18.40
   0  12 -16  557.01   18.59
   0  12 -15  144.50   11.34
   0  12 -15  167.46   11.15
   0  12 -14  491.03   16.54
   0  12 -14  488.15   16.36
   0  12 -13    2.04    7.81
   0  12 -13   -7.06    7.06
   0  12 -12  546.79   16.17
   0  12 -12  546.69   16.54
   0  12 -11  -11.15    5.20
   0  12 -11   -3.44    5.39
   0 -12  -3   -0.37    4.83
   0 -12  -4    7.25    5.48
   0 -12  -4   -0.65    6.88
   0 -12  -8    5.85   11.43
   0 -12  -8   11.15    8.36
   0 -12  -9    4.37    8.55
   0 -12  -9  -21.37   12.55
   0 -12 -10   41.17    7.99
   0 -12 -10   52.32   12.17
   0  13 -22   -0.93   10.87
   0  13 -22   -7.34   12.17
   0  13 -21   13.10   11.43
   0  13 -21   15.98   10.69
   0  13 -20    8.27   10.50
   0  13 -20   20.07   10.69
   0  13 -19  288.35   14.59
   0  13 -19  291.89   13.75
   0  13 -18  630.61   20.72
   0  13 -18  680.23   21.19
   0  13 -17  373.66   15.80
   0  13 -17  358.05   14.78
   0  13 -16   57.43    9.48
   0  13 -16   39.31    8.64
   0  13 -15  121.74    9.11
   0  13 -15  126.75   10.50
   0  13 -14  114.30    9.29
   0  13 -14   96.37    8.46
   0  13 -13   46.00    6.97
   0  13 -13   42.10    6.13
   0  13 -12   62.26    5.76
   0  13 -12   56.22    6.23
   0 -13  -4    5.67    5.76
   0 -13  -6  -18.12    9.94
   0 -13  -6   -5.20    7.53
   0 -13  -7    0.65    7.34
   0 -13  -7   -0.28   10.78
   0 -13  -8   19.98    8.55
   0 -13  -8    3.35   12.64
   0 -13  -9   96.09   12.92
   0 -13  -9  107.98   18.21
   0  14 -20  287.80   14.78
   0  14 -20  294.95   13.85
   0  14 -19   87.44   12.27
   0  14 -19   86.61   10.78
   0  14 -18  145.71   12.17
   0  14 -18  140.69   10.31
   0  14 -17  360.28   14.96
   0  14 -17  341.04   13.20
   0  14 -16   17.38    8.46
   0  14 -16    6.69    7.34
   0  14 -15   -2.14    6.78
   0  14 -15    2.42    5.95
   0  14 -14  142.64    8.08
   0  14 -14  129.54    7.53
   0  14 -13    9.11    5.11
   0  14 -13   11.80    4.83
   0 -14  -6   20.91    7.25
   0 -14  -6   -0.56   10.50
   0  15 -19  141.71   12.27
   0  15 -19  134.65   11.06
   0  15 -18   54.27   11.52
   0  15 -18   41.72    9.01
   0  15 -17  280.46   13.01
   0  15 -17  269.30   11.15
   0  15 -16    2.42    7.34
   0  15 -16    5.85    6.32
   0  15 -15   44.14    6.69
   0  15 -15   31.78    5.11
   0  16 -19   13.38   10.22
   0  16 -19   -4.27   11.43
   0  16 -18   28.34    8.83
   0  16 -18   29.92    9.57
   0  16 -17   19.42    8.55
   0  16 -17    4.93    6.60
  -1  17 -17   29.55    6.41
  -1  17 -17   26.39    8.36
  -1  16 -15   85.77    6.50
  -1  16 -15   82.24    7.71
  -1  16 -17  402.00   14.87
  -1  16 -17  374.50   13.57
  -1  16 -18   57.34    9.85
  -1  16 -18   65.24   10.97
  -1  16 -19   14.22   10.41
  -1  16 -19   14.87   11.34
  -1  15 -14  247.19    8.92
  -1  15 -14  248.58   10.13
  -1  15 -15  269.58   10.41
  -1  15 -15  281.66   11.99
  -1  15 -16  118.67   10.50
  -1  15 -16   98.32    8.74
  -1  15 -17   65.98    9.01
  -1  15 -17   59.66   10.78
  -1  15 -18   51.85   12.08
  -1  15 -18   44.61    9.29
  -1  15 -19   62.63   11.71
  -1  15 -19   38.66   11.34
  -1  15 -20    2.69   10.87
  -1  15 -20   -6.78   13.01
   1 -14  -4   -2.32    5.20
  -1  14 -12  503.95   14.03
  -1  14 -12  506.08   14.40
  -1  14 -13  217.92    8.92
  -1  14 -13  201.65    9.11
  -1  14 -14   70.25    9.11
  -1  14 -14   68.95    7.25
  -1  14 -15  191.24   10.59
  -1  14 -15  189.85   11.62
  -1  14 -16  198.21   10.59
  -1  14 -16  194.68   12.08
  -1  14 -17   -6.41    8.64
  -1  14 -17   11.06   10.87
  -1  14 -18   20.17    9.11
  -1  14 -18   33.83   11.15
  -1  14 -19  -11.34   11.43
  -1  14 -19   11.52    9.39
  -1  14 -20   29.55   11.62
  -1  14 -20   40.89   10.50
  -1  14 -21   12.64   11.52
  -1  14 -21   41.26   11.34
   1 -13  -9  278.50   12.45
   1 -13  -9  301.36   17.28
   1 -13  -6   25.09    6.88
   1 -13  -6   -0.37    8.74
   1 -13  -3   -3.07    5.30
  -1  13 -10 1320.50   32.15
  -1  13 -10 1230.36   30.20
  -1  13 -11  701.88   18.86
  -1  13 -11  740.07   19.70
  -1  13 -12  514.63   15.33
  -1  13 -12  538.61   16.36
  -1  13 -13  759.31   21.37
  -1  13 -13  713.59   20.91
  -1  13 -14  176.75   11.34
  -1  13 -14  171.73   10.50
  -1  13 -15    4.46    7.99
  -1  13 -15    0.37    9.85
  -1  13 -16   29.55    8.74
  -1  13 -16   39.12   10.97
  -1  13 -17   78.71    9.29
  -1  13 -17   82.71   11.80
  -1  13 -18   17.01    8.92
  -1  13 -18  -10.31   10.87
  -1  13 -19  281.11   15.33
  -1  13 -19  318.74   13.94
  -1  13 -20  313.17   14.31
  -1  13 -20  320.79   15.80
  -1  13 -21   86.33   10.97
  -1  13 -21   71.00   11.62
  -1  13 -22   15.43   11.71
  -1  13 -22   46.28   11.34
   1 -12 -10  477.18   16.45
   1 -12 -10  527.27   18.68
   1 -12  -9  209.74   11.62
   1 -12  -9  237.24   13.57
   1 -12  -8   28.90   10.50
   1 -12  -8   37.08    8.46
   1 -12  -7    3.35    7.90
   1 -12  -7    9.11   10.13
   1 -12  -6   17.56    6.97
   1 -12  -6   15.61    9.20
   1 -12  -5   18.40    6.69
   1 -12  -5   11.62    8.64
   1 -12  -4  535.54   15.33
   1 -12  -4  497.91   15.61
   1 -12  -2  104.54    6.23
   1 -12  -1  201.56    6.78
  -1  12  -9  117.83    6.97
  -1  12  -9  119.23    5.76
  -1  12 -10   89.02    6.23
  -1  12 -10   73.88    6.88
  -1  12 -11  721.95   19.70
  -1  12 -11  741.84   21.00
  -1  12 -12  201.10   11.62
  -1  12 -12  166.06    9.57
  -1  12 -13   26.67   10.59
  -1  12 -13   33.92    8.36
  -1  12 -14   18.31    8.36
  -1  12 -14   13.75   11.24
  -1  12 -15   63.38   11.06
  -1  12 -15   77.87    9.39
  -1  12 -16  337.51   14.12
  -1  12 -16  363.44   15.98
  -1  12 -17  285.29   13.85
  -1  12 -17  291.98   14.31
  -1  12 -18  328.68   15.05
  -1  12 -18  315.30   14.59
  -1  12 -19  166.80   11.89
  -1  12 -19  146.08   12.73
  -1  12 -20  149.61   12.17
  -1  12 -20  158.07   13.20
  -1  12 -21  146.55   11.89
  -1  12 -21  131.59   12.55
  -1  12 -22   21.93   10.31
  -1  12 -22   25.65   11.89
   1 -11 -12  170.80   11.89
   1 -11 -12  182.70   10.78
   1 -11 -11  176.10   11.15
   1 -11 -11  191.24   12.36
   1 -11 -10  190.13   11.24
   1 -11 -10  208.90   12.82
   1 -11  -9   33.83    8.92
   1 -11  -9   36.71   10.04
   1 -11  -8   31.13    8.83
   1 -11  -8   32.80    9.76
   1 -11  -7   30.48    7.71
   1 -11  -7   28.81    8.64
   1 -11  -6  114.39    8.92
   1 -11  -6   96.55   10.04
   1 -11  -5    7.25    7.06
   1 -11  -5   -1.86    7.62
   1 -11  -4  357.86   13.01
   1 -11  -4  329.15   11.62
   1 -11  -3 1360.46   33.55
   1 -11  -3 1487.77   37.36
   1 -11  -2 1788.85   43.12
   1 -11  -2 1715.44   41.45
   1 -11  -1  360.19   10.59
   1 -11  -1  395.78   11.43
  -1  11  -8  645.85   17.10
  -1  11  -8  654.21   16.82
  -1  11  -9  508.87   14.31
  -1  11  -9  489.64   14.40
  -1  11 -10   32.15    7.16
  -1  11 -10   32.71    8.18
  -1  11 -11   78.43    8.08
  -1  11 -11   78.71    8.83
  -1  11 -12    2.88    8.55
  -1  11 -12   -2.04    7.90
  -1  11 -13   33.83    8.92
  -1  11 -13   33.27   10.31
  -1  11 -14  210.02   12.36
  -1  11 -14  177.68   12.73
  -1  11 -15  706.53   21.93
  -1  11 -15  721.86   23.14
  -1  11 -17   83.73   11.24
  -1  11 -17   95.34   13.01
  -1  11 -18   55.66   11.24
  -1  11 -18   18.49   12.73
  -1  11 -19  260.29   14.12
  -1  11 -19  305.27   16.82
  -1  11 -20    5.76   10.41
  -1  11 -20   12.92   11.43
  -1  11 -21  114.58   11.71
  -1  11 -21  101.94   12.27
  -1  11 -22   39.59   10.41
  -1  11 -22   29.46   11.89
  -1  11 -23    9.11   12.08
  -1  11 -23   16.73    9.48
   1 -10 -14  121.27   10.22
   1 -10 -14  139.76   11.24
   1 -10 -13  209.09   11.89
   1 -10 -13  185.76   10.87
   1 -10 -12   99.90   10.04
   1 -10 -12   66.44   10.13
   1 -10 -11   -1.02    8.64
   1 -10 -11   -1.95    9.57
   1 -10 -10   24.16    9.85
   1 -10 -10   35.78    8.74
   1 -10  -9   95.81    9.76
   1 -10  -9   82.33   10.50
  -1  10   7  600.59   18.59
   1 -10  -7  638.04   19.42
  -1  10   6  265.03   11.52
   1 -10  -6  245.70   11.34
  -1  10   5 1053.80   27.79
   1 -10  -5 1030.57   27.13
  -1  10   4  932.06   24.81
   1 -10  -4  963.66   25.56
  -1  10   3  425.70   13.38
   1 -10  -3  457.02   14.22
  -1  10   2  134.28    7.16
   1 -10  -2  124.06    6.41
  -1  10   1   69.23    5.11
   1 -10  -1   86.89    5.76
  -1  10   0   42.84    3.90
   1 -10   0   44.23    4.18
  -1  10  -6  700.67   17.56
  -1  10  -6  651.61   16.54
  -1  10  -7  150.36    6.50
  -1  10  -7  143.02    6.32
  -1  10  -8   80.20    5.85
  -1  10  -8   73.13    6.13
  -1  10  -9  137.63    7.71
  -1  10  -9  142.36    8.08
  -1  10 -10   27.04    6.50
  -1  10 -10   39.68    6.88
  -1  10 -11  179.63    9.94
  -1  10 -11  161.32   10.22
  -1  10 -12  681.72   20.54
  -1  10 -12  686.73   20.82
  -1  10 -13 1369.75   36.06
  -1  10 -13 1356.74   35.59
  -1  10 -14 1625.30   42.00
  -1  10 -14 1650.39   42.84
  -1  10 -15 1826.03   46.84
  -1  10 -15 1795.36   46.09
  -1  10 -16  620.38   21.09
  -1  10 -16  598.45   20.72
  -1  10 -17  192.82   13.01
  -1  10 -17  218.47   13.47
  -1  10 -18   15.15   10.78
  -1  10 -18   -2.79   11.15
  -1  10 -19   14.03   10.59
  -1  10 -19   28.06   12.17
  -1  10 -20   71.37   13.10
  -1  10 -20   88.10   11.80
  -1  10 -21  202.21   14.03
  -1  10 -21  234.83   12.82
  -1  10 -22  217.36   12.73
  -1  10 -22  178.51   13.57
  -1  10 -23  670.66   20.82
  -1  10 -23  674.10   21.84
   1  -9 -15   48.42    8.83
   1  -9 -15   41.91    9.85
   1  -9 -14  177.40   11.43
   1  -9 -14  172.19   11.43
   1  -9 -13    6.60    9.57
   1  -9 -13    9.20   10.22
   1  -9 -12   55.66   10.41
   1  -9 -12   65.61    9.66
   1  -9 -11  179.16   11.34
   1  -9 -11  160.30   11.52
  -1   9  10  268.93   12.64
   1  -9 -10  266.52   12.73
  -1   9   9  844.53   24.35
   1  -9  -9  830.21   24.07
  -1   9   8 2047.19   50.92
   1  -9  -8 2088.08   51.57
  -1   9   7  608.58   19.14
   1  -9  -7  589.25   18.40
  -1   9   6  886.06   24.44
   1  -9  -6  904.93   25.09
  -1   9   5 1559.32   39.03
   1  -9  -5 1582.56   39.87
  -1   9   4  177.31    9.39
   1  -9  -4  171.36    9.11
  -1   9   3    5.95    6.60
   1  -9  -3   18.96    6.50
  -1   9   2   98.50    6.78
   1  -9  -2  108.73    6.88
  -1   9   1  569.92   15.52
   1  -9  -1  617.32   16.26
  -1   9   0  132.24    6.13
   1  -9   0  150.91    6.04
  -1   9  -1 2560.15   60.50
   1  -9   1 2740.43   64.77
  -1   9  -2 2237.69   55.11
   1  -9   2 2382.66   59.38
  -1   9  -5   -0.84    3.72
  -1   9  -5    3.81    3.53
  -1   9  -6   -2.88    4.93
  -1   9  -6    6.23    4.37
  -1   9  -7  288.63    9.66
  -1   9  -7  274.51    9.48
  -1   9  -8  119.97    7.34
  -1   9  -8  123.87    7.06
  -1   9  -9  583.12   16.73
  -1   9  -9  567.79   16.63
  -1   9 -10 1044.51   27.51
  -1   9 -10 1049.15   27.41
  -1   9 -12  514.45   17.84
  -1   9 -12  573.83   18.49
  -1   9 -13  218.29   13.01
  -1   9 -13  212.15   13.10
  -1   9 -14 1458.03   38.29
  -1   9 -14 1430.15   38.01
  -1   9 -15  679.11   22.02
  -1   9 -15  705.41   23.23
  -1   9 -16    2.04   10.31
  -1   9 -16   -2.32   10.87
  -1   9 -17   40.24   11.99
  -1   9 -17   37.54   11.24
  -1   9 -18  185.20   13.01
  -1   9 -18  201.47   13.85
  -1   9 -19  208.72   13.94
  -1   9 -19  222.47   14.96
  -1   9 -20  349.41   15.70
  -1   9 -20  341.42   16.73
  -1   9 -21  203.51   13.01
  -1   9 -21  205.00   14.68
  -1   9 -23   -5.39    9.57
  -1   9 -23    7.90   10.78
   1  -8 -16   53.43   10.22
   1  -8 -16   60.40    8.92
   1  -8 -15    5.20    9.29
   1  -8 -15   12.64    9.76
   1  -8 -14   16.63    9.01
   1  -8 -14   -6.60    9.57
   1  -8 -13  120.16   10.69
   1  -8 -13  102.68   10.97
  -1   8  12  151.94   11.24
   1  -8 -12  156.40   11.06
  -1   8  11   30.02    9.20
   1  -8 -11   22.86    9.76
  -1   8  10   76.94   10.50
   1  -8 -10   78.80   10.13
  -1   8   9   17.10    8.46
   1  -8  -9   22.12    8.74
  -1   8   8   26.76    8.74
   1  -8  -8   28.34    9.11
  -1   8   7  100.45    9.66
   1  -8  -7  105.29   10.04
  -1   8   6  269.30   12.45
   1  -8  -6  264.10   11.52
  -1   8   5    4.93    7.62
   1  -8  -5   11.34    6.60
  -1   8   4  513.24   15.70
   1  -8  -4  514.82   15.33
  -1   8   3  771.58   21.00
   1  -8  -3  810.51   21.37
  -1   8   2 1079.82   27.23
   1  -8  -2 1142.08   28.71
  -1   8   1  874.82   22.30
   1  -8  -1  826.50   21.19
  -1   8   0 4111.11   95.53
   1  -8   0 4430.78  102.96
  -1   8  -1 3698.52   86.24
   1  -8   1 3777.50   88.28
  -1   8  -2 1450.60   34.66
   1  -8   2 1432.01   34.29
  -1   8  -3   18.86    3.35
   1  -8   3   19.14    3.62
  -1   8  -4  296.53    8.64
  -1   8  -4  283.89    8.46
  -1   8  -5  137.44    6.04
  -1   8  -5  141.34    6.41
  -1   8  -6    0.46    4.74
  -1   8  -6    0.74    5.48
  -1   8  -7 1110.48   27.97
  -1   8  -7 1152.30   28.99
  -1   8  -8  133.91    7.90
  -1   8  -8  153.33    8.55
  -1   8  -9   50.09    7.71
  -1   8  -9   62.26    7.71
  -1   8 -10  791.56   22.30
  -1   8 -10  781.71   22.21
  -1   8 -11  962.73   26.48
  -1   8 -11  969.23   26.48
  -1   8 -12  417.06   14.96
  -1   8 -12  431.37   15.43
  -1   8 -13  453.39   17.38
  -1   8 -13  489.73   18.12
  -1   8 -14   90.05   11.52
  -1   8 -14   95.53   11.34
  -1   8 -15   37.36   11.34
  -1   8 -15   29.37   10.69
  -1   8 -16   95.81   12.36
  -1   8 -16   99.62   13.10
  -1   8 -17  728.46   23.60
  -1   8 -17  715.54   23.70
  -1   8 -18  817.30   25.46
  -1   8 -18  850.01   26.02
  -1   8 -19 1032.42   29.55
  -1   8 -19 1068.67   31.04
  -1   8 -20  247.74   14.31
  -1   8 -20  266.05   15.70
  -1   8 -21  270.98   13.94
  -1   8 -21  274.23   15.89
  -1   8 -22    4.37   10.22
  -1   8 -22   20.07   11.15
  -1   8 -23   84.75   10.87
  -1   8 -23   91.63   11.34
   1  -7 -17   12.92    9.76
   1  -7 -17   10.41    8.92
   1  -7 -16   -0.74    9.94
   1  -7 -16   -9.39    9.11
   1  -7 -15   42.56   10.22
   1  -7 -15   39.87    9.66
  -1   7  14  538.05   19.24
   1  -7 -14  532.20   18.49
  -1   7  13 1088.18   29.83
   1  -7 -13 1142.08   31.32
  -1   7  12 1012.91   28.90
   1  -7 -12 1020.34   28.25
  -1   7  11 1088.18   29.74
   1  -7 -11 1111.41   30.76
  -1   7  10  677.35   20.82
   1  -7 -10  706.90   22.21
  -1   7   9 1655.97   42.28
   1  -7  -9 1626.23   42.00
  -1   7   8  224.88   12.27
   1  -7  -8  247.56   12.36
  -1   7   7    9.48    8.74
   1  -7  -7   20.91    7.90
  -1   7   6  676.42   19.79
   1  -7  -6  679.11   19.89
  -1   7   5  327.29   12.55
   1  -7  -5  306.29   11.89
  -1   7   4  283.15   11.24
   1  -7  -4  281.38   11.34
  -1   7   3  378.59   12.73
   1  -7  -3  355.08   11.99
  -1   7   2  183.25    8.55
   1  -7  -2  185.02    7.90
  -1   7   1  493.17   13.85
   1  -7  -1  458.78   12.92
  -1   7   0  121.08    6.32
   1  -7   0  122.48    5.85
  -1   7  -1  245.70    7.81
   1  -7   1  247.47    7.90
  -1   7  -2   67.56    4.27
   1  -7   2   60.96    4.37
  -1   7  -3  154.63    5.76
   1  -7   3  157.70    6.13
  -1   7  -4  474.49   12.82
   1  -7   4  448.84   12.17
  -1   7  -5 1183.90   29.18
  -1   7  -5 1167.17   28.62
  -1   7  -6  616.57   16.82
  -1   7  -6  614.16   17.01
  -1   7  -7    7.62    6.04
  -1   7  -7   13.47    6.97
  -1   7  -8  779.57   21.37
  -1   7  -8  784.31   21.47
  -1   7  -9 1859.48   45.63
  -1   7  -9 1844.61   45.44
  -1   7 -10  786.91   22.58
  -1   7 -10  797.41   22.58
  -1   7 -11   58.17    8.92
  -1   7 -11   64.03    8.92
  -1   7 -12   50.00    9.11
  -1   7 -12   46.00    9.01
  -1   7 -13  222.10   12.17
  -1   7 -13  224.70   12.17
  -1   7 -14    2.04   10.97
  -1   7 -14   11.15    9.94
  -1   7 -15  505.25   19.05
  -1   7 -15  492.98   18.77
  -1   7 -16  917.10   27.41
  -1   7 -16  883.65   26.58
  -1   7 -17  381.93   17.28
  -1   7 -17  382.77   17.66
  -1   7 -18  156.30   13.57
  -1   7 -18  148.31   13.47
  -1   7 -19  425.89   17.75
  -1   7 -19  412.04   17.01
  -1   7 -20  306.66   15.43
  -1   7 -20  318.83   16.08
  -1   7 -22  -14.03   11.34
  -1   7 -22   23.70   10.31
  -1   7 -23   54.27   10.59
  -1   7 -23   61.43   11.24
   1  -6 -18    4.18    8.74
   1  -6 -18   -0.28    8.64
   1  -6 -17   49.16    9.57
   1  -6 -17   53.71    9.48
   1  -6 -16  155.28   11.71
   1  -6 -16  184.09   11.99
  -1   6  15  620.66   20.26
   1  -6 -15  596.69   19.98
  -1   6  14  800.66   23.79
   1  -6 -14  753.83   23.14
  -1   6  13  590.93   19.79
   1  -6 -13  595.48   19.61
  -1   6  12  909.11   26.30
   1  -6 -12  885.60   25.83
  -1   6  11  290.03   13.57
   1  -6 -11  298.48   13.94
  -1   6  10 1078.89   29.64
   1  -6 -10 1032.42   29.09
  -1   6   9   18.12    8.83
   1  -6  -9   11.52    9.01
  -1   6   8  743.79   21.93
   1  -6  -8  718.33   21.19
  -1   6   7 1438.52   37.17
   1  -6  -7 1473.83   37.91
  -1   6   6 1629.02   40.98
   1  -6  -6 1651.32   41.35
  -1   6   5 1740.53   43.12
   1  -6  -5 1773.06   43.58
  -1   6   4 1926.39   46.84
   1  -6  -4 2010.95   48.88
  -1   6   3 4405.69  102.68
   1  -6  -3 4374.10  101.76
  -1   6   2  489.08   14.40
   1  -6  -2  487.96   14.31
  -1   6   1  681.90   18.21
   1  -6  -1  664.25   17.66
  -1   6   0  553.66   14.87
   1  -6   0  569.27   15.15
  -1   6  -1  894.15   22.02
   1  -6   1  875.47   21.65
  -1   6  -2  752.34   18.86
   1  -6   2  733.48   18.40
  -1   6  -3  750.20   18.96
   1  -6   3  746.77   18.96
  -1   6  -4  725.11   18.86
   1  -6   4  715.63   18.77
  -1   6  -5 6183.40  142.74
  -1   6  -5 6069.10  140.04
  -1   6  -6 3100.06   72.95
  -1   6  -6 3185.55   74.81
  -1   6  -7 3254.32   76.85
  -1   6  -7 3245.96   76.67
  -1   6  -8 1643.89   40.70
  -1   6  -8 1680.13   41.72
  -1   6  -9  307.13   12.36
  -1   6  -9  280.73   12.17
  -1   6 -10  209.74   11.06
  -1   6 -10  215.68   11.43
  -1   6 -11    9.48    8.92
  -1   6 -11    7.71    8.64
  -1   6 -12  126.10   10.41
  -1   6 -12  122.20   10.50
  -1   6 -13  513.42   17.84
  -1   6 -13  495.12   17.47
  -1   6 -14  410.46   16.45
  -1   6 -14  415.39   16.36
  -1   6 -15  245.05   14.12
  -1   6 -15  248.86   14.87
  -1   6 -16  348.01   16.73
  -1   6 -16  342.07   16.36
  -1   6 -17  300.71   15.61
  -1   6 -17  299.13   15.33
  -1   6 -18  400.33   16.82
  -1   6 -18  418.45   17.75
  -1   6 -19   -0.65   11.52
  -1   6 -19   14.31   11.62
  -1   6 -20   12.82   11.71
  -1   6 -20    6.13   11.15
  -1   6 -21   50.55   12.55
  -1   6 -21   59.47   11.15
  -1   6 -22   38.94   11.71
  -1   6 -22   43.95   10.69
  -1   6 -23   99.71   11.89
  -1   6 -23  127.40   11.24
   1  -5 -19   17.56    9.29
   1  -5 -19    7.62    9.20
   1  -5 -17  169.22   11.71
   1  -5 -17  176.00   10.87
  -1   5  16  171.27   11.62
   1  -5 -16  152.96   11.71
  -1   5  15  505.71   17.84
   1  -5 -15  444.94   16.73
  -1   5  14  726.23   22.67
   1  -5 -14  754.76   23.14
  -1   5  13  703.00   22.02
   1  -5 -13  744.07   22.95
  -1   5  12   81.59   10.13
   1  -5 -12   72.11   10.50
  -1   5  11  231.30   12.73
   1  -5 -11  233.34   12.45
  -1   5  10   49.72   10.50
   1  -5 -10   48.88    9.85
  -1   5   9  786.07   23.23
   1  -5  -9  772.60   22.95
  -1   5   8 2977.40   71.74
   1  -5  -8 2943.01   70.62
  -1   5   7 3032.22   72.48
   1  -5  -7 3270.12   77.78
  -1   5   6 2801.76   67.19
   1  -5  -6 2899.34   69.51
  -1   5   5 2042.55   49.72
   1  -5  -5 2094.59   51.20
  -1   5   4 3869.50   90.88
   1  -5  -4 4015.40   94.23
  -1   5   3   30.20    7.53
   1  -5  -3   25.28    6.04
  -1   5   2    4.46    6.60
   1  -5  -2    9.01    6.04
  -1   5   1 1949.62   46.56
   1  -5  -1 2029.54   48.32
  -1   5   0  814.32   20.82
   1  -5   0  806.24   20.44
  -1   5  -1  451.72   12.73
   1  -5   1  413.99   11.71
  -1   5  -2 1411.57   33.92
   1  -5   2 1402.28   33.64
  -1   5  -3 3797.02   88.19
   1  -5   3 3680.86   85.40
  -1   5  -4 1353.95   33.27
   1  -5   4 1355.81   33.27
  -1   5  -5  344.39   11.71
  -1   5  -5  354.52   12.08
  -1   5  -6  665.55   18.86
  -1   5  -6  672.42   19.14
  -1   5  -7   62.17    7.99
  -1   5  -7   86.79    9.01
  -1   5  -8   46.93    7.99
  -1   5  -8   29.37    8.27
  -1   5  -9  120.90    9.66
  -1   5  -9  114.21    9.76
  -1   5 -10 1461.75   37.54
  -1   5 -10 1427.37   36.80
  -1   5 -11 1464.54   37.91
  -1   5 -11 1474.76   38.19
  -1   5 -12  986.89   27.69
  -1   5 -12 1032.42   28.81
  -1   5 -13 2586.17   63.28
  -1   5 -13 2607.55   63.75
  -1   5 -14 2043.48   51.30
  -1   5 -14 2115.96   53.25
  -1   5 -15 1997.94   50.55
  -1   5 -15 2130.83   54.18
  -1   5 -16  213.36   14.12
  -1   5 -16  174.80   13.85
  -1   5 -17   30.39   11.24
  -1   5 -17   31.13   11.43
  -1   5 -18  184.09   13.85
  -1   5 -18  197.10   14.31
  -1   5 -19   71.28   12.17
  -1   5 -19   46.74   12.27
  -1   5 -20  228.51   14.22
  -1   5 -20  205.65   14.12
  -1   5 -21  165.97   12.55
  -1   5 -21  122.76   13.57
  -1   5 -22  244.40   13.47
  -1   5 -22  220.05   13.10
  -1   5 -23   38.29    9.48
  -1   5 -23   54.73   10.69
   1  -4 -19  180.56   11.80
   1  -4 -19  185.58   11.80
   1  -4 -18  433.32   16.54
   1  -4 -18  458.50   16.26
  -1   4  17  287.24   14.03
   1  -4 -17  270.23   14.22
  -1   4  16  105.66   10.87
   1  -4 -16  138.00   11.71
  -1   4  15  150.64   12.08
   1  -4 -15  175.17   12.36
  -1   4  14   13.47    9.57
   1  -4 -14   22.21   10.22
  -1   4  13   55.57   10.04
   1  -4 -13   73.97   11.06
  -1   4  12   44.14    9.85
   1  -4 -12   50.46   11.43
  -1   4  11   88.75   11.62
   1  -4 -11   95.25   11.06
  -1   4  10 2562.94   62.54
   1  -4 -10 2606.62   63.56
  -1   4   9 2737.64   66.35
   1  -4  -9 2627.99   63.93
  -1   4   8 1625.30   41.17
   1  -4  -8 1754.47   44.51
  -1   4   7  279.25   12.45
   1  -4  -7  284.92   12.45
  -1   4   6  766.65   22.12
   1  -4  -6  752.25   21.47
  -1   4   5 5366.56  124.99
   1  -4  -5 5278.28  122.94
  -1   4   4  128.15    9.48
   1  -4  -4  120.34    9.11
  -1   4   3  850.75   23.05
   1  -4  -3  901.95   23.98
  -1   4   2 1671.77   40.80
   1  -4  -2 1704.29   41.54
  -1   4   1  323.48   11.34
   1  -4  -1  325.71   11.34
  -1   4   0  367.62   11.80
   1  -4   0  370.87   11.62
  -1   4  -1  832.07   21.37
   1  -4   1  827.80   21.09
  -1   4  -2 2805.48   65.79
   1  -4   2 2726.49   63.84
  -1   4  -3 1787.93   43.30
   1  -4   3 1790.71   43.30
  -1   4  -4 2509.04   59.75
   1  -4   4 2532.27   60.22
  -1   4  -5 1396.70   35.03
  -1   4  -5 1408.78   35.50
  -1   4  -6   28.16    8.36
  -1   4  -6   51.85    8.64
  -1   4  -7  552.45   17.47
  -1   4  -7  551.15   17.47
  -1   4  -8   48.69    8.92
  -1   4  -8   46.93    8.55
  -1   4  -9 1313.99   34.10
  -1   4  -9 1307.49   34.10
  -1   4 -10 1721.02   43.58
  -1   4 -10 1788.85   44.79
  -1   4 -11 1463.61   38.38
  -1   4 -11 1471.04   38.38
  -1   4 -12 1874.35   47.58
  -1   4 -12 1793.50   45.63
  -1   4 -13  150.36   11.71
  -1   4 -13  145.06   11.34
  -1   4 -14   10.87   10.78
  -1   4 -14   21.75   11.34
  -1   4 -15   11.15   11.71
  -1   4 -15    3.44   11.80
  -1   4 -16  280.83   15.33
  -1   4 -16  297.83   15.89
  -1   4 -17  143.67   13.66
  -1   4 -17  102.41   13.01
  -1   4 -18    9.01   10.87
  -1   4 -18   20.54   11.52
  -1   4 -19  931.13   27.79
  -1   4 -19  954.37   27.88
  -1   4 -21  211.13   14.68
  -1   4 -21  210.39   14.50
  -1   4 -22  189.11   12.55
  -1   4 -22  177.31   12.82
  -1   4 -23  103.52   11.06
  -1   4 -23  103.61   12.08
   1  -3 -20   24.53   10.04
   1  -3 -20   41.35    9.20
   1  -3 -19  273.30   12.45
   1  -3 -19  280.46   13.85
  -1   3  18    9.01   10.13
   1  -3 -18   39.31   10.97
  -1   3  17    6.50   10.41
   1  -3 -17    6.13   10.78
  -1   3  16   51.11   11.24
   1  -3 -16   61.24   11.15
  -1   3  15   15.43   10.59
   1  -3 -15   16.91   11.43
  -1   3  14   87.07   11.71
   1  -3 -14   77.50   12.08
  -1   3  13  247.93   14.40
   1  -3 -13  204.53   13.85
  -1   3  12  727.06   23.32
   1  -3 -12  751.32   23.88
  -1   3  11 2394.74   59.10
   1  -3 -11 2482.09   61.15
  -1   3  10 1611.36   41.54
   1  -3 -10 1504.50   39.22
  -1   3   9  905.67   25.65
   1  -3  -9  898.42   25.56
  -1   3   8  920.45   25.74
   1  -3  -8  919.33   25.74
  -1   3   7  894.43   25.00
   1  -3  -7  932.99   26.02
  -1   3   6   14.22    8.46
   1  -3  -6    6.60    8.64
  -1   3   5  255.27   11.89
   1  -3  -5  250.07   11.24
  -1   3   4 1873.42   46.18
   1  -3  -4 1865.98   45.63
  -1   3   3 2941.16   70.07
   1  -3  -3 2843.58   67.47
  -1   3   2 3839.76   90.05
   1  -3  -2 3716.17   87.17
  -1   3   1 3770.07   88.10
   1  -3  -1 3794.23   88.65
  -1   3   0  396.80   12.92
   1  -3   0  405.72   13.10
  -1   3  -1  321.44   11.43
   1  -3   1  333.80   11.15
  -1   3  -2   31.69    7.53
   1  -3   2   22.12    7.34
   1  -3   3 4596.19  106.96
  -1   3  -4  369.94   14.12
   1  -3   4  378.03   14.22
  -1   3  -5  374.13   14.59
  -1   3  -5  387.04   14.59
  -1   3  -6  399.87   14.50
  -1   3  -6  395.78   15.24
  -1   3  -7 1102.12   29.74
  -1   3  -7 1049.15   28.16
  -1   3  -8  594.74   18.96
  -1   3  -8  658.86   20.07
  -1   3  -9 2107.60   52.04
  -1   3  -9 2115.03   52.04
  -1   3 -10 1728.45   43.58
  -1   3 -10 1762.83   44.61
  -1   3 -11  881.42   25.37
  -1   3 -11  911.99   26.30
  -1   3 -12  318.37   14.03
  -1   3 -12  333.52   14.12
  -1   3 -13    4.93    8.92
  -1   3 -13    3.72    9.66
  -1   3 -14   -2.23   11.43
  -1   3 -14    3.44   11.34
  -1   3 -15   39.31   11.24
  -1   3 -15   47.76   11.80
  -1   3 -16  734.50   23.23
  -1   3 -16  747.88   24.35
  -1   3 -17  435.64   17.38
  -1   3 -17  409.62   18.12
  -1   3 -18  146.27   13.01
  -1   3 -18  133.35   11.99
  -1   3 -19  140.23   12.64
  -1   3 -19  162.72   14.12
  -1   3 -20  231.67   14.22
  -1   3 -20  220.89   14.59
  -1   3 -21  187.81   13.94
  -1   3 -21  209.46   14.03
   1  -2 -21  146.55    9.57
   1  -2 -21  171.08   10.87
   1  -2 -20  105.38   10.78
   1  -2 -20  111.70   11.15
  -1   2  19  106.31   10.59
   1  -2 -19   98.13   11.15
  -1   2  18    3.53   10.69
   1  -2 -18    4.00   11.15
  -1   2  17   -6.41   10.69
   1  -2 -17    4.27   10.22
  -1   2  16  264.66   14.50
   1  -2 -16  259.27   14.96
  -1   2  15  101.48   11.71
   1  -2 -15   95.53   12.73
  -1   2  14  402.84   17.19
   1  -2 -14  391.60   17.66
  -1   2  13  374.96   16.54
   1  -2 -13  401.08   17.28
  -1   2  12 1605.79   41.54
   1  -2 -12 1518.44   39.77
  -1   2  11 1187.61   32.34
   1  -2 -11 1219.21   33.08
  -1   2  10 1369.75   36.15
   1  -2 -10 1320.50   34.85
  -1   2   9  905.67   25.74
   1  -2  -9  868.78   25.28
  -1   2   8  210.67   11.80
   1  -2  -8  191.43   11.52
  -1   2   7 1496.13   37.91
   1  -2  -7 1424.58   36.52
  -1   2   6  448.75   16.26
   1  -2  -6  410.09   14.96
  -1   2   5 4191.03   98.78
   1  -2  -5 4211.48   98.78
  -1   2   4 3900.17   91.81
   1  -2  -4 3927.12   92.56
  -1   2   3 2587.10   62.35
   1  -2  -3 2665.16   64.03
  -1   2   2 1458.96   36.61
   1  -2  -2 1431.08   35.87
  -1   2   1  604.21   17.19
   1  -2  -1  574.94   16.63
  -1   2   0  544.65   15.43
   1  -2   0  530.24   14.96
  -1   2  -1 1232.22   30.29
   1  -2   1 1202.48   29.55
   1  -2   2 3865.78   89.86
  -1   2  -3  881.98   23.98
   1  -2   3  887.27   24.35
  -1   2  -4  325.62   13.94
   1  -2   4  297.83   13.66
  -1   2  -5 1929.18   47.95
  -1   2  -5 1937.54   47.95
  -1   2  -6 1916.17   47.49
  -1   2  -6 1977.50   48.88
  -1   2  -7 2189.37   53.62
  -1   2  -7 2111.31   51.95
  -1   2  -8 3059.17   73.04
  -1   2  -8 3143.74   75.46
  -1   2  -9 1166.24   31.50
  -1   2  -9 1147.65   30.67
  -1   2 -11    8.08    9.48
  -1   2 -11   23.60    9.29
  -1   2 -12  118.02   10.69
  -1   2 -12  104.82   11.15
  -1   2 -13  248.58   13.66
  -1   2 -13  219.03   12.08
  -1   2 -14 1611.36   42.75
  -1   2 -14 1573.26   41.72
  -1   2 -15  146.83   13.66
  -1   2 -15  134.56   13.94
  -1   2 -16 1229.43   34.20
  -1   2 -16 1260.10   35.22
  -1   2 -17  460.46   18.31
  -1   2 -17  487.96   18.68
  -1   2 -18  308.71   15.33
  -1   2 -18  332.22   15.98
  -1   2 -19  134.19   12.82
  -1   2 -19  160.86   13.85
  -1   2 -20  102.13   12.36
  -1   2 -20   98.87   12.64
  -1   2 -21   10.69    9.66
  -1   2 -21   13.29   11.15
  -1   2 -22   21.65    9.57
  -1   2 -22   38.94   11.06
   1  -1 -21  101.01   10.13
   1  -1 -21   80.57    9.48
   1  -1 -20    5.39   10.13
   1  -1 -20    5.67    9.76
  -1   1  19   18.12   10.50
   1  -1 -19    9.85   10.22
  -1   1  18  166.43   12.82
   1  -1 -18  163.27   12.73
  -1   1  17  476.07   17.66
   1  -1 -17  479.04   18.86
  -1   1  16  260.29   14.59
   1  -1 -16  247.93   14.87
  -1   1  15 1538.88   40.80
   1  -1 -15 1541.67   41.07
  -1   1  14 2125.25   53.90
   1  -1 -14 2053.70   52.41
  -1   1  13  640.83   21.37
   1  -1 -13  665.64   22.77
  -1   1  12   38.10    9.66
   1  -1 -12   57.80   10.41
  -1   1  11  121.55   11.15
   1  -1 -11  108.63   10.59
  -1   1  10   31.22    9.94
   1  -1 -10   34.29    9.85
  -1   1   9  227.67   12.64
   1  -1  -9  208.62   12.27
  -1   1   8 4245.86  100.08
   1  -1  -8 4362.95  102.96
  -1   1   7 1508.21   38.47
   1  -1  -7 1549.10   39.49
  -1   1   6 5588.66  130.47
   1  -1  -6 5504.10  128.33
  -1   1   5 2142.91   52.60
   1  -1  -5 2128.04   52.13
  -1   1   4 1553.75   39.87
   1  -1  -4 1499.85   38.84
  -1   1   1  997.11   25.18
   1  -1  -1 1022.20   25.65
  -1   1  -1   48.04    6.88
   1  -1   1   45.16    6.41
  -1   1  -2 5297.80  122.29
  -1   1  -4  465.75   17.10
  -1   1  -5 7281.80  168.85
  -1   1  -5 7379.37  170.80
  -1   1  -6  855.86   24.72
  -1   1  -6  838.67   24.07
  -1   1  -7 1090.97   29.37
  -1   1  -7 1083.53   29.46
  -1   1  -8 4594.34  108.07
  -1   1  -8 4721.65  111.23
  -1   1  -9   71.65    9.57
  -1   1  -9   52.97    9.94
  -1   1 -10    1.77    8.36
  -1   1 -10   27.60   10.13
  -1   1 -11  163.09   11.71
  -1   1 -11  177.96   11.99
  -1   1 -12   47.95    9.20
  -1   1 -12   43.58   10.31
  -1   1 -13  964.59   28.16
  -1   1 -13  993.40   29.18
  -1   1 -14  143.76   13.38
  -1   1 -14  155.19   13.47
  -1   1 -15 2528.56   63.00
  -1   1 -15 2597.32   64.96
  -1   1 -16  816.46   25.65
  -1   1 -16  823.06   25.93
  -1   1 -17  450.33   17.19
  -1   1 -17  442.71   18.12
  -1   1 -18   15.61   10.31
  -1   1 -18   16.91   11.89
  -1   1 -19   52.50   12.36
  -1   1 -19   85.12   12.73
  -1   1 -20    0.28   10.78
  -1   1 -20   13.01   11.71
  -1   1 -21  185.11   12.45
  -1   1 -21  154.07   12.92
  -1   1 -22  235.66   14.03
  -1   1 -22  270.51   11.99
   1   0 -22    7.16    9.01
   1   0 -22    5.67    8.27
   1   0 -21   -6.78    9.39
   1   0 -21    5.30   10.04
  -1   0  20   71.18   10.59
   1   0 -20   54.36   10.78
  -1   0  19  359.16   15.70
   1   0 -19  344.58   16.26
  -1   0  18   63.38   11.52
   1   0 -18   39.68   11.43
  -1   0  17  380.07   16.36
   1   0 -17  359.26   16.91
  -1   0  16 1862.27   47.02
   1   0 -16 1805.58   46.93
  -1   0  15 2759.95   67.56
   1   0 -15 2779.46   68.86
  -1   0  14  254.99   14.59
   1   0 -14  250.35   14.87
  -1   0  13   36.15   10.31
   1   0 -13   28.62   12.08
  -1   0  12    6.23    9.76
   1   0 -12   14.22    9.94
  -1   0  11   23.14    9.94
   1   0 -11   25.93    9.39
  -1   0  10  293.74   13.47
   1   0 -10  272.37   13.47
  -1   0   9 2427.27   59.75
   1   0  -9 2417.97   59.19
  -1   0   8 1513.79   38.94
   1   0  -8 1515.65   39.12
  -1   0   7 3165.11   75.64
   1   0  -7 3102.85   74.34
  -1   0   6 4844.31  113.46
   1   0  -6 4995.78  117.00
  -1   0   5  621.13   19.98
   1   0  -5  619.92   19.79
  -1   0   4 1505.43   38.29
   1   0  -4 1586.27   40.14
  -1   0   3   35.22    9.29
   1   0  -3   34.94    8.92
  -1   0   2 1926.39   46.09
   1   0  -2 1909.66   45.44
  -1   0   1  182.32    8.55
   1   0  -1  169.69    7.71
  -1   0   0  533.03   14.59
   1   0   0  515.19   14.12
  -1   0  -1 3262.69   75.92
  -1   0  -4  -12.64   10.59
  -1   0  -4    2.79    9.76
  -1   0  -5 1565.83   39.49
  -1   0  -5 1576.05   39.96
  -1   0  -6 2662.37   64.03
  -1   0  -6 2776.67   66.91
  -1   0  -7  469.93   16.45
  -1   0  -7  502.74   17.38
  -1   0  -8  679.11   21.00
  -1   0  -8  726.97   22.21
  -1   0  -9 3067.54   73.88
  -1   0  -9 3100.06   74.53
  -1   0 -10  305.55   13.75
  -1   0 -10  287.89   13.75
  -1   0 -11   12.08    9.66
  -1   0 -11   13.20   10.04
  -1   0 -12 1792.57   45.72
  -1   0 -12 1853.90   47.30
  -1   0 -13   94.69   12.64
  -1   0 -13   92.65   13.10
  -1   0 -14  818.97   25.09
  -1   0 -14  801.69   25.28
  -1   0 -15  155.47   13.38
  -1   0 -15  162.99   13.75
  -1   0 -16  309.45   16.08
  -1   0 -16  305.92   16.08
  -1   0 -17    7.62   11.24
  -1   0 -17   -4.55   11.34
  -1   0 -18   22.67   11.24
  -1   0 -18   33.64   12.45
  -1   0 -19   97.57   11.80
  -1   0 -19   74.53   12.27
  -1   0 -20  185.76   12.45
  -1   0 -20  189.48   13.01
  -1   0 -21   85.96   10.69
  -1   0 -21   81.96   11.15
   1   1 -22   24.16    9.01
   1   1 -22   21.84   10.13
   1   1 -21   60.22   10.78
   1   1 -21   69.88    9.76
  -1  -1  20  310.84   14.59
   1   1 -20  322.55   15.33
  -1  -1  19   90.51   11.24
   1   1 -19  122.66   12.64
  -1  -1  18  548.46   19.61
   1   1 -18  548.09   19.89
  -1  -1  17  708.94   23.42
   1   1 -17  725.76   23.60
  -1  -1  16  911.43   27.32
   1   1 -16  913.57   27.60
  -1  -1  15   30.67   11.71
   1   1 -15   35.03   11.52
  -1  -1  14    3.44   10.78
   1   1 -14    6.13   11.62
  -1  -1  13   20.26    9.94
   1   1 -13  -10.97   10.13
  -1  -1  12  512.59   17.75
   1   1 -12  481.64   17.47
  -1  -1  11 1967.28   49.07
   1   1 -11 1922.67   48.42
  -1  -1  10  146.27   10.59
   1   1 -10  139.86   10.78
  -1  -1   9 1908.73   47.67
   1   1  -9 1892.93   47.39
  -1  -1   8 3496.86   83.17
   1   1  -8 3567.49   84.84
  -1  -1   7  751.97   22.58
   1   1  -7  712.10   21.47
  -1  -1   6   28.62    9.48
   1   1  -6   21.09    9.29
  -1  -1   5  224.42   12.73
   1   1  -5  208.62   11.80
  -1  -1   4  767.30   22.49
   1   1  -4  764.70   22.12
  -1  -1   3  346.99   13.10
   1   1  -3  338.63   12.55
  -1  -1   2 1657.83   39.96
   1   1  -2 1629.95   39.22
  -1  -1   0 1464.54   35.41
   1   1   0 1525.87   36.61
  -1  -1  -2   70.81    9.76
   1   1   2   90.42    9.57
  -1  -1  -3 1067.74   28.81
  -1  -1  -3 1093.76   29.18
  -1  -1  -5   75.18    9.11
  -1  -1  -5   80.38    9.01
  -1  -1  -6   24.72    9.29
  -1  -1  -6   14.03    8.74
  -1  -1  -7  503.39   16.54
  -1  -1  -7  490.38   16.36
  -1  -1  -8   67.93    9.85
  -1  -1  -8   52.23   10.04
  -1  -1  -9  662.85   19.89
  -1  -1  -9  647.89   20.35
  -1  -1 -10 1679.20   42.47
  -1  -1 -10 1759.12   44.61
  -1  -1 -11 1643.89   41.72
  -1  -1 -11 1747.97   44.88
  -1  -1 -12  586.56   19.61
  -1  -1 -12  567.14   19.42
  -1  -1 -13    8.64   11.52
  -1  -1 -13   -1.02   11.24
  -1  -1 -14  168.66   13.10
  -1  -1 -14  137.07   13.47
  -1  -1 -15  239.66   13.94
  -1  -1 -15  233.25   14.50
  -1  -1 -16   -9.85   10.41
  -1  -1 -16  -11.34   11.34
  -1  -1 -17   80.10   12.73
  -1  -1 -17   76.85   11.52
  -1  -1 -18  189.76   13.75
  -1  -1 -18  211.87   14.12
  -1  -1 -19  130.66   12.82
  -1  -1 -19   92.00   12.17
  -1  -1 -20  104.36   11.43
  -1  -1 -20  113.28   11.43
  -1  -1 -21  187.90   12.17
   1   2 -23    7.43    9.20
   1   2 -23   19.05    8.74
   1   2 -22  109.65   11.34
   1   2 -22  119.97   10.50
   1   2 -21  349.87   15.70
  -1  -2  20   41.54   10.50
   1   2 -20   78.71   12.08
  -1  -2  19  352.10   16.36
   1   2 -19  369.76   16.63
  -1  -2  18  102.68   11.06
   1   2 -18  121.08   12.82
  -1  -2  17  159.28   12.36
   1   2 -17  163.46   13.57
  -1  -2  16    5.95   11.15
   1   2 -16   20.07   11.52
  -1  -2  15   82.52   11.99
   1   2 -15   90.42   12.55
  -1  -2  14  177.12   13.29
   1   2 -14  184.18   13.85
  -1  -2  13  409.53   16.73
   1   2 -13  405.44   16.17
  -1  -2  12 2464.44   60.96
   1   2 -12 2389.17   59.10
  -1  -2  11  654.12   20.91
   1   2 -11  666.66   20.91
  -1  -2  10 3203.21   77.13
   1   2 -10 3119.58   74.99
  -1  -2   9 1732.17   43.86
   1   2  -9 1692.21   42.75
  -1  -2   8  500.14   17.66
   1   2  -8  510.92   16.91
  -1  -2   7  312.70   13.66
   1   2  -7  292.81   12.82
  -1  -2   6   40.89    9.11
   1   2  -6   37.73    8.92
  -1  -2   5  289.19   13.10
   1   2  -5  281.38   12.27
  -1  -2   4 4388.04  102.50
   1   2  -4 4337.86  101.38
  -1  -2   3  210.20   10.22
   1   2  -3  222.28   10.41
  -1  -2   1 1656.90   39.49
   1   2  -1 1661.54   39.49
  -1  -2   0  241.70    9.39
   1   2   0  281.57   10.31
  -1  -2  -1 1624.37   39.68
   1   2   1 1557.47   38.01
  -1  -2  -2  672.05   19.61
   1   2   2  737.75   20.72
  -1  -2  -3   57.52    8.83
  -1  -2  -3   49.34    8.55
  -1  -2  -4  136.23    9.76
  -1  -2  -4  152.03    9.76
  -1  -2  -5 2249.78   54.46
  -1  -2  -5 2306.46   55.66
  -1  -2  -6  866.55   23.79
  -1  -2  -6  894.33   24.90
  -1  -2  -7 1333.51   34.38
  -1  -2  -7 1353.95   35.22
  -1  -2  -8  889.97   25.83
  -1  -2  -8  894.80   25.28
  -1  -2  -9  974.81   27.41
  -1  -2  -9 1019.41   27.79
  -1  -2 -10   -4.83    9.01
  -1  -2 -10   12.27    9.94
  -1  -2 -11 1452.46   38.56
  -1  -2 -11 1568.62   40.61
  -1  -2 -12  190.13   13.66
  -1  -2 -12  221.63   14.31
  -1  -2 -13  -11.99   11.43
  -1  -2 -13   -2.60   11.71
  -1  -2 -14   13.85   11.71
  -1  -2 -14   31.22   11.43
  -1  -2 -15   99.53   12.36
  -1  -2 -15   98.22   12.36
  -1  -2 -16  494.56   18.96
  -1  -2 -16  518.54   19.70
  -1  -2 -17  365.58   17.10
  -1  -2 -17  364.28   16.73
  -1  -2 -18  410.00   16.73
  -1  -2 -18  410.09   16.63
  -1  -2 -19  402.65   16.73
  -1  -2 -19  385.84   15.98
  -1  -2 -20   64.58   10.04
  -1  -2 -20   39.49   10.59
   1   3 -23   95.53   10.50
   1   3 -23   83.91   10.50
   1   3 -22   97.02   11.34
   1   3 -22   71.93   11.06
   1   3 -21   48.04   10.69
  -1  -3  20  516.12   18.12
   1   3 -20  480.62   18.49
  -1  -3  19  179.63   12.73
   1   3 -19  208.06   14.59
  -1  -3  18    1.49   10.69
   1   3 -18   23.32   12.27
  -1  -3  17  251.46   14.40
   1   3 -17  245.14   15.33
  -1  -3  16 1227.57   34.01
   1   3 -16 1282.40   35.96
  -1  -3  15 1156.02   32.15
   1   3 -15 1194.12   33.83
  -1  -3  14  641.57   20.54
   1   3 -14  624.47   20.63
  -1  -3  13 2692.11   65.24
   1   3 -13 2667.02   65.14
  -1  -3  12  696.12   21.37
   1   3 -12  701.42   21.84
  -1  -3  11 2125.25   51.95
   1   3 -11 2105.74   52.32
  -1  -3  10  572.53   18.49
   1   3 -10  583.58   18.96
  -1  -3   9  155.37   10.04
   1   3  -9  148.68   10.78
  -1  -3   8  228.69   11.43
   1   3  -8  201.28   11.24
  -1  -3   7   55.38    8.64
   1   3  -7   52.23    8.36
  -1  -3   6 1570.47   39.22
   1   3  -6 1625.30   40.24
  -1  -3   5 2206.10   53.34
   1   3  -5 2176.36   52.32
  -1  -3   4  213.08    9.85
   1   3  -4  229.44   10.04
  -1  -3   1  331.66   10.31
   1   3  -1  316.14    9.85
  -1  -3   0   11.34    5.30
   1   3   0   15.80    5.76
  -1  -3  -1   -1.12    5.39
   1   3   1    2.69    5.85
  -1  -3  -2    6.69    6.97
  -1  -3  -2   -0.93    6.78
  -1  -3  -3 1544.46   37.91
  -1  -3  -3 1595.57   39.22
  -1  -3  -4 7306.89  168.57
  -1  -3  -4 7359.86  170.06
  -1  -3  -5 4550.66  106.77
  -1  -3  -5 4526.50  106.03
  -1  -3  -6 1167.17   30.48
  -1  -3  -6 1210.85   31.69
  -1  -3  -7  221.26   11.99
  -1  -3  -7  218.94   11.34
  -1  -3  -8 1165.31   30.76
  -1  -3  -8 1206.20   32.43
  -1  -3  -9   72.58    9.20
  -1  -3  -9   80.94    9.66
  -1  -3 -10 1312.14   33.92
  -1  -3 -10 1316.78   34.94
  -1  -3 -11  180.65   12.82
  -1  -3 -11  198.21   12.64
  -1  -3 -12  240.87   14.31
  -1  -3 -12  213.27   13.20
  -1  -3 -13  589.16   20.44
  -1  -3 -13  591.11   19.51
  -1  -3 -14  105.01   11.15
  -1  -3 -14  110.40   12.17
  -1  -3 -15  613.23   20.44
  -1  -3 -15  642.32   21.28
  -1  -3 -16  604.31   20.82
  -1  -3 -16  594.46   20.17
  -1  -3 -17   95.81   12.92
  -1  -3 -17  106.49   12.73
  -1  -3 -18  218.01   12.45
  -1  -3 -18  262.06   14.31
  -1  -3 -19    4.37   10.13
  -1  -3 -19   -7.06   10.59
   1   4 -23    8.46    9.76
   1   4 -23   10.04    8.83
   1   4 -22  133.63   11.80
   1   4 -22  145.90   11.62
   1   4 -21   91.44   12.36
  -1  -4  20   14.87   10.78
   1   4 -20   15.52   10.87
  -1  -4  19  445.68   17.38
   1   4 -19  453.58   18.40
  -1  -4  18    1.77   10.04
   1   4 -18   10.41   11.99
  -1  -4  17    7.90   10.04
   1   4 -17    7.99   12.08
  -1  -4  16  465.01   17.66
   1   4 -16  455.62   18.40
  -1  -4  15  526.71   19.33
   1   4 -15  509.43   19.79
  -1  -4  14  280.27   13.94
   1   4 -14  227.21   12.92
  -1  -4  13  691.19   21.75
   1   4 -13  681.81   21.56
  -1  -4  12  553.76   18.86
   1   4 -12  535.54   18.21
  -1  -4  11   53.90   10.04
   1   4 -11   55.20    9.39
  -1  -4  10   26.48    9.29
   1   4 -10   30.67    9.01
  -1  -4   9  817.48   23.32
   1   4  -9  855.68   24.07
  -1  -4   8 2222.83   54.36
   1   4  -8 2190.30   53.15
  -1  -4   7 5412.10  125.55
   1   4  -7 5575.65  129.36
  -1  -4   6 1373.47   34.20
   1   4  -6 1346.52   33.55
  -1  -4   2  207.88    6.78
   1   4  -2  212.25    7.16
  -1  -4   1  888.67   21.65
   1   4  -1  930.20   22.77
  -1  -4   0   -2.32    4.55
   1   4   0    2.69    4.55
  -1  -4  -1 2136.40   50.55
  -1  -4  -1 2126.18   50.37
  -1  -4  -2 3461.55   81.31
  -1  -4  -2 3238.52   75.92
  -1  -4  -3 2872.39   67.93
  -1  -4  -3 2859.38   67.47
  -1  -4  -4  663.13   19.51
  -1  -4  -4  679.49   19.33
  -1  -4  -5  511.29   15.89
  -1  -4  -5  496.88   16.08
  -1  -4  -6  702.53   19.89
  -1  -4  -6  706.53   20.82
  -1  -4  -7 1402.28   35.68
  -1  -4  -7 1519.36   38.75
  -1  -4  -8   19.79    8.18
  -1  -4  -8    9.48    8.64
  -1  -4  -9   17.01    9.11
  -1  -4  -9   16.82    9.11
  -1  -4 -10  192.92   13.10
  -1  -4 -10  208.34   13.29
  -1  -4 -11  245.33   14.40
  -1  -4 -11  242.35   13.10
  -1  -4 -12 1236.87   34.57
  -1  -4 -12 1223.86   33.36
  -1  -4 -13 1199.69   33.73
  -1  -4 -13 1172.75   32.90
  -1  -4 -14 1387.41   36.61
  -1  -4 -14 1369.75   36.71
  -1  -4 -15  608.12   20.26
  -1  -4 -15  595.20   20.26
  -1  -4 -16   79.27   11.06
  -1  -4 -16   73.88   11.52
  -1  -4 -17  192.08   12.27
  -1  -4 -17  186.78   11.99
  -1  -4 -18   -7.06    8.92
  -1  -4 -18    5.76    9.20
   1   5 -23   29.09   10.22
   1   5 -23   52.97    9.94
   1   5 -22   14.31   10.50
   1   5 -22   28.71    9.94
   1   5 -21   63.84   11.43
  -1  -5  20  397.36   16.17
   1   5 -20  387.88   16.73
  -1  -5  19  199.89   13.85
   1   5 -19  192.36   13.66
  -1  -5  18  392.71   17.38
   1   5 -18  388.90   17.19
  -1  -5  17  538.98   19.42
   1   5 -17  620.66   21.65
  -1  -5  16  207.41   13.47
   1   5 -16  232.41   14.50
  -1  -5  15   15.24   10.22
   1   5 -15   31.50   11.80
  -1  -5  14  315.12   14.40
   1   5 -14  325.34   14.50
  -1  -5  13   97.57    9.94
   1   5 -13  110.68   10.69
  -1  -5  12  375.52   13.94
   1   5 -12  344.67   14.31
  -1  -5  11  334.35   13.66
   1   5 -11  302.57   13.38
  -1  -5  10  114.95    9.01
   1   5 -10  107.52    9.20
  -1  -5   9  204.91   10.87
   1   5  -9  194.50   10.41
  -1  -5   8 1098.40   28.90
   1   5  -8 1120.71   29.09
  -1  -5   7  520.39   15.98
   1   5  -7  500.04   15.24
  -1  -5   6 9289.03  213.64
   1   5  -6 9283.46  213.18
  -1  -5   5 2120.61   50.46
   1   5  -5 2106.67   49.81
  -1  -5   4  327.01    9.85
   1   5  -4  303.59    9.20
  -1  -5   3  602.45   15.24
   1   5  -3  584.42   14.68
  -1  -5   2  257.32    7.53
   1   5  -2  275.72    7.81
  -1  -5   1  152.49    5.58
  -1  -5   1  160.67    5.67
  -1  -5   0  265.59    8.27
  -1  -5   0  255.92    8.27
  -1  -5  -1  599.20   16.26
  -1  -5  -1  575.13   15.61
  -1  -5  -2  451.26   13.29
  -1  -5  -2  456.55   13.85
  -1  -5  -3  337.51   11.34
  -1  -5  -3  349.22   11.80
  -1  -5  -4  685.62   19.24
  -1  -5  -4  702.72   19.98
  -1  -5  -5   38.01    7.53
  -1  -5  -5   38.47    7.62
  -1  -5  -6   31.87    8.36
  -1  -5  -6   33.08    7.90
  -1  -5  -7   34.38    8.64
  -1  -5  -7   14.12    8.55
  -1  -5  -8   37.73    9.11
  -1  -5  -8   29.55    9.48
  -1  -5  -9  385.65   15.80
  -1  -5  -9  369.85   15.05
  -1  -5 -10  935.78   27.13
  -1  -5 -10  895.08   26.11
  -1  -5 -11 1921.74   48.14
  -1  -5 -11 1954.27   49.53
  -1  -5 -12 1257.31   33.92
  -1  -5 -12 1272.18   34.66
  -1  -5 -13  515.19   18.68
  -1  -5 -13  488.15   18.03
  -1  -5 -14  472.44   18.12
  -1  -5 -14  426.44   16.63
  -1  -5 -15  205.65   13.38
  -1  -5 -15  217.82   13.57
  -1  -5 -16   20.07   10.41
  -1  -5 -16   -2.60   10.13
  -1  -5 -17   53.06    9.66
  -1  -5 -17   51.76   10.59
  -1  -5 -18  260.10   13.01
  -1  -5 -18  257.78   13.38
   1   6 -23   40.05   10.22
   1   6 -23   20.63    9.66
   1   6 -22  105.10   11.99
   1   6 -22  117.09   11.06
   1   6 -21  349.59   15.98
   1   6 -21  370.13   15.24
  -1  -6  20  540.93   18.12
   1   6 -20  539.35   19.89
  -1  -6  19  353.96   14.78
   1   6 -19  325.90   15.70
  -1  -6  18   86.14   11.34
   1   6 -18  140.32   13.38
  -1  -6  17  502.74   18.96
   1   6 -17  501.07   19.33
  -1  -6  16    5.11   10.87
   1   6 -16   15.89   11.52
  -1  -6  15  145.90   12.73
   1   6 -15  125.92   13.10
  -1  -6  14  244.59   12.45
   1   6 -14  246.54   13.94
  -1  -6  13  281.48   13.01
   1   6 -13  239.66   12.36
  -1  -6  12  101.48    9.39
   1   6 -12   79.64    9.66
  -1  -6  11  522.25   16.82
   1   6 -11  520.12   16.91
  -1  -6  10 1083.53   28.25
   1   6 -10 1118.85   29.46
  -1  -6   9 2068.57   50.00
   1   6  -9 2122.46   51.57
  -1  -6   8   11.99    6.60
   1   6  -8   14.31    6.41
  -1  -6   7 3920.61   91.16
   1   6  -7 3929.90   91.63
  -1  -6   6  279.71    9.66
   1   6  -6  270.60    9.39
  -1  -6   5  474.95   12.92
   1   6  -5  496.88   13.47
  -1  -6   4   62.08    3.90
   1   6  -4   61.15    4.00
  -1  -6   3 2373.37   59.19
   1   6  -3 2599.18   64.12
  -1  -6   1 4966.98  116.90
  -1  -6   1 4793.20  112.81
  -1  -6   0 3420.66   79.45
  -1  -6   0 3420.66   79.73
  -1  -6  -1 3000.63   70.16
  -1  -6  -1 2877.97   67.19
  -1  -6  -3   55.85    7.34
  -1  -6  -3   51.95    6.50
  -1  -6  -4   10.97    6.60
  -1  -6  -4   -1.95    7.06
  -1  -6  -5  185.95    9.48
  -1  -6  -5  177.31    9.94
  -1  -6  -6  662.94   19.42
  -1  -6  -6  661.09   19.70
  -1  -6  -7    1.86    8.18
  -1  -6  -7   13.10    8.64
  -1  -6  -8    9.76    9.11
  -1  -6  -8   14.96    9.66
  -1  -6  -9   46.09   10.50
  -1  -6  -9   46.56   11.06
  -1  -6 -10  202.12   12.73
  -1  -6 -10  194.50   13.38
  -1  -6 -11  542.79   18.96
  -1  -6 -11  544.37   19.14
  -1  -6 -12  160.21   10.97
  -1  -6 -12  169.22   11.89
  -1  -6 -13   44.61   10.41
  -1  -6 -13   70.81   10.41
  -1  -6 -14   38.01   11.06
  -1  -6 -14   39.77    9.66
  -1  -6 -15  189.85   12.36
  -1  -6 -15  185.95   11.99
  -1  -6 -16   94.23   10.87
  -1  -6 -16   80.94    9.85
  -1  -6 -17  451.44   15.52
  -1  -6 -17  459.43   15.80
   1   7 -23  240.03   12.27
   1   7 -23  221.63   12.36
   1   7 -22  130.28   11.15
   1   7 -22  134.28   11.89
   1   7 -21  155.65   12.17
   1   7 -21  150.54   12.73
   1   7 -20   88.28   12.08
   1   7 -20   84.19   11.71
  -1  -7  19  117.27   11.62
   1   7 -19  105.29   12.92
  -1  -7  18  235.29   14.31
   1   7 -18  195.61   13.66
  -1  -7  17   -5.95   11.24
   1   7 -17    5.11   11.52
  -1  -7  16   19.79   11.99
   1   7 -16   20.91   11.15
  -1  -7  15  187.53   13.94
   1   7 -15  187.53   13.66
  -1  -7  14  217.54   13.10
   1   7 -14  190.87   13.29
  -1  -7  13 1162.52   31.69
   1   7 -13 1236.87   33.64
  -1  -7  12 1407.85   36.33
   1   7 -12 1443.16   37.17
  -1  -7  11  786.07   23.05
   1   7 -11  837.28   23.51
  -1  -7  10  213.36   10.41
   1   7 -10  179.54    9.57
  -1  -7   9  329.80   12.45
   1   7  -9  311.59   11.15
  -1  -7   8 2306.46   55.20
   1   7  -8 2481.16   58.92
  -1  -7   7  270.51    9.57
   1   7  -7  280.83    9.85
  -1  -7   6 1546.31   36.99
   1   7  -6 1557.47   37.26
  -1  -7   5  321.99    8.64
   1   7  -5  325.25    9.11
  -1  -7   0  715.08   17.84
  -1  -7   0  732.83   18.49
  -1  -7  -1   10.69    5.11
  -1  -7  -1    4.46    4.74
  -1  -7  -2  262.80    9.11
  -1  -7  -2  262.80   10.04
  -1  -7  -3   37.17    6.41
  -1  -7  -3   26.86    6.69
  -1  -7  -4  447.35   13.75
  -1  -7  -4  408.79   13.20
  -1  -7  -5  863.95   23.42
  -1  -7  -5  912.18   24.72
  -1  -7  -6 3058.24   73.32
  -1  -7  -6 2980.19   71.37
  -1  -7  -7 1026.85   29.09
  -1  -7  -7 1116.99   30.67
  -1  -7  -8 1636.45   42.00
  -1  -7  -8 1708.01   43.68
  -1  -7  -9 1076.10   29.09
  -1  -7  -9 1094.69   30.48
  -1  -7 -10  670.56   20.26
  -1  -7 -10  614.90   19.70
  -1  -7 -11   20.44   10.69
  -1  -7 -11   26.21    9.76
  -1  -7 -12    4.00    9.76
  -1  -7 -12   -9.39    9.66
  -1  -7 -13   54.46   11.24
  -1  -7 -13   37.91    9.94
  -1  -7 -14  153.61   12.08
  -1  -7 -14  149.89   11.71
  -1  -7 -15   66.44   10.78
  -1  -7 -15   88.00   10.69
  -1  -7 -16  454.97   15.61
  -1  -7 -16  447.35   15.89
   1   8 -23  145.34   11.71
   1   8 -23  160.39   10.87
   1   8 -22  218.94   14.22
   1   8 -22  218.94   12.55
   1   8 -21  147.10   12.73
   1   8 -21  165.88   12.64
   1   8 -20   10.13   11.24
   1   8 -20   11.52   10.22
   1   8 -19    8.55   10.97
   1   8 -19    4.09    9.94
  -1  -8  18   -3.16    9.66
   1   8 -18  -12.27   10.69
  -1  -8  17   53.90   10.50
   1   8 -17   50.46   11.43
  -1  -8  16  947.86   27.13
   1   8 -16  909.20   27.51
  -1  -8  15 1963.56   49.44
   1   8 -15 1970.99   50.37
  -1  -8  14 1839.04   46.00
   1   8 -14 1855.76   47.30
  -1  -8  13 1189.47   31.41
   1   8 -13 1226.64   33.08
  -1  -8  12  104.92    8.55
   1   8 -12  112.44   10.22
  -1  -8  11  235.85   10.78
   1   8 -11  235.01   10.50
  -1  -8  10 2612.19   61.89
   1   8 -10 2756.23   65.61
  -1  -8   9  134.28    7.71
   1   8  -9  126.01    7.53
  -1  -8   8 1690.35   40.80
   1   8  -8 1655.97   40.05
  -1  -8   7 3396.50   79.45
   1   8  -7 3385.35   79.08
   1   8  -6  331.29    9.11
   1   8  -6  325.43    9.01
  -1  -8   0   63.93    3.81
  -1  -8   0   59.10    3.62
  -1  -8  -1  169.78    6.69
  -1  -8  -1  176.10    6.32
  -1  -8  -2  147.75    7.16
  -1  -8  -2  131.03    6.60
  -1  -8  -3  827.24   22.12
  -1  -8  -3  823.99   21.65
  -1  -8  -4  532.85   16.17
  -1  -8  -4  542.51   16.91
  -1  -8  -5  644.45   19.51
  -1  -8  -5  696.58   20.26
  -1  -8  -6  112.63    9.85
  -1  -8  -6  113.84    9.85
  -1  -8  -7 1011.98   27.41
  -1  -8  -7 1020.34   28.06
  -1  -8  -9   84.75   10.31
  -1  -8  -9   83.36    9.94
  -1  -8 -10    3.90   10.50
  -1  -8 -10   10.87    9.01
  -1  -8 -11    2.51   10.41
  -1  -8 -11    2.69    9.39
  -1  -8 -12    5.39    9.39
  -1  -8 -12   14.03   10.69
  -1  -8 -13  490.19   17.84
  -1  -8 -13  502.55   17.56
  -1  -8 -14  681.81   21.19
  -1  -8 -14  613.60   19.33
  -1  -8 -15  486.94   17.94
  -1  -8 -15  507.85   16.91
   1   9 -22   -0.19   10.31
   1   9 -22   -6.41    9.48
   1   9 -21   -2.88    9.66
   1   9 -21  -19.61   11.15
   1   9 -20   57.24   11.62
   1   9 -20   84.56   11.62
   1   9 -19   -2.23   10.50
   1   9 -19   17.28   10.04
   1   9 -18   63.19   11.15
   1   9 -18   81.78   11.06
   1   9 -17  109.56   11.06
   1   9 -17   94.32   11.34
   1   9 -16  220.61   13.10
  -1  -9  15  803.92   24.35
   1   9 -15  772.23   23.70
  -1  -9  14  455.16   16.82
   1   9 -14  472.63   17.56
  -1  -9  13  761.54   23.42
   1   9 -13  833.28   24.44
  -1  -9  12   19.24    8.83
   1   9 -12   35.41    8.74
  -1  -9  11  562.30   17.38
   1   9 -11  615.46   18.49
   1   9 -10  783.29   20.91
   1   9  -9 1488.70   36.33
   1   9  -9 1474.76   36.06
   1   9  -8 1867.84   44.61
   1   9  -8 1790.71   42.75
   1   9  -7 2477.45   58.64
   1   9  -7 2421.69   57.34
  -1  -9  -1 1415.29   34.10
  -1  -9  -1 1463.61   35.31
  -1  -9  -2  473.37   13.57
  -1  -9  -2  476.35   13.75
  -1  -9  -3  649.19   17.94
  -1  -9  -3  624.10   17.38
  -1  -9  -4  622.99   18.40
  -1  -9  -4  639.25   18.12
  -1  -9  -5  432.95   14.78
  -1  -9  -5  405.07   14.03
  -1  -9  -6  297.46   13.01
  -1  -9  -6  275.34   12.55
  -1  -9  -7   15.61    8.64
  -1  -9  -7   10.31    8.55
  -1  -9  -8  115.79   11.06
  -1  -9  -8  114.67    9.94
  -1  -9  -9   98.97   10.41
  -1  -9  -9   99.15    9.94
  -1  -9 -10   83.17   11.15
  -1  -9 -10   58.36    9.85
  -1  -9 -11  275.62   14.12
  -1  -9 -11  293.65   13.85
  -1  -9 -12  151.01   11.80
  -1  -9 -12  136.98   10.78
  -1  -9 -13  168.85   12.64
  -1  -9 -13  164.95   10.69
   1  10 -23   30.67   11.06
   1  10 -23   23.79    9.20
   1  10 -22   -1.02   10.97
   1  10 -22  -10.97    9.11
   1  10 -21  110.49   12.08
   1  10 -21  134.00   10.87
   1  10 -20  132.14   13.20
   1  10 -20  128.98   11.80
   1  10 -19  296.44   14.87
   1  10 -19  305.64   14.68
   1  10 -18  130.19   11.89
   1  10 -18  110.30   11.62
   1  10 -17  282.13   14.50
   1  10 -17  273.11   13.75
   1  10 -16  373.57   15.89
   1  10 -16  385.09   15.98
   1  10 -15  446.24   16.73
   1  10 -15  407.58   15.98
   1  10 -14   26.48    9.57
   1  10 -14   23.98    9.20
   1  10 -13  130.19   10.50
   1  10 -13  109.00    9.94
   1  10 -12  153.24    9.66
   1  10 -12  174.61   10.13
   1  10 -11 1185.76   30.39
   1  10 -11 1165.31   29.83
   1  10 -10   73.78    6.69
   1  10 -10   85.12    6.60
   1  10  -9  172.19    7.43
   1  10  -9  173.77    7.16
   1  10  -8  107.89    4.74
   1  10  -8  113.46    4.83
  -1 -10  -3  730.97   19.79
  -1 -10  -3  773.62   21.37
  -1 -10  -5    1.58    7.81
  -1 -10  -5   13.85    7.06
  -1 -10  -6  117.93    9.57
  -1 -10  -6  151.84    9.29
  -1 -10  -7   69.97    8.46
  -1 -10  -7   73.78    9.76
  -1 -10  -8   83.91   10.31
  -1 -10  -8   68.30    9.01
  -1 -10  -9  339.37   15.15
  -1 -10  -9  359.72   14.03
  -1 -10 -10  639.16   21.19
  -1 -10 -10  616.57   19.14
  -1 -10 -11  141.34   13.20
  -1 -10 -11  146.55   10.22
  -1 -10 -12  234.64   13.20
  -1 -10 -12  232.78   10.97
   1  11 -23   21.00   11.06
   1  11 -23   30.29   13.10
   1  11 -22   85.49   10.41
   1  11 -22   77.32   12.08
   1  11 -21   25.28   11.24
   1  11 -21   22.30    9.48
   1  11 -20  136.51   11.34
   1  11 -20  158.63   12.92
   1  11 -19   97.02   11.89
   1  11 -19  117.00   11.15
   1  11 -18  136.88   11.99
   1  11 -18  128.33   10.97
   1  11 -17   25.74   10.04
   1  11 -17   45.16    9.85
   1  11 -16   37.36   10.31
   1  11 -16   19.61    9.20
   1  11 -15  -20.35    8.92
   1  11 -15   -4.83    8.83
   1  11 -14   10.69    8.27
   1  11 -14   10.22    8.64
   1  11 -13  390.20   14.03
   1  11 -13  381.19   14.22
   1  11 -12 2233.05   53.90
   1  11 -12 2270.22   55.11
   1  11 -11 2496.96   59.57
   1  11 -11 2480.24   59.01
   1  11 -10 1700.57   40.89
   1  11 -10 1708.01   41.07
  -1 -11  -2   18.49    4.09
  -1 -11  -4   -3.35    6.97
  -1 -11  -4   12.82    5.85
  -1 -11 -11  151.75   13.38
  -1 -11 -11  173.77   10.13
   1  12 -22    8.83   10.97
   1  12 -22   45.16   11.06
   1  12 -20  182.97   12.92
   1  12 -20  180.56   12.17
   1  12 -19   38.19    9.85
   1  12 -19    5.85   10.69
   1  12 -18   70.07   10.31
   1  12 -18   54.92   10.59
   1  12 -17    0.84    9.39
   1  12 -17   17.01    9.39
   1  12 -16   -4.09    9.66
   1  12 -16    8.64    8.83
   1  12 -15   -3.07    9.39
   1  12 -15   18.12    8.83
   1  12 -14  927.97   25.37
   1  12 -14  933.92   25.56
   1  12 -13  584.89   17.28
   1  12 -13  588.05   17.10
   1  12 -12  334.91   11.43
   1  12 -12  319.58   11.06
   1  12 -11  131.59    6.50
   1  12 -11  128.43    6.04
  -1 -12  -4    3.72    7.25
   1  13 -21   17.56   11.06
   1  13 -21   -9.85   10.87
   1  13 -20   16.26   10.13
   1  13 -20    9.66   11.43
   1  13 -19   40.42   11.06
   1  13 -19   38.38    9.94
   1  13 -18   22.40   11.43
   1  13 -18   18.86    9.29
   1  13 -17  207.41   12.45
   1  13 -17  202.40   11.71
   1  13 -16  100.73   10.31
   1  13 -16   82.15    9.85
   1  13 -15  910.97   24.72
   1  13 -15  921.84   25.09
   1  13 -14    9.01    6.50
   1  13 -14   16.17    6.50
   1  13 -13   46.74    6.13
   1  13 -13   55.48    5.67
   1  13 -12   48.14    4.55
   1  13 -12   38.66    4.37
  -1 -13  -7   16.63    7.99
  -1 -13  -7    7.25   11.99
   1  14 -20   97.02   12.92
   1  14 -20  128.05   14.50
   1  14 -19  305.82   13.94
   1  14 -19  342.25   16.17
   1  14 -18  234.64   13.57
   1  14 -18  260.01   12.92
   1  14 -17   42.84    8.92
   1  14 -17   24.53    9.29
   1  14 -16  617.69   18.68
   1  14 -16  566.86   16.91
   1  14 -14  170.99    6.78
   1  14 -14  187.25    7.90
   1  15 -19   49.34   11.89
   1  15 -19   43.68    9.85
   1  15 -18  125.92   11.62
   1  15 -18  111.51    9.11
   1  15 -16    2.23    6.88
   1  15 -16    4.55    6.13
   1  16 -18   -2.69    8.92
   1  16 -18    0.46    7.34
  -2  17 -15  217.36    8.92
  -2  17 -15  224.33   10.31
  -2  17 -16   18.21    7.81
  -2  17 -16    7.43    8.74
  -2  17 -17   45.07    9.11
  -2  17 -17   34.66   10.04
  -2  16 -13    0.74    4.37
  -2  16 -13    2.51    6.04
  -2  16 -14   -2.32    5.39
  -2  16 -14   15.24    7.43
  -2  16 -15   51.57    7.90
  -2  16 -15   51.11    9.29
  -2  16 -16   36.89    7.90
  -2  16 -16   32.43   10.31
  -2  16 -17   10.50   11.06
  -2  16 -17   14.87    8.18
  -2  16 -18  176.10   11.99
  -2  16 -18  172.01   13.20
   2 -15  -6   23.23    9.48
   2 -15  -6  -11.06   10.04
  -2  15 -11   45.91    4.74
  -2  15 -11   41.63    5.85
  -2  15 -12   24.25    5.58
  -2  15 -12   28.06    6.69
  -2  15 -13   51.76    6.32
  -2  15 -13   37.45    7.53
  -2  15 -14    4.93    6.88
  -2  15 -14   -0.56    8.83
  -2  15 -15  218.47   10.22
  -2  15 -15  212.80   12.45
  -2  15 -16  289.84   12.55
  -2  15 -16  326.36   15.15
  -2  15 -17  103.89    9.39
  -2  15 -17   79.92   11.52
  -2  15 -18   82.89   10.78
  -2  15 -18   59.66   12.17
  -2  15 -19   45.63   10.41
  -2  15 -19   35.59   13.75
  -2  15 -20   -6.23   18.49
  -2  15 -20   12.55   11.62
   2 -14  -7   77.78    8.55
   2 -14  -7   92.46   12.45
   2 -14  -2    7.62    4.83
  -2  14 -10    8.92    4.83
  -2  14 -10   10.41    5.85
  -2  14 -11   -2.51    5.58
  -2  14 -11    1.12    6.50
  -2  14 -12  207.79    9.11
  -2  14 -12  213.64   10.22
  -2  14 -13  507.76   15.61
  -2  14 -13  527.08   17.10
  -2  14 -14  764.14   21.84
  -2  14 -14  766.65   22.49
  -2  14 -15   85.68    9.11
  -2  14 -15   75.64   10.50
  -2  14 -16   14.31   10.78
  -2  14 -16   21.09    8.74
  -2  14 -17  161.97   13.10
  -2  14 -17  151.56   11.24
  -2  14 -18  313.54   16.08
  -2  14 -18  294.21   13.85
  -2  14 -19   -6.32    9.94
  -2  14 -19   -7.99   12.27
  -2  14 -20    5.76   12.27
  -2  14 -20   14.59   10.78
  -2  14 -21   -6.88   10.78
  -2  14 -21   32.15   11.24
   2 -13 -10   24.25    8.74
   2 -13 -10   34.01   10.31
   2 -13  -9   53.34    8.55
   2 -13  -9   78.43   11.52
   2 -13  -7  342.07   13.10
   2 -13  -7  394.48   16.17
  -2  13   5  256.94   11.34
   2 -13  -5  273.30   11.06
  -2  13   4   55.38    6.88
   2 -13  -4   69.97    7.81
  -2  13   3  363.53   11.80
   2 -13  -3  370.22   12.27
  -2  13   2   10.13    5.58
   2 -13  -2    1.02    5.95
  -2  13   1   19.98    4.93
  -2  13   0   99.34    5.11
  -2  13  -7  222.38    7.34
  -2  13  -7  203.60    7.25
  -2  13  -8   30.20    4.83
  -2  13  -8   29.55    5.20
  -2  13  -9    1.95    5.67
  -2  13  -9   -4.09    5.58
  -2  13 -10   21.00    6.04
  -2  13 -10   11.15    6.60
  -2  13 -11 1318.64   33.36
  -2  13 -11 1315.85   33.64
  -2  13 -12 1751.68   43.58
  -2  13 -12 1686.63   42.28
  -2  13 -13  536.19   17.28
  -2  13 -13  564.91   18.31
  -2  13 -14  541.40   17.66
  -2  13 -14  557.94   18.77
  -2  13 -15  234.83   12.08
  -2  13 -15  206.11   12.82
  -2  13 -16  129.82   10.31
  -2  13 -16  134.93   11.71
  -2  13 -17   16.63    9.29
  -2  13 -17   34.48   10.50
  -2  13 -18   83.91   11.06
  -2  13 -18   88.47   12.17
  -2  13 -19   -0.46    9.76
  -2  13 -19    2.32   11.15
  -2  13 -20   48.42   13.01
  -2  13 -20   40.33   10.41
  -2  13 -21   77.50   10.50
  -2  13 -21   69.14   11.99
   2 -12 -11  131.21    9.48
   2 -12 -11  124.24   11.06
  -2  12   9  594.64   19.24
   2 -12  -9  574.11   18.49
  -2  12   8  395.22   14.50
   2 -12  -8  410.09   14.78
  -2  12   7  181.12   10.50
   2 -12  -7  159.84    9.94
  -2  12   6   50.46    7.81
   2 -12  -6   62.73    7.99
  -2  12   5    1.67    6.88
   2 -12  -5   -0.65    6.78
  -2  12   4   57.24    7.16
   2 -12  -4   51.48    7.25
  -2  12   3  161.23    8.92
   2 -12  -3  176.84    8.92
  -2  12   2  179.26    8.55
   2 -12  -2  173.31    8.55
  -2  12   1  501.34   14.40
   2 -12  -1  509.34   14.96
  -2  12   0   57.71    5.58
   2 -12   0   66.72    5.48
  -2  12  -1  341.42   10.13
   2 -12   1  332.87   10.04
  -2  12  -2  871.29   21.65
   2 -12   2  951.58   23.79
  -2  12  -3  480.62   12.73
   2 -12   3  483.13   12.92
  -2  12  -4  470.03   12.55
  -2  12  -4  502.83   13.47
  -2  12  -5  377.66   10.59
  -2  12  -5  353.22   10.04
  -2  12  -6  439.27   12.27
  -2  12  -6  413.43   11.89
  -2  12  -7   81.59    5.67
  -2  12  -7   73.97    6.32
  -2  12  -8  610.44   16.73
  -2  12  -8  597.71   17.01
  -2  12  -9  566.49   16.08
  -2  12  -9  558.12   16.82
  -2  12 -10  267.72   10.59
  -2  12 -10  274.14   11.99
  -2  12 -11  318.65   12.45
  -2  12 -11  308.05   13.29
  -2  12 -12  341.60   13.94
  -2  12 -12  381.93   15.05
  -2  12 -13  590.65   18.96
  -2  12 -13  576.52   18.77
  -2  12 -14  394.29   15.43
  -2  12 -14  401.73   16.17
  -2  12 -15    9.57    9.29
  -2  12 -15   -5.20    9.76
  -2  12 -16   19.33    9.57
  -2  12 -16   42.37   10.04
  -2  12 -17   20.63    9.94
  -2  12 -17   12.64   10.97
  -2  12 -18   24.35    9.76
  -2  12 -18   27.23   10.87
  -2  12 -19  382.12   15.43
  -2  12 -19  410.83   17.10
  -2  12 -20  162.44   14.03
  -2  12 -20  167.46   11.89
  -2  12 -21   91.72   10.59
  -2  12 -21  102.96   12.92
  -2  12 -22   74.43    9.94
  -2  12 -22   91.81   14.31
   2 -11 -13  131.59   11.34
   2 -11 -13  131.40   10.13
  -2  11  11  405.81   15.05
   2 -11 -11  393.83   15.43
  -2  11  10  566.67   18.12
   2 -11 -10  583.03   18.31
  -2  11   9  562.30   17.75
   2 -11  -9  592.88   19.05
  -2  11   8  257.97   11.52
   2 -11  -8  257.13   12.82
  -2  11   7  322.55   13.10
   2 -11  -7  341.79   13.57
  -2  11   6   16.82    7.81
   2 -11  -6   23.88    7.90
  -2  11   5  189.20   10.31
   2 -11  -5  201.75   10.59
  -2  11   4  155.10    9.57
   2 -11  -4  153.05    9.01
  -2  11   3  650.21   18.49
   2 -11  -3  665.83   19.24
  -2  11   2  754.57   20.35
   2 -11  -2  726.51   20.07
  -2  11   1 1001.76   25.56
   2 -11  -1 1014.77   25.93
  -2  11   0 1724.73   41.63
   2 -11   0 1776.77   42.93
  -2  11  -1  356.66   10.87
   2 -11   1  340.67   10.69
  -2  11  -2    8.83    4.93
   2 -11   2   13.66    4.46
  -2  11  -3  260.38    8.27
   2 -11   3  261.59    8.64
  -2  11  -4  360.65   10.31
   2 -11   4  369.76   10.97
  -2  11  -5   90.98    5.48
   2 -11   5  102.22    6.23
  -2  11  -6  645.38   17.38
  -2  11  -6  633.86   17.01
  -2  11  -7  745.28   19.70
  -2  11  -7  676.42   18.40
  -2  11  -8 1011.05   25.93
  -2  11  -8 1064.02   27.32
  -2  11  -9  846.76   22.77
  -2  11  -9  825.57   22.49
  -2  11 -10 1950.55   47.76
  -2  11 -10 1966.35   48.42
  -2  11 -11  444.66   15.70
  -2  11 -11  449.68   15.98
  -2  11 -12  167.83   11.52
  -2  11 -12  183.07   11.34
  -2  11 -13    0.37    9.39
  -2  11 -13    7.34    9.48
  -2  11 -14   52.78   10.13
  -2  11 -14   69.42   10.69
  -2  11 -15  185.20   12.45
  -2  11 -15  208.25   12.73
  -2  11 -16  147.20   11.62
  -2  11 -16  155.10   12.45
  -2  11 -17  464.64   17.47
  -2  11 -17  486.38   17.94
  -2  11 -18  374.31   15.52
  -2  11 -18  352.75   15.43
  -2  11 -19   90.33   10.31
  -2  11 -19   93.49   11.99
  -2  11 -20  156.68   12.27
  -2  11 -20  154.35   13.29
  -2  11 -21  400.98   16.54
  -2  11 -21  457.39   18.31
  -2  11 -22   95.25   10.50
  -2  11 -22  106.59   12.55
   2 -10 -14  394.66   14.78
   2 -10 -14  409.90   14.68
  -2  10  13  363.90   14.31
   2 -10 -13  374.96   15.05
  -2  10  12  579.96   18.77
   2 -10 -12  604.21   19.42
  -2  10  11  573.73   18.68
   2 -10 -11  492.52   17.28
  -2  10  10  298.58   12.92
   2 -10 -10  318.09   13.85
  -2  10   9    0.00    8.64
   2 -10  -9   10.50    8.64
  -2  10   8    0.28    8.18
   2 -10  -8   13.10    9.11
  -2  10   7   11.89    8.55
   2 -10  -7   -7.99    8.27
  -2  10   6  420.40   15.05
   2 -10  -6  411.58   15.15
  -2  10   5  442.99   15.15
   2 -10  -5  458.50   15.70
  -2  10   4 1349.31   34.57
   2 -10  -4 1290.76   33.08
  -2  10   3 1295.41   32.99
   2 -10  -3 1312.14   33.18
  -2  10   2  674.84   18.86
   2 -10  -2  636.74   17.94
  -2  10   1  604.96   16.73
   2 -10  -1  631.07   17.47
  -2  10   0 1177.39   29.27
   2 -10   0 1107.70   27.41
  -2  10  -1  107.61    6.60
   2 -10   1  103.24    5.85
  -2  10  -2   44.14    5.30
   2 -10   2   36.89    4.65
  -2  10  -3  122.39    6.13
   2 -10   3  108.35    5.67
  -2  10  -4 1299.13   31.78
   2 -10   4 1305.63   31.69
  -2  10  -5  325.99   10.69
   2 -10   5  311.96   10.22
  -2  10  -6   22.67    5.30
   2 -10   6   33.45    6.50
  -2  10  -7 2480.24   58.92
  -2  10  -7 2553.65   60.68
  -2  10  -8 2692.11   64.21
  -2  10  -8 2547.14   60.77
  -2  10  -9  336.49   12.36
  -2  10  -9  346.06   12.73
  -2  10 -10   34.57    7.34
  -2  10 -10   11.80    8.18
  -2  10 -11   11.80    8.36
  -2  10 -11    1.77    9.20
  -2  10 -12   63.84    9.57
  -2  10 -12   42.28    9.57
  -2  10 -13   42.56    9.01
  -2  10 -13   30.39   10.97
  -2  10 -14 1044.51   28.99
  -2  10 -14  958.08   27.60
  -2  10 -15  396.52   15.52
  -2  10 -15  374.96   16.36
  -2  10 -16  582.01   19.51
  -2  10 -16  566.30   19.61
  -2  10 -17  453.02   17.47
  -2  10 -17  447.17   17.56
  -2  10 -18  431.74   17.28
  -2  10 -18  381.75   16.54
  -2  10 -19  138.55   12.55
  -2  10 -19  135.12   13.29
  -2  10 -20   86.33   11.80
  -2  10 -20   74.62   12.27
  -2  10 -21    8.27   11.71
  -2  10 -21   23.05   11.34
  -2  10 -22   10.50   10.97
  -2  10 -22   -7.25    9.76
  -2  10 -23   23.05   10.97
  -2  10 -23    7.99   11.62
  -2   9  15  317.25   12.92
   2  -9 -15  311.96   13.66
  -2   9  14  232.60   11.80
   2  -9 -14  260.10   13.29
  -2   9  13  135.77   10.59
   2  -9 -13  149.06   10.87
  -2   9  12   51.02    9.20
   2  -9 -12   45.26   10.31
  -2   9  11   -2.42    8.74
   2  -9 -11    1.21    9.11
  -2   9  10   90.98   10.31
   2  -9 -10   84.84   10.22
  -2   9   9    8.92    8.27
   2  -9  -9    7.62    8.74
  -2   9   8  204.44   11.71
   2  -9  -8  178.42   12.27
  -2   9   7  384.26   15.05
   2  -9  -7  407.21   15.61
  -2   9   6  501.81   17.38
   2  -9  -6  490.75   16.82
  -2   9   5 1891.07   46.93
   2  -9  -5 1795.36   44.51
  -2   9   4  489.45   15.52
   2  -9  -4  484.71   15.52
  -2   9   3  828.26   22.49
   2  -9  -3  822.87   22.02
  -2   9   2 1214.56   30.94
   2  -9  -2 1224.78   30.85
  -2   9   1  327.20   11.71
   2  -9  -1  313.63   11.15
  -2   9   0   21.56    5.48
   2  -9   0   19.24    5.48
  -2   9  -1  328.13   10.69
   2  -9   1  344.02   11.06
  -2   9  -2  444.66   13.01
   2  -9   2  446.80   13.10
  -2   9  -3 1926.39   46.00
   2  -9   3 1834.39   43.86
  -2   9  -4 2110.38   50.27
   2  -9   4 2018.39   48.23
  -2   9  -5 1544.46   37.64
  -2   9  -6 1778.63   43.03
   2  -9   6 1805.58   43.49
  -2   9  -7  141.44    7.99
  -2   9  -7  150.64    8.27
  -2   9  -8   57.06    7.06
  -2   9  -8   43.68    7.16
  -2   9  -9  192.08    9.94
  -2   9  -9  196.17    9.94
  -2   9 -10   18.59    7.43
  -2   9 -10   18.59    7.99
  -2   9 -11   78.24    9.01
  -2   9 -11   78.52    9.48
  -2   9 -12  847.59   25.28
  -2   9 -12  821.11   23.98
  -2   9 -13  310.84   13.75
  -2   9 -13  348.76   15.70
  -2   9 -14    2.60    9.57
  -2   9 -14    7.43   10.22
  -2   9 -15  462.50   18.03
  -2   9 -15  456.18   18.12
  -2   9 -16  224.23   14.40
  -2   9 -16  199.70   13.75
  -2   9 -17  401.26   17.66
  -2   9 -17  444.47   18.12
  -2   9 -18   22.12   11.06
  -2   9 -18   20.54   11.15
  -2   9 -19    8.08   10.87
  -2   9 -19   14.78   11.24
  -2   9 -20    2.23   11.06
  -2   9 -20   -8.46   11.43
  -2   9 -21   14.87    9.85
  -2   9 -21   32.90   11.71
  -2   9 -22   76.94   11.15
  -2   9 -22   84.75   11.99
  -2   9 -23  410.46   15.89
  -2   9 -23  407.49   15.80
  -2   8  16  432.30   15.52
   2  -8 -16  429.33   15.61
  -2   8  15  463.89   16.54
   2  -8 -15  495.49   17.19
  -2   8  14  370.13   14.40
   2  -8 -14  399.59   15.80
  -2   8  13   55.85    9.66
   2  -8 -13   50.18    9.76
  -2   8  12   53.62    9.76
   2  -8 -12   62.73   10.31
  -2   8  11   92.46   10.69
   2  -8 -11   68.39   10.78
  -2   8  10  391.22   15.33
   2  -8 -10  390.76   15.89
  -2   8   9  221.91   12.73
   2  -8  -9  206.48   12.36
  -2   8   8  521.51   17.47
   2  -8  -8  547.62   18.59
  -2   8   7  176.19   11.15
   2  -8  -7  170.24   10.50
  -2   8   6  350.89   13.85
   2  -8  -6  338.81   13.47
  -2   8   5  105.19    8.27
   2  -8  -5   91.35    8.74
  -2   8   4  552.18   17.19
   2  -8  -4  593.62   18.12
  -2   8   3   34.57    7.34
   2  -8  -3   33.27    6.97
  -2   8   2   13.75    6.69
   2  -8  -2   17.75    6.04
  -2   8   1  257.50    9.94
   2  -8  -1  248.95    9.39
  -2   8   0  117.27    7.25
   2  -8   0  136.32    6.88
  -2   8  -1 1440.38   35.13
   2  -8   1 1551.89   37.54
  -2   8  -2 4583.19  106.40
   2  -8   2 4655.67  107.89
  -2   8  -3 2888.19   67.74
   2  -8   3 3021.07   70.72
  -2   8  -4 2101.09   50.18
   2  -8   4 2093.66   49.81
  -2   8  -5  101.57    6.97
   2  -8   5  103.24    7.25
  -2   8  -6 1116.06   28.53
   2  -8   6 1116.06   28.62
  -2   8  -7  398.19   13.29
   2  -8   7  414.09   13.66
  -2   8  -8   -1.58    6.69
  -2   8  -8   -1.30    7.25
  -2   8  -9 1203.41   31.32
  -2   8  -9 1251.73   32.43
  -2   8 -10 1233.15   32.15
  -2   8 -10 1207.13   31.78
  -2   8 -11  200.82   10.59
  -2   8 -11  190.69   11.43
  -2   8 -12  126.85   10.31
  -2   8 -12  117.46   10.22
  -2   8 -13 1382.76   36.71
  -2   8 -13 1379.97   36.99
  -2   8 -14  711.64   23.14
  -2   8 -14  720.10   22.86
  -2   8 -15   52.69   11.80
  -2   8 -15   78.24   11.43
  -2   8 -16    0.74   10.59
  -2   8 -16   11.34   10.59
  -2   8 -17   32.90   11.62
  -2   8 -17   53.15   11.52
  -2   8 -18   -1.58   11.34
  -2   8 -18   14.50   10.78
  -2   8 -19   87.72   11.71
  -2   8 -19   95.72   12.45
  -2   8 -20   94.23   12.27
  -2   8 -20   95.44   12.27
  -2   8 -21  175.82   12.82
  -2   8 -21  176.28   13.01
  -2   8 -22  126.29   11.52
  -2   8 -22  109.47   11.62
  -2   8 -23   25.56   10.04
  -2   8 -23   26.58   11.24
  -2   7  17  216.15   11.62
   2  -7 -17  232.78   12.08
  -2   7  16  306.01   13.47
   2  -7 -16  271.16   12.82
  -2   7  15   46.37    9.20
   2  -7 -15   27.13    9.94
  -2   7  14   21.09    9.57
   2  -7 -14   14.03    9.94
  -2   7  13  366.51   15.15
   2  -7 -13  359.07   14.78
  -2   7  12  151.29   11.80
   2  -7 -12  136.88   10.97
  -2   7  11  674.10   21.28
   2  -7 -11  648.17   20.91
  -2   7  10  833.56   24.53
   2  -7 -10  838.30   24.63
  -2   7   9  265.87   12.92
   2  -7  -9  245.79   12.17
  -2   7   8  349.13   14.22
   2  -7  -8  349.41   14.31
  -2   7   7 1441.31   36.89
   2  -7  -7 1440.38   37.17
  -2   7   6  912.92   25.28
   2  -7  -6  902.88   25.37
  -2   7   5   18.86    7.99
   2  -7  -5   16.91    7.06
  -2   7   4   34.20    7.90
   2  -7  -4   25.00    7.06
  -2   7   3  125.55    9.01
   2  -7  -3  115.69    8.08
  -2   7   2   62.17    7.62
   2  -7  -2   69.70    7.25
  -2   7   1 2212.60   52.97
   2  -7  -1 2264.64   53.99
  -2   7   0 5105.44  118.48
   2  -7   0 5157.48  119.60
  -2   7  -1 1152.30   28.71
   2  -7   1 1159.74   28.99
  -2   7  -2  715.45   18.96
   2  -7   2  733.48   19.42
  -2   7  -3 2794.33   65.79
   2  -7   3 2870.53   67.65
  -2   7  -4 1070.52   27.13
   2  -7   4 1090.97   27.60
  -2   7  -5  338.35   11.62
   2  -7   5  338.26   11.62
  -2   7  -6  705.13   19.79
   2  -7   6  718.42   20.17
  -2   7  -7 1208.99   30.94
   2  -7   7 1278.68   32.71
  -2   7  -8 3641.83   85.96
  -2   7  -8 3756.13   88.56
  -2   7  -9 1573.26   39.49
  -2   7  -9 1590.92   40.14
  -2   7 -10 2299.96   56.22
  -2   7 -10 2255.35   55.38
  -2   7 -11 2193.09   54.18
  -2   7 -11 2199.59   54.36
  -2   7 -12 1723.81   43.49
  -2   7 -12 1761.91   44.79
  -2   7 -13  140.41   11.71
  -2   7 -13  114.58   10.87
  -2   7 -14   14.03   10.50
  -2   7 -14    6.13   11.15
  -2   7 -15   60.50   11.89
  -2   7 -15   81.22   11.89
  -2   7 -16   38.94   11.89
  -2   7 -16   42.93   11.62
  -2   7 -17  387.32   16.82
  -2   7 -17  359.07   16.36
  -2   7 -18  502.37   19.24
  -2   7 -18  492.89   19.24
  -2   7 -19   29.46   11.52
  -2   7 -19   15.15   11.15
  -2   7 -20  238.08   14.31
  -2   7 -20  273.58   14.68
  -2   7 -21   30.02   11.24
  -2   7 -21   21.93   11.15
  -2   7 -22   81.78   11.80
  -2   7 -22   79.27   11.43
  -2   7 -23    2.69   10.04
  -2   7 -23   -0.93   11.15
  -2   6  18   47.21    8.74
   2  -6 -18   49.72    9.20
  -2   6  17   70.62   10.13
   2  -6 -17   86.98   10.31
  -2   6  16   -8.55    9.29
   2  -6 -16    0.65    9.39
  -2   6  15  310.66   14.12
   2  -6 -15  309.26   14.40
  -2   6  14 1067.74   29.64
   2  -6 -14 1064.95   29.37
  -2   6  13  731.25   23.05
   2  -6 -13  757.27   23.42
  -2   6  12  705.41   22.12
   2  -6 -12  686.92   21.84
  -2   6  11 1555.61   40.70
   2  -6 -11 1465.47   38.75
  -2   6  10  337.79   14.68
   2  -6 -10  329.89   14.96
  -2   6   9  520.86   17.84
   2  -6  -9  523.37   18.31
  -2   6   8  261.59   12.17
   2  -6  -8  296.53   12.92
  -2   6   7   77.69    9.11
   2  -6  -7   82.52    8.64
  -2   6   6  302.20   12.73
   2  -6  -6  316.23   12.92
  -2   6   5  208.72   10.97
   2  -6  -5  188.09   10.22
  -2   6   4  238.82   10.87
   2  -6  -4  218.94   10.78
  -2   6   3  253.69   10.69
   2  -6  -3  237.15   10.50
  -2   6   2 1752.61   43.03
   2  -6  -2 1724.73   42.10
  -2   6   1 2353.85   56.31
   2  -6  -1 2377.09   56.59
  -2   6   0 1389.27   34.38
   2  -6   0 1410.64   34.66
  -2   6  -1  692.77   18.86
   2  -6   1  688.96   18.68
  -2   6  -2 2543.43   60.31
   2  -6   2 2497.89   59.10
  -2   6  -3   97.02    7.53
   2  -6   3   96.64    7.25
  -2   6  -4  496.98   15.05
   2  -6   4  528.94   15.89
  -2   6  -5    5.67    6.78
   2  -6   5   13.20    7.34
  -2   6  -6    2.42    6.97
   2  -6   6   -5.67    7.71
  -2   6  -7  475.79   15.61
   2  -6   7  474.86   15.61
  -2   6  -8 3502.44   82.98
  -2   6  -8 3443.89   81.68
  -2   6  -9 2269.29   55.48
  -2   6  -9 2277.65   55.66
  -2   6 -10  765.63   22.49
  -2   6 -10  772.69   22.86
  -2   6 -11 2233.05   55.01
  -2   6 -11 2242.34   55.29
  -2   6 -12  411.39   16.08
  -2   6 -12  411.67   15.80
  -2   6 -13   24.07    9.66
  -2   6 -13   39.31    9.76
  -2   6 -14  926.95   27.79
  -2   6 -14  923.61   27.69
  -2   6 -15 1995.15   51.02
  -2   6 -15 2045.33   52.13
  -2   6 -16 1668.05   44.14
  -2   6 -16 1628.09   43.12
  -2   6 -17  694.45   23.23
  -2   6 -17  661.18   22.40
  -2   6 -18  399.40   17.66
  -2   6 -18  437.60   17.94
  -2   6 -19 1230.36   33.92
  -2   6 -19 1211.77   33.55
  -2   6 -20   43.49   11.62
  -2   6 -20   15.05   11.43
  -2   6 -21   11.62   11.15
  -2   6 -21    1.30   10.87
  -2   6 -22   11.15   10.41
  -2   6 -22   17.94   10.04
  -2   6 -23    2.69   10.78
  -2   6 -23  -10.78   10.87
  -2   5  19   55.11    8.83
   2  -5 -19   71.18   10.13
  -2   5  18   16.36    8.74
   2  -5 -18   18.86    9.76
  -2   5  17   84.10   10.41
   2  -5 -17  104.92   10.78
  -2   5  16  464.92   17.01
   2  -5 -16  454.14   17.28
  -2   5  15  558.31   18.86
   2  -5 -15  573.83   19.42
  -2   5  14  490.84   18.21
   2  -5 -14  457.48   17.66
  -2   5  13  752.81   23.23
   2  -5 -13  780.50   23.79
  -2   5  12 2286.95   56.78
   2  -5 -12 2263.71   56.59
  -2   5  11  483.41   17.75
   2  -5 -11  488.89   18.59
  -2   5  10  178.61   12.17
   2  -5 -10  181.58   12.08
  -2   5   9  295.51   13.20
   2  -5  -9  274.88   12.36
  -2   5   8   21.19    8.46
   2  -5  -8   10.22    8.64
  -2   5   7  311.86   13.29
   2  -5  -7  284.17   13.10
  -2   5   6 1016.63   27.41
   2  -5  -6  995.25   26.95
  -2   5   5 2032.32   49.90
   2  -5  -5 2024.89   49.81
  -2   5   4 1487.77   37.45
   2  -5  -4 1476.62   37.26
  -2   5   3 1534.23   38.29
   2  -5  -3 1537.02   38.56
  -2   5   2 2183.80   52.50
   2  -5  -2 2388.24   57.52
  -2   5   1  418.17   13.66
   2  -5  -1  406.37   13.20
  -2   5   0  408.14   13.38
   2  -5   0  408.97   13.10
  -2   5  -1  701.51   19.33
   2  -5   1  696.12   19.33
  -2   5  -2  887.36   23.60
   2  -5   2  850.01   22.49
  -2   5  -3  362.51   12.82
   2  -5   3  367.62   12.64
  -2   5  -4  276.83   11.34
   2  -5   4  263.91   11.24
  -2   5  -5 3217.15   76.20
   2  -5   5 3207.86   75.74
  -2   5  -6 1981.21   48.42
   2  -5   6 2006.30   48.97
  -2   5  -7 1394.84   35.41
   2  -5   7 1456.17   37.36
  -2   5  -8  408.79   14.96
  -2   5  -8  380.72   14.50
  -2   5  -9  811.07   23.51
  -2   5  -9  814.42   23.32
  -2   5 -10 1330.72   34.94
  -2   5 -10 1306.56   34.48
  -2   5 -11    0.46    9.01
  -2   5 -11    4.09   10.04
  -2   5 -12   -7.53    9.11
  -2   5 -12    7.81    9.39
  -2   5 -13  266.42   12.64
  -2   5 -13  256.29   13.94
  -2   5 -14  118.76   12.55
  -2   5 -14  104.36   12.92
  -2   5 -15  228.14   14.87
  -2   5 -15  218.75   13.47
  -2   5 -16  467.33   18.59
  -2   5 -16  466.40   18.86
  -2   5 -17  914.78   27.51
  -2   5 -17  923.98   27.32
  -2   5 -18  546.97   19.70
  -2   5 -18  560.63   21.19
  -2   5 -19   95.06   12.17
  -2   5 -19   71.83   11.71
  -2   5 -20   13.38   11.62
  -2   5 -20    9.11   10.41
  -2   5 -21   14.12   11.06
  -2   5 -21   -3.35   10.87
  -2   4  19   16.54    9.76
   2  -4 -19   37.82    9.94
  -2   4  18   75.64   11.34
   2  -4 -18   61.61   11.15
  -2   4  17  308.15   14.50
   2  -4 -17  283.61   14.12
  -2   4  16  189.57   13.01
   2  -4 -16  171.73   12.82
  -2   4  15  358.70   15.70
   2  -4 -15  401.91   16.91
  -2   4  14  362.79   15.43
   2  -4 -14  369.48   16.36
  -2   4  13  225.72   13.47
   2  -4 -13  239.29   14.31
  -2   4  12   79.64   11.06
   2  -4 -12   65.70   11.24
  -2   4  11  342.44   15.05
   2  -4 -11  362.51   14.87
  -2   4  10  173.40   11.52
   2  -4 -10  175.73   11.62
  -2   4   9  620.66   19.89
   2  -4  -9  621.50   19.51
  -2   4   8 1403.21   36.52
   2  -4  -8 1379.97   36.15
  -2   4   7  916.45   25.56
   2  -4  -7  882.35   25.09
  -2   4   6  296.90   13.29
   2  -4  -6  295.97   12.82
  -2   4   5 2514.62   60.77
   2  -4  -5 2480.24   60.12
  -2   4   4 2293.45   55.57
   2  -4  -4 2231.19   53.99
  -2   4   3 2144.77   52.04
   2  -4  -3 2143.84   51.85
  -2   4   2   94.23    8.55
   2  -4  -2  124.52    9.01
  -2   4   1  785.70   21.84
   2  -4  -1  755.04   20.91
  -2   4   0 1535.16   38.19
   2  -4   0 1540.74   38.19
  -2   4  -1 1818.59   44.51
   2  -4   1 1803.72   44.05
  -2   4  -2   29.37    7.99
   2  -4   2   34.48    7.71
  -2   4  -3  801.78   22.40
   2  -4   3  830.49   22.86
  -2   4  -4 4705.85  109.93
   2  -4   4 4764.39  111.33
  -2   4  -5   32.62    8.64
   2  -4   5   19.51    8.18
  -2   4  -6  368.09   13.94
   2  -4   6  369.48   14.31
  -2   4  -7  871.57   24.25
   2  -4   7  873.33   24.53
  -2   4  -8  845.83   24.16
  -2   4  -8  845.08   23.98
  -2   4  -9    1.49    8.27
  -2   4  -9    3.07    9.39
  -2   4 -10  397.36   15.52
  -2   4 -10  412.32   16.17
  -2   4 -11   26.76    8.55
  -2   4 -11   37.26   10.04
  -2   4 -12 1423.65   37.54
  -2   4 -12 1445.95   38.01
  -2   4 -14 2706.98   66.91
  -2   4 -14 2638.21   65.05
  -2   4 -15  556.91   20.72
  -2   4 -15  554.13   20.44
  -2   4 -16  345.78   15.89
  -2   4 -16  343.27   15.80
  -2   4 -17  -17.66   11.52
  -2   4 -17  -12.17   12.17
  -2   4 -18  -15.24   11.15
  -2   4 -18    9.11   11.71
  -2   4 -19   12.55   11.52
  -2   4 -19   15.33   10.97
  -2   4 -20    2.23   11.15
  -2   4 -20   18.59   10.31
  -2   4 -21  172.57   12.27
  -2   4 -21  152.31   12.45
  -2   4 -22   28.71   11.24
  -2   4 -22   -0.28    9.29
  -2   3  20  132.79   10.97
   2  -3 -20  123.50   10.31
  -2   3  19  346.90   14.87
   2  -3 -19  334.07   15.15
  -2   3  18  579.40   19.42
   2  -3 -18  635.90   21.00
  -2   3  17  575.78   19.42
   2  -3 -17  577.64   20.07
  -2   3  16  714.61   23.14
   2  -3 -16  709.22   23.14
  -2   3  15  148.96   12.45
   2  -3 -15  126.20   12.36
  -2   3  14   22.77   10.59
   2  -3 -14   47.11   12.73
  -2   3  13  301.92   14.59
   2  -3 -13  302.66   15.24
  -2   3  12   93.49   11.24
   2  -3 -12   96.55   11.89
  -2   3  11 1186.68   32.52
   2  -3 -11 1170.89   32.06
  -2   3  10 4493.97  106.22
   2  -3 -10 4606.42  108.91
  -2   3   9 2441.21   59.85
   2  -3  -9 2430.98   59.38
  -2   3   8 2300.89   56.22
   2  -3  -8 2442.14   59.85
  -2   3   7 3025.72   72.67
   2  -3  -7 3006.21   72.11
  -2   3   6 5090.57  119.04
   2  -3  -6 5065.48  118.48
  -2   3   5  376.26   14.31
   2  -3  -5  382.86   14.31
  -2   3   4   10.69    8.46
   2  -3  -4   11.89    7.99
  -2   3   3  926.67   25.37
   2  -3  -3  958.08   25.74
  -2   3   2   67.28    9.20
   2  -3  -2   59.66    9.01
  -2   3   1  618.62   18.96
   2  -3  -1  635.62   19.24
  -2   3   0  567.60   18.03
   2  -3   0  592.13   18.59
  -2   3  -1 3439.25   81.40
   2  -3   1 3552.62   84.01
  -2   3  -2  187.53   11.62
   2  -3   2  172.19   10.78
  -2   3  -3    9.11    8.08
   2  -3   3   -0.93    8.64
  -2   3  -4   13.29    9.11
   2  -3   4   -0.37    9.11
  -2   3  -5  981.31   27.32
   2  -3   5  951.58   25.93
  -2   3  -6  926.67   25.83
   2  -3   6  999.90   27.41
  -2   3  -7    6.88    8.92
  -2   3  -8  787.56   23.14
  -2   3  -8  812.37   23.51
  -2   3  -9   28.53    8.08
  -2   3  -9   38.66    9.76
  -2   3 -10   88.84   10.22
  -2   3 -10   88.93   10.04
  -2   3 -11 1390.20   36.80
  -2   3 -11 1340.01   35.41
  -2   3 -12 1646.68   42.56
  -2   3 -12 1692.21   43.68
  -2   3 -13  901.86   27.69
  -2   3 -13  858.74   26.39
  -2   3 -14  198.77   14.59
  -2   3 -14  196.91   13.38
  -2   3 -15  903.35   27.41
  -2   3 -15  832.26   26.39
  -2   3 -16   88.10   12.64
  -2   3 -16   78.90   11.34
  -2   3 -17  -12.36   11.89
  -2   3 -17    2.14   11.52
  -2   3 -18  206.86   14.31
  -2   3 -18  227.58   14.87
  -2   3 -19  231.11   14.03
  -2   3 -19  226.00   14.22
  -2   3 -20  364.55   16.17
  -2   3 -20  356.10   15.89
  -2   3 -21  235.11   13.75
  -2   3 -21  241.70   13.38
  -2   3 -22  188.27   12.08
  -2   3 -22  183.25   13.29
  -2   2  21  273.58   12.64
   2  -2 -21  273.76   13.10
  -2   2  20  251.18   13.38
   2  -2 -20  254.81   13.66
  -2   2  19  268.37   14.03
   2  -2 -19  271.35   14.22
  -2   2  18  176.28   12.55
   2  -2 -18  192.17   12.36
  -2   2  17  346.71   15.89
   2  -2 -17  311.59   15.15
  -2   2  16  453.02   17.28
   2  -2 -16  429.88   17.94
  -2   2  15   -5.67   10.22
   2  -2 -15  -11.24   10.78
  -2   2  14  116.72   11.99
   2  -2 -14   76.29   11.80
  -2   2  13   73.13   11.62
   2  -2 -13   80.48   12.08
  -2   2  12  274.69   14.12
   2  -2 -12  267.35   14.31
  -2   2  11  673.72   21.56
   2  -2 -11  599.66   19.70
  -2   2  10  464.27   17.10
   2  -2 -10  466.87   17.19
  -2   2   9 1352.10   35.68
   2  -2  -9 1416.22   36.80
  -2   2   8 1079.82   29.83
   2  -2  -8 1091.90   29.74
  -2   2   7 1970.99   49.07
   2  -2  -7 1971.92   49.07
  -2   2   6   76.76    9.29
   2  -2  -6   71.09    9.39
  -2   2   5  106.68   10.78
   2  -2  -5   91.72    9.11
  -2   2   4  724.56   21.65
   2  -2  -4  707.27   20.91
   2  -2  -3 8648.76  199.52
  -2   2  -2 3463.41   82.24
   2  -2   2 3540.54   84.19
  -2   2  -3 3254.32   77.69
   2  -2   3 3020.14   72.30
  -2   2  -4  102.78   10.13
   2  -2   4  134.65   11.43
  -2   2  -5 1033.35   27.79
   2  -2   5 1105.84   29.83
  -2   2  -6   -4.65    8.92
   2  -2   6   19.14    9.29
  -2   2  -7  643.89   20.44
  -2   2  -7  646.12   19.98
  -2   2  -8 1475.69   38.47
  -2   2  -8 1510.07   38.84
  -2   2  -9 1248.95   32.90
  -2   2  -9 1278.68   34.10
  -2   2 -10  905.02   25.65
  -2   2 -10  973.88   27.69
  -2   2 -11  172.01   11.71
  -2   2 -11  167.92   11.15
  -2   2 -12   -9.48    9.01
  -2   2 -12    8.18    9.94
  -2   2 -13  665.18   22.40
  -2   2 -13  635.07   21.75
  -2   2 -14  162.34   13.47
  -2   2 -14  186.41   14.12
  -2   2 -15 1269.39   35.31
  -2   2 -15 1261.96   34.57
  -2   2 -16  135.49   12.55
  -2   2 -16  152.49   13.66
  -2   2 -17  459.34   17.94
  -2   2 -17  475.14   18.59
  -2   2 -18  212.25   14.87
  -2   2 -18  224.61   14.40
  -2   2 -19  300.71   14.87
  -2   2 -19  315.77   15.61
  -2   2 -20  334.82   15.24
  -2   2 -20  324.78   15.33
  -2   2 -21   68.02   11.34
  -2   2 -21   59.57   10.50
  -2   1  21  383.42   15.52
   2  -1 -21  437.22   16.17
  -2   1  20  121.08   11.71
   2  -1 -20  101.01   11.43
  -2   1  19   50.27   11.34
   2  -1 -19   56.87   11.52
  -2   1  18  118.76   11.43
   2  -1 -18  115.42   12.64
  -2   1  17    5.02   10.69
   2  -1 -17    3.07   10.69
  -2   1  16  176.56   13.57
   2  -1 -16  144.22   13.01
  -2   1  15   55.66   10.87
   2  -1 -15   53.34   11.43
  -2   1  14 1087.25   30.57
   2  -1 -14 1088.18   31.22
  -2   1  13 1182.04   32.52
   2  -1 -13 1156.02   32.43
  -2   1  12 2442.14   60.50
   2  -1 -12 2436.56   60.22
  -2   1  11 1250.80   33.64
   2  -1 -11 1230.36   32.99
  -2   1  10  289.19   13.94
   2  -1 -10  286.03   13.47
  -2   1   9   85.77    9.94
   2  -1  -9   93.95    9.76
  -2   1   8  682.83   21.28
   2  -1  -8  680.60   20.82
  -2   1   7  567.04   18.77
   2  -1  -7  531.82   17.84
  -2   1   6 1182.04   31.32
   2  -1  -6 1195.05   31.69
  -2   1   5 2208.89   54.18
   2  -1  -5 2278.58   55.76
  -2   1   4  283.52   12.92
   2  -1  -4  299.51   13.38
  -2   1   3 5861.87  136.51
   2  -1  -3 5926.92  138.09
  -2   1   2 3821.18   90.23
   2  -1  -2 3657.63   86.61
  -2   1   1 1629.02   40.89
   2  -1  -1 1640.17   41.07
  -2   1  -1  566.21   18.31
   2  -1   1  587.77   18.68
  -2   1  -2  494.56   17.19
   2  -1   2  479.23   16.73
  -2   1  -3 1657.83   41.72
   2  -1   3 1733.10   43.58
  -2   1  -4   48.88    8.83
   2  -1   4   38.75    8.83
  -2   1  -5 1440.38   36.99
   2  -1   5 1395.77   35.96
  -2   1  -6 9673.75  223.03
   2  -1   6 9367.09  215.96
  -2   1  -7 4913.08  115.14
  -2   1  -7 5058.04  118.67
  -2   1  -8 7308.75  169.69
  -2   1  -8 7334.77  170.15
  -2   1  -9  869.99   25.09
  -2   1  -9  915.15   26.30
  -2   1 -10  912.08   26.58
  -2   1 -10  878.35   25.74
  -2   1 -11  233.99   12.36
  -2   1 -11  248.40   13.38
  -2   1 -12   22.02    9.66
  -2   1 -12    5.95   10.22
  -2   1 -13   68.30   13.57
  -2   1 -13   34.01   10.97
  -2   1 -14  906.60   28.16
  -2   1 -14  904.74   27.79
  -2   1 -15  313.72   16.54
  -2   1 -15  343.92   16.26
  -2   1 -16  322.74   16.73
  -2   1 -16  299.51   15.70
  -2   1 -17  975.74   28.44
  -2   1 -17  991.54   28.81
  -2   1 -18  161.04   12.82
  -2   1 -18  161.79   12.73
  -2   1 -19   67.37   11.99
  -2   1 -19   97.57   11.99
  -2   1 -20   70.07    9.85
  -2   1 -20   82.80   11.24
  -2   1 -21   -6.23    9.11
  -2   1 -21    3.16   10.97
  -2   0  22   88.37   10.87
   2   0 -22  110.77   10.22
  -2   0  21   50.92   10.97
   2   0 -21   53.25   10.78
  -2   0  20   24.63   10.78
   2   0 -20   25.18   10.69
  -2   0  19   20.91   10.87
   2   0 -19   31.69   11.43
  -2   0  18   46.65   10.69
   2   0 -18   31.50   10.97
  -2   0  17  112.35   12.82
   2   0 -17  108.07   12.36
  -2   0  16   98.50   11.52
   2   0 -16   92.65   12.27
  -2   0  15  831.98   25.74
   2   0 -15  865.62   26.58
  -2   0  14 2032.32   51.76
   2   0 -14 1959.84   50.00
  -2   0  13 1636.45   42.75
   2   0 -13 1674.55   43.77
  -2   0  12  500.88   18.03
   2   0 -12  479.32   17.38
  -2   0  11  159.93   11.43
   2   0 -11  155.56   11.15
  -2   0  10  307.13   13.47
   2   0 -10  295.04   13.57
  -2   0   9  121.74   10.78
   2   0  -9  119.04   10.31
  -2   0   8  262.61   13.20
   2   0  -8  273.02   12.73
  -2   0   7 4178.95   98.60
   2   0  -7 4153.86   98.22
  -2   0   6 2844.51   68.58
   2   0  -6 2756.23   66.35
  -2   0   5  628.75   19.70
   2   0  -5  628.65   19.24
  -2   0   4  392.34   15.43
   2   0  -4  356.01   14.31
  -2   0   3 6129.50  142.74
   2   0  -3 6254.95  145.15
  -2   0   2   37.82    9.85
   2   0  -2   39.77    9.20
  -2   0   1  400.80   15.05
   2   0  -1  413.34   14.59
  -2   0   0    2.97    8.27
   2   0   0  -10.59    8.46
  -2   0  -1 1335.37   34.57
   2   0   1 1373.47   35.03
  -2   0  -2   82.24   10.22
   2   0   2   98.32    9.66
  -2   0  -3 1834.39   45.16
   2   0   3 1892.00   46.74
  -2   0  -4 2459.79   59.29
   2   0   4 2492.32   60.03
  -2   0  -5  238.36   12.55
   2   0   5  244.21   11.80
  -2   0  -6 1438.52   37.45
  -2   0  -6 1441.31   37.08
  -2   0  -7 2213.53   54.55
  -2   0  -7 2089.01   51.76
  -2   0  -8 1648.53   42.10
  -2   0  -8 1606.72   41.17
  -2   0  -9  775.48   23.14
  -2   0  -9  773.06   22.95
  -2   0 -10  640.27   20.26
  -2   0 -10  688.69   22.02
  -2   0 -11  285.75   13.66
  -2   0 -11  291.33   14.40
  -2   0 -12  991.54   28.16
  -2   0 -12  974.81   29.09
  -2   0 -13    6.97   11.06
  -2   0 -13   21.75   11.71
  -2   0 -14  412.97   17.10
  -2   0 -14  399.40   17.28
  -2   0 -15  211.69   13.94
  -2   0 -15  229.16   14.68
  -2   0 -16  166.90   12.73
  -2   0 -16  201.10   13.94
  -2   0 -17   13.01   11.24
  -2   0 -17   11.80   11.43
  -2   0 -18   85.77   12.55
  -2   0 -18   64.58   11.80
  -2   0 -19  119.41   11.43
  -2   0 -19  119.97   11.89
  -2   0 -20   26.21   10.69
  -2   0 -20   14.12   10.22
  -2  -1  22   -1.21    9.01
   2   1 -22   23.98    9.94
  -2  -1  21   12.17    9.57
   2   1 -21    1.12   10.41
  -2  -1  20   41.54   10.50
   2   1 -20   59.57   11.62
  -2  -1  19   55.01   10.87
   2   1 -19   60.68   11.52
  -2  -1  18   18.77   11.06
   2   1 -18    1.77   11.06
  -2  -1  17  380.82   16.54
   2   1 -17  373.20   15.98
  -2  -1  16  794.53   23.88
   2   1 -16  810.98   25.56
  -2  -1  15  651.61   21.37
   2   1 -15  673.54   22.21
  -2  -1  14  309.73   15.33
   2   1 -14  291.05   14.96
  -2  -1  13  220.05   12.82
   2   1 -13  208.81   12.64
  -2  -1  12   10.04    8.64
   2   1 -12   12.55    9.11
  -2  -1  11   17.66    9.85
   2   1 -11   14.22    9.11
  -2  -1  10 1571.40   40.24
   2   1 -10 1556.54   39.96
  -2  -1   9 1300.06   34.57
   2   1  -9 1220.14   32.25
  -2  -1   8 2062.99   51.11
   2   1  -8 2103.88   51.85
  -2  -1   7  585.91   18.68
   2   1  -7  623.08   19.14
  -2  -1   6 1156.02   30.76
   2   1  -6 1077.96   28.53
  -2  -1   5  859.11   23.88
   2   1  -5  844.25   23.60
  -2  -1   4  630.42   19.42
   2   1  -4  621.31   19.05
  -2  -1   3 1985.86   49.07
   2   1  -3 1951.48   47.86
  -2  -1   2   91.53    9.85
   2   1  -2  115.97    9.85
  -2  -1   1 4710.50  110.03
   2   1  -1 4773.69  111.42
  -2  -1   0  563.42   17.66
   2   1   0  574.66   17.84
  -2  -1  -1 4474.46  104.92
   2   1   1 4460.52  104.26
  -2  -1  -2  484.06   16.08
   2   1   2  478.86   16.17
  -2  -1  -3 2048.12   49.90
   2   1   3 2012.81   49.07
  -2  -1  -4 4412.20  103.52
   2   1   4 4456.80  104.26
  -2  -1  -5 5297.80  123.50
  -2  -1  -6 5859.08  136.42
  -2  -1  -6 6228.00  144.50
  -2  -1  -7   -1.02    7.71
  -2  -1  -7   -1.58    8.74
  -2  -1  -8  644.45   20.44
  -2  -1  -8  619.73   19.61
  -2  -1  -9   67.65   10.04
  -2  -1  -9   67.00    9.76
  -2  -1 -10  234.27   12.17
  -2  -1 -10  202.49   12.64
  -2  -1 -11 2622.41   64.31
  -2  -1 -11 2794.33   68.21
  -2  -1 -12  601.61   21.47
  -2  -1 -12  554.22   19.79
  -2  -1 -13 2550.86   63.47
  -2  -1 -13 2553.65   63.28
  -2  -1 -14  558.49   20.91
  -2  -1 -14  634.51   22.49
  -2  -1 -15   88.47   12.92
  -2  -1 -15  115.88   12.45
  -2  -1 -16    9.39   12.45
  -2  -1 -16   11.34   11.62
  -2  -1 -17   79.92   11.89
  -2  -1 -17   60.77   11.99
  -2  -1 -18  -16.63   11.06
  -2  -1 -18   -0.84   11.43
  -2  -1 -19  198.21   12.92
  -2  -1 -19  179.91   12.92
  -2  -1 -20   64.03   10.87
  -2  -1 -20   41.54   11.24
  -2  -2  23   21.84    7.99
   2   2 -23   -0.28    9.85
  -2  -2  22   34.20    9.66
   2   2 -22   11.62   10.22
  -2  -2  21  117.27   11.34
   2   2 -21  107.24   12.27
  -2  -2  20  394.29   16.54
   2   2 -20  433.51   17.56
  -2  -2  19  625.03   20.26
   2   2 -19  649.28   21.37
  -2  -2  18 2206.10   54.83
   2   2 -18 2221.90   55.85
  -2  -2  17 1480.34   39.59
   2   2 -17 1516.58   40.42
  -2  -2  16  962.73   28.71
   2   2 -16  939.50   27.97
  -2  -2  15  299.69   15.61
   2   2 -15  299.51   15.43
  -2  -2  14   45.63   10.87
   2   2 -14   38.38   10.04
  -2  -2  13  263.64   13.75
   2   2 -13  249.14   13.01
  -2  -2  12  171.73   11.99
   2   2 -12  176.84   11.62
  -2  -2  11 1827.88   46.00
   2   2 -11 1808.37   45.81
  -2  -2  10 3158.61   75.74
   2   2 -10 3140.95   75.46
  -2  -2   9 2424.48   59.29
   2   2  -9 2417.04   59.01
  -2  -2   8 2258.14   55.11
   2   2  -8 2251.63   54.92
  -2  -2   7   90.88    9.85
   2   2  -7   80.48    9.01
  -2  -2   6  446.24   15.52
   2   2  -6  432.95   15.05
  -2  -2   5  284.82   12.08
   2   2  -5  277.76   11.71
  -2  -2   4   27.79    8.27
   2   2  -4   29.64    8.08
  -2  -2   3  870.17   23.88
   2   2  -3  881.32   23.79
  -2  -2   2  218.01   10.41
   2   2  -2  205.93   10.04
  -2  -2   1 1510.07   37.64
   2   2  -1 1476.62   36.61
  -2  -2   0 1177.39   30.39
   2   2   0 1179.25   30.02
  -2  -2  -1  115.88    8.64
   2   2   1   98.22    8.08
  -2  -2  -2 2588.03   61.43
   2   2   2 2601.04   61.98
  -2  -2  -3 3568.42   83.73
   2   2   3 3613.95   84.94
  -2  -2  -4 2546.21   61.05
   2   2   4 2630.78   63.00
  -2  -2  -5   46.28    8.55
  -2  -2  -5   48.14    8.74
  -2  -2  -6   31.69    9.20
  -2  -2  -6    5.11    8.55
  -2  -2  -7  216.61   12.36
  -2  -2  -7  213.36   12.08
  -2  -2  -8  172.01   11.43
  -2  -2  -8  179.54   11.62
  -2  -2  -9  941.36   26.76
  -2  -2  -9  913.76   26.02
  -2  -2 -10 3804.45   90.88
  -2  -2 -10 3863.93   91.91
  -2  -2 -11  276.18   14.03
  -2  -2 -11  255.18   13.57
  -2  -2 -12  889.69   26.48
  -2  -2 -12  926.49   27.23
  -2  -2 -13  638.13   21.28
  -2  -2 -13  708.57   23.98
  -2  -2 -14  235.76   13.85
  -2  -2 -14  254.90   14.50
  -2  -2 -15   13.38   10.78
  -2  -2 -15   32.90   10.87
  -2  -2 -16   10.59   11.06
  -2  -2 -16   12.17   10.97
  -2  -2 -17   27.41   11.06
  -2  -2 -17   20.54   10.97
  -2  -2 -18  198.40   13.38
  -2  -2 -18  192.73   13.01
  -2  -2 -19  272.37   13.94
  -2  -2 -19  270.51   14.31
  -2  -3  23    1.95    8.27
   2   3 -23    9.11    9.66
  -2  -3  22  126.66   10.50
   2   3 -22  126.85   11.89
  -2  -3  21  120.53   11.80
   2   3 -21  113.00   12.17
  -2  -3  20    3.53    9.57
   2   3 -20  -14.50   11.06
  -2  -3  19  135.21   12.17
   2   3 -19  154.17   13.29
  -2  -3  18  384.26   15.89
   2   3 -18  399.22   17.10
  -2  -3  17  181.49   11.99
   2   3 -17  190.41   13.75
  -2  -3  16   26.21   10.04
   2   3 -16    9.66   11.15
  -2  -3  15   92.28   11.43
   2   3 -15   48.14   11.80
  -2  -3  14  214.48   12.73
   2   3 -14  216.15   13.75
  -2  -3  13  837.56   24.72
   2   3 -13  831.24   24.63
  -2  -3  12 2305.53   56.96
   2   3 -12 2158.71   53.53
  -2  -3  11 7713.91  178.89
   2   3 -11 7737.14  179.72
  -2  -3  10 6489.13  151.38
   2   3 -10 6456.60  150.26
  -2  -3   9 1504.50   38.56
   2   3  -9 1495.20   38.10
  -2  -3   8   61.33    9.29
   2   3  -8   88.84    8.92
  -2  -3   7  129.36    9.20
   2   3  -7  142.55    9.48
  -2  -3   6    6.88    7.34
   2   3  -6    9.39    7.71
  -2  -3   5   38.94    6.97
   2   3  -5   45.44    7.34
  -2  -3   4 5914.84  136.88
   2   3  -4 5615.61  130.01
  -2  -3   3 1606.72   39.12
   2   3  -3 1604.86   39.12
  -2  -3   2 1151.37   28.90
   2   3  -2 1207.13   30.29
  -2  -3   1  403.21   12.55
   2   3  -1  423.38   13.20
  -2  -3   0 3566.56   83.54
   2   3   0 3679.00   85.96
  -2  -3  -1 1171.82   29.64
   2   3   1 1159.74   29.37
  -2  -3  -2    7.34    6.69
   2   3   2   11.34    7.34
  -2  -3  -3  495.02   15.80
   2   3   3  515.75   16.17
  -2  -3  -4  187.06    9.94
  -2  -3  -4  217.36   11.06
  -2  -3  -5  181.67    9.85
  -2  -3  -5  173.59   10.69
  -2  -3  -6 2744.15   65.89
  -2  -3  -6 2753.44   66.26
  -2  -3  -7 1944.97   47.67
  -2  -3  -7 1981.21   49.25
  -2  -3  -8 1252.66   32.80
  -2  -3  -8 1257.31   33.64
  -2  -3  -9  822.69   23.23
  -2  -3  -9  884.67   25.46
  -2  -3 -10  871.47   25.46
  -2  -3 -10  911.43   26.30
  -2  -3 -11  534.89   18.49
  -2  -3 -11  537.77   18.77
  -2  -3 -12  581.63   20.17
  -2  -3 -12  637.02   21.93
  -2  -3 -13   10.04   12.08
  -2  -3 -13   14.03   10.22
  -2  -3 -14   48.04   11.71
  -2  -3 -14   44.05   11.15
  -2  -3 -15   82.98   12.55
  -2  -3 -15   79.73   11.06
  -2  -3 -16  216.43   13.10
  -2  -3 -16  228.32   13.29
  -2  -3 -17  265.49   13.47
  -2  -3 -17  278.32   13.94
  -2  -3 -18  293.00   13.85
  -2  -3 -18  304.80   14.22
  -2  -4  23  132.89    9.76
   2   4 -23  118.48   11.34
  -2  -4  22   89.77   10.69
   2   4 -22   60.87   11.34
  -2  -4  21  178.70   11.99
   2   4 -21  200.91   13.75
  -2  -4  20  600.03   19.79
   2   4 -20  615.46   21.09
  -2  -4  19  512.77   18.59
   2   4 -19  533.96   19.79
  -2  -4  18   13.66   10.87
   2   4 -18    7.62   11.15
  -2  -4  17  310.84   15.61
   2   4 -17  293.74   14.96
  -2  -4  16   11.34   10.41
   2   4 -16   17.28   10.78
  -2  -4  15   31.04   10.87
   2   4 -15   19.05   10.50
  -2  -4  14  886.62   26.21
   2   4 -14  811.16   24.25
  -2  -4  13  734.68   22.40
   2   4 -13  763.68   22.86
  -2  -4  12 1011.98   27.97
   2   4 -12 1061.23   29.09
  -2  -4  11   89.02    9.57
   2   4 -11  102.22    9.57
  -2  -4  10  267.91   12.82
   2   4 -10  270.60   12.27
  -2  -4   9  181.77   11.06
   2   4  -9  156.58   10.50
  -2  -4   8  159.00   10.59
   2   4  -8  133.72    8.92
  -2  -4   7 1695.00   42.47
   2   4  -7 1705.22   42.10
  -2  -4   6 1471.97   36.80
   2   4  -6 1390.20   34.94
  -2  -4   5 2847.30   67.47
   2   4  -5 2833.36   66.91
  -2  -4   4 3206.93   75.46
   2   4  -4 3146.53   73.78
  -2  -4   3 2272.08   54.08
   2   4  -3 2243.27   53.06
  -2  -4   2  141.16    7.62
   2   4  -2  121.83    6.78
  -2  -4   1  446.80   13.57
   2   4  -1  434.71   13.01
  -2  -4   0   18.12    6.04
   2   4   0    9.11    6.23
  -2  -4  -1   23.32    5.95
   2   4   1   23.32    6.41
  -2  -4  -2  583.12   16.54
   2   4   2  599.85   17.56
  -2  -4  -3  165.04    8.92
  -2  -4  -3  181.95    9.57
  -2  -4  -4  770.46   20.91
  -2  -4  -4  837.28   22.95
  -2  -4  -5 1339.09   34.10
  -2  -4  -5 1433.87   36.61
  -2  -4  -6  224.70   11.52
  -2  -4  -6  224.61   12.08
  -2  -4  -7 1054.73   28.81
  -2  -4  -7 1067.74   28.62
  -2  -4  -8  226.46   12.92
  -2  -4  -8  212.99   11.52
  -2  -4  -9 2298.10   57.34
  -2  -4  -9 2285.09   57.15
  -2  -4 -10   13.20   10.69
  -2  -4 -10  -11.06   10.13
  -2  -4 -11   14.22   10.78
  -2  -4 -11   31.32   10.13
  -2  -4 -12    6.97   10.31
  -2  -4 -12   -4.46   10.04
  -2  -4 -13    8.36   10.41
  -2  -4 -13   -8.08   10.13
  -2  -4 -14  336.30   15.80
  -2  -4 -14  337.05   14.87
  -2  -4 -15  802.06   25.00
  -2  -4 -15  780.22   23.14
  -2  -4 -16  274.14   14.03
  -2  -4 -16  260.20   14.22
  -2  -4 -17  280.92   13.47
  -2  -4 -17  269.77   13.66
  -2  -4 -18   75.55    9.94
  -2  -4 -18   99.53   10.31
  -2  -5  23   90.42   10.22
   2   5 -23   71.65   10.87
  -2  -5  22  165.69   12.17
   2   5 -22  177.86   13.10
  -2  -5  21   87.35   10.78
   2   5 -21   87.44   12.27
  -2  -5  20    8.74   10.41
   2   5 -20   19.70   11.06
  -2  -5  19   72.39   10.97
   2   5 -19   40.33   11.24
  -2  -5  18  195.43   13.29
   2   5 -18  207.14   13.94
  -2  -5  17  433.60   17.28
   2   5 -17  394.66   17.94
  -2  -5  16  154.26   12.08
   2   5 -16  173.59   14.03
  -2  -5  15 1023.13   28.53
   2   5 -15 1057.52   30.11
  -2  -5  14  181.67   11.52
   2   5 -14  217.45   13.75
  -2  -5  13  175.54   10.69
   2   5 -13  158.16   10.78
  -2  -5  12  726.60   21.56
   2   5 -12  720.56   21.56
  -2  -5  11  634.97   18.77
   2   5 -11  628.75   19.33
  -2  -5  10   85.40    8.83
   2   5 -10   72.39    9.01
  -2  -5   9  541.86   16.45
   2   5  -9  538.24   16.63
  -2  -5   8 1052.87   27.32
   2   5  -8 1092.83   28.44
  -2  -5   7   11.06    7.34
   2   5  -7    3.44    6.78
  -2  -5   6  198.96    8.92
   2   5  -6  198.21    9.11
  -2  -5   5 8107.93  186.60
   2   5  -5 7985.26  183.72
  -2  -5   4 8203.64  188.74
   2   5  -4 7792.90  179.26
  -2  -5   3  168.01    7.43
   2   5  -3  174.70    7.53
  -2  -5   2  719.44   18.49
   2   5  -2  724.37   18.77
  -2  -5   1  310.66    9.85
   2   5  -1  301.09   10.13
  -2  -5   0  110.21    6.50
   2   5   0  109.93    6.69
  -2  -5  -1  503.30   14.22
   2   5   1  516.12   14.87
  -2  -5  -2 2124.32   50.83
  -2  -5  -2 2224.68   53.43
  -2  -5  -3 1464.54   36.80
  -2  -5  -3 1545.38   38.75
  -2  -5  -4  162.72    9.57
  -2  -5  -4  184.28   10.04
  -2  -5  -5    5.76    7.62
  -2  -5  -5   14.96    7.43
  -2  -5  -6 1169.03   30.85
  -2  -5  -6 1131.86   30.20
  -2  -5  -7   56.50    9.20
  -2  -5  -7   44.14    9.11
  -2  -5  -8  516.31   17.19
  -2  -5  -8  478.02   17.28
  -2  -5  -9   32.52    9.66
  -2  -5  -9   25.28   10.22
  -2  -5 -10   -0.84    9.85
  -2  -5 -10   -1.30   10.04
  -2  -5 -11   10.78   10.87
  -2  -5 -11   23.79    9.76
  -2  -5 -12  104.64   11.52
  -2  -5 -12   95.62   10.69
  -2  -5 -13  499.86   17.75
  -2  -5 -13  528.39   18.96
  -2  -5 -14  584.05   19.89
  -2  -5 -14  546.69   19.14
  -2  -5 -15   81.03   10.97
  -2  -5 -15   56.22   11.06
  -2  -5 -16  398.47   15.33
  -2  -5 -16  400.33   15.43
  -2  -5 -17  107.24   10.04
  -2  -5 -17  105.84   10.13
  -2  -6  23   60.03    9.57
   2   6 -23   47.39   10.59
  -2  -6  22    5.20    9.66
   2   6 -22   -2.51   10.59
  -2  -6  21   15.70   10.41
   2   6 -21    4.46   10.97
  -2  -6  20  125.82   11.99
   2   6 -20  117.74   12.55
  -2  -6  19  509.80   18.77
   2   6 -19  514.17   19.51
  -2  -6  18  955.29   27.97
   2   6 -18  972.95   28.53
  -2  -6  17  629.21   22.02
   2   6 -17  642.69   21.75
  -2  -6  16  832.91   25.83
   2   6 -16  855.49   26.11
  -2  -6  15  841.27   25.56
   2   6 -15  874.08   26.58
  -2  -6  14  541.67   20.07
   2   6 -14  492.79   18.49
  -2  -6  13   24.81    9.85
   2   6 -13    8.74    9.94
  -2  -6  12  153.33   11.06
   2   6 -12  151.56   10.22
  -2  -6  11  437.69   15.61
   2   6 -11  412.78   14.50
  -2  -6  10   32.90    8.27
   2   6 -10   20.44    7.25
  -2  -6   9  255.92   11.15
   2   6  -9  252.11   10.59
  -2  -6   8 2228.40   53.90
   2   6  -8 2260.93   54.27
  -2  -6   7 1169.96   29.83
   2   6  -7 1148.58   28.90
  -2  -6   6 2351.07   55.57
   2   6  -6 2553.65   60.59
  -2  -6   5  491.87   13.75
   2   6  -5  505.15   14.12
  -2  -6   4   46.84    4.93
   2   6  -4   50.27    5.11
  -2  -6   3   75.83    5.20
   2   6  -3   73.23    5.20
  -2  -6   2   77.41    5.11
   2   6  -2   72.02    5.39
  -2  -6   1  827.43   20.91
   2   6  -1  821.94   21.00
  -2  -6   0 2117.82   50.37
  -2  -6  -1 1665.26   40.33
  -2  -6  -1 1668.05   40.33
  -2  -6  -2 2762.73   65.61
  -2  -6  -2 2685.61   63.38
  -2  -6  -3 1663.40   40.70
  -2  -6  -3 1629.95   40.05
  -2  -6  -4 1830.67   45.26
  -2  -6  -4 1812.09   44.33
  -2  -6  -5 1438.52   36.15
  -2  -6  -5 1445.02   36.89
  -2  -6  -6    3.90    8.08
  -2  -6  -6   10.97    7.99
  -2  -6  -7   12.82    9.29
  -2  -6  -7   20.44    8.46
  -2  -6  -8  223.03   13.29
  -2  -6  -8  227.49   12.36
  -2  -6  -9  475.42   17.56
  -2  -6  -9  464.36   17.01
  -2  -6 -10  543.44   18.21
  -2  -6 -10  546.51   18.86
  -2  -6 -12  181.30   12.92
  -2  -6 -12  159.65   12.17
  -2  -6 -13  418.17   16.54
  -2  -6 -13  449.49   17.47
  -2  -6 -14  139.48   12.27
  -2  -6 -14  151.75   12.17
  -2  -6 -15  147.10   11.62
  -2  -6 -15  137.44   11.15
  -2  -6 -16   18.03    9.66
  -2  -6 -16    6.88   10.04
  -2  -7  23    9.48    9.76
   2   7 -23    6.23   10.50
  -2  -7  22  331.47   14.31
   2   7 -22  329.34   15.70
  -2  -7  21  509.43   18.21
   2   7 -21  499.95   19.24
  -2  -7  20  137.44   11.99
   2   7 -20  126.29   13.01
  -2  -7  19  250.25   13.75
   2   7 -19  286.12   15.24
  -2  -7  18  913.94   26.11
   2   7 -18  854.19   26.11
  -2  -7  17  496.14   18.03
   2   7 -17  517.51   19.61
  -2  -7  16  459.81   17.01
   2   7 -16  467.43   18.31
  -2  -7  15    8.83    9.76
   2   7 -15   -0.09   10.97
  -2  -7  14  294.30   13.85
   2   7 -14  281.94   14.22
  -2  -7  13  148.96   11.24
   2   7 -13  163.65   11.62
  -2  -7  12   13.66    7.81
   2   7 -12   30.02    9.48
  -2  -7  11  516.21   16.54
   2   7 -11  525.97   16.73
  -2  -7  10 2001.66   48.88
   2   7 -10 2009.09   49.16
  -2  -7   9 1429.23   35.50
   2   7  -9 1430.15   35.68
  -2  -7   8  726.04   20.07
   2   7  -8  720.84   19.70
  -2  -7   7 1005.48   25.74
   2   7  -7  996.18   25.28
  -2  -7   6  925.19   23.51
   2   7  -6  956.22   23.98
  -2  -7   5  642.50   16.91
   2   7  -5  703.93   18.21
  -2  -7   4 1197.84   29.37
   2   7  -4 1103.98   26.76
  -2  -7   3  912.18   22.67
   2   7  -3  945.07   23.23
  -2  -7   2  153.80    6.60
   2   7  -2  157.98    6.41
  -2  -7   1 1919.88   45.72
  -2  -7   1 1841.82   43.77
  -2  -7   0 2682.82   63.00
  -2  -7   0 2573.16   60.68
  -2  -7  -1 4194.75   97.57
  -2  -7  -1 4170.59   97.39
  -2  -7  -2  434.90   13.10
  -2  -7  -2  430.72   13.85
  -2  -7  -3   83.73    7.16
  -2  -7  -3   80.10    7.81
  -2  -7  -4   22.58    7.53
  -2  -7  -4   11.89    7.16
  -2  -7  -5  169.59   10.97
  -2  -7  -5  150.82    9.76
  -2  -7  -6    9.20    8.74
  -2  -7  -6   16.36    8.92
  -2  -7  -7  180.84   10.97
  -2  -7  -7  154.82   10.97
  -2  -7  -8 1287.05   33.36
  -2  -7  -8 1280.54   34.29
  -2  -7  -9  680.04   20.91
  -2  -7  -9  718.24   22.02
  -2  -7 -10  714.71   21.93
  -2  -7 -10  721.95   21.93
  -2  -7 -11  527.92   18.59
  -2  -7 -11  548.18   18.96
  -2  -7 -12  462.50   17.28
  -2  -7 -12  463.24   17.56
  -2  -7 -13  116.81   11.43
  -2  -7 -13  111.61   11.15
  -2  -7 -14   11.43    9.57
  -2  -7 -14   30.39    9.76
  -2  -7 -15  -10.97    9.48
  -2  -7 -15    7.71    9.20
   2   8 -23  282.13   12.45
   2   8 -23  265.87   13.85
  -2  -8  22  347.64   14.12
   2   8 -22  328.87   15.52
  -2  -8  21  192.27   12.92
   2   8 -21  195.24   13.57
  -2  -8  20  142.18   12.82
   2   8 -20  154.72   13.29
  -2  -8  19  477.74   17.66
   2   8 -19  490.19   18.49
  -2  -8  18   12.92   10.97
   2   8 -18    0.65   10.50
  -2  -8  17   18.12   10.78
   2   8 -17   -5.02   10.31
  -2  -8  16  -11.06   11.06
   2   8 -16    9.29   10.04
  -2  -8  15  109.00   11.71
   2   8 -15  101.20   11.06
  -2  -8  14  624.57   20.63
   2   8 -14  660.25   20.91
  -2  -8  13  993.40   27.97
   2   8 -13  923.70   26.30
  -2  -8  12 1116.06   30.11
   2   8 -12 1159.74   31.32
  -2  -8  11  128.80    9.48
   2   8 -11  133.07   10.31
  -2  -8  10  265.59   10.97
   2   8 -10  251.65   10.50
  -2  -8   9  835.70   21.84
   2   8  -9  838.58   22.21
  -2  -8   8 1295.41   32.06
   2   8  -8 1253.59   30.94
  -2  -8   7    3.44    4.37
   2   8  -7   14.59    5.02
  -2  -8   6  570.48   14.68
   2   8  -6  668.80   17.28
  -2  -8   5  558.03   14.50
   2   8  -5  554.87   14.22
  -2  -8   4  141.71    5.30
   2   8  -4  159.09    5.48
  -2  -8   2 1782.35   42.75
  -2  -8   2 1663.40   39.96
  -2  -8   1 1886.43   44.61
  -2  -8   1 1775.84   42.37
  -2  -8   0  167.64    6.97
  -2  -8   0  170.71    6.50
  -2  -8  -1   10.13    5.58
  -2  -8  -1    0.65    5.11
  -2  -8  -2  522.72   15.15
  -2  -8  -2  533.68   15.43
  -2  -8  -3   52.32    7.71
  -2  -8  -3   54.64    7.62
  -2  -8  -4  232.23   10.13
  -2  -8  -4  213.36   10.31
  -2  -8  -5  509.43   16.45
  -2  -8  -5  539.63   17.56
  -2  -8  -6  224.05   12.17
  -2  -8  -6  225.91   11.71
  -2  -8  -7  898.24   25.56
  -2  -8  -7  857.16   24.35
  -2  -8  -8  897.31   25.18
  -2  -8  -8  914.87   26.11
  -2  -8  -9 1265.67   33.92
  -2  -8  -9 1289.83   34.38
  -2  -8 -11   39.77   10.04
  -2  -8 -11   19.79    9.66
  -2  -8 -12   95.99   10.50
  -2  -8 -12  118.20   10.97
  -2  -8 -13   24.25    9.94
  -2  -8 -13   21.93    9.20
  -2  -8 -14    4.00   10.04
  -2  -8 -14    5.95    9.39
   2   9 -23   48.04    9.66
   2   9 -23   40.24   11.52
   2   9 -22  147.48   10.41
   2   9 -22  132.70   12.36
  -2  -9  21  135.12   11.06
   2   9 -21  118.76   12.27
  -2  -9  20  184.55   12.64
   2   9 -20  154.07   12.27
  -2  -9  19    1.02   10.78
   2   9 -19   -7.34   10.04
  -2  -9  18   -3.25   11.24
   2   9 -18   -8.08    9.94
  -2  -9  17   40.70   10.59
   2   9 -17   39.87    9.85
  -2  -9  16  544.93   17.94
   2   9 -16  566.11   19.70
  -2  -9  15 1664.33   41.82
   2   9 -15 1577.91   40.80
  -2  -9  14  541.58   18.12
   2   9 -14  563.42   19.24
  -2  -9  13  434.99   15.89
   2   9 -13  452.46   16.26
  -2  -9  12  454.04   15.80
   2   9 -12  473.65   16.26
  -2  -9  11   75.46    9.20
   2   9 -11   84.75    8.55
  -2  -9  10  502.46   15.70
   2   9 -10  534.24   16.36
  -2  -9   9   13.75    6.04
   2   9  -9    7.90    5.85
  -2  -9   8  319.95   10.59
   2   9  -8  311.21   10.04
  -2  -9   7   27.88    4.55
   2   9  -7   45.53    4.74
  -2  -9   6  187.34    6.23
   2   9  -6  229.90    6.97
  -2  -9   0   72.20    5.02
  -2  -9   0   62.35    4.83
  -2  -9  -1  287.61    9.66
  -2  -9  -1  283.24    9.48
  -2  -9  -3  238.92   10.31
  -2  -9  -3  234.92   10.13
  -2  -9  -4  513.24   17.10
  -2  -9  -4  473.74   15.52
  -2  -9  -5   17.75    7.71
  -2  -9  -5   35.78    8.64
  -2  -9  -6  454.69   16.08
  -2  -9  -6  486.48   16.63
  -2  -9  -7  625.40   20.17
  -2  -9  -7  611.56   19.42
  -2  -9  -8  458.88   17.01
  -2  -9  -8  431.83   15.52
  -2  -9  -9  148.31   10.78
  -2  -9  -9  164.02   12.17
  -2  -9 -10    3.53   10.41
  -2  -9 -10   -0.46    8.74
  -2  -9 -11   12.36   11.15
  -2  -9 -11    6.41    8.92
  -2  -9 -12  106.87    9.94
  -2  -9 -12  132.79   12.27
   2  10 -23   -7.53   12.64
   2  10 -23   26.39   10.59
   2  10 -22   18.68    9.29
   2  10 -22   -0.74   10.41
   2  10 -21   11.06   10.59
   2  10 -21   22.95    9.39
   2  10 -20   -1.86   10.13
  -2 -10  19    6.41    9.39
   2  10 -19   -9.48   11.43
  -2 -10  18  293.47   14.87
   2  10 -18  256.20   13.20
  -2 -10  17  434.06   16.82
   2  10 -17  413.90   16.26
  -2 -10  16  122.48   11.43
   2  10 -16   89.86   10.50
  -2 -10  15  305.82   14.40
   2  10 -15  306.20   13.85
  -2 -10  14  797.97   23.79
   2  10 -14  773.44   22.77
  -2 -10  13  631.81   19.61
   2  10 -13  605.98   18.96
  -2 -10  12  304.99   12.64
   2  10 -12  291.42   12.36
  -2 -10  11    7.62    7.34
   2  10 -11   13.20    7.34
  -2 -10  10  425.33   13.01
   2  10 -10  398.84   12.73
  -2 -10   9  844.53   21.56
   2  10  -9  858.09   21.93
   2  10  -8 1943.11   46.37
  -2 -10   0   51.95    3.44
  -2 -10  -1   31.97    4.93
  -2 -10  -1   22.58    4.46
  -2 -10  -2  -10.22    4.83
  -2 -10  -2   -7.81    5.76
  -2 -10  -9   -1.58    8.36
  -2 -10  -9   -5.30   11.62
  -2 -10 -10   36.43    8.83
  -2 -10 -10   18.03   11.99
   2  11 -22    5.58   11.80
   2  11 -22    1.12    9.29
   2  11 -21  -20.72   11.80
   2  11 -21    5.20    8.92
   2  11 -20  176.66   12.92
   2  11 -20  190.32   12.27
   2  11 -19  223.68   14.50
   2  11 -19  199.70   12.36
   2  11 -18  203.79   13.75
   2  11 -18  222.38   12.36
   2  11 -17  445.31   17.19
   2  11 -16  777.80   23.32
   2  11 -15  249.79   12.64
  -2 -11  14    9.20    9.20
   2  11 -14   -3.72    8.83
   2  11 -13    5.39    7.71
   2  11 -12   18.12    6.78
   2  11 -11  578.20   16.26
   2  11 -11  599.01   16.63
   2  11 -10 1486.84   36.15
   2  11 -10 1427.37   34.85
  -2 -11  -2  364.93   10.78
  -2 -11  -3  261.96    9.11
  -2 -11  -3  275.25   10.69
  -2 -11  -4    8.55    6.32
  -2 -11  -4    4.09    8.27
   2  12 -20  110.40   10.69
   2  12 -20  100.45   12.17
   2  12 -19  313.63   14.87
   2  12 -19  318.56   13.75
   2  12 -18  319.67   13.94
   2  12 -18  345.13   14.96
   2  12 -17  144.87   11.52
   2  12 -17  162.99   10.97
   2  12 -16    5.48    8.46
   2  12 -16   -3.53    9.29
   2  12 -15    9.94    8.46
   2  12 -15   13.29    8.08
   2  12 -14  152.22    9.39
   2  12 -14  145.43    9.76
   2  12 -13   36.33    6.88
   2  12 -13   29.64    6.32
   2  12 -12  901.77   23.14
   2  12 -12  977.60   24.81
   2  12 -11  779.38   19.89
   2  12 -11  738.12   18.86
  -2 -12  -4   -7.99    8.46
  -2 -12  -4   11.71    7.62
  -2 -12  -5   22.12    7.71
  -2 -12  -5   14.68   11.15
  -2 -12  -7    8.27   12.64
  -2 -12  -7    5.11    6.97
   2  13 -20   54.83   11.89
   2  13 -20   34.75   11.62
   2  13 -19    9.66    9.85
   2  13 -19   11.89   11.80
   2  13 -18   35.13   10.50
   2  13 -18   26.48    9.20
   2  13 -17   15.98   10.31
   2  13 -17   17.01    9.11
   2  13 -16   12.73    8.74
   2  13 -16   -0.65    8.55
   2  13 -15   33.64    7.81
   2  13 -15   43.68    7.16
   2  13 -13  453.86   12.92
   2  13 -13  483.22   13.85
   2  14 -20   -1.30   13.29
   2  14 -20   26.30   13.29
   2  14 -19   11.71    9.85
   2  14 -19   25.46   11.43
   2  14 -18    5.85   10.13
   2  14 -18   26.67    9.57
   2  14 -17   35.22    7.71
   2  14 -17   42.93    8.92
   2  14 -16   65.05    8.36
   2  14 -16   47.86    7.34
   2  15 -18   31.32    9.76
   2  15 -18   37.45    9.01
   2  15 -17  319.48   11.06
   2  15 -17  333.98   13.29
  -3  18 -15  184.18   11.15
  -3  18 -15  197.56    9.11
  -3  17 -12   26.76    5.58
  -3  17 -12   19.24    6.60
  -3  17 -13   49.34    6.41
  -3  17 -13   54.73    8.36
  -3  17 -14   54.36    9.57
  -3  17 -14   75.46    7.53
  -3  17 -15   53.06    8.18
  -3  17 -15   43.21   10.04
  -3  17 -16  324.69   16.08
  -3  17 -16  301.64   12.92
  -3  17 -17  233.90   15.33
  -3  17 -17  187.25   11.34
   3 -16  -5   16.08   12.55
  -3  16 -12   82.33    6.41
  -3  16 -12   78.71    8.46
  -3  16 -13  186.41    9.39
  -3  16 -13  168.01   10.59
  -3  16 -14  326.18   12.17
  -3  16 -14  346.15   14.96
  -3  16 -15  112.35    8.74
  -3  16 -15  106.40   11.62
  -3  16 -16   -3.25    7.99
  -3  16 -16   15.80   10.97
  -3  16 -17   -1.95    9.76
  -3  16 -17   -0.93   10.97
  -3  16 -18  -21.37   11.24
  -3  16 -18  -15.61   11.71
   3 -15  -6   57.43    9.85
   3 -15  -6   58.54   10.41
  -3  15   5   82.05    8.74
   3 -15  -5   81.50    9.29
  -3  15   4    8.83    6.88
   3 -15  -4   25.74    7.71
  -3  15   3    4.74    5.67
   3 -15  -3   13.29    8.55
  -3  15   2    6.50    4.74
   3 -15  -2   14.96    9.66
  -3  15   1   58.92    5.30
  -3  15   0  386.49   11.24
  -3  15  -1  160.21    6.32
  -3  15  -2  209.64    7.34
  -3  15  -7  176.93    6.78
  -3  15  -7  161.14    6.88
  -3  15  -8  129.26    7.06
  -3  15  -8  131.49    6.41
  -3  15  -9  231.85    8.64
  -3  15  -9  223.49    9.29
  -3  15 -10  548.55   15.61
  -3  15 -10  555.99   16.26
  -3  15 -11  876.86   23.32
  -3  15 -11  854.56   23.23
  -3  15 -12  209.46   11.34
  -3  15 -12  195.80    9.39
  -3  15 -13  244.40   10.69
  -3  15 -13  242.35   11.99
  -3  15 -14    6.78    7.99
  -3  15 -14   14.03    9.57
  -3  15 -15   14.78    8.18
  -3  15 -15    9.01    9.76
  -3  15 -16   -7.34    7.90
  -3  15 -16    1.39    9.85
  -3  15 -17   86.14   10.13
  -3  15 -17   90.42   12.36
  -3  15 -18  216.71   13.85
  -3  15 -18  209.09   12.08
  -3  15 -20   19.14   14.50
  -3  14   8   18.86    9.66
   3 -14  -8    5.76    8.46
  -3  14   7   18.59    7.99
   3 -14  -7    0.46    8.46
  -3  14   6   15.24    7.43
   3 -14  -6   -2.97    8.64
  -3  14   5   64.03    7.71
   3 -14  -5   70.62    8.92
  -3  14   4  166.80    9.39
   3 -14  -4  168.01    9.39
  -3  14   3  432.39   13.75
   3 -14  -3  461.57   15.05
  -3  14   2  657.74   18.31
   3 -14  -2  714.52   19.98
  -3  14   1  561.47   15.61
   3 -14  -1  588.97   16.63
  -3  14   0  113.65    6.88
   3 -14   0  115.60    7.25
  -3  14  -1    9.76    5.30
   3 -14   1   -0.84    5.11
  -3  14  -2  260.48    8.83
  -3  14  -3   14.78    4.74
  -3  14  -4    1.77    5.02
  -3  14  -5   88.65    6.04
  -3  14  -6  124.99    6.69
  -3  14  -6  117.55    7.16
  -3  14  -7    7.90    5.39
  -3  14  -7    6.97    5.76
  -3  14  -8  123.87    7.62
  -3  14  -8  103.99    7.53
  -3  14  -9  347.08   11.71
  -3  14  -9  343.37   12.08
  -3  14 -10  218.10    9.57
  -3  14 -10  197.84   10.22
  -3  14 -11    8.64    6.69
  -3  14 -11    0.19    8.46
  -3  14 -12  299.78   12.08
  -3  14 -12  320.23   13.57
  -3  14 -13   18.59    7.81
  -3  14 -13   14.87    9.48
  -3  14 -14  108.63   10.78
  -3  14 -14   92.09    9.20
  -3  14 -15  185.20   11.15
  -3  14 -15  176.66   11.80
  -3  14 -16   58.08    9.39
  -3  14 -16   54.73   10.13
  -3  14 -17   98.41   10.78
  -3  14 -17   82.71   11.06
  -3  14 -18   82.71   10.22
  -3  14 -18   72.11   10.87
  -3  14 -20   98.97   12.82
  -3  14 -20   54.36   11.80
  -3  13  10   10.50   13.47
   3 -13 -10  105.57    8.18
  -3  13   9   16.54    9.11
   3 -13  -9   13.10    8.55
  -3  13   8    5.48    8.08
   3 -13  -8    2.97    8.64
  -3  13   7   14.96    7.81
   3 -13  -7   34.01    8.74
  -3  13   6   38.94    8.36
   3 -13  -6   30.94    8.46
  -3  13   5  241.89   11.15
   3 -13  -5  247.65   11.15
  -3  13   4  328.22   12.36
   3 -13  -4  340.49   12.55
  -3  13   3  659.41   18.96
   3 -13  -3  612.11   18.03
  -3  13   2  427.84   13.66
   3 -13  -2  460.18   14.50
  -3  13   1  515.93   15.24
   3 -13  -1  544.83   16.08
  -3  13   0  114.67    7.81
   3 -13   0  103.15    7.34
  -3  13  -1    2.97    5.58
   3 -13   1   -3.81    5.85
  -3  13  -2  189.57    8.74
   3 -13   2  207.51    8.92
  -3  13  -3  392.43   12.45
   3 -13   3  409.53   13.10
  -3  13  -4  882.16   22.95
   3 -13   4  919.98   24.07
  -3  13  -5 1909.66   46.18
   3 -13   5 2010.02   48.69
  -3  13  -6 1223.86   30.57
   3 -13   6 1205.27   30.29
  -3  13  -7  785.24   21.28
  -3  13  -7  806.24   21.65
  -3  13  -8   89.40    6.88
  -3  13  -8  101.01    8.18
  -3  13  -9   46.37    8.18
  -3  13  -9   57.06    7.43
  -3  13 -10   10.59    8.18
  -3  13 -10   15.61    6.88
  -3  13 -11  108.45    9.39
  -3  13 -11   97.95    8.83
  -3  13 -12   58.45    7.71
  -3  13 -12   60.22    9.39
  -3  13 -13  340.95   14.31
  -3  13 -13  336.40   13.94
  -3  13 -14  289.47   14.50
  -3  13 -14  303.04   13.47
  -3  13 -15   41.54   10.04
  -3  13 -15   44.98    9.29
  -3  13 -16  205.09   12.08
  -3  13 -16  233.62   13.20
  -3  13 -17  388.44   15.52
  -3  13 -17  361.86   15.52
  -3  13 -18   17.75   10.13
  -3  13 -18   31.22    9.85
  -3  13 -19   -0.93    9.85
  -3  13 -19    3.07    9.39
  -3  13 -20    3.07    9.85
  -3  13 -20   -6.97    9.48
  -3  13 -21    4.93   10.87
  -3  13 -21    3.35   10.50
  -3  12  11   -7.99    9.20
   3 -12 -11    5.20    8.92
  -3  12  10    4.37    8.64
   3 -12 -10    4.46    8.36
  -3  12   9   54.64    8.92
   3 -12  -9   45.72    8.83
  -3  12   8  674.84   20.54
   3 -12  -8  683.95   20.07
  -3  12   7  569.92   18.03
   3 -12  -7  515.65   17.10
  -3  12   6  437.97   14.96
   3 -12  -6  405.81   14.68
  -3  12   5  337.42   13.20
   3 -12  -5  322.46   13.29
  -3  12   4  877.61   23.98
   3 -12  -4  927.70   25.56
  -3  12   3   86.33    8.36
   3 -12  -3   93.76    8.92
  -3  12   2  433.79   14.31
   3 -12  -2  433.32   14.12
  -3  12   1   55.20    7.25
   3 -12  -1   64.96    7.43
  -3  12   0  467.70   14.68
   3 -12   0  469.01   14.68
  -3  12  -1   10.59    6.32
   3 -12   1    6.69    6.13
  -3  12  -2  262.52    9.94
   3 -12   2  231.48    9.39
  -3  12  -3  196.45    8.74
   3 -12   3  184.00    8.36
  -3  12  -4  821.85   21.84
   3 -12   4  780.41   21.00
  -3  12  -5  527.27   15.24
   3 -12   5  543.07   16.26
  -3  12  -6  324.50   11.06
   3 -12   6  349.22   12.55
  -3  12  -7  282.04   10.78
   3 -12   7  292.26   11.34
  -3  12  -8  166.80    8.55
  -3  12  -8  152.31    8.92
  -3  12  -9   30.20    7.25
  -3  12  -9   27.97    8.27
  -3  12 -10  695.00   20.54
  -3  12 -10  711.82   21.28
  -3  12 -11  685.99   20.44
  -3  12 -11  684.60   20.91
  -3  12 -12  769.63   22.86
  -3  12 -12  754.01   22.77
  -3  12 -13  816.74   24.35
  -3  12 -13  804.75   23.70
  -3  12 -14  574.20   19.14
  -3  12 -14  585.91   20.07
  -3  12 -15  832.44   25.00
  -3  12 -15  781.06   23.79
  -3  12 -16  344.48   15.24
  -3  12 -16  361.12   15.61
  -3  12 -17    9.39    9.57
  -3  12 -17    5.76   10.13
  -3  12 -18   13.94    9.11
  -3  12 -18   24.63   10.87
  -3  12 -19   27.97   10.04
  -3  12 -19   16.26   10.69
  -3  12 -20   55.38   10.13
  -3  12 -20   36.71   11.06
  -3  11  13   13.20    9.57
   3 -11 -13   23.60    9.11
  -3  11  12    7.99    8.92
   3 -11 -12   13.29    9.20
  -3  11  11   33.73    9.48
   3 -11 -11   35.68    9.29
  -3  11  10  238.08   12.36
   3 -11 -10  246.35   12.36
  -3  11   9  885.04   25.09
   3 -11  -9  964.59   26.67
  -3  11   8  491.12   16.82
   3 -11  -8  491.21   17.10
  -3  11   7  640.27   19.79
   3 -11  -7  652.35   19.98
  -3  11   6  717.77   21.37
   3 -11  -6  631.07   19.05
  -3  11   5  657.18   19.70
   3 -11  -5  639.53   19.42
  -3  11   4    0.19    7.25
   3 -11  -4    6.60    7.99
  -3  11   3    4.93    7.25
   3 -11  -3    3.90    7.71
  -3  11   2   65.05    7.99
   3 -11  -2   60.31    7.71
  -3  11   1 1366.03   34.66
   3 -11  -1 1277.75   32.25
  -3  11   0  552.08   16.54
   3 -11   0  579.59   17.10
  -3  11  -1 1389.27   34.66
   3 -11   1 1390.20   34.75
  -3  11  -2 1616.01   39.59
   3 -11   2 1721.02   42.28
  -3  11  -3  998.97   25.65
   3 -11   3 1001.76   26.02
  -3  11  -4  369.02   11.99
   3 -11   4  392.06   12.92
  -3  11  -5  669.54   18.77
   3 -11   5  714.61   19.98
  -3  11  -6  214.76    9.66
   3 -11   6  219.03   10.04
  -3  11  -7  235.76   10.41
   3 -11   7  222.75   10.31
  -3  11  -8   63.00    7.71
   3 -11   8   49.25    7.62
  -3  11  -9  786.72   22.21
  -3  11  -9  769.63   22.21
  -3  11 -10  567.79   17.66
  -3  11 -10  609.42   19.24
  -3  11 -11  514.26   17.19
  -3  11 -11  507.57   17.38
  -3  11 -12  428.40   15.80
  -3  11 -12  441.31   16.73
  -3  11 -13  278.32   13.94
  -3  11 -13  281.29   14.12
  -3  11 -14   35.50   10.04
  -3  11 -14   28.71   10.13
  -3  11 -15  517.42   18.68
  -3  11 -15  492.89   17.75
  -3  11 -16   -2.04    9.57
  -3  11 -16   -6.88   10.50
  -3  11 -17   24.44    9.94
  -3  11 -17   27.23   10.87
  -3  11 -18  182.97   12.36
  -3  11 -18  171.92   11.99
  -3  11 -19  129.17   12.08
  -3  11 -19  128.33   11.71
  -3  11 -20   -7.62    9.66
  -3  11 -20   15.98   10.87
  -3  11 -21   15.70    9.57
  -3  11 -21   32.80   10.97
  -3  11 -22  155.56   12.45
  -3  11 -22  145.90   11.24
  -3  10  14    7.99    8.36
   3 -10 -14   -6.04    9.29
  -3  10  13   12.82    8.27
   3 -10 -13    8.83    9.76
  -3  10  12   -1.58    8.74
   3 -10 -12    7.16    9.29
  -3  10  11   87.54   10.13
   3 -10 -11  108.82   10.69
  -3  10  10   72.39    9.57
   3 -10 -10   57.43    9.94
  -3  10   9  120.71   10.13
   3 -10  -9  119.88   10.13
  -3  10   8  190.59   11.71
   3 -10  -8  187.71   11.24
  -3  10   7   75.36    9.66
   3 -10  -7   53.81    9.29
  -3  10   6   31.87    7.81
   3 -10  -6   -3.16    8.27
  -3  10   5   41.54    8.36
   3 -10  -5   56.69    8.36
  -3  10   4   95.34    9.11
   3 -10  -4  115.88    9.39
  -3  10   3  105.38    9.48
   3 -10  -3   93.39    8.83
  -3  10   2 2077.86   50.74
   3 -10  -2 2081.58   50.92
  -3  10   1  313.26   11.99
   3 -10  -1  332.31   12.17
  -3  10   0  758.10   20.72
   3 -10   0  745.93   20.44
  -3  10  -1 1465.47   36.43
   3 -10   1 1535.16   37.91
  -3  10  -2 1484.98   36.71
   3 -10   2 1505.43   37.08
  -3  10  -3 1366.96   34.20
   3 -10   3 1303.77   32.43
  -3  10  -4   39.03    6.78
   3 -10   4   42.56    6.13
  -3  10  -5   17.28    6.23
   3 -10   5   16.63    6.78
  -3  10  -6  513.24   15.80
   3 -10   6  496.14   15.61
  -3  10  -7   10.22    6.41
   3 -10   7   17.47    7.71
  -3  10  -8  722.23   20.72
   3 -10   8  671.12   19.98
  -3  10  -9 1738.67   43.95
  -3  10 -10 1159.74   31.22
  -3  10 -10 1170.89   31.60
  -3  10 -11  147.48   11.52
  -3  10 -11  162.62   11.15
  -3  10 -13   20.63    9.76
  -3  10 -13    6.50   10.78
  -3  10 -14  174.98   12.36
  -3  10 -14  180.28   12.82
  -3  10 -15   35.78   10.69
  -3  10 -15   46.00   10.59
  -3  10 -16  305.92   14.96
  -3  10 -16  310.38   15.61
  -3  10 -17  466.22   17.47
  -3  10 -17  460.36   18.21
  -3  10 -18  186.88   12.73
  -3  10 -18  203.33   13.01
  -3  10 -19  182.60   12.08
  -3  10 -19  170.24   12.92
  -3  10 -20  520.95   18.68
  -3  10 -20  489.54   18.40
  -3  10 -21  155.84   12.55
  -3  10 -21  152.59   11.89
  -3  10 -22   45.16    9.94
  -3  10 -22   53.71   10.87
  -3   9  15  186.13   10.69
   3  -9 -15  167.36   10.69
  -3   9  14  438.34   15.52
   3  -9 -14  417.34   15.52
  -3   9  13  604.21   19.42
   3  -9 -13  582.01   18.59
  -3   9  12 1276.82   33.64
   3  -9 -12 1269.39   33.55
  -3   9  11  784.31   23.51
   3  -9 -11  818.51   24.35
  -3   9  10  347.08   15.24
   3  -9 -10  364.37   14.87
  -3   9   9  241.33   12.36
   3  -9  -9  194.50   12.45
  -3   9   8   68.39    9.01
   3  -9  -8   66.16    9.94
  -3   9   7  235.57   11.99
   3  -9  -7  242.08   12.45
  -3   9   6   14.59    8.36
   3  -9  -6    5.11    7.81
  -3   9   5  174.80   10.69
   3  -9  -5  166.34    9.57
  -3   9   4  277.39   12.36
   3  -9  -4  279.53   12.27
  -3   9   3   88.37    8.36
   3  -9  -3   75.83    8.18
  -3   9   2  189.11    9.48
   3  -9  -2  197.38   10.13
  -3   9   1  191.24    9.29
   3  -9  -1  181.77    9.57
  -3   9   0  979.46   25.74
   3  -9   0  923.05   24.63
  -3   9  -1  250.72   10.13
   3  -9   1  249.51   10.59
  -3   9  -2   20.17    6.50
   3  -9   2   10.22    6.13
  -3   9  -3   93.76    7.34
   3  -9   3  108.26    8.08
  -3   9  -4   10.69    6.23
   3  -9   4   -0.56    6.60
  -3   9  -5  417.43   13.75
   3  -9   5  425.24   14.68
  -3   9  -6 1714.51   42.37
   3  -9   6 1711.72   42.47
  -3   9  -7 2177.29   53.25
   3  -9   7 2062.06   50.27
  -3   9  -8 1130.00   29.83
   3  -9   8 1109.55   29.64
  -3   9  -9  498.00   16.36
   3  -9   9  525.32   17.01
  -3   9 -10    5.76    7.71
  -3   9 -10   15.98    8.46
  -3   9 -11  311.68   14.03
  -3   9 -11  297.09   13.85
  -3   9 -12   -8.27   10.22
  -3   9 -12    3.72   10.22
  -3   9 -13  296.07   14.59
  -3   9 -13  285.66   14.78
  -3   9 -14    3.07   10.04
  -3   9 -14   18.59   10.50
  -3   9 -15   44.88   10.50
  -3   9 -15   36.24   10.78
  -3   9 -16   26.11   10.13
  -3   9 -16   12.08   11.34
  -3   9 -17  151.29   12.45
  -3   9 -17  140.51   12.82
  -3   9 -18  224.51   13.20
  -3   9 -18  228.42   14.22
  -3   9 -19  332.40   15.15
  -3   9 -19  367.62   16.26
  -3   9 -20   34.85   10.50
  -3   9 -20   38.84   10.87
  -3   9 -21    6.97    9.66
  -3   9 -21    9.57   10.13
  -3   9 -22    6.13    9.39
  -3   9 -22   34.85   10.69
  -3   8  16  206.02   11.43
   3  -8 -16  205.37   11.89
  -3   8  15  281.48   13.01
   3  -8 -15  298.85   14.03
  -3   8  14  632.74   20.44
   3  -8 -14  665.92   20.63
  -3   8  13  885.13   25.56
   3  -8 -13  883.83   26.02
  -3   8  12  196.73   12.17
   3  -8 -12  204.07   11.89
  -3   8  11  114.11   11.24
   3  -8 -11  112.81   10.97
  -3   8  10   29.18   10.04
   3  -8 -10   22.58    9.48
  -3   8   9   77.69    9.94
   3  -8  -9   86.24   10.31
  -3   8   8 1083.53   30.02
   3  -8  -8 1036.14   28.71
  -3   8   7  398.66   15.05
   3  -8  -7  400.24   15.24
  -3   8   6 1391.12   36.24
   3  -8  -6 1390.20   36.24
  -3   8   5 2870.53   68.95
   3  -8  -5 2952.31   71.09
  -3   8   4  337.98   13.01
   3  -8  -4  311.86   12.64
  -3   8   3 1258.24   32.52
   3  -8  -3 1245.23   32.15
  -3   8   2  589.44   17.75
   3  -8  -2  605.33   17.75
  -3   8   1  253.41   10.87
   3  -8  -1  227.21   10.31
  -3   8   0  180.84    9.48
   3  -8   0  174.24    9.01
  -3   8  -1  228.79   10.22
   3  -8   1  237.24   10.41
  -3   8  -2  165.50    9.01
   3  -8   2  178.33    9.20
  -3   8  -3 2007.23   48.79
   3  -8   3 2062.06   50.00
  -3   8  -4 2527.63   60.68
   3  -8   4 2485.81   59.66
  -3   8  -5 5628.62  130.84
   3  -8   5 5642.56  131.12
  -3   8  -6 2365.01   57.24
   3  -8   6 2278.58   55.29
  -3   8  -7 1452.46   36.89
   3  -8   7 1460.82   37.45
  -3   8  -8  765.35   22.21
   3  -8   8  766.19   22.30
  -3   8  -9   54.36    8.74
   3  -8   9   63.56    8.55
  -3   8 -10   36.61    8.55
  -3   8 -10   47.67    9.20
  -3   8 -11  161.23   10.78
  -3   8 -11  158.26   11.62
  -3   8 -12  535.17   19.14
  -3   8 -12  547.16   19.14
  -3   8 -13   11.71   10.50
  -3   8 -13   -1.95   10.41
  -3   8 -14  155.47   12.82
  -3   8 -14  184.37   13.29
  -3   8 -15  341.14   15.80
  -3   8 -15  351.54   16.08
  -3   8 -16  440.76   17.28
  -3   8 -16  442.71   17.56
  -3   8 -17   -0.37    9.85
  -3   8 -17    2.14   10.97
  -3   8 -18   29.83   10.50
  -3   8 -18   67.00   10.87
  -3   8 -19   91.81   11.06
  -3   8 -19   71.74   11.99
  -3   8 -20   -3.07   10.04
  -3   8 -20   13.01   10.78
  -3   8 -21   -1.67    9.85
  -3   8 -21  -19.79   11.24
  -3   8 -22  217.45   11.71
  -3   8 -22  220.98   12.82
  -3   7  17  200.63   11.24
   3  -7 -17  212.80   11.62
  -3   7  16  486.10   16.91
   3  -7 -16  516.31   17.10
  -3   7  15  764.61   22.77
   3  -7 -15  778.27   23.32
  -3   7  14  529.13   17.94
   3  -7 -14  522.90   18.12
  -3   7  13  135.95   11.43
   3  -7 -13  141.44   11.15
  -3   7  12  105.47   10.69
   3  -7 -12   67.09   10.31
  -3   7  11   39.77   10.78
   3  -7 -11   25.83    9.39
  -3   7  10   18.59    9.85
   3  -7 -10   11.62    9.29
  -3   7   9  892.48   26.30
   3  -7  -9  825.20   25.09
  -3   7   8  967.38   27.23
   3  -7  -8  950.65   26.76
  -3   7   7 1386.48   36.15
   3  -7  -7 1387.41   36.33
  -3   7   6 2782.25   67.00
   3  -7  -6 2758.09   66.44
  -3   7   5  118.20    9.66
   3  -7  -5  111.70    9.01
  -3   7   4 1252.66   32.62
   3  -7  -4 1243.37   32.71
  -3   7   3  685.90   19.98
   3  -7  -3  637.11   19.33
  -3   7   2   23.51    7.16
   3  -7  -2    6.60    7.06
  -3   7   1  136.42    9.01
   3  -7  -1  112.91    8.36
  -3   7   0  128.43    9.11
   3  -7   0   97.02    8.27
  -3   7  -1 1450.60   36.24
   3  -7   1 1450.60   36.52
  -3   7  -2 4019.11   94.23
   3  -7   2 4030.27   94.69
  -3   7  -3  157.70    9.48
   3  -7   3  167.36    9.66
  -3   7  -4 1329.79   33.64
   3  -7   4 1401.35   35.59
  -3   7  -5 2371.51   57.24
   3  -7   5 2397.53   58.27
  -3   7  -6  603.10   18.40
   3  -7   6  566.39   18.03
  -3   7  -7   69.79    7.90
   3  -7   7   94.88    9.11
  -3   7  -8  390.57   14.59
   3  -7   8  396.15   14.87
  -3   7  -9  403.40   15.05
   3  -7   9  429.05   16.17
  -3   7 -10  145.62   11.06
  -3   7 -10  148.50   10.69
  -3   7 -11 3809.10   90.79
  -3   7 -11 3680.86   87.72
  -3   7 -12 1733.10   44.14
  -3   7 -12 1702.43   43.58
  -3   7 -13 1685.71   43.49
  -3   7 -13 1679.20   43.77
  -3   7 -14  387.51   16.17
  -3   7 -14  397.64   17.19
  -3   7 -15  102.22   12.17
  -3   7 -15   96.27   12.55
  -3   7 -16  207.88   13.10
  -3   7 -16  218.38   14.03
  -3   7 -17  117.83   11.52
  -3   7 -17   99.15   12.45
  -3   7 -18   55.01   10.97
  -3   7 -18   80.75   12.27
  -3   7 -19   51.39   11.34
  -3   7 -19   65.89   11.62
  -3   7 -20   32.99   10.22
  -3   7 -20   33.92    9.94
  -3   7 -21  142.92   11.80
  -3   7 -21  171.73   12.73
  -3   7 -22   84.01   10.50
  -3   7 -22   61.70   11.24
  -3   6  18  312.05   12.92
   3  -6 -18  309.54   13.10
  -3   6  17  211.97   11.52
   3  -6 -17  186.88   12.45
  -3   6  16  237.89   12.45
   3  -6 -16  241.80   12.45
  -3   6  15   36.33    9.76
   3  -6 -15   58.92   10.22
  -3   6  14   24.53    9.66
   3  -6 -14   12.64   10.04
  -3   6  13   10.78   10.22
   3  -6 -13    6.13    9.57
  -3   6  12  495.49   18.03
   3  -6 -12  527.83   18.68
  -3   6  11  340.11   14.96
   3  -6 -11  338.07   15.05
  -3   6  10  198.49   12.27
   3  -6 -10  187.90   12.08
  -3   6   9  735.80   22.86
   3  -6  -9  718.98   22.30
  -3   6   8 1201.55   32.34
   3  -6  -8 1193.19   31.97
  -3   6   7 1273.11   33.83
   3  -6  -7 1208.99   32.34
  -3   6   6  120.06   10.31
   3  -6  -6  121.08    9.76
  -3   6   5 1287.98   33.55
   3  -6  -5 1312.14   33.92
  -3   6   4  513.61   16.73
   3  -6  -4  546.69   17.84
  -3   6   3   62.54    8.08
   3  -6  -3   71.09    8.27
  -3   6   2  384.91   13.38
   3  -6  -2  388.90   13.75
  -3   6   1 1148.58   29.74
   3  -6  -1 1161.59   30.48
  -3   6   0 1268.46   32.34
   3  -6   0 1218.28   31.41
  -3   6  -1 3613.95   85.03
   3  -6   1 3726.39   87.82
  -3   6  -2 1514.72   37.91
   3  -6   2 1486.84   37.36
  -3   6  -3 4697.49  109.84
   3  -6   3 4711.42  110.12
  -3   6  -4 1942.19   47.86
   3  -6   4 1966.35   48.04
  -3   6  -5   84.47    8.46
   3  -6   5   97.76    9.29
  -3   6  -6 1277.75   33.27
   3  -6   6 1261.03   32.99
  -3   6  -7  236.22   11.43
   3  -6   7  230.27   11.80
  -3   6  -8  322.09   13.20
   3  -6   8  309.08   13.75
  -3   6  -9 1032.42   28.44
   3  -6   9 1038.93   28.44
  -3   6 -10 1622.51   41.45
  -3   6 -10 1618.80   41.35
  -3   6 -11  325.25   13.75
  -3   6 -11  328.22   14.22
  -3   6 -12    9.11    8.83
  -3   6 -12   18.86    9.76
  -3   6 -13   12.73   10.59
  -3   6 -13   14.40   10.50
  -3   6 -14  167.55   13.01
  -3   6 -14  178.33   12.36
  -3   6 -15  451.07   18.49
  -3   6 -15  410.93   17.28
  -3   6 -16   56.41   11.43
  -3   6 -16   66.72   12.45
  -3   6 -17   96.37   12.82
  -3   6 -17   95.53   12.45
  -3   6 -18  100.18   12.92
  -3   6 -18   88.65   12.27
  -3   6 -19   88.65   12.27
  -3   6 -19   70.53   10.97
  -3   6 -20  594.46   20.82
  -3   6 -20  578.66   19.79
  -3   6 -21  294.95   13.75
  -3   6 -21  307.96   14.50
  -3   6 -22   47.86    9.39
  -3   6 -22   68.30   10.69
  -3   5  19  125.82   10.13
   3  -5 -19  134.37   10.69
  -3   5  18  169.50   11.80
   3  -5 -18  165.60   11.43
  -3   5  17   81.13   10.50
   3  -5 -17   77.50   10.87
  -3   5  16   22.58    9.66
   3  -5 -16   17.01    9.94
  -3   5  15  123.13   11.24
   3  -5 -15  102.96   10.59
  -3   5  14  202.49   12.55
   3  -5 -14  185.48   11.80
  -3   5  13  126.75   11.52
   3  -5 -13  131.03   11.89
  -3   5  12  713.50   22.30
   3  -5 -12  745.56   23.79
  -3   5  11  111.42   10.97
   3  -5 -11   88.47   11.52
  -3   5  10 1484.98   39.12
   3  -5 -10 1560.25   40.80
  -3   5   9 1313.99   35.03
   3  -5  -9 1275.89   34.38
  -3   5   8  117.93   10.13
   3  -5  -8   95.16    9.85
  -3   5   7  129.82   10.50
   3  -5  -7  117.09    9.94
  -3   5   6  293.56   12.92
   3  -5  -6  310.94   13.47
  -3   5   5   97.20    9.39
   3  -5  -5   95.06    9.76
  -3   5   4  954.37   26.30
   3  -5  -4  958.08   26.30
  -3   5   3  762.01   21.93
   3  -5  -3  762.01   21.65
  -3   5   2 3649.26   86.24
   3  -5  -2 3700.37   87.35
  -3   5   1 1152.30   30.11
   3  -5  -1 1146.73   29.92
  -3   5   0 1096.54   28.71
   3  -5   0 1067.74   27.97
  -3   5  -1 1564.90   39.12
   3  -5   1 1563.04   39.22
  -3   5  -2  584.14   18.03
   3  -5   2  557.47   17.38
  -3   5  -3  487.78   15.70
   3  -5   3  462.50   15.61
  -3   5  -4   -2.51    7.71
   3  -5   4    3.81    8.36
  -3   5  -5 1317.71   34.01
   3  -5   5 1349.31   35.03
  -3   5  -6  751.04   21.93
   3  -5   6  701.60   21.09
  -3   5  -7 1718.23   43.12
   3  -5   7 1822.31   45.63
  -3   5  -8 1357.67   35.31
   3  -5   8 1392.98   36.52
  -3   5  -9  310.94   13.38
   3  -5   9  332.40   13.75
  -3   5 -10 1402.28   36.80
  -3   5 -10 1496.13   38.84
  -3   5 -11  929.18   26.48
  -3   5 -11  869.62   25.28
  -3   5 -12  309.36   14.22
  -3   5 -12  304.90   14.22
  -3   5 -13  361.02   17.01
  -3   5 -13  325.25   16.08
  -3   5 -14   42.56   11.62
  -3   5 -14   56.87   12.36
  -3   5 -15  196.26   14.40
  -3   5 -15  201.10   14.03
  -3   5 -16   19.42   12.08
  -3   5 -16    9.66   12.08
  -3   5 -17   23.70   11.89
  -3   5 -17    4.18   12.17
  -3   5 -18  348.11   16.26
  -3   5 -18  350.52   15.80
  -3   5 -19  305.17   15.43
  -3   5 -19  261.41   14.40
  -3   5 -20   39.68   12.17
  -3   5 -20   45.81   10.87
  -3   5 -21   11.99   10.78
  -3   5 -21    4.37    9.66
  -3   5 -22   51.20   10.13
  -3   5 -22   31.69   10.87
  -3   4  19  146.73   10.78
   3  -4 -19  123.13   10.13
  -3   4  18   -3.53    9.48
   3  -4 -18  -12.45   10.59
  -3   4  17  245.24   13.47
   3  -4 -17  241.33   12.73
  -3   4  16  359.72   15.33
   3  -4 -16  335.28   15.05
  -3   4  15  310.10   14.40
   3  -4 -15  309.54   14.68
  -3   4  14   79.36   11.15
   3  -4 -14   77.04   11.06
  -3   4  13 1003.62   28.90
   3  -4 -13 1036.14   29.74
  -3   4  12  118.95   10.87
   3  -4 -12  131.31   12.64
  -3   4  11  665.27   21.47
   3  -4 -11  678.28   21.93
  -3   4  10  501.16   17.47
   3  -4 -10  495.49   17.47
  -3   4   9   67.84   10.13
   3  -4  -9   73.88   10.13
  -3   4   8  387.04   15.52
   3  -4  -8  348.11   14.03
  -3   4   7  224.05   11.89
   3  -4  -7  219.59   11.99
  -3   4   6  196.26   11.34
   3  -4  -6  171.27   11.06
  -3   4   5  469.28   16.17
   3  -4  -5  458.13   15.80
  -3   4   4   12.55    8.92
   3  -4  -4   26.67    8.08
  -3   4   3 6101.62  141.71
   3  -4  -3 6026.35  140.23
  -3   4   2 8782.58  202.49
   3  -4  -2 8600.44  198.59
  -3   4   1 1378.11   35.31
   3  -4  -1 1381.83   35.50
  -3   4   0 1735.89   43.21
   3  -4   0 1745.18   43.30
  -3   4  -1  475.60   15.80
   3  -4   1  468.35   15.52
  -3   4  -2  153.80   10.50
   3  -4   2  144.60    9.85
  -3   4  -3  379.89   14.59
   3  -4   3  414.92   14.96
  -3   4  -4  684.23   20.54
   3  -4   4  674.28   20.07
  -3   4  -5 2117.82   51.85
   3  -4   5 2065.78   51.02
  -3   4  -6 2566.66   62.35
   3  -4   6 2592.68   62.82
  -3   4  -7 2300.89   56.41
   3  -4   7 2430.05   59.66
  -3   4  -8   14.59    8.36
   3  -4   8   47.76    9.29
  -3   4  -9 1730.31   43.77
  -3   4 -10   65.51   10.31
  -3   4 -10   64.21    9.11
  -3   4 -11   23.70    9.11
  -3   4 -11   21.09   10.04
  -3   4 -12  569.27   20.07
  -3   4 -12  559.14   19.14
  -3   4 -13   38.01   11.89
  -3   4 -13   58.82   11.62
  -3   4 -14  159.84   13.38
  -3   4 -14  167.73   13.47
  -3   4 -15 1103.05   31.32
  -3   4 -15 1156.02   32.62
  -3   4 -16  603.19   20.72
  -3   4 -16  602.26   21.00
  -3   4 -17  647.33   21.37
  -3   4 -17  577.36   20.07
  -3   4 -18   71.65   11.99
  -3   4 -18   67.28   10.97
  -3   4 -19   49.16   11.89
  -3   4 -19   31.04   11.43
  -3   4 -20   47.21   11.15
  -3   4 -20   66.44   11.43
  -3   4 -21   -4.00    9.94
  -3   4 -21    0.46   10.69
  -3   3  20   -9.85   10.31
   3  -3 -20   10.97    9.66
  -3   3  19   43.58   10.59
   3  -3 -19   44.14   10.22
  -3   3  18  369.85   15.89
   3  -3 -18  373.01   16.08
  -3   3  17  725.21   22.30
   3  -3 -17  701.42   22.77
  -3   3  16 1322.36   35.96
   3  -3 -16 1340.94   36.33
  -3   3  15  323.76   15.15
   3  -3 -15  308.43   15.61
  -3   3  14  610.53   20.35
   3  -3 -14  594.09   20.82
  -3   3  13   47.02    9.66
   3  -3 -13   37.17   11.52
  -3   3  12   20.35    9.20
   3  -3 -12   32.06   11.15
  -3   3  11   -8.18    9.39
   3  -3 -11   -5.11    9.57
  -3   3  10   51.30   10.04
   3  -3 -10   49.53    9.39
  -3   3   9   58.54   10.69
   3  -3  -9   69.88   10.13
  -3   3   8 1173.67   32.34
   3  -3  -8 1082.61   29.64
  -3   3   7 1010.12   28.06
   3  -3  -7 1022.20   28.25
  -3   3   6  883.18   25.00
   3  -3  -6  893.13   25.65
  -3   3   5 3839.76   90.98
   3  -3  -5 3894.59   92.28
  -3   3   4 9999.00  230.18
   3  -3  -4 9673.75  223.03
  -3   3   3 4924.23  115.42
   3  -3  -3 5175.13  120.99
  -3   3   2   78.80    9.48
   3  -3  -2   82.61    9.39
  -3   3   1 1465.47   37.45
   3  -3  -1 1412.50   36.15
  -3   3   0   89.68    9.57
   3  -3   0   80.20    9.20
  -3   3  -1 2852.87   68.77
   3  -3   1 2910.49   69.70
  -3   3  -2 3652.98   86.70
   3  -3   2 3641.83   86.33
  -3   3  -3  934.85   25.93
   3  -3   3  966.45   26.86
  -3   3  -4 1019.41   27.69
   3  -3   4 1014.77   27.60
  -3   3  -5 2225.61   54.18
   3  -3   5 2290.66   56.13
  -3   3  -6 3983.80   94.32
   3  -3   6 3960.57   93.86
  -3   3  -7   31.60    8.83
   3  -3   7   27.13    9.11
  -3   3  -8 1074.24   29.27
   3  -3   8  999.90   27.79
  -3   3  -9    3.53    8.64
  -3   3  -9    5.20    9.20
  -3   3 -10   77.78    9.20
  -3   3 -10   66.16   10.22
  -3   3 -11   33.73   10.59
  -3   3 -11    9.29    9.76
  -3   3 -12  291.05   15.61
  -3   3 -12  282.69   15.05
  -3   3 -13 1056.59   30.57
  -3   3 -13 1064.95   30.67
  -3   3 -14 1524.94   40.89
  -3   3 -14 1519.36   40.61
  -3   3 -15  465.01   18.77
  -3   3 -15  440.48   18.03
  -3   3 -16 1064.95   30.85
  -3   3 -16 1068.67   30.57
  -3   3 -17   53.06   12.36
  -3   3 -17   28.16   11.34
  -3   3 -18   17.56   11.34
  -3   3 -18   12.08   10.13
  -3   3 -19   -7.34   10.97
  -3   3 -19   11.52   10.41
  -3   3 -20  113.93   11.06
  -3   3 -20   83.17   11.24
  -3   3 -21    6.50    9.94
  -3   3 -21   -5.95   10.87
  -3   2  21   15.43    9.48
   3  -2 -21    1.86    8.46
  -3   2  20   95.99   11.15
   3  -2 -20   75.27   10.78
  -3   2  19  473.84   17.66
   3  -2 -19  440.29   16.91
  -3   2  18  840.16   25.28
   3  -2 -18  849.26   25.93
  -3   2  17  614.72   19.98
   3  -2 -17  601.52   20.82
  -3   2  16  605.61   20.44
   3  -2 -16  613.41   21.19
  -3   2  15  777.52   24.53
   3  -2 -15  808.47   25.18
  -3   2  14  538.70   19.24
   3  -2 -14  560.26   20.17
  -3   2  13   19.24   11.15
   3  -2 -13   48.69   10.50
  -3   2  12  293.19   14.40
   3  -2 -12  307.40   15.52
  -3   2  11  303.78   14.31
   3  -2 -11  311.12   14.22
  -3   2  10   33.55    9.76
   3  -2 -10   38.01    9.66
  -3   2   9  711.55   22.02
   3  -2  -9  684.41   21.65
  -3   2   8 1217.35   32.43
   3  -2  -8 1249.88   33.64
  -3   2   7  539.54   17.84
   3  -2  -7  583.21   18.77
  -3   2   6 1222.93   32.34
   3  -2  -6 1247.09   33.18
  -3   2   5   88.75    9.48
   3  -2  -5   69.05    9.01
  -3   2   4   33.18    9.20
   3  -2  -4   37.45    9.01
  -3   2   3  270.51   12.55
   3  -2  -3  258.99   12.45
  -3   2   2 1185.76   31.22
   3  -2  -2 1221.07   32.15
  -3   2   1  670.10   20.35
   3  -2  -1  715.08   21.37
  -3   2   0 6064.45  140.97
   3  -2   0 5991.97  139.58
  -3   2  -1 7663.73  177.49
   3  -2   1 7800.34  180.37
  -3   2  -2 2759.02   66.63
   3  -2   2 2818.49   67.84
  -3   2  -3 4812.72  113.09
   3  -2   3 4609.20  108.26
  -3   2  -4 3492.22   83.08
   3  -2   4 3455.97   82.24
  -3   2  -5  885.13   24.90
   3  -2   5  883.37   25.37
  -3   2  -6    1.86    8.74
   3  -2   6   13.85    9.11
  -3   2  -7  112.54    9.66
   3  -2   7  127.22   10.13
  -3   2  -8  108.26    9.57
   3  -2   8   98.69   10.04
  -3   2  -9  569.92   19.14
  -3   2  -9  540.37   18.03
  -3   2 -10  252.39   12.45
  -3   2 -10  281.48   13.57
  -3   2 -11 2222.83   55.20
  -3   2 -11 2228.40   55.76
  -3   2 -12  365.02   16.91
  -3   2 -12  368.55   16.54
  -3   2 -13  243.38   15.05
  -3   2 -13  243.28   15.15
  -3   2 -14  285.94   15.80
  -3   2 -14  278.50   15.24
  -3   2 -15  590.74   21.00
  -3   2 -15  609.42   21.56
  -3   2 -16    8.46   10.78
  -3   2 -16   -0.37   10.78
  -3   2 -17  179.91   13.20
  -3   2 -17  183.81   13.66
  -3   2 -18   30.39   11.80
  -3   2 -18   50.74   11.80
  -3   2 -19    5.02   10.59
  -3   2 -19   16.26   10.97
  -3   2 -20   66.07   10.87
  -3   2 -20   73.78   10.69
  -3   2 -21  117.74   12.17
  -3   2 -21  139.86   10.04
  -3   1  21  216.34   12.27
   3  -1 -21  201.10   12.08
  -3   1  20  495.58   17.56
   3  -1 -20  510.36   18.21
  -3   1  19  389.27   16.36
   3  -1 -19  406.84   15.98
  -3   1  18  174.61   12.55
   3  -1 -18  191.15   13.66
  -3   1  17  286.59   14.78
   3  -1 -17  319.58   15.61
  -3   1  16   35.41   10.41
   3  -1 -16   33.08   10.31
  -3   1  15  293.00   14.50
   3  -1 -15  271.81   14.31
  -3   1  14   52.88   11.62
   3  -1 -14   77.78   11.06
  -3   1  13  323.57   15.33
   3  -1 -13  315.49   15.70
  -3   1  12  486.85   18.21
   3  -1 -12  515.00   19.51
  -3   1  11  796.85   24.07
   3  -1 -11  737.47   22.40
  -3   1  10  346.06   14.50
   3  -1 -10  343.65   14.96
  -3   1   9  896.56   25.74
   3  -1  -9  898.05   26.21
  -3   1   8  299.13   13.47
   3  -1  -8  287.61   13.57
  -3   1   7 2398.46   58.92
   3  -1  -7 2353.85   57.62
  -3   1   6 1101.19   29.83
   3  -1  -6 1071.45   29.27
  -3   1   5  194.78   11.34
   3  -1  -5  182.97   11.43
  -3   1   4  133.07   10.59
   3  -1  -4  119.88    9.20
  -3   1   3 1347.45   34.85
   3  -1  -3 1361.39   35.13
  -3   1   2 1959.84   48.88
   3  -1  -2 1842.75   45.63
  -3   1   1  601.80   18.68
   3  -1  -1  646.68   19.79
  -3   1   0  576.34   18.49
   3  -1   0  601.89   18.77
  -3   1  -1 2032.32   50.09
   3  -1   1 1976.57   48.69
  -3   1  -2 2697.69   65.05
   3  -1   2 2616.84   63.19
  -3   1  -3   24.81    8.55
   3  -1   3   17.47    8.74
  -3   1  -4   64.03    8.74
   3  -1   4   71.55    9.11
  -3   1  -5 1898.51   47.30
   3  -1   5 1829.74   45.53
  -3   1  -6   44.42    9.57
   3  -1   6   43.49    9.20
  -3   1  -7   -1.30    8.92
   3  -1   7   -5.76    9.01
  -3   1  -8 2310.18   56.96
  -3   1  -8 2305.53   56.96
  -3   1  -9 1007.33   28.44
  -3   1  -9 1009.19   28.34
  -3   1 -10 1295.41   34.85
  -3   1 -10 1340.01   35.68
  -3   1 -11  925.00   26.76
  -3   1 -11  983.17   28.90
  -3   1 -12  332.59   16.63
  -3   1 -12  319.11   16.36
  -3   1 -13  532.38   20.17
  -3   1 -13  540.00   20.07
  -3   1 -14   33.92   11.62
  -3   1 -14   40.61   11.89
  -3   1 -15   42.19   11.99
  -3   1 -15   36.99   10.78
  -3   1 -16   30.57   11.80
  -3   1 -16   31.04   10.22
  -3   1 -17   53.06   11.99
  -3   1 -17   45.53   11.24
  -3   1 -18  129.45   11.80
  -3   1 -18  108.07   11.89
  -3   1 -19  226.56   13.29
  -3   1 -19  224.42   12.92
  -3   1 -20   62.26   10.41
  -3   1 -20   49.16   10.59
  -3   0  22  194.31   10.97
   3   0 -22  190.32   12.27
  -3   0  21  122.01   10.69
   3   0 -21  168.11   12.08
  -3   0  20  223.68   12.82
   3   0 -20  219.96   13.57
  -3   0  19   61.89   11.52
   3   0 -19   66.26   11.52
  -3   0  18  342.62   15.05
   3   0 -18  337.23   15.05
  -3   0  17   25.65   10.97
   3   0 -17    2.88   11.06
  -3   0  16   23.42   10.87
   3   0 -16   -2.51   11.15
  -3   0  15   48.14   11.43
   3   0 -15   60.31   11.62
  -3   0  14  512.40   18.86
   3   0 -14  527.36   19.61
  -3   0  13 1169.96   32.43
   3   0 -13 1151.37   32.25
  -3   0  12 2147.55   53.34
   3   0 -12 2156.85   53.99
  -3   0  11  540.37   18.21
   3   0 -11  517.98   18.31
  -3   0  10  780.87   23.42
   3   0 -10  742.21   22.67
  -3   0   9 1301.91   34.20
   3   0  -9 1266.60   33.73
  -3   0   8 2250.70   55.29
   3   0  -8 2149.41   53.06
  -3   0   7   22.86    9.57
   3   0  -7   11.24    8.64
  -3   0   6  750.11   21.84
   3   0  -6  743.14   21.75
  -3   0   5   86.98    9.57
   3   0  -5  105.47    9.57
  -3   0   4  909.48   25.28
   3   0  -4  855.40   23.98
  -3   0   3 1590.92   40.05
   3   0  -3 1629.95   40.80
  -3   0   2 2089.94   51.11
   3   0  -2 2084.36   50.83
  -3   0   1 1931.03   47.49
   3   0  -1 1848.33   45.35
  -3   0   0  792.11   22.30
   3   0   0  776.32   21.93
  -3   0  -1  152.59   10.13
   3   0   1  136.51    9.94
  -3   0  -2  147.75   10.59
   3   0   2  147.94   10.22
  -3   0  -3  175.35   10.87
   3   0   3  199.42   11.43
  -3   0  -4  206.11   11.52
   3   0   4  213.64   11.71
  -3   0  -5 4232.85   99.90
   3   0   5 4164.08   98.04
  -3   0  -6 2480.24   60.50
   3   0   6 2508.11   60.96
  -3   0  -7  325.62   13.10
   3   0   7  295.42   12.82
  -3   0  -8   31.60    8.46
  -3   0  -8   32.52    9.66
  -3   0  -9 2218.18   54.36
  -3   0  -9 2266.50   56.31
  -3   0 -10 1193.19   32.34
  -3   0 -10 1128.14   31.22
  -3   0 -11  403.21   16.54
  -3   0 -11  392.15   17.28
  -3   0 -12  305.73   15.89
  -3   0 -12  321.62   15.80
  -3   0 -13  708.20   23.42
  -3   0 -13  670.19   22.77
  -3   0 -14  128.33   12.55
  -3   0 -14  100.92   12.36
  -3   0 -15   99.25   11.80
  -3   0 -15  101.29   12.36
  -3   0 -16  255.83   13.94
  -3   0 -16  282.78   14.96
  -3   0 -17  243.56   14.40
  -3   0 -17  233.90   13.75
  -3   0 -18  253.04   15.05
  -3   0 -18  288.08   14.68
  -3   0 -19   49.62   10.69
  -3   0 -19   70.72   10.31
  -3   0 -20    8.74    9.20
  -3  -1  22  156.49    9.94
   3   1 -22  179.26   11.80
  -3  -1  21  142.46   11.24
   3   1 -21  152.31   11.62
  -3  -1  20   69.79   10.41
   3   1 -20   57.43   11.34
  -3  -1  19   55.57   10.78
   3   1 -19   46.56   10.59
  -3  -1  18  201.10   12.73
   3   1 -18  180.84   13.01
  -3  -1  17   74.16   10.31
   3   1 -17   98.78   12.36
  -3  -1  16  398.75   17.01
   3   1 -16  395.03   17.28
  -3  -1  15 1121.64   31.50
   3   1 -15 1150.44   32.34
  -3  -1  14 1172.75   32.99
   3   1 -14 1176.46   32.52
  -3  -1  13 1952.41   49.72
   3   1 -13 2080.65   52.78
  -3  -1  12  376.26   15.80
   3   1 -12  368.09   15.33
  -3  -1  11  624.94   20.35
   3   1 -11  559.89   18.59
  -3  -1  10 1357.67   36.24
   3   1 -10 1269.39   34.10
  -3  -1   9   71.18   10.31
   3   1  -9   53.90    9.01
  -3  -1   8  628.93   20.35
   3   1  -8  645.10   20.07
  -3  -1   7  375.43   15.15
   3   1  -7  333.33   13.85
  -3  -1   6  263.91   12.36
   3   1  -6  268.47   12.36
  -3  -1   5 4520.92  106.22
   3   1  -5 4403.83  103.24
  -3  -1   4 2644.72   63.75
   3   1  -4 2670.74   64.03
  -3  -1   3 2182.87   53.25
   3   1  -3 2297.17   55.57
  -3  -1   2 3825.83   90.14
   3   1  -2 3997.74   93.95
  -3  -1   1 1302.84   33.45
   3   1  -1 1335.37   34.20
  -3  -1   0  380.26   13.75
   3   1   0  376.82   13.57
  -3  -1  -1    3.90    7.99
   3   1   1    4.93    7.99
  -3  -1  -2 2349.21   56.78
   3   1   2 2355.71   56.96
  -3  -1  -3  208.90   10.50
   3   1   3  211.60   11.43
  -3  -1  -4 4833.16  112.72
   3   1   4 4812.72  112.63
  -3  -1  -5 1450.60   37.36
   3   1   5 1484.05   38.01
  -3  -1  -6 1102.12   30.02
   3   1   6 1104.91   29.83
  -3  -1  -7 3565.63   85.31
  -3  -1  -7 3393.71   80.94
  -3  -1  -8 1015.70   28.62
  -3  -1  -8 1021.27   28.62
  -3  -1  -9   52.97   10.41
  -3  -1  -9   55.48    9.48
  -3  -1 -10   83.36   10.59
  -3  -1 -10  105.01   10.97
  -3  -1 -11  237.24   14.50
  -3  -1 -11  239.57   15.15
  -3  -1 -12  622.15   21.84
  -3  -1 -12  628.75   21.00
  -3  -1 -13  764.89   24.44
  -3  -1 -13  787.84   24.53
  -3  -1 -14  274.14   14.59
  -3  -1 -14  273.39   15.33
  -3  -1 -15  259.17   14.68
  -3  -1 -15  260.75   13.94
  -3  -1 -16   93.76   12.73
  -3  -1 -16   90.79   11.71
  -3  -1 -17  212.15   14.03
  -3  -1 -17  216.99   13.66
  -3  -1 -18  152.03   12.17
  -3  -1 -18  161.51   12.45
  -3  -1 -19   20.82    9.39
  -3  -1 -19  -12.27    9.76
  -3  -2  22    4.00    8.64
   3   2 -22    6.04   10.04
  -3  -2  21   -4.00    8.74
   3   2 -21    5.48   10.97
  -3  -2  20    4.37   10.13
   3   2 -20    2.60   10.78
  -3  -2  19    4.00    9.66
   3   2 -19    8.18    9.94
  -3  -2  18   29.64   10.41
   3   2 -18   32.06   11.24
  -3  -2  17  109.19   11.99
   3   2 -17   96.55   12.45
  -3  -2  16  621.03   20.63
   3   2 -16  647.43   22.12
  -3  -2  15  664.06   21.09
   3   2 -15  681.53   23.05
  -3  -2  14  758.47   23.70
   3   2 -14  761.73   24.44
  -3  -2  13  524.67   18.03
   3   2 -13  591.58   20.72
  -3  -2  12  145.90   10.87
   3   2 -12  147.48   11.06
  -3  -2  11    4.37    9.48
   3   2 -11    8.18    9.20
  -3  -2  10  519.56   17.84
   3   2 -10  529.04   18.03
  -3  -2   9  978.53   27.13
   3   2  -9  985.96   27.13
  -3  -2   8 2187.51   53.81
   3   2  -8 2154.06   53.06
  -3  -2   7 3275.69   77.78
   3   2  -7 3268.26   77.78
  -3  -2   6 3411.37   80.66
   3   2  -6 3543.33   83.82
  -3  -2   5 1842.75   45.26
   3   2  -5 1878.99   46.09
  -3  -2   4 1098.40   28.71
   3   2  -4 1109.55   29.09
  -3  -2   3 3223.66   76.20
   3   2  -3 3188.34   75.46
  -3  -2   2 2026.75   49.25
   3   2  -2 2080.65   50.65
  -3  -2   1  970.16   25.74
   3   2  -1  938.57   24.81
  -3  -2   0  556.73   17.10
   3   2   0  571.23   17.38
  -3  -2  -1   31.22    7.99
   3   2   1   27.41    7.62
  -3  -2  -2  762.28   21.93
   3   2   2  755.87   21.47
  -3  -2  -3 1703.36   42.75
   3   2   3 1577.91   39.59
  -3  -2  -4 4069.30   95.99
   3   2   4 3991.24   94.23
  -3  -2  -5 2182.87   53.99
   3   2   5 2154.06   52.88
  -3  -2  -6 1426.44   36.52
  -3  -2  -6 1405.99   36.99
  -3  -2  -7    2.79    8.08
  -3  -2  -7   20.72    9.01
  -3  -2  -8    9.39    7.99
  -3  -2  -8   15.89    9.01
  -3  -2  -9   -4.74    8.92
  -3  -2  -9    3.35    9.39
  -3  -2 -10  115.69    9.94
  -3  -2 -10  133.35   12.36
  -3  -2 -11 2155.92   53.53
  -3  -2 -11 2159.64   54.27
  -3  -2 -13  424.96   17.28
  -3  -2 -13  423.47   16.82
  -3  -2 -14  392.15   16.54
  -3  -2 -14  373.85   15.43
  -3  -2 -15  469.56   18.03
  -3  -2 -15  502.64   19.05
  -3  -2 -16  144.50   12.55
  -3  -2 -16  159.74   11.99
  -3  -2 -17   17.01   10.13
  -3  -2 -17   29.37   10.78
  -3  -2 -18   10.22    9.76
  -3  -2 -18   12.36   10.22
  -3  -3  23    5.85    7.62
   3   3 -23    8.18    9.48
  -3  -3  22   10.04    8.64
   3   3 -22   11.15   10.04
  -3  -3  21  157.98   12.27
   3   3 -21  143.11   11.89
  -3  -3  20  164.39   11.99
   3   3 -20  171.45   13.10
  -3  -3  19  523.93   18.31
   3   3 -19  514.26   19.14
  -3  -3  18  186.41   11.89
   3   3 -18  211.87   12.92
  -3  -3  17  224.70   13.20
   3   3 -17  210.20   13.20
  -3  -3  16  277.11   14.59
   3   3 -16  274.41   15.33
  -3  -3  15   23.79   10.59
   3   3 -15   28.06   11.15
  -3  -3  14    1.86   10.97
   3   3 -14  -12.36   10.59
  -3  -3  13   14.78    9.76
   3   3 -13    4.46    9.01
  -3  -3  12    7.71    9.29
   3   3 -12   10.13    9.20
  -3  -3  11  185.30   12.45
   3   3 -11  162.25   11.06
  -3  -3  10  510.26   17.84
   3   3 -10  490.01   16.91
  -3  -3   9 1464.54   38.38
   3   3  -9 1418.07   36.61
  -3  -3   8 1359.53   35.59
   3   3  -8 1373.47   35.41
  -3  -3   7  634.69   19.05
   3   3  -7  651.14   19.42
  -3  -3   6  402.00   14.31
   3   3  -6  406.00   13.94
  -3  -3   5  552.18   17.19
   3   3  -5  530.06   16.36
  -3  -3   4  634.97   19.05
   3   3  -4  616.95   18.03
  -3  -3   3  258.90   11.24
   3   3  -3  266.42   10.78
  -3  -3   2    0.00    7.06
   3   3  -2    1.86    6.60
  -3  -3   1    5.58    7.16
   3   3  -1   10.50    6.97
  -3  -3   0   31.04    7.43
   3   3   0   23.23    7.25
  -3  -3  -1 3314.72   78.52
   3   3   1 3218.08   76.11
  -3  -3  -2 1332.58   33.83
   3   3   2 1365.11   34.66
  -3  -3  -3 2367.79   56.96
   3   3   3 2262.78   54.73
  -3  -3  -4  311.59   12.08
   3   3   4  304.24   12.45
  -3  -3  -5  622.89   18.59
  -3  -3  -5  587.39   18.12
  -3  -3  -6    1.12    7.53
  -3  -3  -6   14.03    8.36
  -3  -3  -7    5.48    7.71
  -3  -3  -7   13.01    9.11
  -3  -3  -8  302.57   14.59
  -3  -3  -8  319.48   14.22
  -3  -3  -9 2547.14   63.00
  -3  -3  -9 2524.84   62.26
  -3  -3 -10  527.27   19.14
  -3  -3 -10  526.62   18.59
  -3  -3 -11  502.27   18.49
  -3  -3 -11  499.39   18.68
  -3  -3 -12  794.16   24.16
  -3  -3 -12  768.42   23.70
  -3  -3 -13  440.10   16.45
  -3  -3 -13  476.81   17.47
  -3  -3 -14  128.24   10.87
  -3  -3 -14  135.30   12.08
  -3  -3 -15   -1.02   10.13
  -3  -3 -15    4.09   10.41
  -3  -3 -16  -10.13    9.85
  -3  -3 -16    4.00    9.76
  -3  -3 -17   12.17    9.57
  -3  -3 -17    0.00    8.92
  -3  -4  23   48.69    8.55
   3   4 -23   25.56    9.85
  -3  -4  22  250.07   12.64
   3   4 -22  242.08   13.66
  -3  -4  21   55.76   10.41
   3   4 -21   43.77   11.43
  -3  -4  20  370.78   15.80
   3   4 -20  383.79   17.01
  -3  -4  19  488.24   17.84
   3   4 -19  526.71   19.24
  -3  -4  18  432.11   17.10
   3   4 -18  434.06   17.66
  -3  -4  17  207.88   12.82
   3   4 -17  239.10   14.12
  -3  -4  16   10.31   10.50
   3   4 -16    4.18    9.57
  -3  -4  15    4.46    9.48
   3   4 -15   10.69   10.69
  -3  -4  14  -21.09   10.04
   3   4 -14    4.83   10.59
  -3  -4  13  117.83   10.78
   3   4 -13  124.15   12.45
  -3  -4  12 1700.57   42.65
   3   4 -12 1683.85   43.21
  -3  -4  11 1594.64   40.42
   3   4 -11 1634.59   41.72
  -3  -4  10  637.85   19.24
   3   4 -10  657.65   20.35
  -3  -4   9  152.59    9.66
   3   4  -9  153.52   10.22
  -3  -4   8   65.61    8.27
   3   4  -8   57.15    8.36
  -3  -4   7  386.86   13.29
   3   4  -7  406.84   14.12
  -3  -4   6  158.16    9.01
   3   4  -6  152.59    9.29
  -3  -4   5  610.81   17.66
   3   4  -5  588.14   17.47
  -3  -4   4   72.95    6.97
   3   4  -4   62.73    6.97
  -3  -4   3  693.80   19.05
   3   4  -3  667.87   18.77
  -3  -4   2 5102.65  118.39
   3   4  -2 4834.09  112.63
  -3  -4   1 1942.19   46.93
   3   4  -1 1905.01   46.28
  -3  -4   0 5075.70  118.02
   3   4   0 4937.24  114.67
  -3  -4  -1  617.13   17.84
   3   4   1  646.12   18.49
  -3  -4  -2 1049.15   27.32
   3   4   2 1083.53   28.16
  -3  -4  -3 1259.17   32.71
   3   4   3 1177.39   30.57
  -3  -4  -4  679.86   20.72
  -3  -4  -4  684.32   20.54
  -3  -4  -5  165.23   10.22
  -3  -4  -5  164.30   10.41
  -3  -4  -6   67.93    9.76
  -3  -4  -6   84.47    9.66
  -3  -4  -7   34.29    9.76
  -3  -4  -7   49.34    9.48
  -3  -4  -8  997.11   28.34
  -3  -4  -8  925.37   26.58
  -3  -4  -9   32.62    9.39
  -3  -4  -9   19.70   10.50
  -3  -4 -10  181.39   11.80
  -3  -4 -10  166.25   12.45
  -3  -4 -11  563.33   19.42
  -3  -4 -11  558.68   19.14
  -3  -4 -12   28.90   10.69
  -3  -4 -12   30.76   10.22
  -3  -4 -13   12.36   10.41
  -3  -4 -13   30.48   10.04
  -3  -4 -14    7.62   10.04
  -3  -4 -14   17.75   10.04
  -3  -4 -15  -10.69    9.48
  -3  -4 -15   -2.32   10.22
  -3  -4 -16  127.40   10.69
  -3  -4 -16   99.80   10.41
  -3  -4 -17  377.56   14.96
  -3  -4 -17  376.54   15.33
  -3  -5  23  216.80   11.24
   3   5 -23  197.75   11.62
  -3  -5  22   52.60   10.04
   3   5 -22   50.65   10.78
  -3  -5  21  351.36   15.15
   3   5 -21  396.15   16.82
  -3  -5  20  532.47   18.21
   3   5 -20  534.15   19.61
  -3  -5  19   71.65   10.50
   3   5 -19   67.84   11.24
  -3  -5  18   34.29    9.48
   3   5 -18    1.67   10.87
  -3  -5  17    9.01   10.31
   3   5 -17   10.41   10.97
  -3  -5  16   60.68   11.24
   3   5 -16   67.47   11.80
  -3  -5  15  446.52   18.31
   3   5 -15  443.73   16.73
  -3  -5  14 1096.54   30.76
   3   5 -14 1115.13   31.41
  -3  -5  13 1032.42   28.99
   3   5 -13 1028.71   29.46
  -3  -5  12  635.81   20.35
   3   5 -12  640.18   20.26
  -3  -5  11  466.96   17.01
   3   5 -11  446.61   15.98
  -3  -5  10  446.05   15.80
   3   5 -10  459.71   16.36
  -3  -5   9   36.52    9.20
   3   5  -9   37.82    7.99
  -3  -5   8   18.31    7.81
   3   5  -8    6.13    7.16
  -3  -5   7    2.04    6.69
   3   5  -7   -1.67    6.88
  -3  -5   6  479.97   15.15
   3   5  -6  489.17   15.24
  -3  -5   5   18.86    6.60
   3   5  -5   30.02    6.69
  -3  -5   4   95.99    7.62
   3   5  -4   99.15    7.25
  -3  -5   3 1543.53   38.19
   3   5  -3 1556.54   38.10
  -3  -5   2 1431.08   35.68
   3   5  -2 1444.09   35.50
  -3  -5   1 1784.21   43.68
   3   5  -1 1731.24   41.91
  -3  -5   0  557.57   16.82
   3   5   0  545.67   16.17
  -3  -5  -1 1690.35   42.00
   3   5   1 1621.59   40.05
  -3  -5  -2  585.91   17.47
   3   5   2  605.70   17.47
  -3  -5  -3  687.76   19.79
  -3  -5  -3  691.94   20.07
  -3  -5  -4 2391.02   57.99
  -3  -5  -4 2309.25   56.04
  -3  -5  -5 2245.13   54.36
  -3  -5  -5 2398.46   58.17
  -3  -5  -6 1835.32   45.81
  -3  -5  -6 1786.07   44.98
  -3  -5  -7 4705.85  110.77
  -3  -5  -7 4724.43  111.88
  -3  -5  -8  823.24   24.53
  -3  -5  -8  853.54   25.28
  -3  -5  -9   81.59   11.15
  -3  -5  -9   92.65   10.59
  -3  -5 -10  197.38   12.92
  -3  -5 -10  203.23   12.27
  -3  -5 -11   84.56   10.50
  -3  -5 -11   80.85   10.59
  -3  -5 -12    2.51   10.13
  -3  -5 -12    9.29    9.85
  -3  -5 -13   23.70    9.94
  -3  -5 -13  -11.43   10.13
  -3  -5 -14   70.81   10.31
  -3  -5 -14   51.02   10.78
  -3  -5 -15  191.34   11.80
  -3  -5 -15  195.24   11.62
  -3  -5 -16   90.33   10.31
  -3  -5 -16   62.26   10.41
  -3  -6  23  218.94   11.24
   3   6 -23  226.46   12.55
  -3  -6  22  206.39   11.80
   3   6 -22  186.51   11.71
  -3  -6  21  263.08   13.01
   3   6 -21  232.13   13.94
  -3  -6  20   39.96    9.94
   3   6 -20   30.85   11.24
  -3  -6  19   21.09   10.22
   3   6 -19   32.15   11.24
  -3  -6  18  103.80   11.89
   3   6 -18   98.87   11.99
  -3  -6  17  541.58   18.68
   3   6 -17  524.58   19.79
  -3  -6  16 1292.62   34.75
   3   6 -16 1313.07   35.96
  -3  -6  15 1084.46   30.85
   3   6 -15 1078.89   31.04
  -3  -6  14 1082.61   30.39
   3   6 -14 1206.20   33.36
  -3  -6  13 1718.23   44.14
   3   6 -13 1728.45   44.23
  -3  -6  12  623.82   20.26
   3   6 -12  658.39   21.09
  -3  -6  11   13.94    7.90
   3   6 -11    4.55    9.11
  -3  -6  10  175.35   10.59
   3   6 -10  164.76   10.13
  -3  -6   9  172.57   10.87
   3   6  -9  160.49    9.66
  -3  -6   8  258.25   11.06
   3   6  -8  249.88   10.97
  -3  -6   7 1149.51   29.64
   3   6  -7 1125.35   28.90
  -3  -6   6 2071.35   50.09
   3   6  -6 2047.19   49.44
  -3  -6   5  615.46   17.75
   3   6  -5  604.96   16.91
  -3  -6   4   65.14    6.69
   3   6  -4   59.75    6.04
  -3  -6   3 1046.36   26.76
   3   6  -3 1035.21   26.11
  -3  -6   2  918.31   23.79
   3   6  -2  900.75   23.05
  -3  -6   1  836.35   22.21
   3   6  -1  830.31   21.93
  -3  -6   0   54.55    6.13
   3   6   0   63.47    6.97
  -3  -6  -1  157.51    7.71
   3   6   1  182.88    9.11
  -3  -6  -2  791.37   21.84
  -3  -6  -2  796.02   21.65
  -3  -6  -3   46.56    7.34
  -3  -6  -3   52.60    8.27
  -3  -6  -4  450.23   15.70
  -3  -6  -4  475.42   16.08
  -3  -6  -5 1251.73   33.73
  -3  -6  -5 1301.91   34.48
  -3  -6  -6  974.81   27.41
  -3  -6  -6  972.02   27.41
  -3  -6  -7  499.39   17.47
  -3  -6  -7  518.44   18.31
  -3  -6  -8   17.75    9.20
  -3  -6  -8   18.12    9.39
  -3  -6  -9   64.86    9.85
  -3  -6  -9   62.54   10.69
  -3  -6 -10   -5.58    9.94
  -3  -6 -10   -4.83    9.94
  -3  -6 -11  202.49   12.36
  -3  -6 -11  162.53   11.99
  -3  -6 -12  267.82   14.03
  -3  -6 -12  250.16   13.20
  -3  -6 -13  379.98   15.80
  -3  -6 -13  374.59   15.52
  -3  -6 -14  378.40   15.24
  -3  -6 -14  336.30   13.94
  -3  -6 -15  224.42   13.10
  -3  -6 -15  205.37   12.82
  -3  -7  23   60.96    9.29
   3   7 -23   21.09   10.78
  -3  -7  22   54.55   10.04
   3   7 -22   47.58   11.71
  -3  -7  21  -17.47   10.04
   3   7 -21   -4.83   11.43
  -3  -7  20  147.48   12.08
   3   7 -20  162.90   12.82
  -3  -7  19  107.42   12.08
   3   7 -19  101.66   12.64
  -3  -7  18   13.57   11.06
   3   7 -18   12.36   11.24
  -3  -7  17  110.12   11.24
   3   7 -17  118.20   12.36
  -3  -7  16 1039.86   29.27
   3   7 -16 1031.50   29.55
  -3  -7  15 1184.83   32.43
   3   7 -15 1257.31   34.66
  -3  -7  14  683.48   21.75
   3   7 -14  717.31   23.14
  -3  -7  13   21.19    9.57
   3   7 -13   -0.19   10.22
  -3  -7  12  119.13   10.59
   3   7 -12  116.35   10.87
  -3  -7  11   10.13    8.27
   3   7 -11    1.21    9.01
  -3  -7  10  226.84   10.97
   3   7 -10  257.87   12.27
  -3  -7   9 1001.76   26.39
   3   7  -9 1003.62   26.58
  -3  -7   8 1642.96   40.14
   3   7  -8 1586.27   39.40
  -3  -7   7 2300.89   54.73
   3   7  -7 2368.72   56.59
  -3  -7   6  861.90   22.49
   3   7  -6  833.37   21.93
  -3  -7   5  208.34    8.36
   3   7  -5  213.08    8.46
  -3  -7   4 1114.20   27.79
   3   7  -4 1081.68   27.04
  -3  -7   3  111.23    6.60
   3   7  -3  127.12    6.69
  -3  -7   2   30.85    5.30
   3   7  -2   30.20    5.48
  -3  -7   1  497.44   14.22
   3   7  -1  531.45   15.43
  -3  -7   0  100.83    6.50
   3   7   0  108.26    7.06
  -3  -7  -1 1225.71   31.13
  -3  -7  -1 1222.00   31.04
  -3  -7  -2 1494.27   37.54
  -3  -7  -2 1432.94   36.80
  -3  -7  -3 1436.66   36.61
  -3  -7  -3 1443.16   36.99
  -3  -7  -4 2157.78   52.69
  -3  -7  -4 2105.74   51.85
  -3  -7  -5   15.70    8.18
  -3  -7  -5   -5.20    8.83
  -3  -7  -6  164.20   10.97
  -3  -7  -6  187.34   11.80
  -3  -7  -7   62.91   10.50
  -3  -7  -7   81.78    9.66
  -3  -7  -8  193.29   12.08
  -3  -7  -8  205.46   12.55
  -3  -7  -9  299.69   14.50
  -3  -7  -9  284.73   13.94
  -3  -7 -10   95.16   10.59
  -3  -7 -10   73.51   10.13
  -3  -7 -11   37.82   10.87
  -3  -7 -11   42.37    9.94
  -3  -7 -12   90.60   11.62
  -3  -7 -12   96.09   11.06
  -3  -7 -13  145.80   11.89
  -3  -7 -13  140.32   11.62
  -3  -7 -14   41.45   11.52
  -3  -7 -14   48.69   10.97
  -3  -8  23  -20.82    9.66
   3   8 -23  -22.30   12.27
  -3  -8  22   25.93   10.04
   3   8 -22   44.05   11.52
  -3  -8  21  292.54   14.12
   3   8 -21  259.08   15.15
  -3  -8  20  341.51   14.78
   3   8 -20  339.28   15.98
  -3  -8  19  288.35   14.59
   3   8 -19  291.05   15.15
  -3  -8  18  421.98   16.45
   3   8 -18  444.29   17.19
  -3  -8  17  608.40   19.33
   3   8 -17  598.64   20.44
  -3  -8  16  139.76   11.15
   3   8 -16  135.12   12.27
  -3  -8  15   -2.42    9.29
   3   8 -15    4.65    9.66
  -3  -8  14   18.03    9.76
   3   8 -14   13.75    9.48
  -3  -8  13   21.65    9.94
   3   8 -13   14.59    9.39
  -3  -8  12   79.08   10.59
   3   8 -12   82.98    9.57
  -3  -8  11   90.05    9.94
   3   8 -11   96.92    9.85
  -3  -8  10  179.07   10.59
   3   8 -10  174.98    9.94
  -3  -8   9  164.57   10.41
   3   8  -9  167.64    8.92
  -3  -8   8  189.20    9.39
   3   8  -8  201.84    9.11
  -3  -8   7 1992.37   47.95
   3   8  -7 1986.79   47.76
  -3  -8   6   19.05    6.13
   3   8  -6    6.60    5.30
  -3  -8   5   34.85    5.67
   3   8  -5   29.64    5.20
  -3  -8   4  107.70    6.69
   3   8  -4  101.66    5.95
  -3  -8   3   24.35    5.39
   3   8  -3   20.63    5.02
  -3  -8   2   10.78    5.58
   3   8  -2   -2.42    5.48
  -3  -8   1  293.00   10.04
  -3  -8   1  319.58   10.78
  -3  -8   0 1853.90   44.61
  -3  -8   0 1812.09   43.86
  -3  -8  -1 1457.10   36.06
  -3  -8  -1 1477.55   36.99
  -3  -8  -2  551.15   15.98
  -3  -8  -2  551.71   17.01
  -3  -8  -3  954.37   26.21
  -3  -8  -3  939.50   25.37
  -3  -8  -4    9.57    8.64
  -3  -8  -4  -16.91    8.27
  -3  -8  -5  132.89   10.41
  -3  -8  -5  122.48   10.13
  -3  -8  -6   13.94    9.76
  -3  -8  -6    5.67    9.85
  -3  -8  -7  477.46   17.47
  -3  -8  -7  455.53   16.26
  -3  -8  -8  334.63   14.12
  -3  -8  -8  315.77   13.85
  -3  -8  -9  129.63   12.08
  -3  -8  -9  115.97   10.31
  -3  -8 -10  425.89   17.38
  -3  -8 -10  397.36   14.87
  -3  -8 -11  629.96   20.63
  -3  -8 -11  591.39   19.42
  -3  -8 -12  149.99   12.64
  -3  -8 -12  124.15   10.97
  -3  -9  22   53.34   10.50
   3   9 -22   44.98   11.52
  -3  -9  21  137.63   11.52
   3   9 -21  167.64   13.38
  -3  -9  20  206.86   12.64
   3   9 -20  178.89   13.94
  -3  -9  19   85.68   11.52
   3   9 -19   83.45   11.52
  -3  -9  18   44.14   10.50
   3   9 -18   54.55   10.78
  -3  -9  17    2.04    9.57
   3   9 -17    8.64    9.85
  -3  -9  16   21.37   10.41
   3   9 -16    1.49    9.85
  -3  -9  15   34.75   10.31
   3   9 -15   57.71   10.31
  -3  -9  14  310.84   13.85
   3   9 -14  312.79   13.94
  -3  -9  13 1225.71   32.80
   3   9 -13 1213.63   32.43
  -3  -9  12 1932.89   47.58
   3   9 -12 1796.29   44.98
  -3  -9  11 1974.71   48.60
   3   9 -11 1838.11   45.72
  -3  -9  10 1642.96   40.24
   3   9 -10 1603.00   39.77
  -3  -9   9 1519.36   37.36
   3   9  -9 1498.92   36.99
  -3  -9   8  360.28   11.80
   3   9  -8  358.42   11.80
  -3  -9   7   10.41    5.58
   3   9  -7    9.39    5.11
  -3  -9   6   15.80    5.67
   3   9  -6   28.16    5.20
  -3  -9   5   12.64    4.93
   3   9  -5   10.97    4.74
  -3  -9   4    2.04    4.55
   3   9  -4   -1.49    4.65
  -3  -9   3 1018.49   25.28
  -3  -9   3 1055.66   26.21
  -3  -9   2  929.28   23.23
  -3  -9   2  935.78   23.42
  -3  -9   1  140.32    6.88
  -3  -9   1  155.65    7.25
  -3  -9   0   76.85    6.97
  -3  -9   0   90.14    6.88
  -3  -9  -1  158.35    9.11
  -3  -9  -1  155.10    8.27
  -3  -9  -2  470.12   14.96
  -3  -9  -2  439.83   14.03
  -3  -9  -3   10.97    7.90
  -3  -9  -3    9.11    7.62
  -3  -9  -4   72.20    9.94
  -3  -9  -4   96.18    8.92
  -3  -9  -5  167.73   11.15
  -3  -9  -5  192.92   10.41
  -3  -9 -11    9.94    7.99
  -3  -9 -11   -5.48   11.34
  -3 -10  22  128.61   10.97
   3  10 -22  127.22   12.27
  -3 -10  21  183.44   12.17
   3  10 -21  195.71   13.57
  -3 -10  20   50.92   11.06
   3  10 -20   69.97   11.15
  -3 -10  19   21.28   10.13
   3  10 -19   45.07   10.87
  -3 -10  18    0.37   10.13
   3  10 -18    1.77    9.76
  -3 -10  17  169.78   11.99
   3  10 -17  160.86   11.71
  -3 -10  16  262.71   13.38
   3  10 -16  268.65   13.20
  -3 -10  15   32.90   10.04
   3  10 -15   22.40    9.48
  -3 -10  14   77.50    9.85
   3  10 -14   77.59    9.66
  -3 -10  13   71.93    9.20
   3  10 -13   61.80    8.36
  -3 -10  12  295.60   12.55
   3  10 -12  314.56   12.55
  -3 -10  11  302.11   12.55
   3  10 -11  264.84   10.69
  -3 -10  10  104.92    8.08
   3  10 -10  118.30    8.18
  -3 -10   9   63.10    7.62
   3  10  -9   73.60    6.88
  -3 -10   8   30.94    6.04
   3  10  -8   31.60    5.30
  -3 -10   7   91.81    6.13
   3  10  -7  109.19    5.67
  -3 -10   6  730.22   18.77
   3  10  -6  794.81   20.07
  -3 -10   5 1933.82   50.65
  -3 -10   2  863.48   22.21
  -3 -10   1  753.83   18.96
  -3 -10   0  341.51   10.59
  -3 -10  -1   28.06    5.76
  -3 -10  -1   38.19    5.95
  -3 -10  -2   -3.07    7.06
  -3 -10  -2    0.65    6.41
  -3 -10  -3   69.51    8.92
  -3 -10  -3   55.20    7.25
  -3 -10  -4  142.46   11.24
  -3 -10  -4  171.73    9.29
  -3 -10 -10    6.60   11.71
  -3 -10 -10   35.96    8.18
  -3 -11  21   81.40   10.22
   3  11 -21   73.88   11.15
  -3 -11  20    0.09   10.31
   3  11 -20   -9.57   10.50
  -3 -11  19  151.29   12.08
   3  11 -19  149.71   12.08
  -3 -11  18  333.52   15.52
   3  11 -18  286.68   13.94
  -3 -11  17  382.68   15.61
   3  11 -17  371.15   15.24
  -3 -11  16   63.93   10.31
   3  11 -16   64.49   10.04
  -3 -11  15  196.17   12.36
   3  11 -15  167.83   10.41
  -3 -11  14  343.18   14.12
   3  11 -14  329.24   13.66
  -3 -11  13   35.41    8.64
   3  11 -13   30.85    7.53
  -3 -11  12   83.36    8.18
   3  11 -12  102.41    8.08
  -3 -11  11   53.06    7.71
   3  11 -11   59.10    6.97
  -3 -11  10   34.29    6.23
   3  11 -10   45.07    5.58
  -3 -11   9   13.57    4.74
   3  11  -9    2.32    4.46
   3  11  -8  706.34   19.42
  -3 -11  -1   -1.30    4.00
  -3 -11  -2   74.25    6.88
  -3 -11  -3  456.55   15.70
  -3 -11  -3  452.09   14.59
   3  12 -19  165.13   13.47
   3  12 -18  331.38   15.33
  -3 -12  17  475.05   17.47
   3  12 -17  384.16   15.52
  -3 -12  16  288.26   13.20
   3  12 -16  265.22   12.73
  -3 -12  15  108.26   11.24
   3  12 -15  105.38    9.48
  -3 -12  14    3.35    8.92
   3  12 -14   15.52    7.43
  -3 -12  13   54.46    8.18
   3  12 -13   46.65    7.16
   3  12 -12   -4.37    5.48
   3  12 -11  138.37    6.41
   3  12 -11  123.22    6.04
  -3 -12  -3   54.64    6.13
  -3 -12  -5  196.73   13.57
  -3 -12  -5  237.71    9.76
  -3 -12  -6   -1.67   11.99
  -3 -12  -6   31.41    8.36
   3  13 -18   95.44   11.43
   3  13 -18  111.14   10.41
   3  13 -17   17.66   10.04
   3  13 -17    1.21    8.46
   3  13 -16    4.18    8.27
   3  13 -16    1.86    7.43
   3  13 -15   20.91    7.62
   3  13 -15   24.35    6.97
   3  13 -14    9.57    6.88
   3  13 -14    0.37    5.30
   3  14 -18   51.30   10.87
   3  14 -18   50.27    9.11
   3  14 -17    2.79    9.29
   3  14 -17   -6.41    7.99
   3  14 -16   38.84    9.39
   3  14 -16   25.00    7.25
   3  14 -15   81.68    7.81
   3  14 -15   61.15    6.60
  -4  18 -11    3.90    5.30
  -4  18 -11   10.13    6.97
  -4  18 -12    1.21    5.85
  -4  18 -12    6.97    8.46
  -4  18 -13   -8.27    8.18
  -4  18 -13    1.95    9.66
  -4  18 -14   40.70    8.64
  -4  18 -14   23.32   10.97
  -4  17   2   69.97    6.97
   4 -17  -2   22.02    8.83
  -4  17   1   78.99    6.32
   4 -17  -1    3.53    5.39
  -4  17   0   71.28    6.32
  -4  17  -8  698.16   18.31
  -4  17  -8  636.37   17.56
  -4  17  -9  175.63    8.92
  -4  17  -9  169.13    7.43
  -4  17 -10    5.11    5.76
  -4  17 -10    0.93    7.90
  -4  17 -11   24.72    6.69
  -4  17 -11   21.00    8.46
  -4  17 -12    9.57    6.88
  -4  17 -12   10.50    8.36
  -4  17 -13   -1.49    7.53
  -4  17 -13    1.86    9.66
  -4  17 -14  102.87    8.92
  -4  17 -14   86.42   10.59
  -4  17 -15   32.43    9.39
  -4  17 -15   14.31   10.78
  -4  17 -16   30.67   11.15
  -4  17 -16   27.32   10.87
  -4  16   4   51.39    8.64
   4 -16  -4   43.03   10.31
  -4  16   3  118.67    9.20
   4 -16  -3  103.80    9.11
  -4  16   2   18.77    7.53
   4 -16  -2   43.49    8.18
  -4  16   1   10.13    6.41
   4 -16  -1   -1.39    7.25
  -4  16   0   48.79    6.04
   4 -16   0   43.86    8.27
  -4  16  -1    8.36    5.11
   4 -16   1    8.08    9.11
  -4  16  -2  120.43    6.23
   4 -16   2    8.92    9.66
  -4  16  -3  407.58   11.71
   4 -16   3    7.16    9.48
  -4  16  -4   40.98    5.11
   4 -16   4   -1.02    8.74
  -4  16  -5  598.45   15.89
  -4  16  -6  308.15   10.59
  -4  16  -6  314.28    9.85
  -4  16  -7  312.98   10.13
  -4  16  -7  331.75   11.52
  -4  16  -8   98.13    6.41
  -4  16  -8  111.23    8.18
  -4  16  -9   11.34    5.95
  -4  16  -9   -0.19    7.43
  -4  16 -10   23.23    7.06
  -4  16 -10   16.82    7.81
  -4  16 -11   51.95    7.16
  -4  16 -11   49.25    9.01
  -4  16 -12  134.28    8.74
  -4  16 -12  153.89   11.43
  -4  16 -13  201.84   10.31
  -4  16 -13  218.47   12.45
  -4  16 -14   54.46   10.78
  -4  16 -14   37.17    8.27
  -4  16 -15  192.27   11.24
  -4  16 -15  208.81   13.20
  -4  16 -16  244.21   13.85
  -4  16 -16  257.97   13.10
  -4  16 -18   30.85   21.93
  -4  16 -18   37.26   11.71
  -4  15   6  182.51   11.15
   4 -15  -6  174.89   10.59
  -4  15   5  185.30   10.78
   4 -15  -5  169.78    9.94
  -4  15   4  265.59   11.71
   4 -15  -4  257.22   11.71
  -4  15   3   50.09    7.90
   4 -15  -3   61.70    8.46
  -4  15   2   -3.07    6.97
   4 -15  -2   -4.74    8.36
  -4  15   1    4.09    6.41
   4 -15  -1    0.28    7.81
  -4  15   0   24.72    6.32
   4 -15   0   27.51    7.25
  -4  15  -1   11.15    6.13
   4 -15   1    4.18    7.25
  -4  15  -2   69.88    7.16
   4 -15   2   70.81    7.25
  -4  15  -3   -3.35    6.32
   4 -15   3    0.93    7.16
  -4  15  -4  242.08    9.76
   4 -15   4  116.25    7.99
  -4  15  -5  124.89    7.71
   4 -15   5   -0.09    7.53
  -4  15  -6  184.28    8.92
   4 -15   6    1.77    7.06
  -4  15  -7   69.32    7.16
  -4  15  -8   38.56    7.71
  -4  15  -8   38.75    6.50
  -4  15  -9  125.64    9.29
  -4  15  -9  108.07    7.81
  -4  15 -10   18.03    8.27
  -4  15 -10   16.36    6.97
  -4  15 -11  202.58   11.34
  -4  15 -11  179.26    9.66
  -4  15 -12  611.00   18.49
  -4  15 -12  589.90   18.96
  -4  15 -13  580.05   19.14
  -4  15 -13  541.67   17.28
  -4  15 -15   77.50    9.48
  -4  15 -15   65.70   11.15
  -4  15 -16   14.22    9.11
  -4  15 -16  -11.24   10.04
  -4  15 -17   55.85   10.97
  -4  15 -17   44.33    9.57
  -4  15 -18   31.22    9.94
  -4  15 -18   13.29    9.94
  -4  15 -19   -0.93   10.87
  -4  15 -19   14.78   10.31
  -4  14   8   -4.74   10.87
   4 -14  -8   78.34    9.29
  -4  14   7  151.66   11.15
   4 -14  -7  106.87   10.87
  -4  14   6   75.36    8.83
   4 -14  -6   75.36    9.76
  -4  14   5    8.36    7.62
   4 -14  -5   -3.16    8.64
  -4  14   4   -5.48    6.60
   4 -14  -4   -1.21    7.25
  -4  14   3   -7.43    6.60
   4 -14  -3    5.67    7.62
  -4  14   2  125.64    8.64
   4 -14  -2  132.79    8.92
  -4  14   1  473.56   14.87
   4 -14  -1  502.64   15.80
  -4  14   0  804.29   21.84
   4 -14   0  792.95   21.75
  -4  14  -1  188.92    9.39
   4 -14   1  184.18    9.01
  -4  14  -2  503.76   15.24
   4 -14   2  538.42   15.98
  -4  14  -3  292.81   10.78
   4 -14   3  303.78   10.97
  -4  14  -4  205.46    8.83
   4 -14   4  169.96    9.20
  -4  14  -5   17.66    6.23
   4 -14   5   28.25    7.53
  -4  14  -6    5.20    6.41
   4 -14   6   21.75    7.53
  -4  14  -7   69.88    7.43
   4 -14   7   63.10    8.46
  -4  14  -8   91.07    7.62
   4 -14   8   76.48    8.08
  -4  14  -9   31.87    6.88
  -4  14  -9   38.10    8.64
  -4  14 -10   80.94    8.36
  -4  14 -10   87.82    9.29
  -4  14 -11  391.13   14.22
  -4  14 -11  394.76   15.15
  -4  14 -12  521.97   17.28
  -4  14 -12  483.04   17.38
  -4  14 -13  182.51   11.89
  -4  14 -13  191.80   11.34
  -4  14 -14  126.29    9.94
  -4  14 -14  127.87   11.34
  -4  14 -15   84.84    9.85
  -4  14 -15   85.77   10.87
  -4  14 -16   -0.74    8.46
  -4  14 -16    6.88   10.41
  -4  14 -17   80.66   10.13
  -4  14 -17   73.04   11.52
  -4  14 -18   28.71    9.39
  -4  14 -18   24.16   10.78
  -4  14 -19   31.22   10.13
  -4  14 -19   27.97   10.59
  -4  13  10   11.80   15.43
   4 -13 -10  271.72   11.80
  -4  13   9  266.52   13.01
   4 -13  -9  258.80   12.36
  -4  13   8  151.94   11.15
   4 -13  -8  168.20   11.34
  -4  13   7  104.73    9.66
   4 -13  -7   92.18   10.50
  -4  13   6    1.95    8.36
   4 -13  -6   10.13    9.39
  -4  13   5   28.16    8.08
   4 -13  -5   26.67    9.11
  -4  13   4    5.67    7.16
   4 -13  -4   17.84    7.90
  -4  13   3  801.59   22.40
   4 -13  -3  823.90   23.14
  -4  13   2 1024.06   27.04
   4 -13  -2 1124.42   29.74
  -4  13   1  663.04   19.98
   4 -13  -1  623.82   18.68
  -4  13   0    2.88    6.88
   4 -13   0    0.00    7.43
  -4  13  -1 1101.19   28.81
   4 -13   1 1151.37   30.11
  -4  13  -2    2.60    6.69
   4 -13   2    7.90    7.06
  -4  13  -3    6.50    6.41
   4 -13   3    5.39    7.06
  -4  13  -4   57.06    6.78
   4 -13   4   71.00    7.71
  -4  13  -5  142.27    8.46
   4 -13   5  136.88    9.39
  -4  13  -6    6.88    7.25
   4 -13   6    5.76    7.53
  -4  13  -7  581.54   17.47
   4 -13   7  563.79   17.56
  -4  13  -8  674.93   19.42
   4 -13   8  654.77   19.79
  -4  13  -9  839.41   23.23
   4 -13   9  904.65   25.18
  -4  13 -10  215.03   11.80
  -4  13 -10  218.66   11.15
  -4  13 -11  361.30   14.50
  -4  13 -11  343.00   13.66
  -4  13 -12  106.96   10.04
  -4  13 -12  105.84   10.69
  -4  13 -13   88.47    9.48
  -4  13 -13   99.99   11.06
  -4  13 -14   -3.90    8.74
  -4  13 -14   -7.71    9.66
  -4  13 -15  337.79   14.50
  -4  13 -15  335.65   14.87
  -4  13 -16  224.05   13.01
  -4  13 -16  221.35   12.17
  -4  13 -17   85.96   10.22
  -4  13 -17   70.62   11.15
  -4  13 -18  327.10   14.78
  -4  13 -18  294.49   14.59
  -4  13 -19  560.45   19.14
  -4  13 -19  530.06   18.77
  -4  13 -20  278.60   14.40
  -4  13 -20  294.30   14.03
  -4  12  11  -26.95    9.57
   4 -12 -11  134.65   10.22
  -4  12  10  136.32   10.31
   4 -12 -10  135.58   10.59
  -4  12   9   25.09    8.74
   4 -12  -9   30.48    9.11
  -4  12   8   60.59    9.01
   4 -12  -8   63.47    9.20
  -4  12   7   25.93    8.46
   4 -12  -7   44.14    9.11
  -4  12   6  328.03   13.29
   4 -12  -6  309.36   13.47
  -4  12   5  218.84   11.43
   4 -12  -5  283.89   12.92
  -4  12   4 1317.71   34.10
   4 -12  -4 1296.34   33.83
  -4  12   3  903.63   25.18
   4 -12  -3  887.92   24.90
  -4  12   2  984.10   26.76
   4 -12  -2  959.01   26.02
  -4  12   1  198.68   10.04
   4 -12  -1  171.27   10.50
  -4  12   0 1104.91   29.27
   4 -12   0 1085.39   28.71
  -4  12  -1   41.82    7.34
   4 -12   1   34.48    7.53
  -4  12  -2  266.05   10.87
   4 -12   2  303.13   12.45
  -4  12  -3  227.39   10.13
   4 -12   3  216.80   10.69
  -4  12  -4  322.18   12.27
   4 -12   4  346.99   13.10
  -4  12  -5  282.41   11.89
   4 -12   5  271.72   11.80
  -4  12  -6  276.83   11.71
   4 -12   6  277.48   12.08
  -4  12  -7  286.96   12.08
   4 -12   7  303.32   12.92
  -4  12  -8  380.07   13.75
   4 -12   8  398.94   14.96
  -4  12  -9    1.39    7.99
   4 -12   9    9.29    7.90
  -4  12 -10  499.49   16.36
  -4  12 -11  137.25   10.13
  -4  12 -11  128.61   10.78
  -4  12 -12    5.20    8.55
  -4  12 -12   14.87    9.39
  -4  12 -13   43.21    9.66
  -4  12 -13   69.32   10.69
  -4  12 -15  342.53   14.50
  -4  12 -15  361.30   15.70
  -4  12 -17  777.80   23.14
  -4  12 -17  780.96   23.70
  -4  12 -18  276.46   13.75
  -4  12 -18  282.13   14.40
  -4  12 -19    1.49    9.39
  -4  12 -19   13.66   10.31
  -4  12 -20   15.43    9.94
  -4  12 -20   30.76   10.59
  -4  12 -21   13.20   12.27
  -4  12 -21   50.65   10.59
  -4  11  13    8.64   10.87
   4 -11 -13   57.89    9.39
  -4  11  12   87.17    9.94
   4 -11 -12   61.70    9.76
  -4  11  11   43.58    9.57
   4 -11 -11   34.66    8.83
  -4  11  10  -14.03    8.55
   4 -11 -10   13.94    8.92
  -4  11   9   18.03    8.36
   4 -11  -9   10.31    8.92
  -4  11   8   13.85    8.18
   4 -11  -8   11.52    8.92
  -4  11   7  224.23   11.62
   4 -11  -7  234.18   12.36
  -4  11   6  578.01   18.40
   4 -11  -6  592.88   19.05
  -4  11   5 1029.64   28.34
   4 -11  -5  992.47   27.51
  -4  11   4 1169.96   31.41
   4 -11  -4 1169.96   31.22
  -4  11   3  718.98   21.47
   4 -11  -3  701.97   20.91
  -4  11   2   24.44    8.18
   4 -11  -2   47.11    8.36
  -4  11   1  107.42    9.20
   4 -11  -1   84.47    8.74
  -4  11   0   58.17    7.90
   4 -11   0   44.88    7.43
  -4  11  -1  297.00   12.08
   4 -11   1  268.37   11.15
  -4  11  -2 1093.76   28.90
   4 -11   2 1103.98   28.90
  -4  11  -3 2463.51   59.38
   4 -11   3 2403.11   57.99
  -4  11  -4  487.87   15.61
   4 -11   4  486.01   15.70
  -4  11  -5   -1.67    7.16
   4 -11   5   -1.21    7.25
  -4  11  -6  136.79    9.20
   4 -11   6  160.58   10.13
  -4  11  -7  481.27   16.26
   4 -11   7  511.84   17.10
  -4  11  -8  134.74    9.48
   4 -11   8  151.66   10.59
  -4  11  -9   29.64    8.83
   4 -11   9   55.11    8.83
  -4  11 -10    9.29    8.27
   4 -11  10   10.13    8.74
  -4  11 -11  103.52   10.04
  -4  11 -11  107.15   10.22
  -4  11 -12   13.29    9.48
  -4  11 -12   35.50   10.13
  -4  11 -13   89.30   10.04
  -4  11 -13   58.27   10.69
  -4  11 -14  292.35   14.50
  -4  11 -14  290.12   14.40
  -4  11 -15  403.03   16.45
  -4  11 -15  432.39   16.26
  -4  11 -16  353.78   15.98
  -4  11 -16  354.24   15.80
  -4  11 -17  114.21   11.62
  -4  11 -17   98.78   11.43
  -4  11 -18   14.87   10.31
  -4  11 -18   34.85   10.78
  -4  11 -19   11.62   10.31
  -4  11 -19   32.25   10.31
  -4  11 -20   21.56    9.66
  -4  11 -20   21.19   10.59
  -4  11 -21  110.40   10.97
  -4  11 -21  125.64   10.87
  -4  10  14  297.09   13.01
   4 -10 -14  283.89   13.01
  -4  10  13   68.39    9.11
   4 -10 -13  103.71   10.41
  -4  10  12   -0.84    8.36
   4 -10 -12    6.60    9.76
  -4  10  11   75.55    9.20
   4 -10 -11   66.35   10.78
  -4  10  10  178.70   10.78
   4 -10 -10  193.20   11.71
  -4  10   9  112.81   10.41
   4 -10  -9  107.52    9.76
  -4  10   8  139.30   10.87
   4 -10  -8  133.26    9.76
  -4  10   7  383.70   15.05
   4 -10  -7  375.52   14.12
  -4  10   6  561.93   18.40
   4 -10  -6  567.60   18.31
  -4  10   5  270.42   12.55
   4 -10  -5  244.77   12.45
  -4  10   4   22.30    8.74
   4 -10  -4    7.90    8.83
  -4  10   3  509.15   17.10
   4 -10  -3  524.95   17.75
  -4  10   2  213.73   11.43
   4 -10  -2  235.29   11.89
  -4  10   1   15.80    7.62
   4 -10  -1   -2.14    7.34
  -4  10   0  976.67   26.48
   4 -10   0 1064.02   28.53
  -4  10  -1 2014.67   49.44
   4 -10   1 1997.94   49.34
  -4  10  -2  691.75   19.98
   4 -10   2  648.63   19.42
  -4  10  -3 1111.41   29.64
   4 -10   3 1025.92   27.41
  -4  10  -4  299.13   12.27
   4 -10   4  293.65   11.99
  -4  10  -5 1071.45   28.81
   4 -10   5 1064.95   28.16
  -4  10  -6   78.24    9.20
   4 -10   6   98.87    8.83
  -4  10  -7   10.97    7.62
   4 -10   7   14.78    8.18
  -4  10  -8  235.01   12.08
   4 -10   8  198.40   11.71
  -4  10  -9   10.22    8.27
   4 -10   9   13.38    8.55
  -4  10 -10  198.96   11.52
   4 -10  10  218.57   11.71
  -4  10 -11  934.85   26.95
  -4  10 -11  959.01   27.04
  -4  10 -12  284.45   13.38
  -4  10 -12  278.50   14.31
  -4  10 -13   50.74   11.06
  -4  10 -13   33.18   10.59
  -4  10 -14  224.70   13.29
  -4  10 -14  241.61   13.20
  -4  10 -15  167.18   12.36
  -4  10 -15  187.43   12.82
  -4  10 -16  123.31   12.36
  -4  10 -16   94.69   10.87
  -4  10 -17    8.92   11.24
  -4  10 -17    2.14    9.48
  -4  10 -18  139.39   11.99
  -4  10 -18  130.56   11.62
  -4  10 -19    0.74   10.31
  -4  10 -19   -7.53   10.50
  -4  10 -20   12.92    9.66
  -4  10 -20    8.74   10.41
  -4  10 -21   32.34    9.66
  -4  10 -21   32.25   10.04
  -4   9  15   69.05    9.66
   4  -9 -15   87.54    9.94
  -4   9  14    1.95    8.46
   4  -9 -14   -2.32    9.11
  -4   9  13   51.95    9.20
   4  -9 -13   58.54   10.13
  -4   9  12   62.45    9.39
   4  -9 -12   51.95    9.66
  -4   9  11  442.24   16.45
   4  -9 -11  503.39   17.75
  -4   9  10  624.75   20.35
   4  -9 -10  616.76   19.98
  -4   9   9  526.25   18.31
   4  -9  -9  550.32   18.21
  -4   9   8 1583.48   40.70
   4  -9  -8 1526.80   39.59
  -4   9   7  616.67   19.51
   4  -9  -7  632.00   20.26
  -4   9   6  275.53   13.20
   4  -9  -6  247.84   13.01
  -4   9   5   54.64    9.39
   4  -9  -5   48.14    9.66
  -4   9   4  365.30   14.40
   4  -9  -4  392.43   15.43
  -4   9   3 1726.59   43.58
   4  -9  -3 1712.65   43.40
  -4   9   2  421.24   14.78
   4  -9  -2  413.34   15.05
  -4   9   1  434.25   14.78
   4  -9  -1  465.20   15.52
  -4   9   0 1624.37   40.70
   4  -9   0 1636.45   41.35
  -4   9  -1 1028.71   27.51
   4  -9   1 1001.76   27.04
  -4   9  -2 1698.71   42.65
   4  -9   2 1590.92   39.96
  -4   9  -3  613.04   18.77
   4  -9   3  631.91   19.42
  -4   9  -4  138.83    9.48
   4  -9   4  148.68    9.85
  -4   9  -5  840.90   23.79
   4  -9   5  817.02   23.42
  -4   9  -6   12.08    7.16
   4  -9   6   36.06    8.55
  -4   9  -7  426.17   15.15
   4  -9   7  411.48   15.33
  -4   9  -8 1317.71   34.48
   4  -9   8 1313.99   34.29
  -4   9  -9 2447.71   59.85
   4  -9   9 2477.45   60.68
  -4   9 -10 1175.53   31.97
   4  -9  10 1164.38   32.25
  -4   9 -11  133.26   11.80
  -4   9 -12  244.03   13.29
  -4   9 -12  253.60   13.29
  -4   9 -13 1251.73   34.29
  -4   9 -13 1208.06   32.99
  -4   9 -14  230.55   13.01
  -4   9 -14  250.81   14.31
  -4   9 -16  233.25   13.94
  -4   9 -16  263.36   13.94
  -4   9 -17   63.38   10.78
  -4   9 -17   56.22   10.97
  -4   9 -18    3.53   10.97
  -4   9 -18   34.01   10.50
  -4   9 -19   67.28   11.24
  -4   9 -19   62.63   11.06
  -4   9 -20  270.70   13.85
  -4   9 -20  268.19   13.75
  -4   9 -21  144.97   10.97
  -4   9 -21  140.69   11.43
  -4   8  16  -12.45    8.64
   4  -8 -16  -16.54    8.64
  -4   8  15   60.03    9.48
   4  -8 -15   72.48    9.85
  -4   8  14  212.99   12.36
   4  -8 -14  299.04   13.85
  -4   8  13  450.79   16.73
   4  -8 -13  445.12   17.10
  -4   8  12  740.07   22.30
   4  -8 -12  796.39   23.51
  -4   8  11 1111.41   30.67
   4  -8 -11 1107.70   30.29
  -4   8  10  435.18   16.54
   4  -8 -10  426.54   15.89
  -4   8   9  381.10   15.24
   4  -8  -9  397.27   15.80
  -4   8   8   82.71   10.41
   4  -8  -8   73.78   10.50
  -4   8   7   59.47   10.69
   4  -8  -7   67.65    9.39
  -4   8   6  370.59   15.05
   4  -8  -6  315.95   13.66
  -4   8   5   -3.81    8.36
   4  -8  -5   20.72    8.64
  -4   8   4 1450.60   37.26
   4  -8  -4 1452.46   37.26
  -4   8   3  501.62   16.45
   4  -8  -3  467.89   15.70
  -4   8   2  464.73   15.70
   4  -8  -2  454.23   15.52
  -4   8   1 2002.59   49.44
   4  -8  -1 1995.15   49.44
  -4   8   0  707.36   20.91
   4  -8   0  700.77   20.82
  -4   8  -1  279.53   12.08
   4  -8   1  267.82   11.89
  -4   8  -2   43.86    7.71
   4  -8   2   59.19    8.46
  -4   8  -3  129.73    9.57
   4  -8   3  129.17    9.76
  -4   8  -4  190.78   10.69
   4  -8   4  194.31   10.87
  -4   8  -5   93.95    8.74
   4  -8   5   92.93    8.46
  -4   8  -6  696.12   20.35
   4  -8   6  796.95   22.95
  -4   8  -7 2201.45   54.46
   4  -8   7 2097.37   52.23
  -4   8  -8 1502.64   38.66
   4  -8   8 1511.93   39.22
  -4   8  -9  849.64   24.63
   4  -8   9  880.95   25.09
  -4   8 -10 1074.24   29.55
   4  -8  10 1084.46   29.92
  -4   8 -11  556.82   19.79
  -4   8 -12  131.59   12.36
  -4   8 -12  126.29   12.17
  -4   8 -13  307.59   15.05
  -4   8 -13  296.25   14.96
  -4   8 -14  868.41   26.21
  -4   8 -14  862.18   26.02
  -4   8 -15  255.83   13.47
  -4   8 -15  248.49   14.40
  -4   8 -16  428.77   17.01
  -4   8 -16  455.81   18.03
  -4   8 -17  700.95   22.49
  -4   8 -17  688.50   22.30
  -4   8 -18  334.07   15.70
  -4   8 -18  337.23   14.59
  -4   8 -19  200.72   13.38
  -4   8 -19  203.70   12.27
  -4   8 -20   31.13   10.59
  -4   8 -20   48.60   10.78
  -4   8 -21   17.01   10.13
  -4   8 -21   17.84   10.22
  -4   7  17   29.37    9.01
   4  -7 -17   22.49    9.39
  -4   7  16  106.31   10.22
   4  -7 -16   99.71   10.59
  -4   7  15  157.05   10.97
   4  -7 -15  185.11   11.99
  -4   7  14  636.93   20.35
   4  -7 -14  652.72   20.91
  -4   7  13  892.85   25.56
   4  -7 -13  876.12   25.28
  -4   7  12  694.54   22.02
   4  -7 -12  708.39   22.49
  -4   7  11  385.18   15.80
   4  -7 -11  428.30   17.01
  -4   7  10  254.25   13.10
   4  -7 -10  258.62   13.85
  -4   7   9    6.78    9.29
   4  -7  -9   11.24    9.20
  -4   7   8  151.29   11.62
   4  -7  -8  131.12   10.78
  -4   7   7  488.52   17.66
   4  -7  -7  571.23   19.42
  -4   7   6  832.63   24.25
   4  -7  -6  787.19   23.14
  -4   7   5 1105.84   29.83
   4  -7  -5 1140.22   30.85
  -4   7   4 1739.60   43.86
   4  -7  -4 1803.72   45.53
  -4   7   3  833.37   23.79
   4  -7  -3  848.34   24.07
  -4   7   2  442.52   15.61
   4  -7  -2  436.85   15.24
  -4   7   1   83.45    8.64
   4  -7  -1   49.72    7.99
  -4   7   0   16.73    7.81
   4  -7   0    4.83    7.53
  -4   7  -1   65.70    8.08
   4  -7   1   76.11    8.27
  -4   7  -2   84.47    8.55
   4  -7   2   83.73    8.36
  -4   7  -3 1248.95   32.62
   4  -7   3 1220.14   32.06
  -4   7  -4 1614.15   40.70
   4  -7   4 1582.56   40.14
  -4   7  -5 1203.41   31.69
   4  -7   5 1251.73   33.18
  -4   7  -6 1212.70   32.25
   4  -7   6 1261.03   33.64
  -4   7  -7  757.36   22.21
   4  -7   7  777.15   23.05
  -4   7  -8  308.98   13.38
   4  -7   8  325.06   13.75
  -4   7  -9  130.10   10.04
   4  -7   9  145.06   11.43
  -4   7 -10   42.93    9.57
   4  -7  10   51.02    9.94
  -4   7 -11   10.87    8.92
  -4   7 -12  159.46   12.17
  -4   7 -12  182.32   13.01
  -4   7 -13   -3.72   10.87
  -4   7 -13   15.80   11.06
  -4   7 -14  807.17   25.00
  -4   7 -14  757.82   24.16
  -4   7 -15  333.89   15.43
  -4   7 -15  367.99   16.73
  -4   7 -16  163.65   13.47
  -4   7 -16  200.26   13.66
  -4   7 -17   99.43   11.52
  -4   7 -17  118.39   12.27
  -4   7 -18  242.73   13.85
  -4   7 -18  289.47   14.68
  -4   7 -19   79.08   12.17
  -4   7 -19   69.79   11.34
  -4   7 -20   12.55   10.97
  -4   7 -20  -11.80    9.29
  -4   7 -21   56.78   10.50
  -4   7 -21   72.67   10.69
  -4   6  18   64.03   10.31
   4  -6 -18   62.45    9.29
  -4   6  17  135.77   10.78
   4  -6 -17  141.71   11.99
  -4   6  16  120.81   10.78
   4  -6 -16  132.70   11.99
  -4   6  15  286.03   14.12
   4  -6 -15  269.86   14.03
  -4   6  14  245.79   13.10
   4  -6 -14  244.12   13.10
  -4   6  13  215.50   12.92
   4  -6 -13  204.35   11.89
  -4   6  12  430.25   16.17
   4  -6 -12  403.03   16.45
  -4   6  11  192.45   12.08
   4  -6 -11  147.20   11.62
  -4   6  10  419.20   16.26
   4  -6 -10  442.71   16.91
  -4   6   9 1173.67   32.25
   4  -6  -9 1215.49   33.55
  -4   6   8   37.82   10.13
   4  -6  -8   40.80   10.31
  -4   6   7 2209.82   54.83
   4  -6  -7 2223.76   55.20
  -4   6   6  399.31   15.05
   4  -6  -6  393.08   14.78
  -4   6   5 2087.15   51.57
   4  -6  -5 1991.44   49.25
  -4   6   4  713.87   21.37
   4  -6  -4  698.35   21.28
  -4   6   3    5.95    8.36
   4  -6  -3   -3.53    8.36
  -4   6   2  287.80   13.01
   4  -6  -2  277.02   12.73
  -4   6   1   86.89    9.01
   4  -6  -1   88.10    8.92
  -4   6   0  112.16    9.57
   4  -6   0  140.13   10.04
  -4   6  -1  704.86   20.91
   4  -6   1  696.03   20.72
  -4   6  -2   90.88    9.20
   4  -6   2   93.02    9.20
  -4   6  -3 1083.53   28.99
   4  -6   3 1144.87   30.67
  -4   6  -4  975.74   26.76
   4  -6   4  975.74   26.86
  -4   6  -5 1337.23   34.85
   4  -6   5 1332.58   34.75
  -4   6  -6  649.10   20.17
   4  -6   6  687.38   20.91
  -4   6  -7   -4.55    8.46
   4  -6   7   -6.50    9.29
  -4   6  -8    1.39    8.92
   4  -6   8    2.88    8.74
  -4   6  -9   74.43    9.94
   4  -6   9   60.40   10.50
  -4   6 -10  319.48   14.03
   4  -6  10  345.69   14.78
  -4   6 -11 1031.50   29.74
  -4   6 -11 1042.65   29.37
  -4   6 -12 1689.42   43.58
  -4   6 -12 1681.99   43.95
  -4   6 -13 1626.23   42.47
  -4   6 -13 1643.89   43.03
  -4   6 -14  139.67   12.55
  -4   6 -14  106.12   12.08
  -4   6 -15   82.52   11.15
  -4   6 -15   97.02   12.08
  -4   6 -16  374.96   15.80
  -4   6 -16  378.77   16.73
  -4   6 -17  439.92   16.45
  -4   6 -17  436.95   17.56
  -4   6 -18  -12.45   10.87
  -4   6 -18  -11.99   11.15
  -4   6 -19   12.08   10.13
  -4   6 -19   35.96   10.31
  -4   6 -20   -5.30   10.04
  -4   6 -20   15.33   10.13
  -4   6 -21   16.26    9.66
  -4   6 -21   35.59    9.20
  -4   5  18  333.05   13.94
   4  -5 -18  324.13   14.12
  -4   5  17  342.62   14.59
   4  -5 -17  322.27   14.50
  -4   5  16  557.94   19.05
   4  -5 -16  551.15   18.49
  -4   5  15  281.20   14.03
   4  -5 -15  324.87   14.78
  -4   5  14   20.63    9.29
   4  -5 -14   28.44   10.04
  -4   5  13   53.71    9.48
   4  -5 -13   47.02   10.78
  -4   5  12   38.75    9.85
   4  -5 -12   19.05   10.13
  -4   5  11  562.77   19.61
   4  -5 -11  591.86   20.54
  -4   5  10 2433.77   60.03
   4  -5 -10 2501.61   61.89
  -4   5   9  861.44   26.02
   4  -5  -9  827.98   25.28
  -4   5   8 5334.97  125.45
   4  -5  -8 5038.53  118.58
  -4   5   7  425.70   15.98
   4  -5  -7  442.43   16.45
  -4   5   6  391.88   15.24
   4  -5  -6  418.36   15.52
  -4   5   5  496.98   17.19
   4  -5  -5  509.80   17.01
  -4   5   4   20.82    8.64
   4  -5  -4   16.17    8.46
  -4   5   3   19.05    8.64
   4  -5  -3   19.70    8.36
  -4   5   2 1235.01   32.52
   4  -5  -2 1184.83   31.41
  -4   5   1 1426.44   36.80
   4  -5  -1 1435.73   36.89
  -4   5   0 3403.01   81.03
   4  -5   0 3362.12   79.92
  -4   5  -1  231.39   11.62
   4  -5   1  209.74   11.06
  -4   5  -2 1416.22   36.52
   4  -5   2 1399.49   36.06
  -4   5  -3 2325.98   56.96
   4  -5   3 2253.49   55.20
  -4   5  -4 1053.80   28.81
   4  -5   4 1079.82   29.37
  -4   5  -5  125.17   10.04
   4  -5   5  134.84   10.22
  -4   5  -6    4.09    8.08
   4  -5   6    6.41    8.18
  -4   5  -7    7.71    8.92
   4  -5   7    0.93    8.92
  -4   5  -8    4.55    9.01
   4  -5   8   26.48   10.13
  -4   5  -9  493.17   17.75
   4  -5   9  490.29   17.94
  -4   5 -10  434.25   16.54
   4  -5  10  463.80   17.19
  -4   5 -11   -5.67   10.31
  -4   5 -11    8.92   10.97
  -4   5 -12  278.22   14.68
  -4   5 -12  243.10   14.31
  -4   5 -13  513.33   19.33
  -4   5 -13  482.85   18.77
  -4   5 -14  615.46   21.28
  -4   5 -14  620.29   21.37
  -4   5 -15  143.94   11.52
  -4   5 -15  145.43   12.64
  -4   5 -16   -7.53   11.15
  -4   5 -16    8.64   11.34
  -4   5 -17   18.21   11.62
  -4   5 -17   12.45   11.24
  -4   5 -18   23.79   10.78
  -4   5 -18   18.40   10.87
  -4   5 -19  239.66   13.29
  -4   5 -19  217.17   14.22
  -4   5 -20  676.51   20.82
  -4   5 -20  686.46   22.12
  -4   5 -21  280.27   13.57
  -4   5 -21  261.41   13.29
  -4   4  19  158.91   10.78
   4  -4 -19  167.83   10.97
  -4   4  18  372.36   15.05
   4  -4 -18  393.83   15.70
  -4   4  17  332.49   14.40
   4  -4 -17  347.36   14.78
  -4   4  16   70.35   11.71
   4  -4 -16   89.68   10.87
  -4   4  15    0.28    9.85
   4  -4 -15   -3.07   10.13
  -4   4  14    2.04   10.50
   4  -4 -14    4.46   10.41
  -4   4  13   32.71   10.04
   4  -4 -13   23.70   10.31
  -4   4  12   25.37    9.94
   4  -4 -12   -9.29   10.22
  -4   4  11 1046.36   29.27
   4  -4 -11 1036.14   29.46
  -4   4  10  627.73   20.82
   4  -4 -10  637.20   21.19
  -4   4   9 2050.91   51.39
   4  -4  -9 2101.09   52.60
  -4   4   8  613.04   19.98
   4  -4  -8  599.29   19.89
  -4   4   7  674.19   20.82
   4  -4  -7  730.22   22.30
  -4   4   6  852.70   24.81
   4  -4  -6  838.76   24.35
  -4   4   5  608.40   19.61
   4  -4  -5  595.76   19.05
  -4   4   4 2746.94   66.54
   4  -4  -4 2791.54   67.65
  -4   4   3 5051.54  118.67
   4  -4  -3 5071.98  119.13
  -4   4   2 4025.62   95.44
   4  -4  -2 3929.90   93.21
  -4   4   1 8962.86  207.23
   4  -4  -1 8926.62  206.21
  -4   4   0 5075.70  118.95
   4  -4   0 5093.36  119.32
  -4   4  -1 7724.13  179.07
   4  -4   1 7692.54  178.23
  -4   4  -2 1843.68   46.18
   4  -4   2 1900.37   47.39
  -4   4  -3   20.91    8.55
   4  -4   3   13.01    8.64
  -4   4  -4  424.59   15.70
   4  -4   4  415.20   15.15
  -4   4  -5  229.90   11.80
   4  -4   5  245.14   11.89
  -4   4  -6  547.81   17.94
   4  -4   6  593.25   19.79
  -4   4  -7 1029.64   28.62
   4  -4   7 1020.34   28.62
  -4   4  -8 1379.04   36.43
   4  -4   8 1424.58   37.54
  -4   4  -9  445.59   16.36
   4  -4   9  504.97   18.21
  -4   4 -10    7.43    9.29
   4  -4  10   22.77    9.66
  -4   4 -11  127.50   13.20
  -4   4 -11  147.57   12.64
  -4   4 -12   94.97   12.73
  -4   4 -12   91.25   12.17
  -4   4 -13   61.33   12.17
  -4   4 -13   66.54   11.99
  -4   4 -14    2.97   10.87
  -4   4 -14   24.16   10.69
  -4   4 -15   32.15   11.43
  -4   4 -15   38.75   11.06
  -4   4 -16   55.66   10.87
  -4   4 -16   46.09   11.52
  -4   4 -17  169.31   13.10
  -4   4 -17  168.01   12.36
  -4   4 -18  418.08   17.28
  -4   4 -18  434.06   16.82
  -4   4 -19  303.59   14.12
  -4   4 -19  308.43   14.40
  -4   4 -20   90.05   10.31
  -4   4 -20   95.34   11.24
  -4   3  20   86.33   11.43
   4  -3 -20   85.03   10.87
  -4   3  19  112.35   11.24
   4  -3 -19  107.42   10.69
  -4   3  18   -1.86   10.04
   4  -3 -18   -4.65    9.76
  -4   3  17   18.49   10.41
   4  -3 -17   10.78    9.66
  -4   3  16  103.80   12.17
   4  -3 -16   66.07   10.50
  -4   3  15  260.57   13.85
   4  -3 -15  236.04   13.75
  -4   3  14 1206.20   33.45
   4  -3 -14 1213.63   33.36
  -4   3  13  758.47   23.79
   4  -3 -13  772.32   24.07
  -4   3  12  312.33   15.05
   4  -3 -12  313.91   15.24
  -4   3  11 1243.37   33.92
   4  -3 -11 1271.25   34.85
  -4   3  10  714.05   22.30
   4  -3 -10  712.29   23.14
  -4   3   9  289.10   13.75
   4  -3  -9  290.77   13.94
  -4   3   8   47.58    9.39
   4  -3  -8   47.02    9.76
  -4   3   7  125.17   10.69
   4  -3  -7  104.73   10.41
  -4   3   6   31.04    9.01
   4  -3  -6   30.02    9.11
  -4   3   5   34.66    8.74
   4  -3  -5   31.41    8.36
  -4   3   4   31.22    9.01
   4  -3  -4   33.73    8.83
  -4   3   3  390.20   14.96
   4  -3  -3  397.82   14.68
  -4   3   2 1416.22   36.52
   4  -3  -2 1422.72   36.99
  -4   3   1 3823.04   90.51
   4  -3  -1 3928.05   93.02
  -4   3   0 1339.09   34.85
   4  -3   0 1346.52   35.22
  -4   3  -1  507.38   17.56
   4  -3   1  507.29   17.19
  -4   3  -2   84.19   10.04
   4  -3   2   83.54   10.04
  -4   3  -3 1758.19   44.51
   4  -3   3 1780.49   44.88
  -4   3  -4 4041.42   95.72
   4  -3   4 3955.92   93.58
  -4   3  -5 2335.27   57.06
   4  -3   5 2384.52   58.54
  -4   3  -6 2194.02   54.08
   4  -3   6 2306.46   56.96
  -4   3  -7 1620.66   41.63
   4  -3   7 1621.59   41.54
  -4   3  -8 2797.12   67.84
   4  -3   8 2889.12   70.07
  -4   3  -9 1338.16   35.59
   4  -3   9 1319.57   35.31
  -4   3 -10   31.32    9.20
  -4   3 -10   46.74   10.87
  -4   3 -11   85.68   11.43
  -4   3 -11   57.52   11.34
  -4   3 -12   74.43   11.15
  -4   3 -12   87.82   12.27
  -4   3 -13   22.67   10.50
  -4   3 -13   60.40   11.34
  -4   3 -14  152.87   12.64
  -4   3 -14  134.74   12.82
  -4   3 -15  126.57   11.24
  -4   3 -15  127.12   11.71
  -4   3 -16  365.21   16.26
  -4   3 -16  405.72   17.19
  -4   3 -17  458.13   18.03
  -4   3 -17  466.68   18.21
  -4   3 -18  190.22   12.45
  -4   3 -18  195.98   12.17
  -4   3 -19  215.13   13.29
  -4   3 -19  202.12   11.89
  -4   3 -20   47.21   10.13
  -4   3 -20   65.51   11.43
  -4   2  20   18.86    9.39
   4  -2 -20    9.11    9.29
  -4   2  19   36.06   10.04
   4  -2 -19   30.02   10.04
  -4   2  18   82.05   11.43
   4  -2 -18   79.55   11.06
  -4   2  17   39.59   10.41
   4  -2 -17   54.83   11.24
  -4   2  16  194.59   13.10
   4  -2 -16  175.17   13.10
  -4   2  15  920.73   26.95
   4  -2 -15  945.07   27.32
  -4   2  14  290.58   13.75
   4  -2 -14  297.28   14.68
  -4   2  13   84.10   11.71
   4  -2 -13   91.07   11.80
  -4   2  12 2175.43   54.64
   4  -2 -12 2241.41   56.22
  -4   2  11   12.27    9.76
   4  -2 -11    1.30   10.59
  -4   2  10   68.02   11.71
   4  -2 -10   73.04   10.50
  -4   2   9  150.73   11.80
   4  -2  -9  130.38   11.06
  -4   2   8    8.55    9.29
   4  -2  -8    9.57    8.92
  -4   2   7  227.95   12.36
   4  -2  -7  221.82   12.36
  -4   2   6 4395.47  103.71
   4  -2  -6 4454.02  105.29
  -4   2   5 4645.45  109.47
   4  -2  -5 4507.91  106.12
  -4   2   4 5177.92  121.55
   4  -2  -4 5175.13  121.18
  -4   2   3    3.35    8.74
   4  -2  -3    3.53    8.83
  -4   2   2 1503.57   38.75
   4  -2  -2 1397.63   36.52
  -4   2   1  649.47   19.89
   4  -2  -1  634.14   19.89
  -4   2   0  679.30   20.54
   4  -2   0  743.42   22.02
  -4   2  -1  304.90   13.20
   4  -2   1  324.78   13.57
  -4   2  -2 1533.30   39.03
   4  -2   2 1592.78   40.70
  -4   2  -3 1772.13   44.51
   4  -2   3 1747.04   43.77
  -4   2  -4   82.24    8.83
   4  -2   4   91.25    8.74
  -4   2  -5  855.21   24.25
   4  -2   5  930.20   26.11
  -4   2  -6 1459.89   37.91
   4  -2   6 1420.86   37.08
  -4   2  -7 1343.73   35.96
   4  -2   7 1388.34   36.61
  -4   2  -8   51.39    9.76
   4  -2   8   47.39    9.48
  -4   2  -9  476.35   17.47
   4  -2   9  459.34   17.19
  -4   2 -10    1.21   10.87
  -4   2 -10    1.77   10.50
  -4   2 -11   39.68   11.89
  -4   2 -11   25.00   11.24
  -4   2 -12    3.62   11.89
  -4   2 -12   -1.77   11.80
  -4   2 -13  218.84   14.22
  -4   2 -13  216.61   14.12
  -4   2 -14   51.57   11.80
  -4   2 -14   33.45   11.62
  -4   2 -15   59.57   10.50
  -4   2 -15   41.54   11.43
  -4   2 -16  407.58   16.63
  -4   2 -16  424.49   17.75
  -4   2 -17  122.11   11.89
  -4   2 -17  116.81   11.15
  -4   2 -18   38.66   10.22
  -4   2 -18   32.71   10.78
  -4   2 -19   -2.69    9.48
  -4   2 -19    7.16    9.66
  -4   2 -20  -11.15    8.18
  -4   2 -20   -9.76   10.78
  -4   1  21    5.76    9.39
   4  -1 -21   -7.34    8.83
  -4   1  20  115.79   10.97
   4  -1 -20  130.10   11.80
  -4   1  19  231.20   12.92
   4  -1 -19  242.82   13.38
  -4   1  18  220.15   13.57
   4  -1 -18  247.74   14.40
  -4   1  17  361.58   14.78
   4  -1 -17  337.42   15.80
  -4   1  16  250.53   13.10
   4  -1 -16  213.45   13.47
  -4   1  15  444.84   16.82
   4  -1 -15  420.87   17.28
  -4   1  14   -0.65   10.04
   4  -1 -14   -1.67   10.13
  -4   1  13  712.57   23.05
   4  -1 -13  710.90   23.32
  -4   1  12  115.51   11.71
   4  -1 -12  117.27   11.80
  -4   1  11   13.38   10.31
   4  -1 -11    1.58   10.41
  -4   1  10   -0.93    9.11
   4  -1 -10    1.12    9.66
  -4   1   9  244.31   12.36
   4  -1  -9  224.51   12.45
  -4   1   8  549.85   18.03
   4  -1  -8  466.40   16.73
  -4   1   7 1284.26   34.01
   4  -1  -7 1298.20   34.29
  -4   1   6  388.90   14.59
   4  -1  -6  412.23   15.33
  -4   1   5 2476.52   60.31
   4  -1  -5 2457.93   59.94
  -4   1   4   80.10    9.48
   4  -1  -4   75.92    9.29
  -4   1   3 2758.09   66.35
   4  -1  -3 2806.41   67.65
  -4   1   2   26.67    8.46
   4  -1  -2   46.46    8.08
  -4   1   1  263.26   12.17
   4  -1  -1  287.24   13.10
  -4   1   0 2183.80   53.71
   4  -1   0 2144.77   52.69
  -4   1  -1  743.70   21.93
   4  -1   1  733.48   21.47
  -4   1  -2 2158.71   53.34
   4  -1   2 2118.75   52.13
  -4   1  -3 4170.59   98.97
   4  -1   3 4095.32   96.83
  -4   1  -4 5449.27  127.78
   4  -1   4 5305.23  124.24
  -4   1  -5  310.38   13.29
   4  -1   5  318.56   14.12
  -4   1  -6   45.53    8.92
   4  -1   6   38.19    9.29
  -4   1  -7  345.32   14.50
   4  -1   7  378.40   15.24
  -4   1  -8    2.32    8.92
   4  -1   8   -7.71    8.92
  -4   1  -9  127.12   10.97
  -4   1  -9  132.70   10.69
  -4   1 -10 1150.44   31.69
  -4   1 -10 1101.19   31.41
  -4   1 -11 1263.81   34.75
  -4   1 -11 1195.98   32.80
  -4   1 -12  853.63   25.74
  -4   1 -12  860.14   26.11
  -4   1 -13  238.17   13.20
  -4   1 -13  229.62   14.40
  -4   1 -14  875.38   25.65
  -4   1 -14  897.40   27.13
  -4   1 -15  240.40   14.50
  -4   1 -15  262.80   14.31
  -4   1 -16   12.73   10.97
  -4   1 -16    3.25   10.59
  -4   1 -17   22.77   10.41
  -4   1 -17   27.88    9.94
  -4   1 -18   27.79   10.78
  -4   1 -18   22.86    9.76
  -4   1 -19   19.42    9.20
  -4   1 -19   27.04    9.01
  -4   0  21  380.72   14.40
   4   0 -21  398.10   15.61
  -4   0  20  767.30   22.58
   4   0 -20  737.84   23.05
  -4   0  19  616.85   19.89
   4   0 -19  589.16   19.33
  -4   0  18  824.82   24.90
   4   0 -18  796.57   24.16
  -4   0  17  457.11   17.94
   4   0 -17  442.06   17.28
  -4   0  16  373.10   15.70
   4   0 -16  401.17   16.73
  -4   0  15   42.75   10.31
   4   0 -15   26.95   11.24
  -4   0  14   10.04   10.41
   4   0 -14   -7.34   10.31
  -4   0  13  350.34   16.26
   4   0 -13  363.16   15.70
  -4   0  12   -5.11   10.69
   4   0 -12   13.85   10.41
  -4   0  11  448.75   17.19
   4   0 -11  404.70   15.98
  -4   0  10 2589.89   63.66
   4   0 -10 2554.58   62.73
  -4   0   9  636.74   20.82
   4   0  -9  592.04   19.61
  -4   0   8  870.73   25.56
   4   0  -8  891.27   25.65
  -4   0   7 1132.79   30.57
   4   0  -7 1140.22   30.85
  -4   0   6 2443.99   59.94
   4   0  -6 2345.49   57.43
  -4   0   5  227.77   11.99
   4   0  -5  206.02   11.34
  -4   0   4   32.06    9.66
   4   0  -4   35.96    8.27
  -4   0   3  976.67   27.13
   4   0  -3  955.29   26.39
  -4   0   2  709.50   20.91
   4   0  -2  711.55   20.72
  -4   0   1 2608.48   63.19
   4   0  -1 2580.60   62.35
  -4   0   0 1768.41   44.14
   4   0   0 1734.96   43.49
  -4   0  -1 1409.71   36.33
   4   0   1 1369.75   35.41
  -4   0  -2  998.04   27.51
   4   0   2  948.79   26.21
  -4   0  -3  585.16   18.49
   4   0   3  625.50   19.42
  -4   0  -4  143.11    9.48
   4   0   4  144.04    9.94
  -4   0  -5  267.63   12.17
   4   0   5  267.07   12.92
  -4   0  -6  177.58   11.43
   4   0   6  164.11   11.24
  -4   0  -7  978.53   27.60
   4   0   7  998.04   28.06
  -4   0  -8  529.59   18.40
   4   0   8  546.23   18.59
  -4   0  -9  615.27   20.35
  -4   0  -9  652.72   21.65
  -4   0 -10  438.71   17.94
  -4   0 -10  395.78   16.82
  -4   0 -11  478.76   18.68
  -4   0 -11  519.09   19.14
  -4   0 -12 1162.52   32.71
  -4   0 -12 1208.99   33.73
  -4   0 -13  694.08   22.95
  -4   0 -13  685.06   22.21
  -4   0 -14   35.22   11.34
  -4   0 -14   17.01   11.34
  -4   0 -15    9.85   10.69
  -4   0 -15   -0.93   11.24
  -4   0 -16  -10.13    9.85
  -4   0 -16   11.62   10.22
  -4   0 -17   70.81   11.15
  -4   0 -17   59.85   10.69
  -4   0 -18  183.25   11.34
  -4   0 -18  198.96   13.20
  -4  -1  22   47.11    8.27
   4   1 -22   49.81   10.97
  -4  -1  21   76.39    9.20
   4   1 -21   71.55   10.50
  -4  -1  20   74.53    9.94
   4   1 -20   73.41   10.69
  -4  -1  19  176.56   12.45
   4   1 -19  144.13   11.71
  -4  -1  18   29.37   10.04
   4   1 -18   20.07    9.94
  -4  -1  17   38.47    9.85
   4   1 -17   17.38   10.41
  -4  -1  16   33.92    9.85
   4   1 -16   56.04   11.34
  -4  -1  15  423.19   17.10
   4   1 -15  419.85   17.01
  -4  -1  14  490.66   18.40
   4   1 -14  466.50   18.12
  -4  -1  13  839.88   25.37
   4   1 -13  904.46   27.04
  -4  -1  12  945.07   27.13
   4   1 -12  937.64   27.51
  -4  -1  11 2996.91   72.39
   4   1 -11 3149.31   76.01
  -4  -1  10 1636.45   41.45
   4   1 -10 1642.03   42.19
  -4  -1   9 1451.53   37.54
   4   1  -9 1421.79   37.36
  -4  -1   8 2429.13   59.01
   4   1  -8 2416.12   59.29
  -4  -1   7  201.93   10.87
   4   1  -7  213.64   11.62
  -4  -1   6   59.75    9.29
   4   1  -6   70.25    8.64
  -4  -1   5  838.39   23.60
   4   1  -5  859.02   24.25
  -4  -1   4  851.40   23.79
   4   1  -4  905.67   25.00
  -4  -1   3 3153.03   74.90
   4   1  -3 3250.60   77.50
  -4  -1   2 4810.86  112.54
   4   1  -2 4656.60  109.19
  -4  -1   1 1215.49   31.50
   4   1  -1 1274.04   32.99
  -4  -1   0   19.98    7.16
   4   1   0   19.98    8.08
  -4  -1  -1  534.52   17.10
   4   1   1  558.87   17.75
  -4  -1  -2  467.61   16.73
   4   1   2  486.94   16.26
  -4  -1  -3  455.81   16.63
   4   1   3  452.56   16.17
  -4  -1  -4  417.80   15.61
   4   1   4  417.62   15.43
  -4  -1  -5  885.97   25.37
   4   1   5  911.15   25.83
  -4  -1  -6  332.40   14.31
   4   1   6  357.31   14.31
  -4  -1  -7  516.86   17.94
   4   1   7  535.17   18.31
  -4  -1  -8  634.79   20.44
  -4  -1  -8  596.22   19.79
  -4  -1  -9 2112.24   52.88
  -4  -1  -9 2027.68   51.39
  -4  -1 -10  989.68   28.99
  -4  -1 -10 1050.08   29.64
  -4  -1 -11  307.59   14.50
  -4  -1 -11  338.63   16.17
  -4  -1 -12  151.19   12.08
  -4  -1 -12  155.47   12.36
  -4  -1 -13   -0.19   10.22
  -4  -1 -13  -37.45   11.15
  -4  -1 -14   24.44   10.87
  -4  -1 -14   22.21   10.50
  -4  -1 -15  255.27   14.50
  -4  -1 -15  237.15   13.38
  -4  -1 -17  108.82   11.43
  -4  -1 -17  133.44   11.15
  -4  -1 -18   40.80    9.57
  -4  -1 -18   39.96    9.94
  -4  -2  22  342.72   13.01
   4   2 -22  319.86   14.31
  -4  -2  21  230.00   11.62
   4   2 -21  223.58   12.64
  -4  -2  20   91.91   10.78
   4   2 -20   88.00   11.71
  -4  -2  19   -6.69    9.57
   4   2 -19   -1.77   11.06
  -4  -2  18    1.95   11.52
   4   2 -18   -8.74   10.78
  -4  -2  17   90.42   11.06
   4   2 -17  103.43   12.08
  -4  -2  16  547.34   18.86
   4   2 -16  545.48   19.61
  -4  -2  15   -3.07    9.66
   4   2 -15  -21.47   10.59
  -4  -2  14   74.71   10.59
   4   2 -14   58.82   11.24
  -4  -2  13   17.84   10.50
   4   2 -13   33.83   10.78
  -4  -2  12  450.23   17.66
   4   2 -12  444.47   17.10
  -4  -2  11 1097.47   30.29
   4   2 -11 1099.33   30.39
  -4  -2  10  564.26   19.05
   4   2 -10  569.18   18.59
  -4  -2   9  562.86   19.05
   4   2  -9  583.96   18.86
  -4  -2   8  549.48   18.31
   4   2  -8  544.46   17.94
  -4  -2   7   19.89    9.01
   4   2  -7   24.35    8.08
  -4  -2   6  870.08   25.28
   4   2  -6  838.21   23.79
  -4  -2   5 1950.55   48.69
   4   2  -5 1926.39   47.76
  -4  -2   4 6506.78  151.38
   4   2  -4 6290.26  146.36
  -4  -2   3 1816.73   45.16
   4   2  -3 1756.33   43.68
  -4  -2   2  345.69   13.38
   4   2  -2  328.31   13.20
  -4  -2   1  104.82    9.11
   4   2  -1  107.61    9.01
  -4  -2   0  817.86   23.23
   4   2   0  811.63   23.05
  -4  -2  -1  172.19   10.13
   4   2   1  187.16   10.50
  -4  -2  -2  380.35   14.12
   4   2   2  380.91   14.03
  -4  -2  -3  374.22   13.85
   4   2   3  396.99   14.78
  -4  -2  -4   99.62    8.36
   4   2   4  125.92   10.13
  -4  -2  -5   28.62    7.99
   4   2   5   32.99    9.57
  -4  -2  -6  838.95   23.60
   4   2   6  825.10   24.16
  -4  -2  -7  651.61   19.98
  -4  -2  -7  651.70   20.54
  -4  -2  -8  695.93   21.84
  -4  -2  -8  722.33   22.67
  -4  -2  -9   86.61   11.52
  -4  -2  -9   80.85   11.34
  -4  -2 -10  550.32   19.42
  -4  -2 -10  542.60   19.14
  -4  -2 -11   54.73   11.43
  -4  -2 -11   44.42   10.59
  -4  -2 -12  106.87   12.55
  -4  -2 -12  110.58   11.89
  -4  -2 -13  181.67   12.36
  -4  -2 -13  166.43   12.45
  -4  -2 -14  631.26   21.09
  -4  -2 -14  613.79   20.35
  -4  -2 -15   85.96   10.97
  -4  -2 -15   86.52    9.66
  -4  -2 -16  236.22   13.10
  -4  -2 -16  236.50   12.64
  -4  -3  22   23.32    8.64
   4   3 -22   14.87    9.29
  -4  -3  21   11.43    9.20
   4   3 -21   -4.37   10.78
  -4  -3  20    0.93    8.64
   4   3 -20   -6.97   10.50
  -4  -3  19   46.18   10.13
   4   3 -19   53.90   11.52
  -4  -3  18   76.76   11.99
   4   3 -18   56.13   11.34
  -4  -3  17  750.39   23.51
   4   3 -17  748.72   23.60
  -4  -3  16   11.24   10.69
   4   3 -16   41.72   10.87
  -4  -3  15  298.48   15.05
   4   3 -15  306.85   15.05
  -4  -3  14  504.22   18.21
   4   3 -14  495.68   18.49
  -4  -3  13  300.34   14.40
   4   3 -13  275.16   14.12
  -4  -3  12  405.26   16.63
   4   3 -12  409.53   16.91
  -4  -3  11   40.33    9.57
   4   3 -11   25.74    9.48
  -4  -3  10  107.52    9.94
   4   3 -10  102.87   10.04
  -4  -3   9  205.93   11.06
   4   3  -9  221.73   11.71
  -4  -3   8   15.70    7.62
   4   3  -8   28.62    8.36
  -4  -3   7 2080.65   51.11
   4   3  -7 2106.67   51.95
  -4  -3   6 2499.75   60.40
   4   3  -6 2539.71   61.52
  -4  -3   5 5336.83  124.34
   4   3  -5 5469.71  127.68
  -4  -3   4 2742.29   65.61
   4   3  -4 2733.00   65.51
  -4  -3   3 1374.40   34.66
   4   3  -3 1350.24   34.38
  -4  -3   2  322.27   11.99
   4   3  -2  321.99   12.36
  -4  -3   1   38.84    7.06
   4   3  -1   31.32    7.90
  -4  -3   0 2138.26   52.04
   4   3   0 2100.16   51.30
  -4  -3  -1   90.23    8.18
   4   3   1  122.29    9.29
  -4  -3  -2   12.08    7.90
   4   3   2    0.37    8.27
  -4  -3  -3 1523.08   38.56
   4   3   3 1461.75   37.45
  -4  -3  -4  136.23    9.76
   4   3   4  131.03   10.04
  -4  -3  -5  191.43   11.71
   4   3   5  208.90   12.08
  -4  -3  -6   25.09    8.83
  -4  -3  -6   26.95   10.04
  -4  -3  -7  135.67   11.71
  -4  -3  -7  149.52   12.36
  -4  -3  -8  179.63   12.08
  -4  -3  -8  186.69   12.36
  -4  -3  -9  389.83   16.63
  -4  -3  -9  419.20   16.36
  -4  -3 -10  173.12   12.08
  -4  -3 -10  174.05   12.17
  -4  -3 -11  539.17   18.21
  -4  -3 -11  538.24   18.96
  -4  -3 -12   40.70   10.50
  -4  -3 -12   39.59   10.31
  -4  -3 -13  178.33   12.55
  -4  -3 -13  157.79   12.08
  -4  -3 -14  181.21   12.55
  -4  -3 -14  184.00   11.06
  -4  -3 -15  615.64   19.89
  -4  -3 -15  555.06   17.75
  -4  -3 -16  201.93   12.17
  -4  -3 -16  189.94   11.15
  -4  -4  22    1.30    8.83
   4   4 -22   -9.01    9.29
  -4  -4  21   29.83    9.76
   4   4 -21   27.97   10.87
  -4  -4  20  141.62   11.24
   4   4 -20  111.33   11.89
  -4  -4  19  193.29   12.55
   4   4 -19  166.99   12.27
  -4  -4  18  631.81   20.44
   4   4 -18  621.31   20.63
  -4  -4  17  540.56   18.12
   4   4 -17  587.49   20.44
  -4  -4  16  766.93   22.86
   4   4 -16  770.93   24.44
  -4  -4  15  514.63   18.21
   4   4 -15  495.95   18.96
  -4  -4  14   74.25   11.62
   4   4 -14   58.92   11.24
  -4  -4  13   87.44   11.06
   4   4 -13  127.50   12.17
  -4  -4  12  282.31   14.03
   4   4 -12  281.11   14.12
  -4  -4  11   15.61    8.83
   4   4 -11   10.50    9.85
  -4  -4  10  921.84   25.93
   4   4 -10  921.47   26.11
  -4  -4   9  996.18   27.69
   4   4  -9  985.96   27.13
  -4  -4   8 1368.82   35.13
   4   4  -8 1411.57   36.61
  -4  -4   7  609.51   18.86
   4   4  -7  590.37   18.31
  -4  -4   6  721.49   21.09
   4   4  -6  733.20   21.37
  -4  -4   5  811.81   23.14
   4   4  -5  773.34   21.93
  -4  -4   4  867.48   23.88
   4   4  -4  846.57   23.32
  -4  -4   3  118.02    8.64
   4   4  -3  131.40    8.55
  -4  -4   2  776.22   22.12
   4   4  -2  788.49   22.02
  -4  -4   1  693.70   20.54
   4   4  -1  703.93   20.44
  -4  -4   0 1561.18   39.96
   4   4   0 1506.36   37.91
  -4  -4  -1 3012.71   72.67
   4   4   1 2891.90   69.14
  -4  -4  -2 5493.87  128.89
   4   4   2 4889.85  114.58
  -4  -4  -3 1188.54   31.60
   4   4   3 1136.50   30.29
  -4  -4  -4  591.76   18.49
   4   4   4  564.81   17.94
  -4  -4  -5  492.52   16.73
  -4  -4  -5  524.39   18.21
  -4  -4  -6   53.99    9.48
  -4  -4  -6   58.17   10.04
  -4  -4  -7   93.39   10.50
  -4  -4  -7  105.10   10.22
  -4  -4  -9  326.73   14.87
  -4  -4  -9  323.39   14.59
  -4  -4 -10  263.45   13.57
  -4  -4 -10  270.14   14.12
  -4  -4 -11   92.00   10.97
  -4  -4 -11  115.60   11.52
  -4  -4 -12  202.58   12.17
  -4  -4 -12  211.60   13.20
  -4  -4 -13  155.28   12.17
  -4  -4 -13  149.52   11.62
  -4  -4 -14  101.76   11.43
  -4  -4 -14   95.06   10.59
  -4  -4 -15   33.73   10.04
  -4  -4 -15   36.89    9.76
  -4  -5  22  102.41   10.04
   4   5 -22  119.69   11.43
  -4  -5  21  118.20   11.52
   4   5 -21   79.82   11.62
  -4  -5  20  356.01   14.96
   4   5 -20  296.62   14.96
  -4  -5  19  138.28   11.80
   4   5 -19  128.98   12.64
  -4  -5  18  559.80   19.79
   4   5 -18  523.46   19.05
  -4  -5  17  151.19   13.47
   4   5 -17  144.69   12.82
  -4  -5  16   87.17   11.52
   4   5 -16   72.39   11.62
  -4  -5  15   28.71   10.69
   4   5 -15   44.61   11.06
  -4  -5  14   38.94   11.62
   4   5 -14   16.82   10.41
  -4  -5  13   21.09   10.41
   4   5 -13   31.41   10.69
  -4  -5  12  869.15   26.02
   4   5 -12  847.13   25.00
  -4  -5  11  589.81   19.61
   4   5 -11  569.83   19.24
  -4  -5  10  428.86   16.45
   4   5 -10  482.48   17.28
  -4  -5   9 1224.78   32.80
   4   5  -9 1230.36   32.34
  -4  -5   8 2711.62   65.33
   4   5  -8 2787.83   67.28
  -4  -5   7  758.66   22.30
   4   5  -7  751.32   21.47
  -4  -5   6  110.49    8.92
   4   5  -6  110.49    8.92
  -4  -5   5   15.52    7.99
   4   5  -5   58.45    8.08
  -4  -5   4    3.35    7.62
   4   5  -4   19.42    6.69
  -4  -5   3 1005.48   26.67
   4   5  -3 1025.92   27.23
  -4  -5   2  823.71   22.77
   4   5  -2  852.70   23.23
  -4  -5   1 3060.10   72.86
   4   5  -1 2899.34   69.14
  -4  -5   0 2490.46   60.03
   4   5   0 2494.17   59.94
  -4  -5  -1  858.00   23.32
   4   5   1  850.01   23.60
  -4  -5  -2  246.63   10.59
   4   5   2  257.78   11.71
  -4  -5  -3  200.26   10.59
   4   5   3  184.09   10.59
  -4  -5  -4  346.34   14.22
  -4  -5  -4  352.94   13.66
  -4  -5  -5   31.22    9.11
  -4  -5  -5    2.97    8.92
  -4  -5  -6  158.63   11.89
  -4  -5  -6  161.69   11.71
  -4  -5  -7  495.21   17.94
  -4  -5  -7  525.88   18.68
  -4  -5  -8  858.00   24.53
  -4  -5  -8  886.53   26.02
  -4  -5  -9 1485.91   38.29
  -4  -5  -9 1407.85   37.26
  -4  -5 -10 1079.82   30.39
  -4  -5 -10 1054.73   29.83
  -4  -5 -11   31.69    9.94
  -4  -5 -11   43.21    9.57
  -4  -5 -12   80.94   11.06
  -4  -5 -12   75.64   10.04
  -4  -5 -13   74.06   10.97
  -4  -5 -13   71.83   10.04
  -4  -6  22  178.70   11.71
   4   6 -22  191.52   12.36
  -4  -6  21  347.64   14.68
   4   6 -21  325.90   15.33
  -4  -6  20  -16.54   10.04
   4   6 -20    1.95   10.97
  -4  -6  19  124.06   11.62
   4   6 -19  121.74   12.08
  -4  -6  18   38.29   10.78
   4   6 -18   30.11   11.15
  -4  -6  17   29.18   11.34
   4   6 -17   34.94   10.59
  -4  -6  16   15.80    9.85
   4   6 -16    9.85   10.69
  -4  -6  15  368.36   15.05
   4   6 -15  351.64   15.61
  -4  -6  14  719.07   22.21
   4   6 -14  695.93   22.21
  -4  -6  13 1094.69   29.74
   4   6 -13 1129.07   31.50
  -4  -6  12   58.17    9.94
   4   6 -12   25.09    9.85
  -4  -6  11 1011.05   27.79
   4   6 -11 1005.48   28.16
  -4  -6  10  707.27   20.72
   4   6 -10  754.39   22.77
  -4  -6   9  710.71   20.91
   4   6  -9  659.13   19.98
  -4  -6   8   66.07    7.99
   4   6  -8   73.88    8.55
  -4  -6   7   20.54    7.34
   4   6  -7    4.37    6.69
  -4  -6   6  255.46   11.06
   4   6  -6  246.07   10.59
  -4  -6   5   27.23    6.97
   4   6  -5   32.62    6.88
  -4  -6   4 1825.10   44.51
   4   6  -4 1868.77   45.81
  -4  -6   3  219.03    9.85
   4   6  -3  234.83   10.41
  -4  -6   2  463.06   14.87
   4   6  -2  492.79   15.33
  -4  -6   1  774.92   21.65
   4   6  -1  796.11   22.02
  -4  -6   0  957.15   26.11
   4   6   0  959.01   25.65
  -4  -6  -1 1199.69   31.41
   4   6   1 1152.30   30.11
  -4  -6  -2   66.26    9.01
   4   6   2   53.81    8.46
  -4  -6  -3   73.41   10.04
  -4  -6  -3   91.81    9.76
  -4  -6  -4  587.39   19.05
  -4  -6  -4  560.35   17.66
  -4  -6  -5   23.98    9.48
  -4  -6  -5   -2.14    8.18
  -4  -6  -6 1052.87   28.62
  -4  -6  -6 1018.49   28.62
  -4  -6  -7 1350.24   35.41
  -4  -6  -7 1377.19   36.06
  -4  -6  -8  530.89   18.12
  -4  -6  -8  550.41   19.14
  -4  -6  -9  550.22   18.86
  -4  -6  -9  561.65   18.86
  -4  -6 -10   17.75   10.22
  -4  -6 -10   28.90    9.76
  -4  -6 -11  109.75   11.71
  -4  -6 -11   80.29   10.13
  -4  -6 -12   56.41   10.50
  -4  -6 -12   71.74   11.06
  -4  -6 -13   -6.41    9.94
  -4  -6 -13   -3.25    9.76
  -4  -7  22  251.55   12.08
   4   7 -22  257.41   13.66
  -4  -7  21   43.77   10.04
   4   7 -21    9.57   11.89
  -4  -7  20   98.04   11.43
   4   7 -20  125.64   13.01
  -4  -7  19   13.66   10.31
   4   7 -19   31.32   10.41
  -4  -7  18  126.66   11.52
   4   7 -18  109.84   11.99
  -4  -7  17   48.42   10.04
   4   7 -17   53.53   10.31
  -4  -7  16  202.40   12.45
   4   7 -16  179.91   12.36
  -4  -7  15  365.86   15.43
   4   7 -15  390.39   16.26
  -4  -7  14 1068.67   30.11
   4   7 -14 1050.08   29.64
  -4  -7  13  451.16   16.91
   4   7 -13  404.98   16.08
  -4  -7  12  532.47   18.86
   4   7 -12  494.75   17.28
  -4  -7  11    1.12    9.01
   4   7 -11    5.30    8.46
  -4  -7  10  -13.29    9.85
   4   7 -10   -1.49    7.90
  -4  -7   9   78.24    9.11
   4   7  -9   61.24    8.74
  -4  -7   8   38.66    8.18
   4   7  -8   56.50    7.90
  -4  -7   7  475.51   15.89
   4   7  -7  422.54   13.85
  -4  -7   6  261.41   11.71
   4   7  -6  288.54   11.06
  -4  -7   5  756.06   21.56
   4   7  -5  780.13   21.09
  -4  -7   4   88.56    7.99
   4   7  -4   87.91    7.16
  -4  -7   3  382.95   13.85
   4   7  -3  368.83   12.17
  -4  -7   2 1870.63   46.18
   4   7  -2 1823.24   44.42
  -4  -7   1   90.70    7.62
   4   7  -1   88.37    7.43
  -4  -7   0   93.86    7.53
   4   7   0   90.23    8.08
  -4  -7  -1   54.18    7.43
   4   7   1   48.69    7.71
  -4  -7  -2  291.98   12.17
  -4  -7  -2  322.74   13.29
  -4  -7  -3  377.19   14.03
  -4  -7  -3  393.73   14.87
  -4  -7  -4  163.27   11.34
  -4  -7  -4  160.67   10.87
  -4  -7  -5 1380.90   36.24
  -4  -7  -5 1343.73   35.22
  -4  -7  -6  443.45   16.17
  -4  -7  -6  455.90   16.45
  -4  -7  -7   21.37   10.22
  -4  -7  -7    7.71   10.04
  -4  -7  -8  260.29   13.38
  -4  -7  -8  250.63   12.64
  -4  -7  -9  150.36   11.15
  -4  -7  -9  158.44   12.64
  -4  -7 -10    7.53    9.94
  -4  -7 -10   14.40   11.43
  -4  -7 -11  131.21   11.15
  -4  -7 -11  139.58   12.17
  -4  -7 -12   56.04   11.15
  -4  -7 -12   58.27    9.57
  -4  -8  22   21.47    9.39
   4   8 -22   15.05   10.87
  -4  -8  21    0.28    9.85
   4   8 -21    7.43   11.06
  -4  -8  20    4.37   10.04
   4   8 -20   10.69   11.06
  -4  -8  19   87.07   11.15
   4   8 -19   70.81   11.34
  -4  -8  18   26.21   10.41
   4   8 -18   15.24   10.69
  -4  -8  17  187.81   12.27
   4   8 -17  150.64   11.62
  -4  -8  16  698.81   22.49
   4   8 -16  731.25   22.86
  -4  -8  15  971.09   27.69
   4   8 -15 1049.15   29.64
  -4  -8  14  492.98   17.10
   4   8 -14  461.01   16.63
  -4  -8  13  264.75   12.82
   4   8 -13  260.85   13.01
  -4  -8  12   -1.58    9.29
   4   8 -12    8.74    8.55
  -4  -8  11   82.80    8.92
   4   8 -11   74.99    8.83
  -4  -8  10  455.44   15.24
   4   8 -10  437.69   15.33
  -4  -8   9 1031.50   27.41
   4   8  -9  974.81   26.30
  -4  -8   8  879.28   23.51
   4   8  -8  874.91   23.60
  -4  -8   7  174.42    8.55
   4   8  -7  181.77    8.83
  -4  -8   6   62.73    6.88
   4   8  -6   60.96    6.78
  -4  -8   5 1620.66   39.68
   4   8  -5 1583.48   39.12
  -4  -8   4 1387.41   34.38
   4   8  -4 1347.45   33.64
  -4  -8   3   13.01    5.67
   4   8  -3   29.83    6.23
  -4  -8   2   19.89    6.32
   4   8  -2   32.34    6.50
  -4  -8   1  208.53    9.39
   4   8  -1  215.41    9.66
  -4  -8   0   33.08    7.53
  -4  -8   0   28.81    7.25
  -4  -8  -1  130.47    9.39
  -4  -8  -1  149.52    9.94
  -4  -8  -2  877.33   24.72
  -4  -8  -2  819.43   22.58
  -4  -8  -3  698.35   20.07
  -4  -8  -3  685.81   20.63
  -4  -8  -4  814.23   23.79
  -4  -8  -4  808.19   23.32
  -4  -8  -5  350.06   14.31
  -4  -8  -5  402.10   15.05
  -4  -8  -6   41.72   10.41
  -4  -8  -6   32.15    9.39
  -4  -8  -7   41.17   10.69
  -4  -8  -7   62.54   10.13
  -4  -8  -8   23.98   10.04
  -4  -8  -8   21.84   10.04
  -4  -8  -9   17.75   11.06
  -4  -8  -9   53.34    9.57
  -4  -8 -10  201.65   11.80
  -4  -8 -10  166.99   13.57
  -4  -8 -11  139.11   10.04
  -4  -8 -11  173.22   14.03
  -4  -9  21   60.68   10.13
   4   9 -21   33.55   11.15
  -4  -9  20   42.19   10.13
   4   9 -20   46.65   11.15
  -4  -9  19  211.78   12.92
   4   9 -19  222.38   13.57
  -4  -9  18  568.72   19.14
   4   9 -18  595.67   20.17
  -4  -9  17  414.83   16.26
   4   9 -17  407.58   16.54
  -4  -9  16   75.18   10.97
   4   9 -16   77.69   10.78
  -4  -9  15  103.34   11.15
   4   9 -15  106.12   10.22
  -4  -9  14    2.32    8.74
   4   9 -14   14.59    8.92
  -4  -9  13    0.84    8.92
   4   9 -13   10.87    8.46
  -4  -9  12  256.11   12.36
   4   9 -12  250.07   11.43
  -4  -9  11  272.74   12.92
   4   9 -11  263.17   11.62
  -4  -9  10  433.14   15.80
   4   9 -10  392.06   13.66
  -4  -9   9 1158.81   30.94
   4   9  -9 1241.51   31.97
  -4  -9   8 1401.35   35.87
   4   9  -8 1375.33   34.38
  -4  -9   7  470.77   14.78
   4   9  -7  473.74   14.50
  -4  -9   6  984.10   25.74
   4   9  -6  936.71   24.53
  -4  -9   5   29.83    6.97
   4   9  -5   38.47    6.32
  -4  -9   4   -0.37    6.41
   4   9  -4   -4.00    6.41
  -4  -9   3   41.26    6.78
   4   9  -3   29.55    6.50
  -4  -9   2  136.14    8.18
   4   9  -2  164.48    8.46
  -4  -9   1  750.76   20.26
  -4  -9   1  774.83   21.09
  -4  -9   0 1290.76   32.71
  -4  -9   0 1313.07   33.55
  -4  -9  -1   76.01    7.90
  -4  -9  -1   89.86    8.08
  -4  -9  -4  235.57   10.97
  -4  -9  -4  229.72   12.36
  -4  -9  -5   10.22    9.57
  -4  -9  -5  -11.34    8.46
  -4  -9  -7    6.60   11.89
  -4  -9  -7   -9.29    8.92
  -4  -9  -8  -12.82   11.34
  -4  -9  -8    9.39    8.92
  -4 -10  21  128.52   11.43
   4  10 -21  114.58   11.62
  -4 -10  20  174.24   12.08
   4  10 -20  159.46   12.64
  -4 -10  19  152.59   11.71
   4  10 -19  170.61   12.92
  -4 -10  18  132.70   11.15
   4  10 -18  160.30   12.64
  -4 -10  17   16.45   10.04
   4  10 -17    4.65    9.76
  -4 -10  16  192.73   12.36
   4  10 -16  180.47   11.71
  -4 -10  15   16.17    9.57
   4  10 -15   22.67    9.11
  -4 -10  14  138.46   10.87
   4  10 -14  107.98    9.76
  -4 -10  13  239.38   12.55
   4  10 -13  187.81   10.22
  -4 -10  12  163.55   10.50
   4  10 -12  158.63   10.22
  -4 -10  11  581.26   18.59
   4  10 -11  553.57   16.63
  -4 -10  10  872.78   23.98
   4  10 -10  831.89   22.40
  -4 -10   9  991.54   26.48
   4  10  -9  962.73   25.18
  -4 -10   8    6.32    6.97
   4  10  -8    1.39    6.13
  -4 -10   7   61.05    7.06
   4  10  -7   66.81    6.04
  -4 -10   6  200.72    8.64
   4  10  -6  232.50    9.11
  -4 -10   5    1.86    5.76
   4  10  -5    4.74    5.39
  -4 -10   4   86.79    6.78
   4  10  -4   86.05    6.13
  -4 -10   3  882.90   22.95
  -4 -10   3  899.63   22.86
  -4 -10   2 1238.72   30.94
  -4 -10   2 1173.67   29.18
  -4 -10   1  740.63   20.44
  -4 -10   1  764.70   20.26
  -4 -10   0  224.33    9.94
  -4 -10   0  241.70    9.66
  -4 -10  -1 1344.66   34.20
  -4 -10  -1 1269.39   32.06
  -4 -10  -2  117.46    9.29
  -4 -10  -2  119.60    8.55
  -4 -10  -3   56.04    9.11
  -4 -10  -3   73.23    9.01
  -4 -10  -4    0.56    9.94
  -4 -10  -4   16.82    8.36
  -4 -10  -5    3.62   10.87
  -4 -10  -5   29.74    8.27
  -4 -10  -6   12.73    8.55
  -4 -10  -6    0.65   12.36
  -4 -11  20   76.48   10.87
   4  11 -20   67.37   11.24
  -4 -11  19  105.75   11.89
   4  11 -19  118.67   11.15
  -4 -11  18   11.15   10.50
   4  11 -18   12.92   10.31
  -4 -11  17   -2.23   10.50
   4  11 -17   -0.74    9.85
  -4 -11  16  175.91   12.36
   4  11 -16  209.18   12.45
  -4 -11  15   67.56   10.59
   4  11 -15   57.80    8.64
  -4 -11  14   73.69   10.04
   4  11 -14   76.01    9.20
  -4 -11  13  214.01   11.99
   4  11 -13  225.72   10.59
  -4 -11  12  355.26   13.85
   4  11 -12  325.62   12.08
  -4 -11  11  108.45    9.29
   4  11 -11   96.27    7.99
  -4 -11  10  101.85    8.27
   4  11 -10  115.51    7.43
  -4 -11   9   59.85    7.71
   4  11  -9   61.80    6.23
  -4 -11   8   71.09    6.04
   4  11  -8   78.52    5.76
  -4 -11   7    3.07    4.37
   4  11  -7    3.81    4.83
  -4 -11   1  285.19    9.01
  -4 -11   0  341.60   11.43
  -4 -11  -1   30.67    8.83
  -4 -11  -1   13.29    7.62
  -4 -11  -2   37.08    8.83
  -4 -11  -2   39.59    8.92
  -4 -11  -3   17.01    7.53
  -4 -11  -3   15.89    9.20
  -4 -11  -4  235.66   10.13
  -4 -11  -4  239.38   13.94
  -4 -12  19   58.82   11.06
   4  12 -19   74.06   11.99
  -4 -12  18   42.84   11.71
   4  12 -18   47.76   10.97
  -4 -12  17    7.99   11.71
   4  12 -17    2.04    9.57
  -4 -12  16   41.72   11.43
   4  12 -16   40.70    9.85
  -4 -12  15  203.79   12.55
   4  12 -15  203.42   11.89
  -4 -12  14  165.69   11.06
   4  12 -14  151.66    9.66
  -4 -12  13   83.82    8.83
   4  12 -13   78.80    8.92
  -4 -12  12   53.25    9.01
   4  12 -12   54.18    6.97
  -4 -12  11   90.51    8.27
   4  12 -11   92.09    6.78
  -4 -12  10  154.91    6.78
   4  12 -10  197.66    7.53
   4  12  -9   55.76    4.18
  -4 -12  -3  250.44   11.89
  -4 -12  -3  243.19    9.66
  -4 -12  -4  152.96   12.27
  -4 -12  -4  179.54   10.22
   4  13 -18  274.51   14.50
   4  13 -17  372.83   15.15
   4  13 -16  225.54   12.82
   4  13 -15   78.15    9.85
   4  13 -14   76.57    8.55
   4  14 -16   89.58   10.13
   4  14 -16   74.90    8.55
   4  14 -15   11.71    5.58
   4  14 -15    1.67    7.53
  -5  18  -2  119.32    8.36
   5 -18   2   -2.14    9.48
  -5  18  -3   98.50    6.78
   5 -18   3   10.78    8.55
  -5  18  -4   87.72    6.60
  -5  18  -5   98.32    6.69
  -5  18  -5   89.21    7.81
  -5  18  -6    0.00    7.90
  -5  18  -6    2.42    6.50
  -5  18  -7    7.16    8.08
  -5  18  -7    0.84    6.04
  -5  18  -8   31.04    8.83
  -5  18  -8   36.15    6.97
  -5  18  -9   11.52    9.39
  -5  18  -9   22.30    7.71
  -5  18 -10  111.23    8.92
  -5  18 -10  101.11   10.50
  -5  18 -11  281.76   12.17
  -5  18 -11  292.26   13.85
  -5  18 -12  244.21   12.82
  -5  18 -12  239.75   14.96
  -5  17   1   73.88    9.66
   5 -17  -1   62.45   10.87
  -5  17   0   21.28    7.71
   5 -17   0   33.36    8.27
  -5  17  -1   94.32    8.18
   5 -17   1  104.45    9.20
  -5  17  -2  143.48    8.74
   5 -17   2   66.35    9.39
  -5  17  -3   77.78    7.99
   5 -17   3   -0.56    8.18
  -5  17  -4   59.10    7.90
   5 -17   4   -5.67    8.08
  -5  17  -5    6.32    6.69
   5 -17   5    9.57    8.27
  -5  17  -6   13.94    6.78
   5 -17   6    8.46    8.36
  -5  17  -7   43.12    7.16
  -5  17  -8  102.41    8.36
  -5  17  -8   79.45    9.20
  -5  17  -9  490.56   16.45
  -5  17  -9  482.57   15.05
  -5  17 -10  506.27   15.61
  -5  17 -10  539.63   17.47
  -5  17 -11  145.71    9.48
  -5  17 -11  157.23   11.99
  -5  17 -12   19.89    7.53
  -5  17 -12   23.23   10.50
  -5  17 -13   89.12   10.31
  -5  17 -13   78.62   10.97
  -5  17 -14   48.42   11.62
  -5  17 -14   23.70   12.08
  -5  17 -15    6.88   11.71
  -5  17 -15   13.94   12.08
  -5  16   4  149.89   11.15
   5 -16  -4  154.72   12.64
  -5  16   3  106.68    9.66
   5 -16  -3  109.00    9.66
  -5  16   2  140.04    9.29
   5 -16  -2  104.26    9.39
  -5  16   1   22.40    6.97
   5 -16  -1   36.24    8.46
  -5  16   0   26.30    7.06
   5 -16   0   38.94    8.18
  -5  16  -1   13.38    7.25
   5 -16   1   11.71    7.99
  -5  16  -2   17.10    7.25
   5 -16   2   24.53    7.43
  -5  16  -3   38.94    6.97
   5 -16   3   37.91    8.36
  -5  16  -4   -9.01    6.41
   5 -16   4    8.46    8.92
  -5  16  -5   22.58    6.13
   5 -16   5    3.16    8.74
  -5  16  -6  132.89    8.27
   5 -16   6   91.35    9.94
  -5  16  -7   87.35    7.43
   5 -16   7   40.98    9.20
  -5  16  -8  209.74    9.76
   5 -16   8   21.75    9.39
  -5  16  -9  138.09    8.64
  -5  16  -9  130.38    9.76
  -5  16 -10   60.59    7.71
  -5  16 -10   70.53    9.94
  -5  16 -11   82.89    8.36
  -5  16 -11   83.91   10.22
  -5  16 -12   50.37    7.81
  -5  16 -12   42.19   10.69
  -5  16 -13    8.08    8.18
  -5  16 -13   15.61   10.31
  -5  16 -14   34.20    8.83
  -5  16 -14   66.54   11.71
  -5  16 -15    6.78    9.48
  -5  16 -15   15.15   10.50
  -5  16 -16  -14.12   10.97
  -5  16 -16   16.63   10.31
  -5  15   6  -12.17   10.97
   5 -15  -6   67.84    8.55
  -5  15   5   63.10   10.31
   5 -15  -5   53.06    9.20
  -5  15   4  143.57    9.29
   5 -15  -4  134.28   10.78
  -5  15   3  215.13   10.31
   5 -15  -3  230.46   11.80
  -5  15   2  286.31   11.43
   5 -15  -2  294.02   12.55
  -5  15   1  154.72    9.20
   5 -15  -1  121.74    9.57
  -5  15   0    4.18    6.97
   5 -15   0   10.04    7.90
  -5  15  -1   10.22    6.97
   5 -15   1   -1.49    7.53
  -5  15  -2  119.97    8.74
   5 -15   2  105.84    8.18
  -5  15  -3  122.11    8.55
   5 -15   3  132.24    8.74
  -5  15  -4  367.06   13.01
   5 -15   4  343.65   13.01
  -5  15  -5  592.78   17.66
   5 -15   5  650.21   19.33
  -5  15  -6  536.94   16.26
   5 -15   6  598.08   18.40
  -5  15  -7  395.50   13.47
   5 -15   7  378.03   14.22
  -5  15  -8  144.04    9.39
   5 -15   8  134.56   11.24
  -5  15  -9    9.39    7.16
   5 -15   9    9.39    9.39
  -5  15 -10   18.21    7.25
  -5  15 -10   13.94    8.36
  -5  15 -11   -3.25    7.06
  -5  15 -11   -9.57    8.83
  -5  15 -12   19.51    8.55
  -5  15 -12    8.83    9.48
  -5  15 -13   83.08    9.48
  -5  15 -13   86.79   10.69
  -5  15 -14  228.23   11.43
  -5  15 -14  213.08   13.20
  -5  15 -15  316.33   13.94
  -5  15 -15  331.10   14.78
  -5  15 -16   42.75   10.59
  -5  15 -16   47.39   10.87
  -5  15 -17    2.23    9.94
  -5  15 -17    8.55   10.50
  -5  15 -18   26.58   11.15
  -5  15 -18   42.93   11.99
  -5  14   8    7.16   19.05
   5 -14  -8   79.55    8.08
  -5  14   7  435.09   15.61
   5 -14  -7  461.94   16.73
  -5  14   6  133.44    9.85
   5 -14  -6  124.99   10.50
  -5  14   5  290.31   12.27
   5 -14  -5  312.52   13.10
  -5  14   4  141.71    9.48
   5 -14  -4  139.39   10.59
  -5  14   3   71.09    8.27
   5 -14  -3   61.52    9.20
  -5  14   2   56.87    8.55
   5 -14  -2   54.36    8.83
  -5  14   1   11.15    8.08
   5 -14  -1   22.58    8.36
  -5  14   0   -5.67    7.34
   5 -14   0    0.37    7.90
  -5  14  -1  171.92    9.76
   5 -14   1  191.80   10.78
  -5  14  -2    3.62    6.97
   5 -14   2    3.44    7.43
  -5  14  -3  115.69    8.08
   5 -14   3  100.64    9.01
  -5  14  -4  154.07    9.11
   5 -14   4  172.19   10.13
  -5  14  -5 1167.17   30.39
   5 -14   5 1160.66   30.76
  -5  14  -6  686.92   20.17
   5 -14   6  738.49   21.84
  -5  14  -7   17.47    7.25
   5 -14   7   21.75    8.74
  -5  14  -8   86.79    8.46
   5 -14   8   86.79    9.76
  -5  14  -9    7.99    7.16
   5 -14   9   24.07    9.01
  -5  14 -10  146.92   10.22
   5 -14  10  131.68   10.50
  -5  14 -11  345.32   13.47
  -5  14 -11  366.23   14.59
  -5  14 -12  497.72   17.19
  -5  14 -12  510.64   17.66
  -5  14 -13  519.46   17.94
  -5  14 -13  542.51   18.40
  -5  14 -14  537.77   18.59
  -5  14 -14  536.84   18.21
  -5  14 -15   19.42    8.74
  -5  14 -15   24.16   10.22
  -5  14 -16  253.97   12.82
  -5  14 -16  246.63   13.57
  -5  14 -17   53.06    9.48
  -5  14 -17   76.48   11.06
  -5  14 -18   -7.90    9.01
  -5  14 -18    4.46   10.78
  -5  13   9  -16.45    8.74
   5 -13  -9   97.39   10.13
  -5  13   8  628.10   19.79
   5 -13  -8  620.20   19.89
  -5  13   7  174.80   10.41
   5 -13  -7  166.43   11.52
  -5  13   6  274.88   11.80
   5 -13  -6  267.35   13.10
  -5  13   5   74.99    8.92
   5 -13  -5   95.53   10.04
  -5  13   4    8.64    7.71
   5 -13  -4    4.37    8.55
  -5  13   3    7.71    7.81
   5 -13  -3    2.04    8.83
  -5  13   2   47.39    8.55
   5 -13  -2   45.81    9.48
  -5  13   1  443.26   15.33
   5 -13  -1  462.50   16.17
  -5  13   0 1211.77   31.69
   5 -13   0 1188.54   31.32
  -5  13  -1  284.27   11.99
   5 -13   1  299.97   12.73
  -5  13  -2  663.22   20.07
   5 -13   2  600.03   18.59
  -5  13  -3  482.02   15.80
   5 -13   3  521.60   17.10
  -5  13  -4 1169.03   30.67
   5 -13   4 1214.56   31.97
  -5  13  -5   20.26    7.53
   5 -13   5   32.90    8.18
  -5  13  -6   80.94    8.64
   5 -13   6   64.77    9.29
  -5  13  -7   40.80    7.71
   5 -13   7   47.76    9.48
  -5  13  -8   11.24    7.34
   5 -13   8   11.43    9.20
  -5  13  -9  182.04   10.69
   5 -13   9  165.97   10.97
  -5  13 -10  699.28   21.09
   5 -13  10  720.28   21.65
  -5  13 -11  260.20   11.99
   5 -13  11  296.35   14.40
  -5  13 -12   81.96    9.76
  -5  13 -12  101.20   10.78
  -5  13 -13  469.56   17.01
  -5  13 -13  466.96   16.91
  -5  13 -14   14.68    8.83
  -5  13 -14   28.25    9.29
  -5  13 -15  119.13   10.59
  -5  13 -15  109.38   11.24
  -5  13 -16   20.07    9.29
  -5  13 -16   11.06   10.59
  -5  13 -17   36.80    9.48
  -5  13 -17   40.05   10.87
  -5  13 -18  -10.69    9.76
  -5  13 -18  -17.75    9.85
  -5  13 -19   19.05    9.85
  -5  13 -19   31.69   11.06
  -5  12  11  -13.10    9.66
   5 -12 -11   38.19    9.66
  -5  12  10   51.30    9.76
   5 -12 -10   33.08    9.76
  -5  12   9  100.55    9.57
   5 -12  -9  128.70   11.24
  -5  12   8   41.72    8.27
   5 -12  -8   47.76   10.13
  -5  12   7   82.80    9.20
   5 -12  -7   77.69   10.50
  -5  12   6   22.30    8.36
   5 -12  -6   20.91   10.22
  -5  12   5    3.53    7.90
   5 -12  -5    6.23    9.20
  -5  12   4  190.22   10.78
   5 -12  -4  186.78   11.80
  -5  12   3   88.56    9.39
   5 -12  -3   77.13    8.83
  -5  12   2  285.38   12.64
   5 -12  -2  289.84   13.10
  -5  12   1  621.22   19.14
   5 -12  -1  649.19   19.89
  -5  12   0  385.93   14.50
   5 -12   0  403.31   15.15
  -5  12  -1  854.10   24.53
   5 -12   1  818.51   23.42
  -5  12  -2  534.98   17.01
   5 -12   2  536.75   17.66
  -5  12  -3  216.06   10.97
   5 -12   3  238.54   11.80
  -5  12  -4   20.54    7.71
   5 -12   4    9.85    8.08
  -5  12  -5   25.74    7.62
   5 -12   5    9.94    7.90
  -5  12  -6   67.56    8.74
   5 -12   6   56.87    9.76
  -5  12  -7   75.83    9.20
   5 -12   7   52.32    9.66
  -5  12  -8  584.51   18.77
   5 -12   8  587.95   19.14
  -5  12  -9  598.17   18.96
   5 -12   9  565.74   18.49
  -5  12 -10  344.48   13.85
   5 -12  10  315.30   14.03
  -5  12 -11  303.04   12.92
   5 -12  11  324.97   13.94
  -5  12 -12  206.86   12.45
  -5  12 -12  216.06   11.89
  -5  12 -13    9.57    8.74
  -5  12 -13   14.31   10.04
  -5  12 -14   22.67    9.29
  -5  12 -14   -8.55    9.76
  -5  12 -15   14.50   10.04
  -5  12 -15   14.59   10.31
  -5  12 -16   76.48   10.97
  -5  12 -16   87.91   11.43
  -5  12 -17  205.74   12.27
  -5  12 -17  213.36   13.38
  -5  12 -18  598.55   19.51
  -5  12 -18  605.61   20.17
  -5  12 -19  486.94   17.56
  -5  12 -19  502.92   18.03
  -5  11  12  231.39   12.27
   5 -11 -12  241.43   12.55
  -5  11  11  280.18   12.27
   5 -11 -11  269.58   13.01
  -5  11  10   12.27    8.64
   5 -11 -10   37.08    9.85
  -5  11   9  187.06   10.97
   5 -11  -9  158.26   11.62
  -5  11   8   -7.53    8.46
   5 -11  -8   -7.90    8.74
  -5  11   7    3.44    9.01
   5 -11  -7   -9.66    8.83
  -5  11   6    1.95    9.48
   5 -11  -6    3.25    8.83
  -5  11   5   89.21    9.66
   5 -11  -5   80.10   10.04
  -5  11   4  128.43   10.50
   5 -11  -4  158.72   10.87
  -5  11   3  633.86   20.07
   5 -11  -3  622.61   19.14
  -5  11   2   48.79    8.64
   5 -11  -2   45.63    9.11
  -5  11   1  377.38   13.85
   5 -11  -1  380.17   15.24
  -5  11   0  127.12   10.13
   5 -11   0  134.84   10.04
  -5  11  -1  141.90    9.76
   5 -11   1  140.04   10.04
  -5  11  -2  104.92    9.48
   5 -11   2  110.12    9.39
  -5  11  -3   88.19    8.64
   5 -11   3   86.14    9.20
  -5  11  -4  243.28   11.43
   5 -11   4  235.39   11.52
  -5  11  -5  420.87   15.24
   5 -11   5  413.90   15.43
  -5  11  -6  639.34   19.70
   5 -11   6  655.88   20.44
  -5  11  -7  106.49    9.39
   5 -11   7   67.28   10.13
  -5  11  -8  568.16   18.40
   5 -11   8  537.12   18.40
  -5  11  -9 1028.71   28.34
   5 -11   9 1058.44   29.27
  -5  11 -10  398.19   15.89
   5 -11  10  377.38   15.24
  -5  11 -11    3.35    9.39
   5 -11  11   14.59    9.01
  -5  11 -12    9.01    9.20
  -5  11 -12    9.66   10.41
  -5  11 -13    8.92   10.31
  -5  11 -13    0.93    9.39
  -5  11 -14    4.27    9.39
  -5  11 -14   -1.49    9.66
  -5  11 -15   76.85   10.31
  -5  11 -15   85.03   10.78
  -5  11 -16  150.64   12.27
  -5  11 -16  138.55   11.43
  -5  11 -17  135.21   12.36
  -5  11 -17  142.83   12.45
  -5  11 -18  205.00   12.55
  -5  11 -18  231.95   13.20
  -5  11 -19   51.95    9.48
  -5  11 -19   52.60   10.22
  -5  11 -20    8.36    9.85
  -5  11 -20   12.92   10.50
  -5  10  13   71.65    9.85
   5 -10 -13   58.45    8.92
  -5  10  12  307.13   12.92
   5 -10 -12  308.15   13.57
  -5  10  11   -1.58    7.99
   5 -10 -11   -0.28    8.46
  -5  10  10  137.35   10.69
   5 -10 -10  121.36   10.87
  -5  10   9   66.63   10.13
   5 -10  -9   53.53    9.57
  -5  10   8  473.93   16.73
   5 -10  -8  481.46   17.38
  -5  10   7  291.98   14.03
   5 -10  -7  290.12   14.03
  -5  10   6  793.69   23.88
   5 -10  -6  815.53   24.07
  -5  10   5 1676.41   42.93
   5 -10  -5 1733.10   44.42
  -5  10   4  881.32   25.00
   5 -10  -4  847.22   25.00
  -5  10   3   -6.88    8.46
   5 -10  -3    0.09    8.55
  -5  10   2  480.06   16.36
   5 -10  -2  521.32   17.66
  -5  10   1  146.92   10.31
   5 -10  -1  135.86   10.69
  -5  10   0   98.50    9.20
   5 -10   0  110.86   10.78
  -5  10  -1  703.65   20.82
   5 -10   1  726.97   22.02
  -5  10  -2  793.51   22.77
   5 -10   2  814.14   23.88
  -5  10  -3  837.74   23.60
   5 -10   3  870.36   25.18
  -5  10  -4  166.62   10.22
   5 -10   4  162.16   10.78
  -5  10  -5 1066.81   28.81
   5 -10   5 1039.86   28.16
  -5  10  -6 1329.79   34.85
   5 -10   6 1367.89   35.59
  -5  10  -7  624.66   19.61
   5 -10   7  591.76   19.24
  -5  10  -8  533.13   17.75
   5 -10   8  554.22   19.05
  -5  10  -9  132.33   11.52
   5 -10   9  150.73   11.71
  -5  10 -10   68.02   10.31
   5 -10  10   53.34   10.31
  -5  10 -11  169.41   11.99
   5 -10  11  191.90   12.17
  -5  10 -12  276.27   14.03
  -5  10 -13  710.71   22.49
  -5  10 -13  662.76   21.93
  -5  10 -14  420.31   16.82
  -5  10 -14  406.56   16.91
  -5  10 -15  101.48   11.24
  -5  10 -15   97.67   11.89
  -5  10 -16  134.28   12.08
  -5  10 -16  147.29   12.64
  -5  10 -17  416.41   16.82
  -5  10 -17  407.30   16.08
  -5  10 -18   -1.39    9.85
  -5  10 -18   20.72   10.41
  -5  10 -19   -5.30    9.29
  -5  10 -19   -0.28   10.50
  -5  10 -20  100.83   10.31
  -5  10 -20   86.05   10.97
   5  -9 -15  541.95   18.77
  -5   9  14  141.25   10.97
   5  -9 -14  154.35   10.50
  -5   9  13  185.95   11.15
   5  -9 -13  184.74   10.87
  -5   9  12    1.95    8.36
   5  -9 -12   16.82    9.01
  -5   9  11  -20.54    8.64
   5  -9 -11   12.73    8.64
  -5   9  10  149.52   11.15
   5  -9 -10  129.36   11.24
  -5   9   9  231.20   12.64
   5  -9  -9  223.68   12.36
  -5   9   8  593.71   19.70
   5  -9  -8  574.48   19.05
  -5   9   7  762.47   23.32
   5  -9  -7  782.82   23.42
  -5   9   6 1578.84   40.80
   5  -9  -6 1658.76   42.75
  -5   9   5  914.41   26.02
   5  -9  -5  921.00   26.48
  -5   9   4   10.04    8.46
   5  -9  -4   15.98    9.66
  -5   9   3  503.67   17.28
   5  -9  -3  506.27   17.75
  -5   9   2   -1.49    7.90
   5  -9  -2  -10.41    9.01
  -5   9   1  291.61   12.82
   5  -9  -1  320.51   13.66
  -5   9   0 1435.73   37.17
   5  -9   0 1538.88   39.59
  -5   9  -1  412.13   15.05
   5  -9   1  386.11   14.78
  -5   9  -2  272.65   12.17
   5  -9   2  264.56   11.89
  -5   9  -3   60.50    9.11
   5  -9   3   51.39    8.83
  -5   9  -4  798.62   23.14
   5  -9   4  781.06   22.67
  -5   9  -5  433.32   15.61
   5  -9   5  437.97   16.17
  -5   9  -6   45.91    8.83
   5  -9   6   30.02    8.64
  -5   9  -7   89.77   10.31
   5  -9   7   96.46   10.50
  -5   9  -8  139.11   11.80
   5  -9   8  110.40   10.59
  -5   9  -9  659.23   20.91
   5  -9   9  701.97   21.84
  -5   9 -10  653.93   21.00
   5  -9  10  677.07   22.02
  -5   9 -11 1791.64   45.91
   5  -9  11 1839.04   46.93
  -5   9 -12 1169.96   32.25
   5  -9  12 1160.66   32.15
  -5   9 -13  289.38   14.22
  -5   9 -13  280.08   14.22
  -5   9 -14  765.63   23.70
  -5   9 -14  804.38   24.53
  -5   9 -15  764.42   23.60
  -5   9 -15  822.04   24.72
  -5   9 -16  187.90   12.82
  -5   9 -16  162.25   12.36
  -5   9 -17   98.41   11.43
  -5   9 -17  100.36   11.89
  -5   9 -18    4.55    9.85
  -5   9 -18   16.17   10.22
  -5   9 -19   44.23   10.41
  -5   9 -19   36.61   11.15
  -5   9 -20    5.95   10.69
  -5   9 -20    2.32   10.13
   5  -8 -16  181.86   12.17
  -5   8  15   57.15    9.85
   5  -8 -15   61.24   10.13
  -5   8  14  -14.22    8.64
   5  -8 -14    0.46    9.11
  -5   8  13   18.40    9.20
   5  -8 -13   34.20   10.13
  -5   8  12  118.95   10.41
   5  -8 -12  132.33   11.06
  -5   8  11  353.96   14.68
   5  -8 -11  333.33   14.12
  -5   8  10  256.29   13.01
   5  -8 -10  250.81   12.64
  -5   8   9  763.86   23.60
   5  -8  -9  733.76   22.95
  -5   8   8  913.38   26.67
   5  -8  -8  849.54   25.37
  -5   8   7 1215.49   33.18
   5  -8  -7 1198.76   32.52
  -5   8   6  293.93   13.94
   5  -8  -6  274.14   13.10
  -5   8   5   80.94   10.13
   5  -8  -5   73.88   10.31
  -5   8   4    5.95    8.92
   5  -8  -4   12.64   10.04
  -5   8   3  168.29   10.97
   5  -8  -3  184.83   12.08
  -5   8   2  527.74   17.66
   5  -8  -2  492.79   16.82
  -5   8   1 1516.58   39.03
   5  -8  -1 1389.27   36.15
  -5   8   0  958.08   26.76
   5  -8   0 1000.83   28.16
  -5   8  -1 1667.12   42.47
   5  -8   1 1579.77   40.80
  -5   8  -2  477.93   16.63
   5  -8   2  497.26   17.01
  -5   8  -3  182.70   10.97
   5  -8   3  160.58   11.06
  -5   8  -4  312.89   13.29
   5  -8   4  316.14   13.10
  -5   8  -5  251.18   12.17
   5  -8   5  236.87   11.71
  -5   8  -6    7.62    8.08
   5  -8   6  -13.20    8.55
  -5   8  -7   80.20   10.31
   5  -8   7   75.09   10.59
  -5   8  -8  177.12   12.08
   5  -8   8  195.05   12.36
  -5   8  -9   37.45    9.39
   5  -8   9   57.52   10.31
  -5   8 -10   48.88    9.94
   5  -8  10   62.26   10.22
  -5   8 -11  460.64   17.10
   5  -8  11  446.05   17.28
  -5   8 -12  838.21   25.28
   5  -8  12  815.62   25.00
  -5   8 -13  647.80   20.82
  -5   8 -13  635.25   21.75
  -5   8 -14   31.78   10.78
  -5   8 -14   48.42   11.62
  -5   8 -15   48.79   11.71
  -5   8 -15   41.07   10.04
  -5   8 -16  213.18   12.82
  -5   8 -16  206.95   13.47
  -5   8 -17   -0.28   10.59
  -5   8 -17    5.20   10.69
  -5   8 -18  128.43   12.08
  -5   8 -18  103.80   11.06
  -5   8 -19  498.83   17.84
  -5   8 -19  471.61   17.38
  -5   8 -20  141.71   11.62
  -5   8 -20  131.86   11.43
  -5   7  16   42.56    9.29
   5  -7 -16   33.83   10.13
  -5   7  15   57.06    9.39
   5  -7 -15   38.66    9.66
  -5   7  14    8.18    9.39
   5  -7 -14   -0.28    9.01
  -5   7  13  366.60   14.87
   5  -7 -13  382.40   15.33
  -5   7  12  582.84   19.33
   5  -7 -12  553.66   18.77
  -5   7  11  365.48   15.15
   5  -7 -11  367.90   15.70
  -5   7  10  998.04   28.44
   5  -7 -10  932.06   26.86
  -5   7   9  906.23   26.58
   5  -7  -9  865.34   25.28
  -5   7   8  423.84   16.82
   5  -7  -8  400.70   15.70
  -5   7   7   56.96   10.22
   5  -7  -7   68.95   10.97
  -5   7   6  236.69   12.92
   5  -7  -6  250.90   13.10
  -5   7   5  377.75   15.43
   5  -7  -5  383.70   15.70
  -5   7   4  459.25   16.54
   5  -7  -4  410.37   15.52
  -5   7   3  754.39   22.40
   5  -7  -3  707.18   21.47
  -5   7   2 1933.82   48.32
   5  -7  -2 1952.41   48.79
  -5   7   1  720.10   21.47
   5  -7  -1  675.95   20.35
  -5   7   0   29.18    8.55
   5  -7   0   22.40    8.08
  -5   7  -1   45.35    8.18
   5  -7   1   42.37    8.46
  -5   7  -2   -9.94    7.99
   5  -7   2    6.78    7.99
  -5   7  -3  277.67   12.27
   5  -7   3  252.58   11.89
  -5   7  -4   84.01    8.92
   5  -7   4   71.46    9.29
  -5   7  -5  402.00   15.52
   5  -7   5  401.82   15.61
  -5   7  -6  772.41   23.23
   5  -7   6  782.64   23.70
  -5   7  -7   43.68    8.64
   5  -7   7   12.17    9.66
  -5   7  -8 1265.67   33.92
   5  -7   8 1258.24   34.01
  -5   7  -9 1699.64   43.95
   5  -7   9 1663.40   43.21
  -5   7 -10 1128.14   31.13
   5  -7  10 1057.52   29.83
  -5   7 -11  474.77   18.12
   5  -7  11  476.72   17.94
  -5   7 -12   77.78   11.80
  -5   7 -13    6.88   10.04
  -5   7 -13  -13.10   11.06
  -5   7 -14  109.75   11.43
  -5   7 -14  125.92   12.55
  -5   7 -15   28.25   11.06
  -5   7 -15   36.71   10.59
  -5   7 -16  206.86   13.85
  -5   7 -16  220.15   13.29
  -5   7 -17    9.66   10.13
  -5   7 -17   32.43   11.15
  -5   7 -18  130.01   12.17
  -5   7 -18  130.19   12.27
  -5   7 -19   23.51    9.94
  -5   7 -19   20.44   10.97
  -5   7 -20   87.35   10.50
  -5   7 -20   78.06   10.31
  -5   6  17   15.33    8.92
   5  -6 -17    8.27    9.48
  -5   6  16  206.95   12.17
   5  -6 -16  233.43   13.20
  -5   6  15   88.47   10.04
   5  -6 -15   77.78   11.06
  -5   6  14  419.29   16.73
   5  -6 -14  421.61   16.08
  -5   6  13  332.68   14.87
   5  -6 -13  347.64   15.24
  -5   6  12  266.52   13.57
   5  -6 -12  272.37   13.75
  -5   6  11  732.45   22.95
   5  -6 -11  777.80   23.88
  -5   6  10  747.69   22.95
   5  -6 -10  812.65   24.90
  -5   6   9   28.34    9.66
   5  -6  -9    1.67    9.85
  -5   6   8  354.52   14.87
   5  -6  -8  372.36   15.61
  -5   6   7  161.69   11.34
   5  -6  -7  159.46   11.62
  -5   6   6  578.01   19.33
   5  -6  -6  564.63   18.77
  -5   6   5  835.33   24.63
   5  -6  -5  879.74   25.65
  -5   6   4 2014.67   50.27
   5  -6  -4 2104.81   52.69
  -5   6   3 1969.13   49.25
   5  -6  -3 1961.70   49.34
  -5   6   2 2599.18   63.56
   5  -6  -2 2661.44   64.96
  -5   6   1    6.78    8.64
   5  -6  -1   12.45    8.27
  -5   6   0  295.97   12.55
   5  -6   0  291.05   13.10
  -5   6  -1   78.34    9.48
   5  -6   1  106.96    9.76
  -5   6  -2   48.42    8.92
   5  -6   2   52.88    8.55
  -5   6  -3   38.10    9.20
   5  -6   3   27.97    9.01
  -5   6  -4  101.29   10.13
   5  -6   4  104.45   10.22
  -5   6  -5  874.17   25.18
   5  -6   5  845.27   24.53
  -5   6  -6  583.49   19.33
   5  -6   6  621.78   20.17
  -5   6  -7 1871.56   47.49
   5  -6   7 1860.41   47.30
  -5   6  -8  134.74   10.78
   5  -6   8  142.92   11.15
  -5   6  -9    4.00   10.41
   5  -6   9  -19.51    9.76
  -5   6 -10  488.24   18.03
   5  -6  10  447.45   17.66
  -5   6 -11  612.95   20.63
   5  -6  11  562.21   19.33
  -5   6 -12   36.15   10.50
  -5   6 -12   39.96    9.85
  -5   6 -13 1668.05   43.49
  -5   6 -13 1703.36   44.33
  -5   6 -14  539.26   19.89
  -5   6 -14  525.69   19.42
  -5   6 -15  821.85   25.37
  -5   6 -15  818.60   25.18
  -5   6 -16   49.07   10.41
  -5   6 -16   56.87   11.62
  -5   6 -17  391.50   17.10
  -5   6 -17  403.12   16.08
  -5   6 -18  199.79   13.01
  -5   6 -18  180.00   12.45
  -5   6 -19   46.84    9.94
  -5   6 -19   14.31   10.04
  -5   6 -20   14.50   10.13
  -5   6 -20   11.24   10.31
  -5   5  18   58.45    9.85
   5  -5 -18   55.29    9.76
  -5   5  17  394.20   15.61
   5  -5 -17  406.65   15.61
  -5   5  16  390.30   15.33
   5  -5 -16  385.84   15.33
  -5   5  15  504.50   18.03
   5  -5 -15  505.34   17.84
  -5   5  14  163.74   11.80
   5  -5 -14  167.92   12.45
  -5   5  13  329.43   15.05
   5  -5 -13  331.38   14.78
  -5   5  12  110.12   11.34
   5  -5 -12  100.64   10.97
  -5   5  11   -0.37   10.31
   5  -5 -11    9.57   10.41
  -5   5  10   87.26   10.22
   5  -5 -10   93.39   11.52
  -5   5   9  382.68   15.43
   5  -5  -9  411.30   15.61
  -5   5   8  306.66   14.12
   5  -5  -8  299.04   13.94
  -5   5   7 2769.24   67.37
   5  -5  -7 2830.57   69.23
  -5   5   6 2333.41   57.62
   5  -5  -6 2271.15   56.41
  -5   5   5 1766.55   44.88
   5  -5  -5 1814.87   46.09
  -5   5   4  540.47   18.21
   5  -5  -4  519.93   17.94
  -5   5   3 1559.32   40.33
   5  -5  -3 1557.47   40.24
  -5   5   2   68.49    8.92
   5  -5  -2   67.65    8.55
  -5   5   1   63.10    9.94
   5  -5  -1   48.32    8.08
  -5   5   0   92.46    9.57
   5  -5   0  109.28    9.57
  -5   5  -1  915.99   26.21
   5  -5   1  903.63   25.65
  -5   5  -2  749.55   22.49
   5  -5   2  712.94   21.65
  -5   5  -3  135.86   11.15
   5  -5   3  126.66   10.87
  -5   5  -4 1808.37   45.81
   5  -5   4 1793.50   45.72
  -5   5  -5 1262.88   34.01
   5  -5   5 1255.45   33.83
  -5   5  -6 1242.44   33.27
   5  -5   6 1272.18   34.01
  -5   5  -7  208.53   11.89
   5  -5   7  244.31   13.47
  -5   5  -8  101.94   10.22
   5  -5   8  100.27   10.78
  -5   5  -9  781.89   23.79
   5  -5   9  811.72   24.81
  -5   5 -10   11.99   10.78
   5  -5  10    4.46    9.48
  -5   5 -11  631.16   21.09
   5  -5  11  683.02   22.30
  -5   5 -12 1664.33   43.12
  -5   5 -12 1602.07   41.91
  -5   5 -13  109.38   11.71
  -5   5 -13  115.97   12.55
  -5   5 -14  664.43   21.65
  -5   5 -14  622.52   21.47
  -5   5 -15  583.31   20.07
  -5   5 -15  543.81   19.61
  -5   5 -16  401.45   16.45
  -5   5 -16  385.09   16.45
  -5   5 -17    2.60   10.31
  -5   5 -17   15.33   10.31
  -5   5 -18   -7.34   10.97
  -5   5 -18   16.17   10.50
  -5   5 -19   -0.28   10.41
  -5   5 -19    4.37   10.04
  -5   4  19  167.55   10.31
   5  -4 -19  164.20   10.59
  -5   4  18  209.92   11.89
   5  -4 -18  230.27   12.64
  -5   4  17  597.25   19.14
   5  -4 -17  629.49   20.44
  -5   4  16  932.06   26.21
   5  -4 -16  905.76   25.93
  -5   4  15  459.34   17.38
   5  -4 -15  449.58   17.38
  -5   4  14  554.03   19.33
   5  -4 -14  587.02   19.89
  -5   4  13   67.00   10.41
   5  -4 -13   59.94   11.43
  -5   4  12   41.54   10.59
   5  -4 -12   62.26   10.87
  -5   4  11  661.74   21.84
   5  -4 -11  700.02   22.58
  -5   4  10   75.27   10.41
   5  -4 -10   75.36   11.06
  -5   4   9  710.99   22.67
   5  -4  -9  681.16   22.02
  -5   4   8  644.08   20.72
   5  -4  -8  618.90   20.07
  -5   4   7  134.09   10.97
   5  -4  -7  155.75   11.06
  -5   4   6  383.05   15.43
   5  -4  -6  354.24   14.96
  -5   4   5   25.00    9.29
   5  -4  -5   27.32    9.66
  -5   4   4  136.88   10.78
   5  -4  -4  151.94   11.43
  -5   4   3   35.96    8.55
   5  -4  -3   32.90    8.46
  -5   4   2   33.55    8.92
   5  -4  -2   42.93    9.66
  -5   4   1  350.24   14.22
   5  -4  -1  362.05   14.40
  -5   4   0 1072.38   29.37
   5  -4   0 1075.17   29.74
  -5   4  -1 3683.65   87.82
   5  -4   1 3687.36   88.10
  -5   4  -2 3000.63   72.48
   5  -4   2 3003.42   72.76
  -5   4  -3 1079.82   29.74
   5  -4   3 1145.80   31.13
  -5   4  -4 1179.25   31.87
   5  -4   4 1191.33   32.06
  -5   4  -5  453.39   16.63
   5  -4   5  419.57   15.80
  -5   4  -6  205.46   11.99
   5  -4   6  221.45   12.82
  -5   4  -7  129.73   10.97
   5  -4   7  120.90   10.78
  -5   4  -8   51.20   10.97
   5  -4   8   27.88   10.31
  -5   4  -9  876.40   26.48
   5  -4   9  871.75   25.83
  -5   4 -10  468.45   18.49
   5  -4  10  469.28   17.94
  -5   4 -11  658.11   22.40
   5  -4  11  618.90   20.35
  -5   4 -12  258.25   14.59
  -5   4 -12  254.06   14.31
  -5   4 -13  209.37   14.22
  -5   4 -13  173.31   13.94
  -5   4 -14  469.19   18.86
  -5   4 -14  457.76   18.31
  -5   4 -15   40.42   11.62
  -5   4 -15   65.70   11.99
  -5   4 -16    5.48   10.78
  -5   4 -16   -0.65    9.57
  -5   4 -17   22.30   10.87
  -5   4 -17   -2.79   10.78
  -5   4 -18   60.31   10.59
  -5   4 -18   48.51   10.50
  -5   4 -19  194.50   12.36
  -5   4 -19  200.35   12.17
  -5   3  19  109.84   10.22
   5  -3 -19   96.37   10.41
  -5   3  18  356.75   14.68
   5  -3 -18  336.58   14.40
  -5   3  17  201.47   12.17
   5  -3 -17  200.17   12.73
  -5   3  16  124.43   11.34
   5  -3 -16   85.12   11.80
  -5   3  15  206.58   12.73
   5  -3 -15  199.70   12.82
  -5   3  14   13.38   10.50
   5  -3 -14   13.47   10.31
  -5   3  13  374.59   16.17
   5  -3 -13  386.21   16.91
  -5   3  12 1790.71   46.00
   5  -3 -12 1777.70   45.81
  -5   3  11  125.73   10.78
   5  -3 -11  135.49   12.55
  -5   3  10 1738.67   44.51
   5  -3 -10 1807.44   46.46
  -5   3   9  570.39   19.33
   5  -3  -9  567.97   19.51
  -5   3   8 1245.23   33.73
   5  -3  -8 1210.85   32.99
  -5   3   7 1353.02   35.87
   5  -3  -7 1379.04   36.52
  -5   3   6   40.05    9.57
   5  -3  -6   34.29    9.39
  -5   3   5  981.31   27.69
   5  -3  -5  943.21   26.86
  -5   3   4  105.84   10.50
   5  -3  -4  134.65   10.87
  -5   3   3   10.22    9.20
   5  -3  -3    0.37    7.99
  -5   3   2   67.28    8.74
   5  -3  -2   77.13    9.76
  -5   3   1  143.57   10.41
   5  -3  -1  158.63   11.34
  -5   3   0  587.77   18.59
   5  -3   0  632.09   19.98
  -5   3  -1  673.63   20.82
   5  -3   1  684.32   21.37
  -5   3  -2  407.30   15.05
   5  -3   2  401.54   15.43
  -5   3  -3  995.25   27.69
   5  -3   3 1079.82   29.55
  -5   3  -4   92.93    8.92
   5  -3   4  100.92    9.48
  -5   3  -5   15.05    8.27
   5  -3   5   36.80    9.39
  -5   3  -6   -2.79    8.83
   5  -3   6    9.48    9.20
  -5   3  -7  163.09   11.24
   5  -3   7  187.81   12.27
  -5   3  -8  784.87   23.88
   5  -3   8  764.42   23.14
  -5   3  -9  878.54   26.67
   5  -3   9  875.38   25.93
  -5   3 -10  725.39   23.23
   5  -3  10  743.33   22.86
  -5   3 -11 1274.04   34.75
  -5   3 -11 1282.40   34.94
  -5   3 -12   19.98   11.34
  -5   3 -12   16.82   11.24
  -5   3 -13  184.46   13.29
  -5   3 -13  187.34   13.01
  -5   3 -14   80.20   11.52
  -5   3 -14   51.39   10.69
  -5   3 -15   96.37   11.24
  -5   3 -15  102.41   11.71
  -5   3 -16  145.43   12.55
  -5   3 -16  152.03   12.82
  -5   3 -17  300.62   14.22
  -5   3 -17  288.91   14.12
  -5   3 -18  124.62   11.62
  -5   3 -18  134.19   11.89
  -5   3 -19   18.86    8.55
  -5   3 -19   16.45    9.29
  -5   2  20   87.07   10.41
   5  -2 -20   81.68    9.39
  -5   2  19  251.65   13.29
   5  -2 -19  245.14   12.92
  -5   2  18   98.50   10.87
   5  -2 -18   61.33   10.41
  -5   2  17   41.35    9.20
   5  -2 -17   34.66   10.50
  -5   2  16   17.94   10.41
   5  -2 -16    7.71   10.31
  -5   2  15  109.75   10.87
   5  -2 -15  113.09   11.71
  -5   2  14  442.71   17.56
   5  -2 -14  461.57   18.21
  -5   2  13 1585.34   41.45
   5  -2 -13 1728.45   44.79
  -5   2  12  900.47   26.86
   5  -2 -12  893.96   26.48
  -5   2  11 1887.36   48.51
   5  -2 -11 1987.72   50.65
  -5   2  10  585.35   19.89
   5  -2 -10  637.11   21.19
  -5   2   9  320.04   14.59
   5  -2  -9  349.31   15.43
  -5   2   8    0.74    9.01
   5  -2  -8   -7.43    9.01
  -5   2   7   -0.37    9.29
   5  -2  -7   -1.58    8.64
  -5   2   6  858.93   24.63
   5  -2  -6  836.07   24.63
  -5   2   5    5.02    9.01
   5  -2  -5   -1.30    8.92
  -5   2   4  619.27   19.70
   5  -2  -4  619.27   19.51
  -5   2   3 2235.84   54.92
   5  -2  -3 2289.73   56.41
  -5   2   2  365.02   13.94
   5  -2  -2  367.62   14.12
  -5   2   1   56.59    9.11
   5  -2  -1   70.25    9.57
  -5   2   0 2182.87   53.81
   5  -2   0 2154.99   53.25
  -5   2  -1 1065.88   29.37
   5  -2   1 1087.25   29.55
  -5   2  -2    8.64    9.01
   5  -2   2    5.30    8.64
  -5   2  -3 1610.43   41.72
   5  -2   3 1623.44   41.63
  -5   2  -4  418.64   16.36
   5  -2   4  413.16   15.70
  -5   2  -5    6.97    8.64
   5  -2   5    4.37    9.85
  -5   2  -6  420.96   16.45
   5  -2   6  448.38   16.26
  -5   2  -7 1152.30   31.78
   5  -2   7 1203.41   32.80
  -5   2  -8 1562.11   41.07
   5  -2   8 1517.51   39.68
  -5   2  -9  141.62   12.64
   5  -2   9  145.71   11.62
  -5   2 -10  757.64   24.35
   5  -2  10  721.12   22.58
  -5   2 -11    0.37   11.43
  -5   2 -11   -7.34   10.41
  -5   2 -13    3.25   11.15
  -5   2 -13    5.95   11.34
  -5   2 -14   75.18   12.27
  -5   2 -14   78.24   12.08
  -5   2 -15  213.27   12.82
  -5   2 -15  192.45   13.20
  -5   2 -16   71.83   10.87
  -5   2 -16  106.68   11.99
  -5   2 -17  145.90   11.99
  -5   2 -17  134.84   11.99
  -5   2 -18  119.97   10.04
  -5   2 -18   84.94   10.04
  -5   1  20   65.98   10.13
   5  -1 -20   48.88   10.22
  -5   1  19   11.80    9.94
   5  -1 -19    0.19    9.76
  -5   1  18   -0.65    9.39
   5  -1 -18  -20.07    9.94
  -5   1  17  186.13   11.15
   5  -1 -17  148.22   11.99
  -5   1  16  325.34   14.96
   5  -1 -16  315.67   14.78
  -5   1  15  727.72   22.77
   5  -1 -15  773.16   23.88
  -5   1  14  842.57   25.65
   5  -1 -14  871.38   26.39
  -5   1  13 1468.25   38.47
   5  -1 -13 1491.49   39.77
  -5   1  12 1626.23   42.10
   5  -1 -12 1671.77   43.40
  -5   1  11   79.36   10.87
   5  -1 -11   98.41   11.52
  -5   1  10  141.90   11.80
   5  -1 -10  172.10   12.64
  -5   1   9    8.18    9.57
   5  -1  -9   26.48    8.64
  -5   1   8  163.83   11.80
   5  -1  -8  182.32   11.43
  -5   1   7 1582.56   40.98
   5  -1  -7 1619.73   41.91
  -5   1   6  975.74   27.88
   5  -1  -6  977.60   27.51
  -5   1   5 1887.36   47.95
   5  -1  -5 1930.10   48.60
  -5   1   4 1140.22   31.41
   5  -1  -4 1122.56   30.67
  -5   1   3 1071.45   29.55
   5  -1  -3 1030.57   28.44
  -5   1   2 1196.91   32.15
   5  -1  -2 1218.28   32.52
  -5   1   1 1293.55   33.92
   5  -1  -1 1255.45   33.27
  -5   1   0    1.02    8.46
   5  -1   0    6.04    8.64
  -5   1  -1  614.07   19.14
   5  -1   1  646.59   20.35
  -5   1  -2  764.14   22.49
   5  -1   2  799.83   23.70
  -5   1  -3   27.32    8.46
   5  -1   3   14.50    9.29
  -5   1  -4  567.79   18.68
   5  -1   4  555.06   18.40
  -5   1  -5 4498.62  105.94
   5  -1   5 4675.18  110.40
  -5   1  -6 1886.43   47.39
   5  -1   6 1849.26   46.74
  -5   1  -7  506.73   17.28
   5  -1   7  529.04   18.12
  -5   1  -8  186.41   12.82
   5  -1   8  189.76   12.64
  -5   1  -9  151.10   12.55
   5  -1   9  159.84   12.17
  -5   1 -10  176.10   13.10
  -5   1 -10  182.51   12.27
  -5   1 -11   35.03   10.69
  -5   1 -11   41.63   10.59
  -5   1 -12  280.27   14.22
  -5   1 -12  278.88   15.33
  -5   1 -13  156.03   13.38
  -5   1 -13  186.60   13.10
  -5   1 -14  147.57   11.62
  -5   1 -14  129.63   12.55
  -5   1 -15  354.33   15.98
  -5   1 -15  353.31   16.17
  -5   1 -16  319.76   14.96
  -5   1 -16  335.84   15.61
  -5   1 -17  293.19   13.75
  -5   1 -17  276.65   13.47
  -5   1 -18   77.97    9.66
  -5   1 -18   72.58   10.13
  -5   0  21   11.15    7.90
   5   0 -21   -5.20    9.66
  -5   0  20   21.65    9.48
   5   0 -20    1.77   10.50
  -5   0  19   12.73    9.76
   5   0 -19   -9.29   10.59
  -5   0  18   54.36   10.22
   5   0 -18   74.81   10.59
  -5   0  17  311.77   14.68
   5   0 -17  336.12   15.24
  -5   0  16  714.52   21.93
   5   0 -16  726.69   22.95
  -5   0  15  190.59   12.64
   5   0 -15  174.33   12.82
  -5   0  14 1632.74   42.84
   5   0 -14 1620.66   42.37
  -5   0  13  355.91   16.26
   5   0 -13  350.43   16.26
  -5   0  12   69.14   11.06
   5   0 -12   52.13   10.97
  -5   0  11    4.00   10.13
   5   0 -11    9.20   10.31
  -5   0  10  489.08   17.75
   5   0 -10  516.77   18.49
  -5   0   9  885.79   25.83
   5   0  -9  863.39   25.00
  -5   0   8 2370.58   58.27
   5   0  -8 2398.46   59.10
  -5   0   7 1577.91   40.42
   5   0  -7 1490.56   38.75
  -5   0   6 2365.93   58.08
   5   0  -6 2257.21   55.76
  -5   0   5 1151.37   30.94
   5   0  -5 1104.91   30.11
  -5   0   4 1340.94   34.94
   5   0  -4 1392.98   36.33
  -5   0   3  375.80   14.12
   5   0  -3  370.78   14.40
  -5   0   2   24.81    7.99
   5   0  -2   31.22    9.01
  -5   0   1   21.19    8.18
   5   0  -1   -3.72    8.55
  -5   0   0  273.95   12.08
   5   0   0  306.38   13.66
  -5   0  -1  823.71   23.79
   5   0   1  813.77   23.98
  -5   0  -2 1469.18   38.47
   5   0   2 1427.37   37.26
  -5   0  -3 1373.47   36.43
   5   0   3 1381.83   36.06
  -5   0  -4 1407.85   37.17
   5   0   4 1430.15   37.36
  -5   0  -5  367.16   15.43
   5   0   5  371.71   15.33
  -5   0  -6  576.71   19.79
   5   0   6  578.20   19.33
  -5   0  -7    7.06   10.22
   5   0   7   14.03    8.83
  -5   0  -8  119.23   12.45
   5   0   8  110.03   10.87
  -5   0  -9  113.09   12.17
  -5   0 -10  352.01   16.26
  -5   0 -10  343.27   15.61
  -5   0 -11  249.88   14.31
  -5   0 -11  239.75   14.40
  -5   0 -12  867.01   25.74
  -5   0 -12  884.11   26.58
  -5   0 -13  645.66   21.47
  -5   0 -13  607.93   21.00
  -5   0 -14  628.00   20.82
  -5   0 -14  663.32   21.65
  -5   0 -15  184.74   13.20
  -5   0 -15  181.77   12.82
  -5   0 -16   45.63   10.41
  -5   0 -16   38.84   10.69
  -5   0 -17   -3.72    9.48
  -5   0 -17   18.12    8.36
  -5  -1  21  118.67    9.48
   5   1 -21  114.49   10.69
  -5  -1  20   91.63   10.31
   5   1 -20   74.25   11.06
  -5  -1  19  191.80   12.36
   5   1 -19  174.05   12.27
  -5  -1  18  196.63   11.24
   5   1 -18  184.83   12.27
  -5  -1  17  265.22   14.03
   5   1 -17  273.58   14.03
  -5  -1  16   53.90   10.59
   5   1 -16   33.64   11.24
  -5  -1  15  364.83   15.33
   5   1 -15  378.96   16.91
  -5  -1  14   34.48    9.85
   5   1 -14   49.16   11.80
  -5  -1  13   91.91   10.78
   5   1 -13   67.56   11.24
  -5  -1  12   61.05   10.04
   5   1 -12   62.17   11.06
  -5  -1  11  471.14   17.47
   5   1 -11  455.25   17.66
  -5  -1  10  551.99   18.68
   5   1 -10  567.60   19.33
  -5  -1   9  418.17   16.36
   5   1  -9  382.86   15.15
  -5  -1   8 1306.56   34.75
   5   1  -8 1363.25   36.15
  -5  -1   7 1721.95   44.05
   5   1  -7 1746.11   44.33
  -5  -1   6  267.54   13.38
   5   1  -6  261.41   12.55
  -5  -1   5  277.57   13.10
   5   1  -5  289.00   13.29
  -5  -1   4  494.19   17.28
   5   1  -4  466.96   16.45
  -5  -1   3   56.96    9.11
   5   1  -3   77.04    9.29
  -5  -1   2  240.03   12.08
   5   1  -2  260.20   12.08
  -5  -1   1 1141.15   30.67
   5   1  -1 1167.17   31.13
  -5  -1   0  934.85   26.30
   5   1   0  944.14   26.30
  -5  -1  -1  858.09   24.63
   5   1   1  847.22   24.35
  -5  -1  -2  365.76   14.31
   5   1   2  373.38   14.40
  -5  -1  -3  556.91   18.03
   5   1   3  603.56   19.33
  -5  -1  -4  930.20   26.11
   5   1   4  992.47   27.69
  -5  -1  -5  172.38   10.97
   5   1   5  203.98   11.80
  -5  -1  -6   48.04   10.13
   5   1   6   49.16   10.04
  -5  -1  -7  946.93   26.58
   5   1   7  914.87   26.67
  -5  -1  -8   13.66    9.76
   5   1   8   13.10    8.74
  -5  -1  -9   50.74    9.29
  -5  -1  -9   46.56   10.78
  -5  -1 -10  324.41   15.05
  -5  -1 -10  319.76   15.43
  -5  -1 -11 1110.48   30.94
  -5  -1 -11 1143.01   31.69
  -5  -1 -12  348.01   15.89
  -5  -1 -12  360.84   15.43
  -5  -1 -13  145.71   13.01
  -5  -1 -13  130.84   11.89
  -5  -1 -14   29.09   10.50
  -5  -1 -14   29.27   10.97
  -5  -1 -15  159.65   12.36
  -5  -1 -15  127.22   11.52
  -5  -1 -16   13.85   10.04
  -5  -1 -16   13.10   10.22
  -5  -2  21  109.19    9.57
   5   2 -21  119.88   11.89
  -5  -2  20  302.01   14.22
   5   2 -20  291.42   15.05
  -5  -2  19  399.96   15.43
   5   2 -19  381.93   15.61
  -5  -2  18  198.68   12.82
   5   2 -18  210.57   13.10
  -5  -2  17   -5.02    9.39
   5   2 -17   11.80   10.69
  -5  -2  16  109.28   11.06
   5   2 -16  109.47   12.17
  -5  -2  15   33.45   10.41
   5   2 -15   13.85    9.85
  -5  -2  14    4.93   10.13
   5   2 -14    3.81   10.78
  -5  -2  13  513.24   19.14
   5   2 -13  507.20   18.77
  -5  -2  12  364.28   16.08
   5   2 -12  360.09   15.89
  -5  -2  11  481.18   18.03
   5   2 -11  454.97   17.01
  -5  -2  10  326.92   14.68
   5   2 -10  316.51   13.75
  -5  -2   9 1231.29   33.45
   5   2  -9 1297.27   34.48
  -5  -2   8  557.94   18.68
   5   2  -8  521.60   17.84
  -5  -2   7   -3.72    8.08
   5   2  -7    7.25    8.36
  -5  -2   6   65.05    9.01
   5   2  -6   65.89    8.27
  -5  -2   5    5.67    7.81
   5   2  -5   -3.90    8.08
  -5  -2   4 1779.56   44.33
   5   2  -4 1735.89   43.68
  -5  -2   3 2824.07   67.56
   5   2  -3 2839.86   68.77
  -5  -2   2 2644.72   63.47
   5   2  -2 2610.33   63.38
  -5  -2   1  319.95   12.27
   5   2  -1  336.40   13.75
  -5  -2   0  562.58   17.47
   5   2   0  561.93   18.21
  -5  -2  -1 1910.59   47.21
   5   2   1 1945.90   48.42
  -5  -2  -2  515.00   16.73
   5   2   2  521.88   17.38
  -5  -2  -3  211.13   10.97
   5   2   3  253.13   13.10
  -5  -2  -4   45.72    9.66
   5   2   4   53.53    9.20
  -5  -2  -5   28.44   10.22
   5   2   5   13.10    8.83
  -5  -2  -6   38.38    9.66
   5   2   6   36.99    9.11
  -5  -2  -7   80.01   11.71
   5   2   7   91.16   10.41
  -5  -2  -8  671.96   21.93
  -5  -2  -8  606.17   20.91
  -5  -2 -10   79.08   11.43
  -5  -2 -10   65.79   10.78
  -5  -2 -11  135.49   11.24
  -5  -2 -11  128.80   11.34
  -5  -2 -12  240.78   13.47
  -5  -2 -12  258.25   13.66
  -5  -2 -13  102.78   11.43
  -5  -2 -13   94.14   10.97
  -5  -2 -14   -8.27    9.66
  -5  -2 -14   -1.95    9.85
  -5  -2 -15  180.28   11.34
  -5  -2 -15  195.89   12.08
  -5  -2 -16   29.92    9.76
  -5  -2 -16   36.99    9.94
  -5  -3  21  128.70   10.59
   5   3 -21  131.68   11.43
  -5  -3  20  158.35   11.80
   5   3 -20  175.17   12.36
  -5  -3  19   36.43    9.94
   5   3 -19   27.69   11.06
  -5  -3  18   67.00   10.59
   5   3 -18   51.85   10.97
  -5  -3  17   62.45   10.87
   5   3 -17   56.13   11.06
  -5  -3  16  372.27   15.05
   5   3 -16  388.99   16.08
  -5  -3  15  123.97   10.87
   5   3 -15   97.39   12.08
  -5  -3  14  114.39   11.06
   5   3 -14  101.94   11.80
  -5  -3  13  381.28   14.87
   5   3 -13  377.94   16.45
  -5  -3  12 1247.09   33.55
   5   3 -12 1129.07   31.32
  -5  -3  11  512.40   17.19
   5   3 -11  525.69   18.40
  -5  -3  10  825.10   24.16
   5   3 -10  859.58   25.56
  -5  -3   9   -1.02    8.55
   5   3  -9   25.00    9.85
  -5  -3   8   48.60    7.99
   5   3  -8   46.65    9.39
  -5  -3   7   32.80    8.46
   5   3  -7   38.56    8.83
  -5  -3   6   82.33    9.39
   5   3  -6   93.95    9.20
  -5  -3   5  684.88   20.82
   5   3  -5  712.29   21.19
  -5  -3   4  782.08   22.77
   5   3  -4  779.01   22.49
  -5  -3   3  793.23   23.14
   5   3  -3  754.66   21.93
  -5  -3   2  893.13   25.28
   5   3  -2  944.14   26.48
  -5  -3   1 1547.24   39.77
   5   3  -1 1659.69   41.91
  -5  -3   0 1122.56   30.85
   5   3   0 1110.48   29.92
  -5  -3  -1   26.76    9.01
   5   3   1    3.53    8.27
  -5  -3  -2  122.11   10.41
   5   3   2  132.98    9.66
  -5  -3  -3 1031.50   28.71
   5   3   3  966.45   26.76
  -5  -3  -4  464.73   17.47
   5   3   4  469.84   16.54
  -5  -3  -5 1787.00   45.53
   5   3   5 1826.95   46.56
  -5  -3  -6 1373.47   36.43
   5   3   6 1331.65   35.41
  -5  -3  -7 1058.44   29.18
  -5  -3  -7 1056.59   29.74
  -5  -3  -8  283.24   13.94
  -5  -3  -8  303.69   14.40
  -5  -3  -9  168.01   12.27
  -5  -3  -9  192.27   12.92
  -5  -3 -10  632.37   21.65
  -5  -3 -10  599.10   20.17
  -5  -3 -11  140.60   12.45
  -5  -3 -11  130.84   11.52
  -5  -3 -12   23.60   10.31
  -5  -3 -12   25.74   10.69
  -5  -3 -14   35.03   10.41
  -5  -3 -14   44.51    9.85
  -5  -3 -15   21.19    9.85
  -5  -3 -15   11.62    9.85
  -5  -4  21   56.50    9.57
   5   4 -21   44.42   10.78
  -5  -4  20   26.86    9.39
   5   4 -20   17.28   10.31
  -5  -4  19   29.83   10.04
   5   4 -19   17.28   11.06
  -5  -4  18  354.61   14.31
   5   4 -18  371.80   15.70
  -5  -4  17  357.21   14.50
   5   4 -17  405.81   16.73
  -5  -4  16  586.19   20.17
   5   4 -16  562.86   19.70
  -5  -4  15  826.78   25.00
   5   4 -15  825.29   25.18
  -5  -4  14  886.90   26.58
   5   4 -14  998.97   28.71
  -5  -4  13  671.12   22.40
   5   4 -13  651.51   21.09
  -5  -4  12   98.97   11.71
   5   4 -12  102.03   10.78
  -5  -4  11  166.34   12.27
   5   4 -11  193.94   12.82
  -5  -4  10   -9.01    9.48
   5   4 -10    1.58    9.76
  -5  -4   9   63.28   10.22
   5   4  -9   53.06    9.39
  -5  -4   8 1261.96   33.73
   5   4  -8 1265.67   33.73
  -5  -4   7 1537.95   40.14
   5   4  -7 1488.70   38.38
  -5  -4   6 1958.91   49.34
   5   4  -6 1932.89   48.23
  -5  -4   5 1228.50   32.99
   5   4  -5 1268.46   33.36
  -5  -4   4  803.17   23.51
   5   4  -4  810.70   23.14
  -5  -4   3  422.45   15.05
   5   4  -3  445.40   15.24
  -5  -4   2   55.20    8.46
   5   4  -2   78.99    8.83
  -5  -4   1   17.01    8.18
   5   4  -1   22.58    7.62
  -5  -4   0   62.08    8.55
   5   4   0   65.98    8.18
  -5  -4  -1   -4.83    7.71
   5   4   1    4.93    7.81
  -5  -4  -2  106.40    8.92
   5   4   2  119.69    9.48
  -5  -4  -3   62.35    8.83
   5   4   3   67.74    9.29
  -5  -4  -4   67.47    9.57
   5   4   4   73.41    9.85
  -5  -4  -5  559.98   19.05
   5   4   5  547.81   18.40
  -5  -4  -6  648.17   20.82
  -5  -4  -6  642.59   20.54
  -5  -4  -7  993.40   27.88
  -5  -4  -7 1004.55   28.81
  -5  -4  -8  199.14   12.17
  -5  -4  -8  187.62   12.17
  -5  -4  -9    0.00    8.92
  -5  -4  -9   13.66    9.76
  -5  -4 -10  153.52   12.73
  -5  -4 -10  145.62   11.71
  -5  -4 -11   50.83   11.43
  -5  -4 -11   47.58   10.13
  -5  -4 -12  201.65   11.99
  -5  -4 -12  196.82   12.17
  -5  -4 -13  234.36   12.36
  -5  -4 -13  213.18   12.55
  -5  -4 -14  448.84   15.98
  -5  -4 -14  469.38   16.36
  -5  -5  21   30.85    9.66
   5   5 -21   10.04   10.22
  -5  -5  20   18.31    9.85
   5   5 -20   33.55   10.87
  -5  -5  19  197.84   11.99
   5   5 -19  175.26   12.82
  -5  -5  18  108.26   11.06
   5   5 -18  110.49   11.99
  -5  -5  17  471.89   17.38
   5   5 -17  496.14   18.21
  -5  -5  16  374.50   15.52
   5   5 -16  364.83   15.70
  -5  -5  15  370.41   15.05
   5   5 -15  367.16   16.08
  -5  -5  14  405.35   15.98
   5   5 -14  462.22   17.38
  -5  -5  13  274.79   13.57
   5   5 -13  256.39   13.47
  -5  -5  12   93.58   10.22
   5   5 -12  108.63   11.52
  -5  -5  11  152.31   10.69
   5   5 -11  190.59   12.27
  -5  -5  10  224.51   11.80
   5   5 -10  236.13   12.27
  -5  -5   9  521.42   17.19
   5   5  -9  531.36   18.12
  -5  -5   8 1260.10   32.71
   5   5  -8 1242.44   33.08
  -5  -5   7 2279.51   55.57
   5   5  -7 2161.49   53.15
  -5  -5   6 2403.11   58.36
   5   5  -6 2326.90   57.06
  -5  -5   5  126.75    9.11
   5   5  -5  126.85    9.39
  -5  -5   4   33.18    7.53
   5   5  -4   49.07    7.99
  -5  -5   3   -1.30    7.16
   5   5  -3    1.67    6.78
  -5  -5   2   10.22    7.99
   5   5  -2    8.64    7.53
  -5  -5   1   43.40    8.27
   5   5  -1   56.78    7.71
  -5  -5   0 1535.16   39.31
   5   5   0 1546.31   39.49
  -5  -5  -1 1918.02   47.95
   5   5   1 1779.56   44.79
  -5  -5  -2  741.75   22.12
   5   5   2  775.67   22.58
  -5  -5  -3   73.13    9.57
   5   5   3   87.44    9.85
  -5  -5  -4  774.27   22.40
   5   5   4  781.43   23.14
  -5  -5  -5  251.28   12.73
  -5  -5  -5  254.71   12.64
  -5  -5  -6  182.23   11.15
  -5  -5  -6  186.13   11.89
  -5  -5  -7   36.43   10.04
  -5  -5  -7   13.75    9.94
  -5  -5  -8    0.37    9.94
  -5  -5  -8   16.45    9.48
  -5  -5  -9  131.03   11.34
  -5  -5  -9  135.95   11.34
  -5  -5 -10    8.46   10.50
  -5  -5 -10   24.16    9.76
  -5  -5 -11  218.66   13.20
  -5  -5 -11  207.14   12.64
  -5  -5 -12  133.07   11.80
  -5  -5 -12  130.47   10.41
  -5  -5 -13   91.91   10.59
  -5  -5 -13   99.62   11.06
  -5  -6  21   53.15    9.57
   5   6 -21   63.19   10.97
  -5  -6  20  459.25   16.73
   5   6 -20  506.73   18.77
  -5  -6  19  228.69   13.20
   5   6 -19  241.24   13.85
  -5  -6  18   78.43   10.50
   5   6 -18   77.78   11.34
  -5  -6  17   56.78   10.59
   5   6 -17   81.22   11.52
  -5  -6  16  189.29   12.17
   5   6 -16  201.47   12.82
  -5  -6  15   98.60   11.89
   5   6 -15   84.75   10.87
  -5  -6  14  122.48   12.08
   5   6 -14  128.70   10.78
  -5  -6  13   69.32   10.87
   5   6 -13   55.85   10.50
  -5  -6  12   37.54   10.59
   5   6 -12   47.95    9.94
  -5  -6  11   -7.99    9.11
   5   6 -11    5.02    8.55
  -5  -6  10  251.46   13.20
   5   6 -10  269.12   13.01
  -5  -6   9  874.82   25.46
   5   6  -9  860.32   24.63
  -5  -6   8  956.22   26.58
   5   6  -8  920.91   25.56
  -5  -6   7  554.96   18.31
   5   6  -7  578.29   18.40
  -5  -6   6  -19.70    7.99
   5   6  -6    4.00    7.06
  -5  -6   5    3.53    8.46
   5   6  -5    4.74    7.06
  -5  -6   4   35.59    8.74
   5   6  -4   27.51    7.62
  -5  -6   3  125.08    9.66
   5   6  -3  119.32    8.74
  -5  -6   2  687.38   20.82
   5   6  -2  676.33   19.79
  -5  -6   1  701.42   20.63
   5   6  -1  694.08   20.35
  -5  -6   0   87.72    8.36
   5   6   0  105.57    8.92
  -5  -6  -1  428.12   15.24
   5   6   1  440.76   15.52
  -5  -6  -2   66.54    8.27
   5   6   2   87.72    9.57
  -5  -6  -3  870.54   24.44
   5   6   3  891.73   25.18
  -5  -6  -4   17.84    9.20
  -5  -6  -4   11.06    9.20
  -5  -6  -5   -6.69   10.31
  -5  -6  -5  -16.26    9.20
  -5  -6  -6  108.63   10.41
  -5  -6  -6  138.09   11.24
  -5  -6  -7   28.44   10.13
  -5  -6  -7   37.08    9.48
  -5  -6  -8  620.20   20.54
  -5  -6  -8  653.56   20.54
  -5  -6  -9  580.80   19.79
  -5  -6  -9  576.89   19.42
  -5  -6 -10  439.27   16.63
  -5  -6 -10  431.00   16.17
  -5  -6 -11   93.39   11.24
  -5  -6 -11   81.78   10.13
  -5  -6 -12   80.85   11.71
  -5  -6 -12   75.83   10.78
  -5  -7  21   71.46   10.04
   5   7 -21   57.06   11.06
  -5  -7  20   54.08   10.04
   5   7 -20   65.24   11.99
  -5  -7  19   65.42   10.59
   5   7 -19   91.35   11.43
  -5  -7  18  119.97   11.52
   5   7 -18  113.84   11.43
  -5  -7  17   43.95   10.31
   5   7 -17   45.16    9.76
  -5  -7  16   32.06   10.31
   5   7 -16   35.59   10.04
  -5  -7  15   18.40   10.87
   5   7 -15   17.94    9.66
  -5  -7  14  452.84   17.10
   5   7 -14  431.00   16.45
  -5  -7  13 1006.40   27.69
   5   7 -13 1056.59   29.27
  -5  -7  12 2086.22   51.30
   5   7 -12 2050.91   51.11
  -5  -7  11 1999.80   49.16
   5   7 -11 2067.64   51.48
  -5  -7  10 1365.11   35.22
   5   7 -10 1377.19   35.78
  -5  -7   9  302.20   12.82
   5   7  -9  305.27   12.64
  -5  -7   8  323.85   12.73
   5   7  -8  336.68   13.38
  -5  -7   7  249.79   10.87
   5   7  -7  248.21   11.24
  -5  -7   6    0.56    6.78
   5   7  -6   -5.02    6.97
  -5  -7   5  620.94   18.31
   5   7  -5  610.25   18.68
  -5  -7   4 1169.03   30.20
   5   7  -4 1201.55   31.32
  -5  -7   3  117.18    8.46
   5   7  -3  139.02    9.01
  -5  -7   2  221.54   10.78
   5   7  -2  222.75   11.15
  -5  -7   1   62.26    8.08
   5   7  -1   68.95    8.36
  -5  -7   0  352.01   13.94
   5   7   0  367.71   13.66
  -5  -7  -1   91.53    9.39
   5   7   1   93.30    8.74
  -5  -7  -2    6.78    8.27
  -5  -7  -3   -4.55    8.46
  -5  -7  -3   -0.93    8.27
  -5  -7  -4    2.42    9.76
  -5  -7  -4   -4.18    9.29
  -5  -7  -5   13.29    9.39
  -5  -7  -5    5.39    8.83
  -5  -7  -6  334.17   14.03
  -5  -7  -6  327.29   15.61
  -5  -7  -7  561.10   19.79
  -5  -7  -7  528.39   18.03
  -5  -7  -8  285.57   13.66
  -5  -7  -8  333.24   15.15
  -5  -7  -9   63.56   11.06
  -5  -7  -9   47.67    9.57
  -5  -7 -10  143.94   12.08
  -5  -7 -10  159.28   11.24
  -5  -8  21   68.02   10.31
  -5  -8  20   85.96   10.78
   5   8 -20   63.10   11.71
  -5  -8  19    9.57    9.94
   5   8 -19   21.65   10.50
  -5  -8  18   12.36    9.76
   5   8 -18    1.39    9.48
  -5  -8  17   17.10    9.48
   5   8 -17   13.94    9.20
  -5  -8  16   15.98    9.76
   5   8 -16   16.63   10.59
  -5  -8  15   34.57   10.04
   5   8 -15   58.36    9.76
  -5  -8  14   47.39   10.04
   5   8 -14   41.63    9.01
  -5  -8  13  235.76   12.92
   5   8 -13  218.57   11.62
  -5  -8  12  218.38   12.17
   5   8 -12  243.93   12.64
  -5  -8  11  768.05   23.05
   5   8 -11  754.76   21.84
  -5  -8  10  368.64   14.50
   5   8 -10  373.01   13.85
  -5  -8   9   -1.58    8.55
   5   8  -9   -0.56    7.34
  -5  -8   8   86.24    9.39
   5   8  -8   73.88    8.27
  -5  -8   7  508.78   16.82
   5   8  -7  537.31   16.54
  -5  -8   6 1323.29   34.10
   5   8  -6 1250.80   32.15
  -5  -8   5 1116.99   29.37
   5   8  -5 1137.43   29.55
  -5  -8   4 1616.01   40.52
   5   8  -4 1509.14   37.82
  -5  -8   3 1779.56   43.68
   5   8  -3 1887.36   46.56
  -5  -8   2  753.27   21.00
   5   8  -2  734.22   20.63
  -5  -8   1  110.68    8.55
   5   8  -1  130.47    9.01
  -5  -8   0   -3.53    7.25
   5   8   0    2.32    7.34
  -5  -8  -1    4.27    7.71
  -5  -8  -1   -1.12    8.64
  -5  -8  -2   14.31    8.36
  -5  -8  -2   27.97    8.74
  -5  -8  -3  191.90   11.62
  -5  -8  -3  182.70   11.34
  -5  -8  -4  599.85   19.51
  -5  -8  -4  583.12   18.86
  -5  -9  20   -3.72   10.13
   5   9 -20   10.41   10.22
  -5  -9  19   31.13   10.04
   5   9 -19   27.04   10.69
  -5  -9  18   45.44   10.87
   5   9 -18   47.58   10.69
  -5  -9  17  193.20   12.64
   5   9 -17  205.09   13.01
  -5  -9  16  633.49   20.44
   5   9 -16  630.51   20.72
  -5  -9  15  192.17   11.99
   5   9 -15  181.95   10.97
  -5  -9  14  218.19   12.73
   5   9 -14  192.45   11.52
  -5  -9  13  281.66   12.92
   5   9 -13  250.44   11.99
  -5  -9  12  208.16   11.80
   5   9 -12  221.07   11.52
  -5  -9  11   -6.78    9.11
   5   9 -11    2.42    7.90
  -5  -9  10  285.94   13.57
   5   9 -10  339.37   13.20
  -5  -9   9   91.72    8.92
   5   9  -9   76.85    7.90
  -5  -9   8   -9.20    7.81
   5   9  -8    3.25    7.06
  -5  -9   7  414.64   14.78
   5   9  -7  439.45   14.31
  -5  -9   6  964.59   26.30
   5   9  -6  941.36   24.81
  -5  -9   5  638.13   19.14
   5   9  -5  649.66   18.59
  -5  -9   4  301.64   11.89
   5   9  -4  341.60   11.80
  -5  -9   3  136.51    9.39
   5   9  -3  157.51    8.83
  -5  -9   2    7.06    7.43
   5   9  -2   -3.07    6.97
  -5  -9   1  154.26    9.57
  -5  -9   0  197.29   10.78
  -5  -9   0  205.46   10.50
  -5  -9  -1  165.13   10.41
  -5  -9  -1  168.76   10.04
  -5  -9  -2   37.45    9.01
  -5  -9  -2   55.48    8.27
  -5  -9  -3   97.95   10.22
  -5  -9  -3  114.02    9.66
  -5 -10  19   77.97   10.87
   5  10 -19   86.61   11.52
  -5 -10  18  366.69   14.87
   5  10 -18  374.13   15.80
  -5 -10  17  230.09   12.92
   5  10 -17  239.75   12.82
  -5 -10  16  113.74   11.15
   5  10 -16   88.00   10.41
  -5 -10  15  151.75   11.71
   5  10 -15  115.51   10.78
  -5 -10  14   49.16   10.04
   5  10 -14   31.60    9.66
  -5 -10  13   10.04    9.01
   5  10 -13   -5.30    8.74
  -5 -10  12   36.71    9.85
   5  10 -12   25.28    7.62
  -5 -10  11   81.68   10.13
   5  10 -11   87.17    8.74
  -5 -10  10   51.48    9.57
   5  10 -10   47.21    7.34
  -5 -10   9  162.99   10.87
   5  10  -9  165.23    8.92
  -5 -10   8  626.42   19.05
   5  10  -8  628.38   18.12
  -5 -10   7  426.82   14.68
   5  10  -7  411.39   13.20
  -5 -10   6  177.77    9.85
   5  10  -6  191.43    9.29
  -5 -10   5   34.29    7.81
   5  10  -5   29.64    6.88
  -5 -10   4  162.90    9.29
   5  10  -4  140.41    8.18
  -5 -10   3    1.02    7.16
   5  10  -3    3.44    6.13
  -5 -10   2   47.39    8.64
  -5 -10   2   48.23    7.62
  -5 -10   1  449.30   15.33
  -5 -10   1  427.09   14.22
  -5 -10   0  181.67   10.69
  -5 -10   0  169.22    9.66
  -5 -10  -1  154.45   10.69
  -5 -10  -1  173.03    9.66
  -5 -10  -2  636.65   19.70
  -5 -10  -2  600.68   18.31
  -5 -10  -3  616.95   19.70
  -5 -10  -3  596.69   17.75
  -5 -10  -5   -2.60   12.36
  -5 -10  -5    0.09    8.74
  -5 -10  -6   13.01   11.99
  -5 -10  -6    6.13   10.04
  -5 -11  18  127.22   12.08
   5  11 -18   93.02   11.34
  -5 -11  17  178.79   13.01
   5  11 -17  162.81   12.64
  -5 -11  16   28.62   11.06
   5  11 -16   -3.72   10.41
  -5 -11  15   -2.42   10.78
   5  11 -15    5.95    9.48
  -5 -11  14   55.66   11.15
   5  11 -14   52.04    9.11
  -5 -11  13   59.38   10.87
   5  11 -13   60.96    9.11
  -5 -11  12  104.17    9.76
   5  11 -12  101.38    9.11
  -5 -11  11  374.13   14.40
   5  11 -11  371.62   13.38
  -5 -11  10  471.24   16.26
   5  11 -10  460.36   15.05
  -5 -11   9   71.37    9.29
   5  11  -9   61.15    7.06
  -5 -11   8   34.48    9.20
   5  11  -8   31.32    6.88
  -5 -11   7  229.35   11.71
   5  11  -7  218.19    9.76
  -5 -11   6   16.91    8.55
   5  11  -6   21.09    6.32
  -5 -11   5    4.74    7.81
  -5 -11   1  263.08   11.15
  -5 -11   1  263.91   12.27
  -5 -11  -2   32.80    7.43
  -5 -11  -2   12.73   10.41
  -5 -11  -3    1.95   10.41
  -5 -11  -3    0.65    7.90
  -5 -12  17   33.36   11.06
   5  12 -17   29.83   10.22
  -5 -12  16   19.42   12.45
   5  12 -16   24.16    9.29
  -5 -12  15  130.66   14.31
   5  12 -15  121.27   10.87
  -5 -12  14  304.06   14.96
   5  12 -14  255.18   12.17
  -5 -12  13  369.29   15.24
   5  12 -13  353.59   13.66
  -5 -12  12  450.70   16.08
   5  12 -12  451.16   15.33
  -5 -12  11  348.76   13.75
   5  12 -11  336.68   12.55
  -5 -12  10   35.31    8.92
   5  12 -10   37.36    6.69
  -5 -12   9   59.38    7.34
   5  12  -9   71.83    6.78
  -5 -12   8   74.34    5.30
   5  12  -8  101.01    6.13
  -5 -13  15  359.72   16.63
   5  13 -15  314.37   13.94
  -5 -13  14   53.43   10.31
   5  13 -14   91.81   10.97
  -5 -13  13   66.07   10.31
   5  13 -13   85.31    9.01
  -5 -13  12  198.77    9.94
   5  13 -12  200.82    8.92
   6 -18   5   25.83   13.57
  -6  18  -6   84.66   10.13
   6 -18   6    3.72   12.92
  -6  18  -7  147.57    9.94
   6 -18   7   -3.90   11.52
  -6  18  -8   28.25   11.52
  -6  18  -8   46.09    9.20
  -6  17   0    2.23    8.74
   6 -17   0    4.83   10.41
  -6  17  -1   22.95    8.92
   6 -17   1   12.55    9.29
  -6  17  -2   45.44    8.55
   6 -17   2   51.20    8.55
  -6  17  -3   37.54    8.08
   6 -17   3   49.62    9.39
  -6  17  -4   82.80    8.27
   6 -17   4   62.17    9.39
  -6  17  -5   72.95    8.46
   6 -17   5   78.15   10.13
  -6  17  -6   39.31    7.25
   6 -17   6   36.80    9.39
  -6  17  -7    2.69    7.71
   6 -17   7    2.88    9.01
  -6  17  -8   -0.37    7.62
   6 -17   8   -4.83    9.39
  -6  17  -9   -1.58    8.92
   6 -17   9   10.04    8.83
  -6  17 -10   77.13   10.78
  -6  17 -10   80.20   10.69
  -6  16   3    1.77   11.15
   6 -16  -3    8.83    8.74
  -6  16   2   66.81   10.78
   6 -16  -2   75.64    9.11
  -6  16   1  163.83   11.52
   6 -16  -1  136.05   10.04
  -6  16   0  418.08   15.33
   6 -16   0  418.08   15.05
  -6  16  -1  163.18   10.04
   6 -16   1  148.03    9.94
  -6  16  -2  135.86    9.48
   6 -16   2  122.66    9.94
  -6  16  -3  111.88    8.92
   6 -16   3  121.55    9.76
  -6  16  -4   53.62    7.71
   6 -16   4   31.04    9.01
  -6  16  -5   18.31    7.71
   6 -16   5   34.75    9.20
  -6  16  -6   -1.49    7.16
   6 -16   6    6.04    9.39
  -6  16  -7    1.58    7.16
   6 -16   7   -9.76   10.04
  -6  16  -8   23.51    7.53
   6 -16   8   34.10   10.22
  -6  16  -9  137.72    9.85
   6 -16   9  150.64   11.24
  -6  16 -10  159.18   10.13
   6 -16  10  162.07   11.15
  -6  16 -11   90.42    9.29
  -6  16 -11  109.19   10.97
  -6  16 -12  112.72   11.24
  -6  16 -12  129.17    9.94
  -6  16 -13  289.56   13.47
  -6  16 -13  278.88   13.29
  -6  16 -15   35.03   12.36
  -6  16 -15    7.99   10.87
  -6  15   5    4.93   15.98
   6 -15  -5    1.77    6.97
  -6  15   4   15.61    8.64
   6 -15  -4   21.56    9.39
  -6  15   3  178.98   10.87
   6 -15  -3  154.45   10.87
  -6  15   2  119.78    9.94
   6 -15  -2   95.72    9.39
  -6  15   1  250.53   11.71
   6 -15  -1  278.22   12.73
  -6  15   0   75.64    8.74
   6 -15   0   87.17   10.22
  -6  15  -1   59.10    8.27
   6 -15   1   90.14    9.76
  -6  15  -2   21.65    7.90
   6 -15   2   11.52    8.74
  -6  15  -3    8.55    7.06
   6 -15   3   12.45    8.36
  -6  15  -4   16.08    7.34
   6 -15   4   -0.65    7.90
  -6  15  -5   19.51    7.53
   6 -15   5   36.33    9.39
  -6  15  -6  367.25   13.57
   6 -15   6  387.79   15.80
  -6  15  -7  375.43   13.94
   6 -15   7  359.82   14.87
  -6  15  -8  854.28   24.07
   6 -15   8  918.68   26.58
  -6  15  -9  236.78   11.62
   6 -15   9  217.17   12.45
  -6  15 -10  131.59    9.57
   6 -15  10  169.87   12.73
  -6  15 -11   99.62    9.66
   6 -15  11  110.77   10.41
  -6  15 -12   55.76   10.31
  -6  15 -12   45.35    9.01
  -6  15 -13   -1.21    8.92
  -6  15 -13   18.12   10.13
  -6  15 -14   66.44    9.48
  -6  15 -14   90.14   10.31
  -6  15 -15   37.82    9.85
  -6  15 -15   32.99   10.13
  -6  14   7   -0.65   10.31
   6 -14  -7   85.49    9.39
  -6  14   6   51.30    9.20
   6 -14  -6   52.78    9.29
  -6  14   5  161.42   10.87
   6 -14  -5  151.29   10.97
  -6  14   4  454.04   15.89
   6 -14  -4  479.23   17.28
  -6  14   3  463.71   16.08
   6 -14  -3  465.75   17.01
  -6  14   2  368.55   14.03
   6 -14  -2  401.26   15.24
  -6  14   1  156.68    9.94
   6 -14  -1  133.07   10.69
  -6  14   0   67.93    8.64
   6 -14   0   57.24    9.01
  -6  14  -1   32.90    8.18
   6 -14   1   19.14    9.01
  -6  14  -2   -5.20    6.78
   6 -14   2    2.79    8.74
  -6  14  -3  107.98    8.83
   6 -14   3  121.92   10.50
  -6  14  -4  122.66    9.11
   6 -14   4  127.59   10.31
  -6  14  -5  196.26   10.78
   6 -14   5  194.40   11.52
  -6  14  -6   57.62    8.55
   6 -14   6   67.74    9.76
  -6  14  -7  652.26   19.89
   6 -14   7  671.12   20.91
  -6  14  -8  177.49   10.59
   6 -14   8  151.29   11.43
  -6  14  -9  138.83    9.94
   6 -14   9  114.86   11.52
  -6  14 -10   16.73    7.90
   6 -14  10   17.66   10.22
  -6  14 -11    4.93    8.27
   6 -14  11   27.97    9.66
  -6  14 -12   -3.16    8.08
  -6  14 -13  157.51   11.15
  -6  14 -13  152.96   11.89
  -6  14 -14  124.43   10.69
  -6  14 -14  119.23   11.80
  -6  14 -15  585.72   18.59
  -6  14 -15  603.19   19.98
  -6  14 -16   40.52    9.48
  -6  14 -16   35.31    9.48
  -6  14 -17   66.35    9.29
  -6  14 -17   63.56   11.34
  -6  13   9    3.81   10.13
   6 -13  -9   39.96   10.41
  -6  13   8   97.20   10.13
   6 -13  -8   70.81   10.13
  -6  13   7   53.06    8.74
   6 -13  -7   66.81   10.97
  -6  13   6  252.11   11.80
   6 -13  -6  284.64   12.92
  -6  13   5  306.10   13.29
   6 -13  -5  288.35   13.01
  -6  13   4  266.24   12.45
   6 -13  -4  310.75   13.75
  -6  13   3  120.71   10.13
   6 -13  -3  109.56   10.22
  -6  13   2   68.39    9.20
   6 -13  -2   66.35    9.94
  -6  13   1   12.64    8.08
   6 -13  -1   -0.19    8.83
  -6  13   0   14.40    7.25
   6 -13   0    3.25    8.46
  -6  13  -1   74.53    9.11
   6 -13   1   86.89    9.94
  -6  13  -2  334.07   13.66
   6 -13   2  327.85   13.57
  -6  13  -3  307.31   12.73
   6 -13   3  303.04   13.01
  -6  13  -4  629.58   19.24
   6 -13   4  581.08   18.86
  -6  13  -5  336.58   13.66
   6 -13   5  333.42   13.66
  -6  13  -6  609.33   19.14
   6 -13   6  620.01   19.61
  -6  13  -7   46.65    8.83
   6 -13   7   66.81    9.39
  -6  13  -8   -0.93    7.99
   6 -13   8   10.59    8.83
  -6  13  -9   -1.21    8.74
   6 -13   9    4.09    9.20
  -6  13 -10   -1.21    8.92
   6 -13  10  -10.69    8.92
  -6  13 -11   91.53    9.76
   6 -13  11   99.80   10.87
  -6  13 -12  114.67   10.04
   6 -13  12  118.58   10.41
  -6  13 -13  188.36   12.08
  -6  13 -13  199.52   11.71
  -6  13 -14   68.95   10.59
  -6  13 -14   63.00   10.41
  -6  13 -15   48.42   10.04
  -6  13 -15   52.78   10.41
  -6  13 -16  238.27   12.64
  -6  13 -16  217.36   12.92
  -6  13 -17   94.79   11.24
  -6  13 -17   93.02   10.22
  -6  12  10   90.42    8.92
   6 -12 -10   64.21   10.13
  -6  12   9   59.66    8.92
   6 -12  -9   86.89   10.97
  -6  12   8   39.31    8.83
   6 -12  -8   45.07   10.69
  -6  12   7  199.14   11.34
   6 -12  -7  190.41   12.08
  -6  12   6   91.53    9.94
   6 -12  -6   92.46   10.69
  -6  12   5  143.20   10.87
   6 -12  -5  119.97   10.22
  -6  12   4   83.26    9.94
   6 -12  -4   76.29    9.76
  -6  12   3   26.39    8.83
   6 -12  -3   22.30    9.94
  -6  12   2   24.07    9.20
   6 -12  -2   27.23    8.92
  -6  12   1   92.09    9.20
   6 -12  -1   96.18    9.66
  -6  12   0    7.99    8.08
   6 -12   0   19.79    8.46
  -6  12  -1  324.32   13.66
   6 -12   1  330.36   13.66
  -6  12  -2 1035.21   28.44
   6 -12   2 1066.81   28.99
  -6  12  -3 1435.73   37.45
   6 -12   3 1372.54   35.68
  -6  12  -4  794.81   23.32
   6 -12   4  799.08   23.32
  -6  12  -5   50.37    8.64
   6 -12   5   42.75    9.20
  -6  12  -6   12.92    7.90
   6 -12   6   16.82    8.18
  -6  12  -7   -9.29    7.81
   6 -12   7   -3.16    9.01
  -6  12  -8   48.04    8.92
   6 -12   8   31.87    9.94
  -6  12  -9  243.56   12.36
   6 -12   9  234.73   12.55
  -6  12 -10  337.05   14.31
   6 -12  10  381.19   15.05
  -6  12 -11  157.05   11.34
   6 -12  11  170.06   11.89
  -6  12 -12  261.22   13.57
   6 -12  12  260.29   13.20
  -6  12 -13    4.09   10.04
  -6  12 -13   17.38    9.11
  -6  12 -14  144.13   11.43
  -6  12 -14  141.71   11.34
  -6  12 -15   31.41   10.22
  -6  12 -15   40.33   10.22
  -6  12 -16   26.11    9.20
  -6  12 -16   19.61    9.76
  -6  12 -17    5.76    9.01
  -6  12 -17    1.21   10.13
  -6  12 -18   -9.01    8.55
  -6  12 -18   18.96   10.04
  -6  11  11  265.31   12.08
   6 -11 -11  277.39   13.20
  -6  11  10  357.12   13.66
   6 -11 -10  389.83   15.61
  -6  11   9  358.24   14.12
   6 -11  -9  391.13   15.61
  -6  11   8  343.18   14.12
   6 -11  -8  398.38   15.61
  -6  11   7  143.20   11.62
   6 -11  -7  115.60   11.15
  -6  11   6   66.16   10.04
   6 -11  -6   66.16   10.31
  -6  11   5    2.97    9.11
   6 -11  -5   22.77    9.20
  -6  11   4  -10.31    8.92
   6 -11  -4   -0.46    8.55
  -6  11   3   58.82    9.48
   6 -11  -3   61.89    9.48
  -6  11   2  209.55   11.71
   6 -11  -2  246.72   12.82
  -6  11   1  207.97   11.99
   6 -11  -1  184.46   11.71
  -6  11   0  904.65   25.93
   6 -11   0  948.79   27.13
  -6  11  -1  897.40   25.46
   6 -11   1  888.39   25.65
  -6  11  -2  738.12   22.12
   6 -11   2  774.27   23.23
  -6  11  -3  854.56   24.90
   6 -11   3  880.58   25.37
  -6  11  -4   16.91    8.18
   6 -11   4   24.07    8.92
  -6  11  -5    5.02    8.55
   6 -11   5   11.71    8.55
  -6  11  -6  248.02   12.45
   6 -11   6  255.18   12.17
  -6  11  -7  390.20   15.43
   6 -11   7  424.40   16.36
  -6  11  -8  901.40   26.02
   6 -11   8  917.57   26.67
  -6  11  -9  959.94   27.23
   6 -11   9  878.63   25.65
  -6  11 -10  201.75   12.17
   6 -11  10  190.69   12.27
  -6  11 -11 1250.80   33.64
   6 -11  11 1300.06   34.85
  -6  11 -12   -8.74    9.39
   6 -11  12  -12.36    8.83
  -6  11 -13   43.21   10.97
  -6  11 -13   61.24   10.41
  -6  11 -14   21.09    9.66
  -6  11 -14   17.19   10.50
  -6  11 -15    1.67    9.39
  -6  11 -15    7.25   10.31
  -6  11 -16   13.29    8.92
  -6  11 -16   -2.23   10.31
  -6  11 -17   94.23   10.78
  -6  11 -17   73.69   11.34
  -6  11 -18   93.30   10.59
  -6  11 -18  108.54   10.59
  -6  10  13  323.48   13.57
   6 -10 -13  287.70   12.82
  -6  10  12  224.79   11.62
   6 -10 -12  220.15   12.08
  -6  10  11  253.13   12.08
   6 -10 -11  220.33   12.36
  -6  10  10  179.72   11.34
   6 -10 -10  181.67   11.89
  -6  10   9   79.73   10.69
   6 -10  -9   66.35   10.50
  -6  10   8   45.07   10.04
   6 -10  -8   34.10    9.94
  -6  10   7    4.74    9.29
   6 -10  -7    1.58    9.57
  -6  10   6  112.26   10.04
   6 -10  -6   62.17   10.59
  -6  10   5  102.87   10.50
   6 -10  -5   79.64   10.69
  -6  10   4   66.72   10.04
   6 -10  -4   74.34   10.50
  -6  10   3  544.83   18.49
   6 -10  -3  559.70   18.68
  -6  10   2  444.57   15.98
   6 -10  -2  469.75   17.38
  -6  10   1  185.58   11.24
   6 -10  -1  201.19   12.64
  -6  10   0  589.72   18.96
   6 -10   0  584.05   19.24
  -6  10  -1  538.61   18.12
   6 -10   1  573.46   19.05
  -6  10  -2 1146.73   31.22
   6 -10   2 1197.84   32.62
  -6  10  -3  149.33   11.15
   6 -10   3  141.53   10.97
  -6  10  -4  417.52   15.89
   6 -10   4  456.83   16.63
  -6  10  -5  152.12   10.97
   6 -10   5  158.26   11.43
  -6  10  -6  326.08   14.12
   6 -10   6  296.53   13.75
  -6  10  -7 1589.06   41.35
   6 -10   7 1580.70   41.07
  -6  10  -8 1770.27   44.98
   6 -10   8 1813.95   46.65
  -6  10  -9  651.42   21.09
   6 -10   9  680.14   21.84
  -6  10 -10  377.10   15.33
   6 -10  10  400.61   16.36
  -6  10 -11  111.70   11.34
   6 -10  11  126.29   11.71
  -6  10 -12   22.95   10.04
   6 -10  12   -7.90    8.74
  -6  10 -13    0.00    9.85
  -6  10 -14   71.93   10.31
  -6  10 -14   86.98   10.50
  -6  10 -15  409.35   16.63
  -6  10 -15  412.69   16.73
  -6  10 -16  277.57   13.66
  -6  10 -16  234.46   13.38
  -6  10 -17  312.33   14.12
  -6  10 -17  305.45   13.94
  -6  10 -18   51.95    9.76
  -6  10 -18   44.14    9.85
  -6  10 -19   44.14   11.62
  -6  10 -19   32.52   10.69
  -6   9  14  127.68    9.29
   6  -9 -14  134.00   10.41
  -6   9  13  336.77   13.57
   6  -9 -13  347.08   14.31
  -6   9  12  205.65   11.89
   6  -9 -12  192.36   11.71
  -6   9  11  258.71   12.73
   6  -9 -11  278.97   13.38
  -6   9  10   12.17    8.74
   6  -9 -10   -0.28    9.85
  -6   9   9    3.16    9.29
   6  -9  -9   -6.78    9.66
  -6   9   8   31.87    8.83
   6  -9  -8   52.04   10.22
  -6   9   7  268.00   13.29
   6  -9  -7  288.17   14.03
  -6   9   6  477.09   17.38
   6  -9  -6  476.63   17.75
  -6   9   5  409.90   16.36
   6  -9  -5  363.72   15.24
  -6   9   4  434.71   16.45
   6  -9  -4  426.26   16.36
  -6   9   3  561.28   18.77
   6  -9  -3  561.47   18.68
  -6   9   2  141.16   10.97
   6  -9  -2  149.33   11.52
  -6   9   1  505.62   17.84
   6  -9  -1  492.05   17.10
  -6   9   0  223.49   12.27
   6  -9   0  231.85   12.36
  -6   9  -1   26.76    8.83
   6  -9   1   29.64    8.83
  -6   9  -2  948.79   26.86
   6  -9   2  944.14   26.76
  -6   9  -3  544.37   18.49
   6  -9   3  560.17   18.49
  -6   9  -4  418.64   16.08
   6  -9   4  387.32   15.43
  -6   9  -5  446.33   16.73
   6  -9   5  471.33   17.84
  -6   9  -6 1048.22   29.46
   6  -9   6 1107.70   30.85
  -6   9  -7  483.78   17.38
   6  -9   7  510.54   17.84
  -6   9  -8  107.05   10.87
   6  -9   8  119.88   10.97
  -6   9  -9   27.04    9.76
   6  -9   9   22.67   10.41
  -6   9 -10  174.98   12.55
   6  -9  10  174.80   12.08
  -6   9 -11   28.90   10.59
   6  -9  11   23.51    9.94
  -6   9 -12   55.94   10.78
   6  -9  12   60.87    9.94
  -6   9 -13  273.39   14.22
  -6   9 -14  138.18   12.36
  -6   9 -14  152.40   12.17
  -6   9 -15   49.90   10.59
  -6   9 -15   53.71   11.43
  -6   9 -16  445.12   17.19
  -6   9 -16  433.79   16.91
  -6   9 -17  223.58   12.92
  -6   9 -17  224.70   12.92
  -6   9 -18   34.85    9.39
  -6   9 -18   39.03   10.59
  -6   9 -19   -4.00    9.76
  -6   9 -19  -15.24    9.48
  -6   8  15   10.59    8.46
   6  -8 -15   15.70    8.46
  -6   8  14  148.41   10.50
   6  -8 -14  150.54   10.87
  -6   8  13   43.58    9.48
   6  -8 -13   50.74    8.74
  -6   8  12   90.60   10.50
   6  -8 -12   89.77    9.94
  -6   8  11   10.87    9.76
   6  -8 -11   16.17    9.85
  -6   8  10   80.01   10.50
   6  -8 -10   58.45    9.94
  -6   8   9  221.73   12.55
   6  -8  -9  191.06   12.27
  -6   8   8  281.29   13.75
   6  -8  -8  280.46   14.22
  -6   8   7  599.29   19.70
   6  -8  -7  601.98   19.79
  -6   8   6  397.82   15.89
   6  -8  -6  370.87   15.52
  -6   8   5  135.21   10.87
   6  -8  -5  142.36   11.71
  -6   8   4  834.30   24.72
   6  -8  -4  862.74   25.83
  -6   8   3  246.26   13.10
   6  -8  -3  228.69   12.82
  -6   8   2  206.21   11.71
   6  -8  -2  213.36   12.17
  -6   8   1   73.88    9.76
   6  -8  -1   65.42   10.78
  -6   8   0   47.02    9.29
   6  -8   0   56.87    9.76
  -6   8  -1   60.87    9.39
   6  -8   1   79.64    9.76
  -6   8  -2    2.04    8.92
   6  -8   2    8.83    9.76
  -6   8  -3  573.64   19.05
   6  -8   3  588.42   19.24
  -6   8  -4 1030.57   28.71
   6  -8   4 1038.00   29.18
  -6   8  -5  639.53   20.26
   6  -8   5  618.43   20.07
  -6   8  -6  339.93   14.31
   6  -8   6  318.83   13.66
  -6   8  -7  595.11   19.70
   6  -8   7  613.60   20.54
  -6   8  -8  305.27   14.31
   6  -8   8  335.28   14.87
  -6   8  -9   28.99   10.50
   6  -8   9   34.48   10.13
  -6   8 -10  966.45   28.06
   6  -8  10  960.87   27.69
  -6   8 -11  580.33   19.89
   6  -8  11  578.38   19.70
  -6   8 -12  337.33   15.52
   6  -8  12  322.92   15.15
  -6   8 -13  316.98   14.59
  -6   8 -13  301.09   15.15
  -6   8 -14  382.40   15.80
  -6   8 -14  340.67   15.43
  -6   8 -15  446.61   17.19
  -6   8 -15  482.76   18.12
  -6   8 -16   27.88   10.69
  -6   8 -16   28.99   10.78
  -6   8 -17    2.32    9.57
  -6   8 -17   10.50   10.87
  -6   8 -18   -1.58    9.94
  -6   8 -18    4.74   10.13
  -6   8 -19   26.86    9.94
  -6   8 -19   -0.09    9.76
  -6   7  16   51.20    8.18
   6  -7 -16   54.92    8.74
  -6   7  15   43.03    8.18
   6  -7 -15   48.51    9.48
  -6   7  14    1.58    8.83
   6  -7 -14   -2.51    8.92
  -6   7  13    3.62    9.85
   6  -7 -13   12.36    9.39
  -6   7  12   55.29   10.41
   6  -7 -12   10.97    9.20
  -6   7  11  295.60   14.22
   6  -7 -11  340.67   15.52
  -6   7  10 1002.69   28.16
   6  -7 -10 1029.64   29.09
  -6   7   9  557.84   19.05
   6  -7  -9  518.16   18.12
  -6   7   8  815.53   24.44
   6  -7  -8  809.86   23.98
  -6   7   7  880.77   25.74
   6  -7  -7  812.28   24.35
  -6   7   6   49.34    9.20
   6  -7  -6   43.68    9.66
  -6   7   5  336.77   14.22
   6  -7  -5  309.82   14.31
  -6   7   4   20.44    9.48
   6  -7  -4   18.21    9.39
  -6   7   3   70.07    9.48
   6  -7  -3   67.65    9.48
  -6   7   2  375.80   14.87
   6  -7  -2  343.46   14.03
  -6   7   1 1876.21   47.58
   6  -7  -1 1832.53   46.37
  -6   7   0  458.60   16.63
   6  -7   0  411.67   15.33
  -6   7  -1  240.87   12.92
   6  -7   1  244.96   12.36
  -6   7  -2  214.29   12.08
   6  -7   2  193.75   12.17
  -6   7  -3 1159.74   31.69
   6  -7   3 1182.97   32.15
  -6   7  -4  290.12   13.75
   6  -7   4  281.29   13.29
  -6   7  -5   63.47    9.20
   6  -7   5   66.16    9.57
  -6   7  -6  604.87   19.89
   6  -7   6  530.89   18.03
  -6   7  -7  784.03   23.42
   6  -7   7  738.87   22.77
  -6   7  -8   71.83   10.69
   6  -7   8   64.40   10.31
  -6   7  -9    1.12    9.76
   6  -7   9   11.06    9.76
  -6   7 -10   56.13   10.13
   6  -7  10   69.79   10.87
  -6   7 -11  592.51   19.98
   6  -7  11  583.03   19.70
  -6   7 -12  692.22   21.75
   6  -7  12  706.34   22.49
  -6   7 -13  407.58   16.26
  -6   7 -13  413.53   16.08
  -6   7 -14   83.36   10.97
  -6   7 -14   96.18   11.71
  -6   7 -15  -20.91    9.94
  -6   7 -15    3.72   10.87
  -6   7 -16   -1.95    9.20
  -6   7 -16  -18.59    9.76
  -6   7 -17   90.98   11.34
  -6   7 -17   85.40   10.97
  -6   7 -18  156.21   11.52
  -6   7 -18  163.46   11.89
  -6   6  16    1.67    8.08
   6  -6 -16   -7.99    9.01
  -6   6  15   11.52    8.92
   6  -6 -15   -4.46    7.99
  -6   6  14   12.08   10.13
   6  -6 -14   13.75    9.57
  -6   6  13   24.81   10.41
   6  -6 -13   30.02    9.66
  -6   6  12  119.60   11.62
   6  -6 -12  103.06   10.50
  -6   6  11  434.90   16.73
   6  -6 -11  416.69   15.98
  -6   6  10  562.12   19.14
   6  -6 -10  597.43   19.61
  -6   6   9  983.17   27.88
   6  -6  -9  931.13   26.95
  -6   6   8 1187.61   32.80
   6  -6  -8 1212.70   33.18
  -6   6   7    1.67    9.11
   6  -6  -7   23.98   10.41
  -6   6   6  167.27   11.34
   6  -6  -6  192.45   12.36
  -6   6   5   13.94    8.64
   6  -6  -5    2.04    9.11
  -6   6   4  417.62   15.70
   6  -6  -4  425.42   16.26
  -6   6   3 1615.08   41.45
   6  -6  -3 1669.91   42.93
  -6   6   2 5531.97  129.73
   6  -6  -2 5337.76  125.36
  -6   6   1 1901.30   47.95
   6  -6  -1 1971.92   49.72
  -6   6   0  993.40   27.60
   6  -6   0  938.57   26.86
  -6   6  -1  611.28   20.07
   6  -6   1  616.30   19.89
  -6   6  -2  876.31   25.46
   6  -6   2  837.18   24.72
  -6   6  -3  118.20   10.97
   6  -6   3  130.19   10.41
  -6   6  -4   43.21   10.04
   6  -6   4   35.87    9.11
  -6   6  -5   30.29    9.85
   6  -6   5   38.56    9.01
  -6   6  -6 1014.77   28.62
   6  -6   6 1033.35   29.64
  -6   6  -7  336.12   15.80
   6  -6   7  298.67   14.22
  -6   6  -8  415.94   16.36
   6  -6   8  403.40   16.17
  -6   6  -9  986.89   28.71
   6  -6   9  990.61   28.71
  -6   6 -10  613.88   20.63
   6  -6  10  605.42   20.35
  -6   6 -11  -18.59   10.50
   6  -6  11   -0.46    9.20
  -6   6 -12  199.98   13.47
   6  -6  12  197.84   12.82
  -6   6 -13   31.60   10.78
  -6   6 -13   29.92   10.78
  -6   6 -14    7.43    9.76
  -6   6 -14   -9.94   10.31
  -6   6 -15  176.47   11.89
  -6   6 -15  198.49   13.29
  -6   6 -16  141.06   12.55
  -6   6 -16  170.15   11.99
  -6   6 -17   76.94   11.15
  -6   6 -17   80.66   10.78
  -6   5  17  102.03    9.48
   6  -5 -17   97.20   10.31
  -6   5  16   99.43   10.31
   6  -5 -16   96.18   10.13
  -6   5  15  468.08   16.63
   6  -5 -15  465.75   17.01
  -6   5  14  460.64   17.10
   6  -5 -14  437.69   15.70
  -6   5  13  366.51   15.24
   6  -5 -13  407.58   15.15
  -6   5  12  296.62   14.78
   6  -5 -12  298.48   14.22
  -6   5  11  413.25   15.80
   6  -5 -11  380.07   15.61
  -6   5  10  287.61   13.47
   6  -5 -10  316.70   14.40
  -6   5   9   84.75   10.04
   6  -5  -9  102.59   10.87
  -6   5   8   70.62    9.94
   6  -5  -8   79.27   10.78
  -6   5   7    5.30    9.48
   6  -5  -7    9.29   10.41
  -6   5   6  319.67   14.31
   6  -5  -6  336.40   15.43
  -6   5   5  149.71   10.78
   6  -5  -5  140.04   11.80
  -6   5   4 1026.85   28.62
   6  -5  -4 1055.66   29.74
  -6   5   3 1578.84   41.26
   6  -5  -3 1506.36   39.31
  -6   5   2   28.99    9.39
   6  -5  -2   31.78   10.13
  -6   5   1  977.60   28.34
   6  -5  -1  947.86   27.41
  -6   5   0  545.58   18.40
   6  -5   0  606.26   19.89
  -6   5  -1  160.02   10.87
   6  -5   1  169.41   11.80
  -6   5  -2   36.06    9.39
   6  -5   2   47.11    9.39
  -6   5  -3  229.35   12.08
   6  -5   3  257.32   12.92
  -6   5  -4 1094.69   30.11
   6  -5   4 1056.59   29.37
  -6   5  -5  436.02   16.36
   6  -5   5  446.14   15.89
  -6   5  -6 1401.35   37.36
   6  -5   6 1355.81   36.06
  -6   5  -7 1642.03   42.65
   6  -5   7 1573.26   40.98
  -6   5  -8  967.38   28.62
   6  -5   8  995.25   28.90
  -6   5  -9  452.00   17.56
   6  -5   9  468.45   17.84
  -6   5 -10   62.73   10.50
   6  -5  10   40.98   10.87
  -6   5 -11   92.93   11.43
   6  -5  11  108.07   10.78
  -6   5 -12   19.89   10.78
   6  -5  12   13.10    9.01
  -6   5 -13  111.05   11.15
  -6   5 -13   96.18   11.62
  -6   5 -14  360.74   15.15
  -6   5 -14  353.50   15.80
  -6   5 -15   28.25   10.50
  -6   5 -15   22.67   10.41
  -6   5 -16  250.44   13.57
  -6   5 -16  236.59   13.57
  -6   5 -17  381.10   15.43
  -6   5 -17  349.31   14.78
  -6   4  18   77.32   10.04
   6  -4 -18   53.99    9.94
  -6   4  17   48.88    9.94
   6  -4 -17   34.01   10.22
  -6   4  16  211.04   12.27
   6  -4 -16  205.74   11.80
  -6   4  15  321.62   14.68
   6  -4 -15  375.33   15.70
  -6   4  14  396.61   16.17
   6  -4 -14  419.10   16.26
  -6   4  13  177.58   12.17
   6  -4 -13  170.99   11.89
  -6   4  12  378.68   15.52
   6  -4 -12  366.04   15.61
  -6   4  11  181.02   12.73
   6  -4 -11  203.70   12.36
  -6   4  10   80.66   10.69
   6  -4 -10   95.16   10.78
  -6   4   9   29.74    9.57
   6  -4  -9   22.49   10.13
  -6   4   8  621.69   20.26
   6  -4  -8  649.38   21.65
  -6   4   7  994.32   27.97
   6  -4  -7  969.23   27.79
  -6   4   6 1722.88   43.86
   6  -4  -6 1781.42   45.53
  -6   4   5 2069.50   51.95
   6  -4  -5 2087.15   52.50
  -6   4   4  677.53   21.47
   6  -4  -4  676.14   21.65
  -6   4   3   41.72   10.04
   6  -4  -3   41.07    8.64
  -6   4   2  414.74   16.17
   6  -4  -2  443.45   17.01
  -6   4   1  217.26   11.80
   6  -4  -1  249.32   13.20
  -6   4   0   -1.12    9.20
   6  -4   0   22.95    8.83
  -6   4  -1   25.18    9.01
   6  -4   1   29.64    9.11
  -6   4  -2   48.51   10.13
   6  -4   2   47.21   10.13
  -6   4  -3 1930.10   49.16
   6  -4   3 1945.90   49.25
  -6   4  -4  187.53   12.45
   6  -4   4  190.69   11.34
  -6   4  -5 1169.03   32.15
   6  -4   5 1174.60   31.97
  -6   4  -6  187.62   13.38
   6  -4   6  177.40   11.62
  -6   4  -7  444.38   17.66
   6  -4   7  457.85   17.10
  -6   4  -8  500.14   18.49
   6  -4   8  523.93   18.77
  -6   4  -9  148.31   12.27
   6  -4   9  166.43   12.08
  -6   4 -10   30.29   10.31
   6  -4  10   12.64    9.48
  -6   4 -11  738.49   23.05
   6  -4  11  704.95   22.21
  -6   4 -12   95.72   10.69
  -6   4 -12   84.84   10.97
  -6   4 -13   95.34   12.55
  -6   4 -13  107.80   12.17
  -6   4 -14   43.58   11.43
  -6   4 -14   64.40   12.36
  -6   4 -15  132.24   12.45
  -6   4 -15  132.89   10.97
  -6   4 -16  100.55   11.80
  -6   4 -16  116.44   12.08
  -6   4 -17  -11.80    9.94
  -6   4 -17   -1.30    9.29
  -6   4 -18    2.60    9.94
  -6   4 -18    9.66    8.83
  -6   3  18  178.70   10.50
   6  -3 -18  207.69   11.89
  -6   3  17  297.18   13.66
   6  -3 -17  291.98   13.29
  -6   3  16  328.22   15.15
   6  -3 -16  292.63   14.12
  -6   3  15  272.18   13.57
   6  -3 -15  271.35   13.66
  -6   3  14   65.42   10.87
   6  -3 -14   36.71   10.41
  -6   3  13  161.79   12.08
   6  -3 -13  183.35   12.08
  -6   3  12   31.78    9.76
   6  -3 -12   25.18    9.94
  -6   3  11  248.30   13.01
   6  -3 -11  281.29   13.94
  -6   3  10   30.67    9.48
   6  -3 -10   12.92    9.85
  -6   3   9   39.87   10.13
   6  -3  -9   63.66   10.78
  -6   3   8  117.65   11.15
   6  -3  -8   95.06   11.89
  -6   3   7  626.61   20.17
   6  -3  -7  597.52   19.89
  -6   3   6 1033.35   29.27
   6  -3  -6  994.32   28.25
  -6   3   5  638.60   20.63
   6  -3  -5  583.68   19.89
  -6   3   4  289.93   13.75
   6  -3  -4  306.10   14.03
  -6   3   3   36.52    9.76
   6  -3  -3   44.88    9.76
  -6   3   2  113.93    9.66
   6  -3  -2   96.18   10.97
  -6   3   1  115.69   10.41
   6  -3  -1  112.16   10.41
  -6   3   0  266.61   13.20
   6  -3   0  288.91   13.47
  -6   3  -1  496.98   17.38
   6  -3   1  484.62   17.75
  -6   3  -2 4215.19   99.90
   6  -3   2 4200.32   99.90
  -6   3  -3  285.47   13.66
   6  -3   3  286.68   13.47
  -6   3  -4  875.75   25.65
   6  -3   4  764.89   22.95
  -6   3  -5  909.20   26.86
   6  -3   5  927.88   26.58
  -6   3  -6  684.69   22.49
   6  -3   6  676.23   21.37
  -6   3  -7  104.45   11.06
   6  -3   7   83.17   10.41
  -6   3  -8   21.09   11.15
   6  -3   8    9.94    9.01
  -6   3  -9  642.22   21.75
   6  -3   9  630.23   20.91
  -6   3 -10 1654.11   43.40
   6  -3  10 1667.12   43.21
  -6   3 -11  904.09   26.67
   6  -3  11  906.79   26.48
  -6   3 -12  613.97   20.26
  -6   3 -12  587.86   20.17
  -6   3 -13  308.61   14.22
  -6   3 -13  307.87   15.61
  -6   3 -14   60.12   11.43
  -6   3 -14   52.04   10.50
  -6   3 -15   45.53   10.97
  -6   3 -15   31.87   10.31
  -6   3 -16    7.99    9.29
  -6   3 -16   10.59    9.66
  -6   3 -17    2.32    9.66
  -6   3 -17    5.95    9.57
  -6   2  19  401.17   13.47
   6  -2 -19  381.00   14.68
  -6   2  18  518.26   17.10
   6  -2 -18  528.20   18.21
  -6   2  17  249.32   12.73
   6  -2 -17  246.35   13.57
  -6   2  16  163.65   11.52
   6  -2 -16  180.09   12.64
  -6   2  15   78.62   10.13
   6  -2 -15   78.52   10.87
  -6   2  14   16.08   10.50
   6  -2 -14    4.00   10.04
  -6   2  13  325.80   15.43
   6  -2 -13  340.86   15.24
  -6   2  12  809.86   24.35
   6  -2 -12  773.06   23.32
  -6   2  11  368.09   15.33
   6  -2 -11  376.08   15.70
  -6   2  10  410.74   15.89
   6  -2 -10  429.60   16.91
  -6   2   9 1785.14   45.44
   6  -2  -9 1773.06   45.53
  -6   2   8  955.29   27.04
   6  -2  -8  991.54   28.16
  -6   2   7  791.65   24.07
   6  -2  -7  793.42   23.88
  -6   2   6   25.93    9.11
   6  -2  -6   39.31    9.94
  -6   2   5   81.59   10.69
   6  -2  -5   84.10   10.59
  -6   2   4   20.07    8.92
   6  -2  -4   51.67    9.85
  -6   2   3   33.92    9.20
   6  -2  -3   35.03    9.29
  -6   2   2  248.12   13.29
   6  -2  -2  226.93   12.36
  -6   2   1  777.25   23.70
   6  -2  -1  786.26   23.32
  -6   2   0  571.78   19.14
   6  -2   0  582.28   19.33
  -6   2  -1  352.20   15.33
   6  -2   1  340.21   14.78
  -6   2  -2  354.15   15.24
   6  -2   2  367.16   15.24
  -6   2  -3 2076.00   52.04
   6  -2   3 2070.43   51.76
  -6   2  -4  856.98   25.09
   6  -2   4  839.51   24.44
  -6   2  -5   37.54   10.41
   6  -2   5   11.24    9.20
  -6   2  -6  159.65   12.64
   6  -2   6  150.45   11.62
  -6   2  -7   38.94   10.22
   6  -2   7   50.92   10.50
  -6   2  -8  347.08   14.87
   6  -2   8  344.76   14.87
  -6   2  -9 1345.59   35.59
   6  -2   9 1322.36   35.78
  -6   2 -10 1541.67   40.42
   6  -2  10 1448.74   38.38
  -6   2 -11  161.04   12.36
  -6   2 -11  130.84   11.43
  -6   2 -12  360.47   15.98
  -6   2 -12  320.14   14.78
  -6   2 -13  209.46   13.66
  -6   2 -13  193.20   12.82
  -6   2 -14    5.67   10.78
  -6   2 -14   29.46   10.87
  -6   2 -15   16.17    9.39
  -6   2 -15   33.64   10.97
  -6   2 -16  184.55   12.73
  -6   2 -16  212.90   12.73
  -6   2 -17  217.64   11.62
  -6   2 -17  213.83   12.08
  -6   1  19  138.28    9.20
   6  -1 -19  133.26   10.22
  -6   1  18   55.38    8.18
   6  -1 -18   78.34   10.59
  -6   1  17   20.26    9.57
   6  -1 -17   18.59    9.85
  -6   1  16   28.16   10.22
   6  -1 -16   29.92   10.04
  -6   1  15  216.43   13.57
   6  -1 -15  210.02   13.20
  -6   1  14 1552.82   39.87
   6  -1 -14 1492.42   39.31
  -6   1  13  471.89   16.82
   6  -1 -13  468.54   17.75
  -6   1  12 1016.63   28.71
   6  -1 -12 1006.40   28.81
  -6   1  11 1077.03   30.67
   6  -1 -11 1103.98   31.04
  -6   1  10 1793.50   46.56
   6  -1 -10 1760.98   45.35
  -6   1   9  596.22   20.26
   6  -1  -9  607.28   20.72
  -6   1   8    6.88    9.76
   6  -1  -8   15.15    9.57
  -6   1   7  208.81   12.36
   6  -1  -7  228.04   13.29
  -6   1   6   10.59    8.64
   6  -1  -6    6.69    9.85
  -6   1   5  541.86   18.59
   6  -1  -5  531.45   18.40
  -6   1   4  459.06   16.82
   6  -1  -4  462.13   16.91
  -6   1   3  385.09   15.15
   6  -1  -3  356.93   15.05
  -6   1   2  461.11   16.45
   6  -1  -2  479.04   17.10
  -6   1   1 1542.60   39.68
   6  -1  -1 1621.59   41.63
  -6   1   0  216.24   12.27
   6  -1   0  202.02   11.89
  -6   1  -1 1055.66   29.18
   6  -1   1 1022.20   28.53
  -6   1  -2  176.47   11.34
   6  -1   2  173.31   11.71
  -6   1  -3    0.65    7.81
   6  -1   3    2.97    8.27
  -6   1  -4   14.87    9.29
   6  -1   4   -3.72    8.18
  -6   1  -5   25.09    9.57
   6  -1   5   14.50    9.29
  -6   1  -6  180.09   12.82
   6  -1   6  194.87   11.43
  -6   1  -7 2676.31   65.61
   6  -1   7 2568.52   63.28
  -6   1  -8 1661.54   43.40
   6  -1   8 1706.15   43.95
  -6   1  -9 1032.42   29.64
   6  -1   9 1070.52   30.02
  -6   1 -10   62.63   11.62
   6  -1  10   49.53    9.48
  -6   1 -11  460.18   17.84
  -6   1 -11  469.10   18.49
  -6   1 -12  130.47   12.27
  -6   1 -12  122.01   11.80
  -6   1 -13   57.89   11.24
  -6   1 -13   38.10   10.50
  -6   1 -14  171.82   12.64
  -6   1 -14  182.70   12.64
  -6   1 -15  186.69   12.08
  -6   1 -15  148.22   11.80
  -6   1 -16   14.22    9.11
  -6   1 -16   12.45   10.04
  -6   0  20   93.49    8.92
   6   0 -20   87.35   10.69
  -6   0  19   38.84    9.39
   6   0 -19   23.70    9.94
  -6   0  18    9.39    9.11
   6   0 -18    9.11    9.94
  -6   0  17   29.37   10.13
   6   0 -17   38.75   10.13
  -6   0  16   28.16    9.57
   6   0 -16   26.76   10.13
  -6   0  15  480.44   17.75
   6   0 -15  491.59   18.12
  -6   0  14   68.21   10.97
   6   0 -14   82.24   10.78
  -6   0  13  529.13   18.68
   6   0 -13  508.22   18.49
  -6   0  12  379.33   15.61
   6   0 -12  356.75   15.43
  -6   0  11  502.37   17.47
   6   0 -11  472.54   18.03
  -6   0  10   27.88    9.29
   6   0 -10   29.37   10.31
  -6   0   9    3.90    8.92
   6   0  -9    7.16    9.94
  -6   0   8  331.01   14.40
   6   0  -8  332.22   14.87
  -6   0   7  251.18   12.36
   6   0  -7  289.10   14.12
  -6   0   6  280.27   12.82
   6   0  -6  250.53   13.01
  -6   0   5  883.37   25.83
   6   0  -5  861.44   24.90
  -6   0   4  560.45   19.14
   6   0  -4  553.10   18.21
  -6   0   3  774.55   23.60
   6   0  -3  705.78   21.75
  -6   0   2 1970.99   49.90
   6   0  -2 1987.72   49.72
  -6   0   1   12.45    9.85
   6   0  -1   12.82    8.27
  -6   0   0  118.76   11.15
   6   0   0  118.76   10.69
  -6   0  -1   27.60    9.11
   6   0   1   28.53    9.48
  -6   0  -2  131.96   11.06
   6   0   2  136.51   11.15
  -6   0  -3   -8.92    9.20
   6   0   3    2.51    8.18
  -6   0  -4  212.90   12.82
   6   0   4  202.67   12.08
  -6   0  -5  740.07   22.86
   6   0   5  718.98   22.21
  -6   0  -6 1057.52   29.37
   6   0   6 1013.84   28.81
  -6   0  -7   20.54    9.29
   6   0   7   35.50   10.13
  -6   0  -8  569.27   19.61
   6   0   8  607.47   20.44
  -6   0  -9  316.88   14.12
   6   0   9  321.72   14.40
  -6   0 -10   84.47   10.50
  -6   0 -10   81.96   11.15
  -6   0 -11   19.33    9.76
  -6   0 -11   31.22   10.41
  -6   0 -12   96.37   11.62
  -6   0 -12  109.93   11.15
  -6   0 -13  125.73   11.71
  -6   0 -13  131.49   11.80
  -6   0 -14  255.74   13.47
  -6   0 -14  247.00   13.38
  -6   0 -15  639.06   19.79
  -6   0 -15  654.58   20.63
  -6  -1  20    2.60    8.27
   6   1 -20    7.71    9.66
  -6  -1  19   25.09    7.99
   6   1 -19   10.78    9.94
  -6  -1  18   87.54    9.29
   6   1 -18   73.13   11.06
  -6  -1  17  350.80   14.12
   6   1 -17  390.11   16.17
  -6  -1  16  747.14   22.95
   6   1 -16  744.91   23.05
  -6  -1  15  310.10   13.85
   6   1 -15  288.45   13.94
  -6  -1  14  446.05   16.17
   6   1 -14  408.32   15.61
  -6  -1  13  112.26   11.24
   6   1 -13   95.72   10.87
  -6  -1  12   99.43   10.97
   6   1 -12  104.64   11.52
  -6  -1  11   57.34   10.78
   6   1 -11   64.96   10.59
  -6  -1  10  151.75   11.80
   6   1 -10  165.04   11.71
  -6  -1   9  442.15   17.56
   6   1  -9  437.13   17.28
  -6  -1   8  697.14   22.21
   6   1  -8  725.30   22.40
  -6  -1   7  170.80   11.34
   6   1  -7  183.72   12.17
  -6  -1   6  997.11   28.34
   6   1  -6  946.00   26.86
  -6  -1   5 1626.23   42.19
   6   1  -5 1592.78   40.89
  -6  -1   4  883.28   25.65
   6   1  -4  912.18   26.11
  -6  -1   3  729.30   22.30
   6   1  -3  754.39   22.58
  -6  -1   2    2.60    8.55
   6   1  -2    5.58    7.99
  -6  -1   1  285.47   12.92
   6   1  -1  290.12   13.29
  -6  -1   0   69.70    9.20
   6   1   0   69.79    9.01
  -6  -1  -1  221.45   11.34
   6   1   1  212.15   11.52
  -6  -1  -2   61.70    8.64
   6   1   2   85.03    9.48
  -6  -1  -3  227.49   11.71
   6   1   3  246.63   12.36
  -6  -1  -4  799.36   23.60
   6   1   4  743.33   22.86
  -6  -1  -5  470.77   16.82
   6   1   5  457.39   16.54
  -6  -1  -6  117.09   11.15
   6   1   6   88.10   10.31
  -6  -1  -7   63.00   11.99
   6   1   7   61.70   10.22
  -6  -1  -8   25.37   10.04
   6   1   8   61.33    9.76
  -6  -1  -9   13.57   10.78
  -6  -1  -9    4.74    9.94
  -6  -1 -10   13.10   10.22
  -6  -1 -10   -9.20    9.94
  -6  -1 -11    9.39   10.87
  -6  -1 -11   11.52    9.85
  -6  -1 -12  290.03   14.68
  -6  -1 -12  265.77   13.01
  -6  -1 -13  461.85   16.36
  -6  -1 -13  475.23   16.82
  -6  -1 -14  233.34   12.36
  -6  -1 -14  231.95   12.45
  -6  -1 -15    3.90   10.04
  -6  -1 -15   -1.95    8.92
  -6  -2  20   16.82    8.64
   6   2 -20   33.55   10.04
  -6  -2  19  408.23   15.33
   6   2 -19  384.07   15.70
  -6  -2  18  759.03   22.95
   6   2 -18  764.14   23.23
  -6  -2  17  313.91   14.40
   6   2 -17  339.19   15.33
  -6  -2  16  379.98   16.17
   6   2 -16  363.25   15.24
  -6  -2  15  350.15   15.52
   6   2 -15  342.25   14.87
  -6  -2  14  157.70   12.27
   6   2 -14  136.14   11.43
  -6  -2  13    1.39    9.76
   6   2 -13   -5.85    9.48
  -6  -2  12   40.89    9.76
   6   2 -12   13.20   10.59
  -6  -2  11  738.40   22.40
   6   2 -11  742.49   22.95
  -6  -2  10  486.48   16.91
   6   2 -10  518.35   18.12
  -6  -2   9  507.20   17.56
   6   2  -9  490.47   17.75
  -6  -2   8   49.81    8.83
   6   2  -8   67.37   10.41
  -6  -2   7  297.65   12.55
   6   2  -7  311.21   13.75
  -6  -2   6  332.31   14.22
   6   2  -6  306.66   13.47
  -6  -2   5  250.07   12.36
   6   2  -5  234.36   12.17
  -6  -2   4   98.97    9.94
   6   2  -4   90.05    9.57
  -6  -2   3  149.15   10.69
   6   2  -3  153.98   10.22
  -6  -2   2  122.57    9.76
   6   2  -2  128.61   10.04
  -6  -2   1 2602.90   63.84
   6   2  -1 2531.35   61.89
  -6  -2   0 2019.31   51.02
   6   2   0 1990.51   49.72
  -6  -2  -1  970.16   27.97
   6   2   1  932.99   26.21
  -6  -2  -2 1328.86   35.59
   6   2   2 1309.35   34.75
  -6  -2  -3 3070.32   74.53
   6   2   3 3071.25   74.34
  -6  -2  -4  748.35   23.79
   6   2   4  738.77   22.67
  -6  -2  -5   19.24    9.85
   6   2   5   -4.55    8.92
  -6  -2  -6  286.68   15.33
   6   2   6  272.09   13.20
  -6  -2  -7   66.26   10.13
   6   2   7   78.99   10.04
  -6  -2  -8    5.85    9.39
  -6  -2  -8   -1.86    9.39
  -6  -2  -9   67.84   10.31
  -6  -2  -9   83.63   11.06
  -6  -2 -10  232.32   13.57
  -6  -2 -10  268.47   14.03
  -6  -2 -11  270.14   14.12
  -6  -2 -11  309.26   13.85
  -6  -2 -12   13.47   10.41
  -6  -2 -12   37.54    9.20
  -6  -2 -13   28.16    9.48
  -6  -2 -13   33.55    9.29
  -6  -2 -14   27.60    9.85
  -6  -2 -14   22.77    9.57
  -6  -3  20  238.64   11.80
   6   3 -20  239.20   12.82
  -6  -3  19  359.07   14.78
   6   3 -19  386.11   15.80
  -6  -3  18   42.28    9.57
   6   3 -18   53.25   10.41
  -6  -3  17  531.64   18.68
   6   3 -17  503.85   17.94
  -6  -3  16  185.48   11.80
   6   3 -16  187.25   11.99
  -6  -3  15    5.58    9.20
   6   3 -15    0.65    9.20
  -6  -3  14  336.40   14.68
   6   3 -14  312.14   14.40
  -6  -3  13  226.93   13.29
   6   3 -13  250.44   13.47
  -6  -3  12  425.42   17.75
   6   3 -12  443.54   17.01
  -6  -3  11  378.03   15.98
   6   3 -11  358.79   14.87
  -6  -3  10 1151.37   32.34
   6   3 -10 1108.63   30.48
  -6  -3   9 1038.00   29.83
   6   3  -9 1100.26   30.67
  -6  -3   8  434.90   16.63
   6   3  -8  484.80   17.28
  -6  -3   7  126.10   10.50
   6   3  -7  113.00    9.85
  -6  -3   6  244.68   13.20
   6   3  -6  279.71   12.73
  -6  -3   5    2.04    9.01
   6   3  -5   13.47    8.27
  -6  -3   4   36.80    9.76
   6   3  -4   31.60    8.18
  -6  -3   3  973.88   27.88
   6   3  -3  942.28   26.30
  -6  -3   2  761.73   23.32
   6   3  -2  769.72   22.49
  -6  -3   1  535.63   18.40
   6   3  -1  524.30   17.66
  -6  -3   0  413.16   15.89
   6   3   0  415.39   15.52
  -6  -3  -1  998.04   27.69
   6   3   1  939.50   26.67
  -6  -3  -2 1705.22   43.12
   6   3   2 1688.49   43.30
  -6  -3  -3   -9.11    8.46
   6   3   3    5.11    8.46
  -6  -3  -4   22.86    8.74
   6   3   4   18.12    8.27
  -6  -3  -5  229.25   12.73
   6   3   5  233.25   12.55
  -6  -3  -6   69.60   11.34
   6   3   6   85.31    9.94
  -6  -3  -7  858.93   26.11
  -6  -3  -8  913.66   26.58
  -6  -3  -8  944.14   27.04
  -6  -3  -9  543.07   18.86
  -6  -3  -9  552.18   18.96
  -6  -3 -10  329.15   14.50
  -6  -3 -10  311.86   14.40
  -6  -3 -11  148.68   11.34
  -6  -3 -11  154.26   12.17
  -6  -3 -12   80.38    9.94
  -6  -3 -12   67.47    9.76
  -6  -3 -13   70.81    9.85
  -6  -3 -13   62.35    9.76
  -6  -4  20  140.69   10.04
   6   4 -20  169.87   11.52
  -6  -4  19    5.67    8.08
   6   4 -19   10.78    9.39
  -6  -4  18   86.79   10.59
   6   4 -18   90.88   10.78
  -6  -4  17    8.83    9.76
   6   4 -17    1.86    9.57
  -6  -4  16   36.61   10.50
   6   4 -16   19.79    9.66
  -6  -4  15  346.62   15.05
   6   4 -15  370.41   16.36
  -6  -4  14  629.31   20.26
   6   4 -14  604.03   20.26
  -6  -4  13  700.95   21.19
   6   4 -13  723.35   22.67
  -6  -4  12  314.84   13.85
   6   4 -12  315.77   14.12
  -6  -4  11  156.86   10.59
   6   4 -11  146.55   11.52
  -6  -4  10  217.82   12.17
   6   4 -10  226.19   12.64
  -6  -4   9  112.91   10.31
   6   4  -9  111.33   11.06
  -6  -4   8   39.49    8.55
   6   4  -8   35.31    9.11
  -6  -4   7   86.89    9.29
   6   4  -7   88.65    9.39
  -6  -4   6  301.27   12.92
   6   4  -6  302.66   13.47
  -6  -4   5   37.45    8.18
   6   4  -5   31.41    8.46
  -6  -4   4  315.40   13.01
   6   4  -4  338.91   13.75
  -6  -4   3   84.29    9.39
   6   4  -3   62.35    8.46
  -6  -4   2  681.53   20.63
   6   4  -2  651.33   20.54
  -6  -4   1 1899.44   47.39
   6   4  -1 1842.75   46.46
  -6  -4   0 1042.65   28.62
   6   4   0 1013.84   27.88
  -6  -4  -1  216.06   12.08
   6   4   1  226.00   11.71
  -6  -4  -2   67.84   11.15
   6   4   2   88.93    9.48
  -6  -4  -3   28.44    9.11
   6   4   3   37.73    8.92
  -6  -4  -4  387.79   15.24
   6   4   4  424.03   15.70
  -6  -4  -5  243.75   11.89
   6   4   5  231.76   11.89
  -6  -4  -6  320.04   13.94
  -6  -4  -7  233.34   14.59
  -6  -4  -7  228.04   13.10
  -6  -4  -8  490.75   17.84
  -6  -4  -8  495.40   17.66
  -6  -4  -9  476.90   17.66
  -6  -4  -9  474.39   17.19
  -6  -4 -10  131.49   11.62
  -6  -4 -10  169.31   11.71
  -6  -4 -11  -23.23   10.22
  -6  -4 -11    3.16    9.85
  -6  -4 -12   29.64    9.76
  -6  -4 -12   48.88   10.41
  -6  -5  20  -17.56    9.76
   6   5 -20   -1.30    9.20
  -6  -5  19   -1.02    9.66
   6   5 -19   -7.16    9.57
  -6  -5  18   17.47    9.48
   6   5 -18    7.99    9.57
  -6  -5  17    9.11    9.76
   6   5 -17   12.17   10.50
  -6  -5  16  184.65   12.82
   6   5 -16  205.09   12.92
  -6  -5  15  800.66   24.44
   6   5 -15  848.24   25.28
  -6  -5  14  458.88   17.56
   6   5 -14  486.10   17.94
  -6  -5  13  137.81   12.64
   6   5 -13  117.46   10.50
  -6  -5  12   61.70   10.59
   6   5 -12   75.92    9.94
  -6  -5  11  301.36   13.75
   6   5 -11  307.31   13.57
  -6  -5  10   -3.44    8.92
   6   5 -10   -1.02    9.11
  -6  -5   9    9.76    9.29
   6   5  -9   10.78    8.92
  -6  -5   8   35.59    9.29
   6   5  -8   24.81    8.46
  -6  -5   7  233.43   12.36
   6   5  -7  220.89   12.08
  -6  -5   6   47.21    9.48
   6   5  -6   47.95    8.74
  -6  -5   5  945.07   26.76
   6   5  -5  850.57   24.35
  -6  -5   4  329.61   14.03
   6   5  -4  355.35   14.03
  -6  -5   3  206.02   11.99
   6   5  -3  203.79   11.24
  -6  -5   2  296.44   12.82
   6   5  -2  312.89   12.82
  -6  -5   1  215.13   11.06
   6   5  -1  208.62   11.24
  -6  -5   0   54.36    8.46
   6   5   0   48.14    8.18
  -6  -5  -1    5.67    8.08
   6   5   1  -12.64    8.46
  -6  -5  -2  179.16   10.50
   6   5   2  182.88   11.06
  -6  -5  -3  545.58   18.86
   6   5   3  538.89   18.03
  -6  -5  -4  278.78   13.75
   6   5   4  273.39   12.92
  -6  -5  -5   81.40    9.94
  -6  -5  -5   92.56    9.85
  -6  -5  -6  554.68   18.86
  -6  -5  -6  511.10   18.03
  -6  -5  -7  463.34   17.75
  -6  -5  -7  492.79   17.56
  -6  -5  -8  132.79   12.92
  -6  -5  -8  126.38   11.15
  -6  -5  -9   10.04   10.31
  -6  -5  -9    9.20    9.94
  -6  -5 -10   22.77   10.69
  -6  -5 -10   47.21    9.76
  -6  -5 -11   17.47    9.85
  -6  -5 -11    4.65    9.76
  -6  -6  20   16.91    9.29
   6   6 -20    5.20    9.94
  -6  -6  19   93.95   10.41
   6   6 -19  100.08   10.87
  -6  -6  18  251.09   12.92
   6   6 -18  243.19   13.20
  -6  -6  17  232.32   12.73
   6   6 -17  242.35   14.12
  -6  -6  16  651.05   20.63
   6   6 -16  692.59   22.02
  -6  -6  15  359.72   15.33
   6   6 -15  337.42   14.68
  -6  -6  14  374.68   15.61
   6   6 -14  356.28   14.40
  -6  -6  13  153.33   11.99
   6   6 -13  151.38   11.15
  -6  -6  12   -3.53    8.55
   6   6 -12   -1.30    9.29
  -6  -6  11  313.17   13.29
   6   6 -11  348.48   14.50
  -6  -6  10  243.66   11.89
   6   6 -10  239.75   12.27
  -6  -6   9  109.19    9.57
   6   6  -9   93.11    9.29
  -6  -6   8  294.39   12.55
   6   6  -8  320.14   13.57
  -6  -6   7 1174.60   30.94
   6   6  -7 1231.29   32.52
  -6  -6   6  554.41   17.47
   6   6  -6  566.58   18.12
  -6  -6   5   38.01    8.27
   6   6  -5   52.41    8.36
  -6  -6   4   24.25    7.53
   6   6  -4   35.59    8.18
  -6  -6   3  346.15   13.75
   6   6  -3  347.92   13.29
  -6  -6   2  381.00   14.78
   6   6  -2  403.77   14.68
  -6  -6   1   20.91    8.18
   6   6  -1   19.79    7.99
  -6  -6   0   16.91    8.36
   6   6   0   36.52    7.99
  -6  -6  -1  419.10   15.52
   6   6   1  427.37   15.15
  -6  -6  -2   28.25    8.55
   6   6   2   46.37    8.55
  -6  -6  -3  558.49   19.05
   6   6   3  511.19   16.82
  -6  -6  -4  583.86   19.42
  -6  -6  -4  568.34   18.86
  -6  -6  -5  486.57   17.19
  -6  -6  -5  454.51   16.63
  -6  -6  -6   90.60   11.06
  -6  -6  -6  114.58   11.62
  -6  -6  -7    1.39   10.04
  -6  -6  -7   14.03    9.66
  -6  -6  -8   -1.39    9.20
  -6  -6  -8   -8.36   10.78
  -6  -6  -9    6.78    9.76
  -6  -6  -9   12.73    9.48
  -6  -7  19  217.73   12.55
   6   7 -19  245.14   13.38
  -6  -7  18   92.37   10.69
   6   7 -18  111.42   11.43
  -6  -7  17  115.32   11.24
   6   7 -17  112.26   11.71
  -6  -7  16   79.92   10.78
   6   7 -16   57.15   10.04
  -6  -7  15   96.83   11.24
   6   7 -15   88.19   10.59
  -6  -7  14   34.66   10.87
   6   7 -14   29.27    9.57
  -6  -7  13   15.61   10.59
   6   7 -13    8.27    9.94
  -6  -7  12   79.82   10.41
   6   7 -12   96.09    9.76
  -6  -7  11  225.81   11.89
   6   7 -11  248.30   12.36
  -6  -7  10 1329.79   34.94
   6   7 -10 1292.62   33.83
  -6  -7   9 1437.59   37.26
   6   7  -9 1428.30   36.89
  -6  -7   8 1516.58   38.94
   6   7  -8 1464.54   37.64
  -6  -7   7   44.70    8.64
   6   7  -7   34.01    8.08
  -6  -7   6   54.55    8.83
   6   7  -6   50.37    8.27
  -6  -7   5  197.94   10.97
   6   7  -5  207.69   10.69
  -6  -7   4    2.14    7.43
   6   7  -4   -1.58    6.97
  -6  -7   3  193.75   10.69
   6   7  -3  217.45   10.69
  -6  -7   2 1039.86   28.25
   6   7  -2 1019.41   27.79
  -6  -7   1  128.24   10.13
   6   7  -1  167.46   10.31
  -6  -7   0  190.13   10.78
   6   7   0  173.22   10.22
  -6  -7  -1   77.97    8.83
   6   7   1   91.44    9.01
  -6  -7  -2  637.95   20.17
   6   7   2  635.90   19.51
  -6  -7  -3  181.86   11.52
  -6  -7  -3  179.07   11.52
  -6  -7  -4  100.83   10.50
  -6  -7  -4  115.69   10.97
  -6  -7  -5   -6.60   10.04
  -6  -7  -5   12.82    9.57
  -6  -7  -6   22.02    9.76
  -6  -7  -6   -2.04    9.11
  -6  -7  -7   -9.01   10.04
  -6  -7  -7    8.46    9.29
  -6  -7  -8   19.61   10.41
  -6  -7  -8   10.78    9.29
  -6  -8  19  125.27   10.87
   6   8 -19  118.39   11.99
  -6  -8  18  127.31   10.59
   6   8 -18   95.90   10.87
  -6  -8  17   27.69    9.94
   6   8 -17   21.28    9.76
  -6  -8  16   12.45   10.41
   6   8 -16    1.67    9.29
  -6  -8  15   14.96    9.94
   6   8 -15   13.94    9.48
  -6  -8  14   97.20   10.97
   6   8 -14  111.33   11.43
  -6  -8  13  176.19   12.73
   6   8 -13  212.15   11.89
  -6  -8  12  308.43   14.40
   6   8 -12  261.59   12.27
  -6  -8  11  727.34   21.93
   6   8 -11  733.66   21.84
  -6  -8  10  240.68   12.08
   6   8 -10  232.60   11.89
  -6  -8   9  581.26   18.21
   6   8  -9  593.06   18.59
  -6  -8   8   96.74    9.39
   6   8  -8   94.79    8.83
  -6  -8   7   28.62    8.08
   6   8  -7   26.11    7.62
  -6  -8   6   -3.44    7.99
   6   8  -6    1.02    7.62
  -6  -8   5  141.44    9.39
   6   8  -5  160.95    9.66
  -6  -8   4  209.37   11.34
   6   8  -4  223.86   10.59
  -6  -8   3  541.77   17.47
   6   8  -3  559.98   17.28
  -6  -8   2  477.74   16.26
   6   8  -2  492.14   16.08
  -6  -8   1  860.04   24.25
   6   8  -1  889.97   24.72
  -6  -8   0   24.16    8.55
   6   8   0   28.71    8.36
  -6  -8  -1   61.70    9.29
  -6  -8  -2  116.35   10.69
  -6  -8  -2  113.74   10.41
  -6  -8  -3   90.51   10.13
  -6  -8  -3   57.34   10.04
  -6  -8  -4   51.11   10.50
  -6  -8  -4   53.34    9.66
  -6  -8  -5   11.24   11.62
  -6  -8  -5   10.31    8.92
  -6  -9  18   -0.09    9.66
   6   9 -18   27.41    9.57
  -6  -9  17   -0.46    9.85
   6   9 -17   18.21   10.04
  -6  -9  16   -4.09   10.04
   6   9 -16   18.59    9.94
  -6  -9  15  149.24   11.52
   6   9 -15  136.70   10.97
  -6  -9  14   76.67   10.87
   6   9 -14   65.42   10.50
  -6  -9  13  143.20   11.06
   6   9 -13  135.12   10.59
  -6  -9  12  317.25   14.59
   6   9 -12  302.66   13.29
  -6  -9  11  245.89   13.10
   6   9 -11  258.62   12.27
  -6  -9  10  415.57   15.33
   6   9 -10  409.16   14.68
  -6  -9   9    8.18    8.64
   6   9  -9   19.51    8.27
  -6  -9   8   68.58    9.11
   6   9  -8   59.94    8.27
  -6  -9   7   97.39    9.76
   6   9  -7   90.70    8.74
  -6  -9   6   63.47    9.11
   6   9  -6   79.36    7.90
  -6  -9   5  176.10   10.87
   6   9  -5  184.93   10.13
  -6  -9   4  592.78   18.96
   6   9  -4  551.34   17.19
  -6  -9   3  583.21   18.96
   6   9  -3  558.68   17.38
  -6  -9   2   70.62    8.74
   6   9  -2   75.09    8.64
  -6  -9   1   37.26    9.20
   6   9  -1   34.85    7.71
  -6  -9   0  143.39   11.43
  -6  -9   0  140.97   10.31
  -6  -9  -1  127.87   11.15
  -6  -9  -1  109.75   10.04
  -6  -9  -2   39.87   10.50
  -6  -9  -2   31.22    9.01
  -6  -9  -3  154.72   11.89
  -6  -9  -3  132.51   10.13
  -6 -10  17   88.19   11.62
   6  10 -17   74.06   10.50
  -6 -10  16   82.98   10.50
   6  10 -16  103.52   10.87
  -6 -10  15   88.84   11.89
   6  10 -15   84.84   10.69
  -6 -10  14  184.83   13.47
   6  10 -14  167.36   11.71
  -6 -10  13  351.92   16.26
   6  10 -13  365.48   14.68
  -6 -10  12  273.30   14.40
   6  10 -12  304.90   13.20
  -6 -10  11    7.90   10.59
   6  10 -11   -0.56    8.83
  -6 -10  10  -15.05   10.59
   6  10 -10   14.12    8.18
  -6 -10   9    6.41   10.69
   6  10  -9   11.89    8.18
  -6 -10   8   63.00   10.41
   6  10  -8   81.40    8.18
  -6 -10   7  215.59   11.80
   6  10  -7  186.51    9.76
  -6 -10   6  524.20   17.38
   6  10  -6  471.89   15.52
  -6 -10   5  227.77   11.80
   6  10  -5  225.44   10.22
  -6 -10   4  197.66   11.52
   6  10  -4  217.08   10.59
  -6 -10   3   21.37    8.83
   6  10  -3   11.89    7.43
  -6 -10   2  197.19   12.17
  -6 -10   2  166.25   10.31
  -6 -10   1    0.19    9.85
  -6 -10   1    5.11    8.18
  -6 -10   0    8.27   10.41
  -6 -10   0    1.12    8.18
  -6 -10  -1   44.33    8.55
  -6 -10  -1   63.75   11.80
  -6 -10  -3    6.04   12.36
  -6 -10  -3    8.83   12.73
  -6 -11  15  275.72   14.50
   6  11 -15  300.25   13.38
  -6 -11  14   78.52   11.80
   6  11 -14   66.63    9.76
  -6 -11  13   11.99   12.27
   6  11 -13   -0.93    9.01
  -6 -11  12  103.61   13.29
   6  11 -12   80.94    9.85
  -6 -11  11   27.60   11.52
   6  11 -11   17.94    7.81
  -6 -11  10   38.47   11.34
   6  11 -10   36.24    8.18
  -6 -11   9  421.98   16.26
   6  11  -9  404.70   14.31
  -6 -11   8  549.85   18.59
   6  11  -8  547.53   17.66
  -6 -11   7  363.90   14.87
   6  11  -7  384.26   14.03
  -6 -11   6   35.22   10.13
   6  11  -6   39.03    8.64
  -6 -11   5  158.16   11.43
   6  11  -5  163.46    9.76
  -6 -11   4    2.79    7.34
  -6 -11   4    4.00    9.66
  -6 -11   3   13.38    7.71
  -6 -11   3   14.40    9.66
  -6 -11   2   37.54   10.41
  -6 -11   2   33.18    7.99
  -6 -11   1   32.06   10.69
  -6 -11   1   42.00    8.92
  -6 -12  13  148.22   15.98
   6  12 -13   39.22   11.52
  -6 -12  12  -55.11   11.80
   6  12 -12   23.05   10.31
  -6 -12  11   60.87   10.87
   6  12 -11   86.14    9.66
  -6 -12  10  224.14   12.55
   6  12 -10  224.23   11.71
  -6 -12   9  238.27   12.08
   6  12  -9  243.66   11.43
  -6 -12   8  167.92   11.62
   6  12  -8  183.62    9.57
  -6 -12   7   34.29    9.39
  -6 -12   6   19.42    8.64
  -6 -12   6   27.97    7.16
   7 -17   3   68.21    9.29
  -7  17  -4    7.25   11.34
   7 -17   4  102.68    9.39
  -7  17  -5   12.55   11.71
   7 -17   5   54.08    8.64
  -7  17  -6   -1.49   12.55
   7 -17   6   93.86    8.92
  -7  17  -7   -0.37   13.66
   7 -17   7   32.90    8.18
  -7  17  -8    8.83   17.28
   7 -17   8   78.43    8.64
  -7  17  -9   33.27   21.28
   7 -17   9    1.58    7.25
  -7  16   1   21.47   22.40
   7 -16  -1   16.82    7.34
  -7  16   0    1.77   13.29
   7 -16   0    0.37    7.34
  -7  16  -1   -0.19    9.29
   7 -16   1   69.32    9.11
  -7  16  -2   99.90    9.76
   7 -16   2   75.74    9.29
  -7  16  -3  109.93    9.76
   7 -16   3  115.14    9.66
  -7  16  -4   88.00    9.66
   7 -16   4   78.43    9.94
  -7  16  -5  168.66   10.41
   7 -16   5  156.30   10.87
  -7  16  -6   61.43    8.83
   7 -16   6   53.71    9.66
  -7  16  -7   58.27    9.39
   7 -16   7   59.38   10.31
  -7  16  -8   48.97    9.48
   7 -16   8   61.15    9.85
  -7  16  -9   42.10    9.11
   7 -16   9   24.07    9.94
  -7  16 -10   -6.88    8.83
   7 -16  10   64.68   10.22
  -7  16 -11   -7.43    9.39
   7 -16  11   88.75    9.57
   7 -15  -4   -8.08    9.01
  -7  15   3   11.43   10.22
   7 -15  -3    5.48    8.46
  -7  15   2   28.16    9.29
   7 -15  -2  142.74   10.69
  -7  15   1  401.63   15.24
   7 -15  -1  336.77   14.12
  -7  15   0  547.25   17.84
   7 -15   0  593.99   19.24
  -7  15  -1  555.89   18.03
   7 -15   1  548.18   18.12
  -7  15  -2  133.07   10.04
   7 -15   2  151.56   10.78
  -7  15  -3   27.23    8.64
   7 -15   3   10.04    9.29
  -7  15  -4   76.57    8.92
   7 -15   4   91.35    9.57
  -7  15  -5   60.59    8.74
   7 -15   5   37.54    8.83
  -7  15  -6   10.22    7.90
   7 -15   6   10.04    8.74
  -7  15  -7    2.97    8.08
   7 -15   7   -9.01    9.01
  -7  15  -8   43.49    8.18
   7 -15   8   51.11   10.04
  -7  15  -9  142.55   10.04
   7 -15   9  150.82   11.24
  -7  15 -10   80.48    8.92
   7 -15  10  111.05   10.78
  -7  15 -11   77.32    9.01
   7 -15  11   56.59   10.50
  -7  15 -12  232.88   11.52
   7 -15  12  195.24   10.97
  -7  15 -13  127.31   10.50
  -7  15 -13   92.46   10.59
  -7  15 -14    4.55    9.39
  -7  15 -14   29.09   10.50
  -7  14   6   20.07    9.94
   7 -14  -6    7.81    8.83
  -7  14   5  -25.83    9.94
   7 -14  -5   10.78    8.83
  -7  14   4   22.58    9.20
   7 -14  -4   17.66   10.22
  -7  14   3   35.41    8.74
   7 -14  -3   31.13    9.39
  -7  14   2  404.61   15.24
   7 -14  -2  392.71   15.33
  -7  14   1  418.55   14.96
   7 -14  -1  379.52   15.05
  -7  14   0  377.75   14.31
   7 -14   0  364.93   14.87
  -7  14  -1   55.94    8.55
   7 -14   1   57.34   10.22
  -7  14  -2  109.28    8.92
   7 -14   2  116.72   10.41
  -7  14  -3   69.60    8.74
   7 -14   3   75.27    9.29
  -7  14  -4   48.32    8.46
   7 -14   4   36.71    9.20
  -7  14  -5  117.46    9.48
   7 -14   5  107.05    9.94
  -7  14  -6   18.21    8.27
   7 -14   6   13.10    9.01
  -7  14  -7  154.82   10.04
   7 -14   7  166.43   11.34
  -7  14  -8  225.35   11.89
   7 -14   8  215.41   12.55
  -7  14  -9  289.10   12.64
   7 -14   9  293.93   13.38
  -7  14 -10   99.15    9.48
   7 -14  10  112.72   10.97
  -7  14 -11  104.45   10.13
   7 -14  11  113.46   10.87
  -7  14 -12   92.37    9.94
   7 -14  12   71.28   10.22
  -7  14 -13    6.23    9.76
  -7  14 -13   -1.49    8.74
  -7  14 -14    9.39    9.57
  -7  14 -14    7.34   10.04
  -7  14 -15   35.50   10.59
  -7  14 -15   63.47   10.41
  -7  13   7   18.68    8.55
   7 -13  -7   20.17    8.92
  -7  13   6    1.30    8.64
   7 -13  -6   12.55    9.76
  -7  13   5  152.96   10.41
   7 -13  -5  148.31   11.43
  -7  13   4   31.60    8.74
   7 -13  -4   48.79   10.13
  -7  13   3  407.67   15.05
   7 -13  -3  415.94   15.89
  -7  13   2  192.08   11.43
   7 -13  -2  162.25   11.43
  -7  13   1  119.23    9.85
   7 -13  -1  124.52   11.06
  -7  13   0   34.01    9.11
   7 -13   0   57.80    9.85
  -7  13  -1  119.32   10.22
   7 -13   1  120.16   10.59
  -7  13  -2   18.21    7.99
   7 -13   2    7.06    8.55
  -7  13  -3    7.43    7.71
   7 -13   3    7.71    9.11
  -7  13  -4  309.73   13.29
   7 -13   4  341.14   14.31
  -7  13  -5    4.09    8.08
   7 -13   5    8.08    8.46
  -7  13  -6  466.12   16.63
   7 -13   6  490.19   17.10
  -7  13  -7  418.92   15.61
   7 -13   7  377.94   15.61
  -7  13  -8  218.47   11.89
   7 -13   8  220.98   12.73
  -7  13  -9   79.17    9.11
   7 -13   9   64.86   10.41
  -7  13 -10  136.42   10.69
   7 -13  10  155.47   11.34
  -7  13 -11  150.82   11.15
   7 -13  11  126.29   10.87
  -7  13 -12    9.57    8.64
   7 -13  12   16.08    9.66
  -7  13 -13   -5.67    9.48
   7 -13  13    2.14    8.27
  -7  13 -14  121.36   10.78
  -7  13 -14  137.44   11.99
  -7  13 -15   -5.76    9.20
  -7  13 -15   -5.67    8.74
  -7  13 -16   15.80    9.20
  -7  13 -16   15.80   10.22
  -7  12   9   65.05    9.20
   7 -12  -9   75.09   10.50
  -7  12   8   84.29    9.29
   7 -12  -8   91.44   10.50
  -7  12   7  154.07   10.78
   7 -12  -7  123.04   11.99
  -7  12   6  517.89   17.38
   7 -12  -6  509.43   17.56
  -7  12   5  254.71   12.73
   7 -12  -5  212.25   12.08
  -7  12   4  519.93   17.47
   7 -12  -4  533.50   19.14
  -7  12   3  136.42   10.87
   7 -12  -3  178.14   11.89
  -7  12   2   68.67    9.20
   7 -12  -2   94.14   10.41
  -7  12   1   -2.32    9.01
   7 -12  -1  -10.31    8.92
  -7  12   0    5.30    8.64
   7 -12   0    2.88    8.36
  -7  12  -1  171.45   10.50
   7 -12   1  152.31   11.71
  -7  12  -2  113.56    9.39
   7 -12   2   89.86   10.78
  -7  12  -3  444.01   15.80
   7 -12   3  429.33   16.17
  -7  12  -4  256.57   12.36
   7 -12   4  267.91   12.92
  -7  12  -5 1118.85   30.48
   7 -12   5 1065.88   29.27
  -7  12  -6  367.99   15.05
   7 -12   6  394.38   15.61
  -7  12  -7   32.90    8.83
   7 -12   7   60.31   10.13
  -7  12  -8  247.37   12.92
   7 -12   8  261.78   13.75
  -7  12  -9  107.52   10.50
   7 -12   9  136.42   11.24
  -7  12 -10   -5.39    8.92
   7 -12  10   -0.09   10.04
  -7  12 -11  456.74   16.82
   7 -12  11  450.33   17.10
  -7  12 -12   92.46   10.50
   7 -12  12  112.16   11.06
  -7  12 -13  214.48   12.45
   7 -12  13  204.44   12.45
  -7  12 -14  134.93   11.24
  -7  12 -14  140.41   11.89
  -7  12 -15  131.77   11.06
  -7  12 -15  106.77   11.34
  -7  12 -16  112.54    9.94
  -7  12 -16   89.02   10.13
  -7  11  10   53.06    9.48
   7 -11 -10   73.69   10.50
  -7  11   9  107.80    9.85
   7 -11  -9   83.36   10.97
  -7  11   8  207.14   11.89
   7 -11  -8  163.55   11.89
  -7  11   7  429.33   15.98
   7 -11  -7  431.93   16.17
  -7  11   6  610.25   19.79
   7 -11  -6  618.06   20.17
  -7  11   5  398.29   15.70
   7 -11  -5  412.88   15.80
  -7  11   4   47.39    9.39
   7 -11  -4   35.96   10.31
  -7  11   3   12.08    9.11
   7 -11  -3   27.23   10.22
  -7  11   2  -13.20    8.27
   7 -11  -2   -9.20    8.83
  -7  11   1   -0.28    8.18
   7 -11  -1    0.84    9.20
  -7  11   0  164.95   10.97
   7 -11   0  142.74   11.06
  -7  11  -1  460.08   16.63
   7 -11   1  495.95   17.56
  -7  11  -2  396.80   15.24
   7 -11   2  416.59   16.17
  -7  11  -3  316.33   14.22
   7 -11   3  318.56   14.03
  -7  11  -4  298.30   13.10
   7 -11   4  317.44   14.03
  -7  11  -5  239.10   12.17
   7 -11   5  256.39   12.82
  -7  11  -6   20.35    8.46
   7 -11   6    3.53    8.83
  -7  11  -7   17.56    9.20
   7 -11   7   15.80    9.76
  -7  11  -8   76.11    9.57
   7 -11   8   96.74   10.97
  -7  11  -9  613.60   19.51
   7 -11   9  600.31   19.70
  -7  11 -10  302.39   13.66
   7 -11  10  298.30   14.03
  -7  11 -11  237.43   12.64
   7 -11  11  224.42   12.08
  -7  11 -12  725.21   22.30
   7 -11  12  714.61   21.75
  -7  11 -13  448.75   16.91
   7 -11  13  462.59   16.73
  -7  11 -14  129.36   10.13
  -7  11 -14  148.03   12.17
  -7  11 -15   50.27    9.94
  -7  11 -15   52.41   10.41
  -7  11 -16   12.64    9.01
  -7  11 -16   -0.19    9.39
  -7  11 -17   11.80    9.11
  -7  10  12  345.69   13.94
   7 -10 -12  352.75   14.78
  -7  10  11  166.71   10.59
   7 -10 -11  174.98   11.43
  -7  10  10  187.34   11.62
   7 -10 -10  204.81   12.36
  -7  10   9  302.48   13.85
   7 -10  -9  311.68   14.59
  -7  10   8  307.50   13.85
   7 -10  -8  294.02   13.75
  -7  10   7  566.39   18.77
   7 -10  -7  587.58   20.07
  -7  10   6  115.04   10.31
   7 -10  -6   90.88   10.41
  -7  10   5    5.76    8.36
   7 -10  -5   13.85    9.01
  -7  10   4   73.04    9.76
   7 -10  -4   71.09   10.50
  -7  10   3    7.81    8.55
   7 -10  -3    5.20    9.66
  -7  10   2  295.32   13.85
   7 -10  -2  299.88   14.03
  -7  10   1  358.61   14.96
   7 -10  -1  348.66   15.43
  -7  10   0 1368.82   36.33
   7 -10   0 1290.76   34.66
  -7  10  -1  428.21   16.17
   7 -10   1  471.33   17.75
  -7  10  -2  853.07   25.09
   7 -10   2  925.56   26.67
  -7  10  -3  173.77   11.24
   7 -10   3  149.33   11.24
  -7  10  -4  132.33   10.50
   7 -10   4  104.08   10.78
  -7  10  -5   19.51    8.64
   7 -10   5   10.22    8.83
  -7  10  -6    8.83    9.11
   7 -10   6   16.26    8.27
  -7  10  -7   -4.74    9.48
   7 -10   7    5.58    9.48
  -7  10  -8   20.44    9.29
   7 -10   8    9.29   10.13
  -7  10  -9   14.40    9.29
   7 -10   9   14.03    9.76
  -7  10 -10  806.15   23.98
   7 -10  10  803.82   23.60
  -7  10 -11  173.77   11.99
   7 -10  11  173.03   11.71
  -7  10 -12   49.34    9.76
   7 -10  12   40.70    9.85
  -7  10 -13    1.77    9.76
   7 -10  13    4.74    8.74
  -7  10 -14   87.35    9.85
  -7  10 -14   65.33   10.69
  -7  10 -15    5.30    9.85
  -7  10 -15   -1.86   10.04
  -7  10 -16   44.51   10.22
  -7  10 -16   46.93   10.13
  -7  10 -17   58.27    9.48
  -7  10 -17   74.99   10.13
  -7   9  13  346.34   13.47
   7  -9 -13  370.32   14.50
  -7   9  12  229.16   11.52
   7  -9 -12  216.43   11.99
  -7   9  11  191.34   11.62
   7  -9 -11  207.97   12.08
  -7   9  10  449.49   16.91
   7  -9 -10  458.60   16.91
  -7   9   9  142.55   11.24
   7  -9  -9  160.02   11.34
  -7   9   8  239.85   12.92
   7  -9  -8  244.49   13.38
  -7   9   7   11.43    8.92
   7  -9  -7   12.27    9.76
  -7   9   6   30.85    9.29
   7  -9  -6   17.66    9.20
  -7   9   5   73.32    9.76
   7  -9  -5   77.69   10.41
  -7   9   4  160.11   11.34
   7  -9  -4  119.41   10.97
  -7   9   3  369.02   15.43
   7  -9  -3  425.05   16.73
  -7   9   2   70.44    9.66
   7  -9  -2   84.56   11.06
  -7   9   1  659.60   20.91
   7  -9  -1  689.89   21.65
  -7   9   0  190.32   11.89
   7  -9   0  184.65   11.89
  -7   9  -1 1070.52   29.64
   7  -9   1 1076.10   30.02
  -7   9  -2    6.60    8.92
   7  -9   2   -2.14    9.66
  -7   9  -3   33.36    9.66
   7  -9   3   37.17   10.04
  -7   9  -4   10.04    8.74
   7  -9   4   29.64    8.83
  -7   9  -5  214.10   11.99
   7  -9   5  191.62   11.52
  -7   9  -6  605.24   19.70
   7  -9   6  624.57   20.07
  -7   9  -7 1367.89   36.15
   7  -9   7 1361.39   36.15
  -7   9  -8  316.05   14.31
   7  -9   8  300.99   13.75
  -7   9  -9  848.80   24.90
   7  -9   9  822.97   24.72
  -7   9 -10   11.89    9.66
   7  -9  10   32.25    9.76
  -7   9 -11   52.23   10.31
   7  -9  11   39.40    9.11
  -7   9 -12   95.06   11.15
   7  -9  12  130.38   10.87
  -7   9 -13   24.44   10.13
   7  -9  13   40.52   10.04
  -7   9 -14   27.04   10.59
  -7   9 -14   28.44   10.78
  -7   9 -15   37.54    9.66
  -7   9 -15   38.66   10.78
  -7   9 -16    2.88    9.85
  -7   9 -16   -1.49   10.04
  -7   9 -17   -2.60    9.48
  -7   9 -17   -2.14    8.64
  -7   8  14  132.98    9.94
   7  -8 -14  123.87   10.04
  -7   8  13  125.92   10.22
   7  -8 -13  127.12   10.31
  -7   8  12  155.84   11.34
   7  -8 -12  167.36   11.15
  -7   8  11  298.67   13.38
   7  -8 -11  283.80   12.92
  -7   8  10  133.17   10.87
   7  -8 -10  131.03   11.06
  -7   8   9   52.97    9.66
   7  -8  -9   48.79   10.04
  -7   8   8   77.87   10.04
   7  -8  -8   72.30   10.22
  -7   8   7   34.48    9.20
   7  -8  -7   47.21    9.66
  -7   8   6  139.30   11.24
   7  -8  -6  154.45   11.24
  -7   8   5  496.98   17.28
   7  -8  -5  485.73   16.91
  -7   8   4  862.55   25.09
   7  -8  -4  891.27   25.56
  -7   8   3  588.42   19.42
   7  -8  -3  538.42   18.40
  -7   8   2 1650.39   42.28
   7  -8  -2 1601.14   41.35
  -7   8   1  530.06   18.03
   7  -8  -1  515.56   17.94
  -7   8   0  581.91   19.24
   7  -8   0  586.84   19.33
  -7   8  -1   65.51    9.76
   7  -8   1   60.03    9.48
  -7   8  -2  192.64   11.80
   7  -8   2  196.82   11.71
  -7   8  -3    0.00    8.36
   7  -8   3    4.83    8.74
  -7   8  -4  435.37   16.08
   7  -8   4  356.56   14.68
  -7   8  -5  887.74   26.02
   7  -8   5  807.35   24.07
  -7   8  -6  576.52   19.42
   7  -8   6  568.34   18.96
  -7   8  -7   22.95    9.76
   7  -8   7   16.36    8.83
  -7   8  -8  352.10   15.15
   7  -8   8  372.27   15.15
  -7   8  -9   20.44    9.11
   7  -8   9   27.69    9.94
  -7   8 -10   17.10   10.22
   7  -8  10    7.25    9.20
  -7   8 -11   -1.67   10.50
   7  -8  11    3.44    9.48
  -7   8 -12  148.78   12.36
   7  -8  12  156.49   11.99
  -7   8 -13  182.51   12.82
   7  -8  13  202.02   12.36
  -7   8 -14  210.67   12.64
  -7   8 -14  176.28   12.36
  -7   8 -15  347.36   14.78
  -7   8 -15  320.41   14.59
  -7   8 -16  221.26   12.45
  -7   8 -16  219.49   12.08
  -7   8 -17   56.78   10.50
  -7   8 -17   52.41    9.48
  -7   7  15   80.29   10.22
   7  -7 -15   69.70    9.48
  -7   7  14   70.35    9.66
   7  -7 -14   71.18    9.85
  -7   7  13   69.23    9.94
   7  -7 -13   33.92    9.39
  -7   7  12   58.36    9.29
   7  -7 -12   25.28    9.66
  -7   7  11   -7.43    9.57
   7  -7 -11   18.68    9.76
  -7   7  10   38.56    9.66
   7  -7 -10   43.40    9.66
  -7   7   9  409.25   15.98
   7  -7  -9  396.43   15.70
  -7   7   8  658.02   20.82
   7  -7  -8  669.26   21.09
  -7   7   7  242.63   12.64
   7  -7  -7  262.43   13.29
  -7   7   6  490.29   17.28
   7  -7  -6  471.89   17.10
  -7   7   5  780.87   23.51
   7  -7  -5  769.53   23.51
  -7   7   4  751.88   22.95
   7  -7  -4  727.06   22.40
  -7   7   3  645.94   20.82
   7  -7  -3  609.05   20.17
  -7   7   2  558.68   18.77
   7  -7  -2  576.43   19.24
  -7   7   1    4.74    9.11
   7  -7  -1   12.64    8.64
  -7   7   0  124.71   10.50
   7  -7   0  140.51   10.87
  -7   7  -1 1208.99   32.71
   7  -7   1 1168.10   31.97
  -7   7  -2  556.82   18.59
   7  -7   2  579.31   19.42
  -7   7  -3  682.09   21.09
   7  -7   3  668.61   21.56
  -7   7  -4 1115.13   30.29
   7  -7   4 1094.69   30.48
  -7   7  -5  632.74   20.17
   7  -7   5  672.05   21.09
  -7   7  -6  779.85   23.51
   7  -7   6  756.52   22.77
  -7   7  -7  146.92   11.52
   7  -7   7  168.20   11.71
  -7   7  -8   57.80   10.13
   7  -7   8   47.76   10.04
  -7   7  -9  219.49   12.45
   7  -7   9  232.69   12.36
  -7   7 -10    0.46    9.29
   7  -7  10    2.42    9.57
  -7   7 -11    2.23    9.76
   7  -7  11    5.76    9.01
  -7   7 -12  122.20   12.17
   7  -7  12  102.78   10.87
  -7   7 -13  341.04   15.61
   7  -7  13  282.78   13.20
  -7   7 -14  347.27   14.96
  -7   7 -14  370.32   15.61
  -7   7 -15  197.75   12.92
  -7   7 -15  223.12   13.47
  -7   7 -16   -1.67    8.83
  -7   7 -16    7.62   10.04
  -7   7 -17   55.20    9.66
  -7   7 -17   74.25   10.87
  -7   6  15  116.81   10.41
   7  -6 -15  127.96   10.31
  -7   6  14  114.95   10.31
   7  -6 -14  116.25   10.50
  -7   6  13   -9.76    9.57
   7  -6 -13    1.77    9.66
  -7   6  12   21.75    9.39
   7  -6 -12   17.47   10.22
  -7   6  11  107.15   10.69
   7  -6 -11  112.26   10.78
  -7   6  10    2.14    8.92
   7  -6 -10   -1.67   10.22
  -7   6   9  184.55   12.08
   7  -6  -9  192.92   12.64
  -7   6   8   34.48    9.57
   7  -6  -8   17.84    9.76
  -7   6   7  229.62   12.27
   7  -6  -7  252.58   13.38
  -7   6   6  273.39   12.92
   7  -6  -6  282.13   13.66
  -7   6   5  418.55   15.80
   7  -6  -5  435.18   16.82
  -7   6   4   13.47    8.83
   7  -6  -4  -13.01    8.64
  -7   6   3  318.28   14.12
   7  -6  -3  322.27   13.85
  -7   6   2  110.21    9.94
   7  -6  -2  137.07   11.24
  -7   6   1  385.74   15.43
   7  -6  -1  386.21   15.05
  -7   6   0 2107.60   53.15
   7  -6   0 2057.42   51.48
  -7   6  -1 1687.56   43.68
   7  -6   1 1654.11   42.47
  -7   6  -2 1000.83   28.71
   7  -6   2 1028.71   28.99
  -7   6  -3 1061.23   29.92
   7  -6   3 1060.30   29.64
  -7   6  -4  690.27   21.65
   7  -6   4  664.71   21.09
  -7   6  -5  733.48   22.77
   7  -6   5  724.56   22.49
  -7   6  -6  466.87   17.19
   7  -6   6  532.10   18.68
  -7   6  -7   70.81    9.94
   7  -6   7   83.73   10.50
  -7   6  -8  151.94   11.62
   7  -6   8  161.88   11.34
  -7   6  -9   37.08   10.78
   7  -6   9   60.77    9.76
  -7   6 -10  318.56   15.05
   7  -6  10  367.99   15.61
  -7   6 -11  130.01   11.80
   7  -6  11  149.06   10.87
  -7   6 -12  139.02   12.55
   7  -6  12  126.20   11.43
  -7   6 -13   97.02   11.43
  -7   6 -13   79.17   10.59
  -7   6 -14  213.08   12.82
  -7   6 -14  225.26   12.92
  -7   6 -15   59.85    9.66
  -7   6 -15   69.88   11.06
  -7   6 -16    5.85    9.66
  -7   6 -16   -8.55    9.66
  -7   5  16   15.70    9.01
   7  -5 -16    8.83    8.83
  -7   5  15   15.61    9.20
   7  -5 -15   20.91    8.92
  -7   5  14   61.98   10.41
   7  -5 -14   40.80    9.57
  -7   5  13  128.70   11.24
   7  -5 -13  131.12   11.34
  -7   5  12  501.07   18.12
   7  -5 -12  519.93   18.21
  -7   5  11  266.14   13.01
   7  -5 -11  247.84   13.66
  -7   5  10  871.20   25.09
   7  -5 -10  909.76   26.02
  -7   5   9  531.82   18.49
   7  -5  -9  511.84   18.03
  -7   5   8  209.83   11.99
   7  -5  -8  197.47   12.45
  -7   5   7   96.92   10.41
   7  -5  -7   78.52   10.78
  -7   5   6  482.67   17.47
   7  -5  -6  482.94   17.56
  -7   5   5  106.03   10.41
   7  -5  -5  107.05   10.31
  -7   5   4  179.07   11.43
   7  -5  -4  184.46   12.17
  -7   5   3  320.14   13.47
   7  -5  -3  314.19   14.68
  -7   5   2  135.40   10.41
   7  -5  -2  125.64   10.78
  -7   5   1   67.93    8.55
   7  -5  -1   77.87    9.39
  -7   5   0  478.20   17.38
   7  -5   0  459.43   16.63
  -7   5  -1 1053.80   29.74
   7  -5   1 1048.22   29.46
  -7   5  -2 1113.27   30.94
   7  -5   2 1128.14   31.32
  -7   5  -3   -1.95    9.39
   7  -5   3    3.90    8.64
  -7   5  -4  232.88   12.92
   7  -5   4  228.32   12.36
  -7   5  -5  763.31   23.32
   7  -5   5  717.87   22.30
  -7   5  -6    2.23    9.01
   7  -5   6   -5.30    9.39
  -7   5  -7  111.14   11.15
   7  -5   7   93.95   10.50
  -7   5  -8  642.50   20.91
   7  -5   8  653.75   21.28
  -7   5  -9  693.15   22.67
   7  -5   9  721.12   22.77
  -7   5 -10  165.69   12.82
   7  -5  10  140.32   11.62
  -7   5 -11  148.31   11.71
   7  -5  11  155.75   11.06
  -7   5 -12  176.93   12.36
   7  -5  12  159.00   11.43
  -7   5 -13  121.36   12.08
  -7   5 -13  134.37   11.89
  -7   5 -14   -4.74    9.85
  -7   5 -14   -7.90   10.31
  -7   5 -15    8.64   10.13
  -7   5 -15    9.85    9.85
  -7   5 -16    4.27    8.36
  -7   5 -16   23.42    9.85
  -7   4  17   11.06    8.08
   7  -4 -17    0.84    8.83
  -7   4  16   10.78    9.20
   7  -4 -16   -4.83    8.92
  -7   4  15   79.27   10.59
   7  -4 -15   69.23    9.01
  -7   4  14  185.39   12.73
   7  -4 -14  177.58   11.89
  -7   4  13  639.81   19.98
   7  -4 -13  642.50   20.44
  -7   4  12  457.48   17.19
   7  -4 -12  456.09   17.19
  -7   4  11  267.17   13.57
   7  -4 -11  272.84   13.94
  -7   4  10  189.29   11.52
   7  -4 -10  192.17   11.99
  -7   4   9   55.66    9.85
   7  -4  -9   87.82   10.78
  -7   4   8   81.78    9.94
   7  -4  -8   59.47   10.22
  -7   4   7  316.23   13.94
   7  -4  -7  294.58   14.12
  -7   4   6  121.27   11.24
   7  -4  -6  112.44   11.24
  -7   4   5  298.48   14.12
   7  -4  -5  321.44   14.40
  -7   4   4 1261.96   34.20
   7  -4  -4 1346.52   35.68
  -7   4   3  696.77   22.30
   7  -4  -3  691.29   21.75
  -7   4   2  420.96   16.45
   7  -4  -2  411.30   15.61
  -7   4   1  741.00   23.05
   7  -4  -1  750.48   22.67
  -7   4   0  636.00   20.82
   7  -4   0  679.11   21.37
  -7   4  -1  166.53   11.89
   7  -4   1  163.55   11.15
  -7   4  -2  192.36   11.99
   7  -4   2  184.46   12.08
  -7   4  -3   33.73    9.48
   7  -4   3   15.80    8.74
  -7   4  -4  554.59   18.86
   7  -4   4  565.28   19.05
  -7   4  -5  387.14   15.61
   7  -4   5  350.34   14.68
  -7   4  -6  318.00   13.85
   7  -4   6  304.71   13.94
  -7   4  -7  655.51   20.63
   7  -4   7  661.64   21.37
  -7   4  -8  402.00   15.15
   7  -4   8  393.46   15.70
  -7   4  -9   81.03   10.97
   7  -4   9  105.10   10.97
  -7   4 -10  349.04   14.59
   7  -4  10  331.66   14.40
  -7   4 -11   90.05   11.89
   7  -4  11  109.00   11.06
  -7   4 -12   31.50   10.59
   7  -4  12   58.64    9.94
  -7   4 -13    2.97    9.01
  -7   4 -13    1.30   10.04
  -7   4 -14    8.74    9.39
  -7   4 -14  -10.59    9.29
  -7   4 -15   26.02    9.66
  -7   4 -15   19.33    9.66
  -7   4 -16   54.83    9.39
  -7   4 -16   56.31    9.76
  -7   3  17  108.07   10.13
   7  -3 -17  103.52   10.22
  -7   3  16  203.51   11.62
   7  -3 -16  212.80   11.24
  -7   3  15  323.57   14.22
   7  -3 -15  326.73   14.31
  -7   3  14  457.58   16.63
   7  -3 -14  443.36   16.82
  -7   3  13  612.95   20.26
   7  -3 -13  681.53   21.19
  -7   3  12  239.38   12.92
   7  -3 -12  225.26   12.82
  -7   3  11  328.50   14.68
   7  -3 -11  328.68   14.40
  -7   3  10   97.02   11.24
   7  -3 -10   81.78   10.31
  -7   3   9   55.29   10.41
   7  -3  -9   44.33   10.22
  -7   3   8  134.56   10.31
   7  -3  -8  117.18   10.78
  -7   3   7  183.90   10.97
   7  -3  -7  174.89   12.36
  -7   3   6 1022.20   28.53
   7  -3  -6  997.11   28.44
  -7   3   5 1285.19   34.20
   7  -3  -5 1216.42   32.80
  -7   3   4 1753.54   44.51
   7  -3  -4 1664.33   42.75
  -7   3   3  159.18   11.06
   7  -3  -3  160.02   11.34
  -7   3   2  164.95   10.97
   7  -3  -2  183.35   11.24
  -7   3   1  185.95   11.80
   7  -3  -1  181.49   11.24
  -7   3   0   88.84    9.94
   7  -3   0   97.48   10.13
  -7   3  -1   36.33    9.85
   7  -3   1   28.99    9.01
  -7   3  -2  921.19   27.13
   7  -3   2  914.78   26.39
  -7   3  -3 1072.38   30.48
   7  -3   3 1033.35   28.81
  -7   3  -4 1170.89   32.90
   7  -3   4 1156.95   31.60
  -7   3  -5  231.39   13.75
   7  -3   5  201.19   12.36
  -7   3  -6  410.65   16.54
   7  -3   6  439.36   16.54
  -7   3  -7  384.35   16.54
   7  -3   7  404.61   15.89
  -7   3  -8  210.11   13.10
   7  -3   8  219.03   13.01
  -7   3  -9    8.18   10.31
   7  -3   9    8.64    8.92
  -7   3 -10   13.10   10.97
   7  -3  10   14.22   10.22
  -7   3 -11   60.12    9.76
   7  -3  11   52.88   10.04
  -7   3 -12   16.26   10.41
  -7   3 -12   33.08    9.20
  -7   3 -13  168.48   12.45
  -7   3 -13  149.71   12.17
  -7   3 -14  333.89   13.75
  -7   3 -14  343.09   15.05
  -7   3 -15  210.57   12.17
  -7   3 -15  240.50   12.17
  -7   2  18  126.38    8.64
   7  -2 -18  128.33   10.13
  -7   2  17  128.70   10.31
   7  -2 -17  128.05   10.59
  -7   2  16  329.43   13.47
   7  -2 -16  299.13   13.47
  -7   2  15  155.47   11.80
   7  -2 -15  156.40   10.50
  -7   2  14  451.44   16.26
   7  -2 -14  402.56   15.89
  -7   2  13  152.87   12.36
   7  -2 -13  137.16   11.43
  -7   2  12   45.16    9.94
   7  -2 -12   46.09   10.59
  -7   2  11   -3.16    8.92
   7  -2 -11   14.40    9.39
  -7   2  10   88.00   10.13
   7  -2 -10   97.57   10.97
  -7   2   9  759.40   23.14
   7  -2  -9  746.02   22.95
  -7   2   8  111.79   10.97
   7  -2  -8  115.97   11.24
  -7   2   7 2646.58   65.14
   7  -2  -7 2606.62   64.03
  -7   2   6 1952.41   49.90
   7  -2  -6 1951.48   49.44
  -7   2   5  529.78   18.77
   7  -2  -5  522.25   17.75
  -7   2   4   66.44   10.04
   7  -2  -4   81.22   10.31
  -7   2   3  253.60   12.92
   7  -2  -3  270.60   13.01
  -7   2   2  256.85   13.10
   7  -2  -2  237.06   12.82
  -7   2   1   89.30   10.04
   7  -2  -1   94.32    9.94
  -7   2   0  226.93   12.27
   7  -2   0  243.93   12.55
  -7   2  -1 2470.01   60.59
   7  -2   1 2403.11   59.57
  -7   2  -2   32.06    9.20
   7  -2   2   67.28    9.94
  -7   2  -3  514.73   17.66
   7  -2   3  504.13   17.94
  -7   2  -4  462.04   16.45
   7  -2   4  469.56   17.28
  -7   2  -5 1021.27   27.97
   7  -2   5 1070.52   30.02
  -7   2  -6  227.49   12.36
   7  -2   6  213.64   12.08
  -7   2  -7   13.66    9.11
   7  -2   7    2.04    9.76
  -7   2  -8  284.45   12.73
   7  -2   8  286.96   13.94
  -7   2  -9  126.94   10.97
   7  -2   9  110.49   10.50
  -7   2 -10  277.30   14.40
   7  -2  10  263.54   13.66
  -7   2 -11  497.81   18.12
  -7   2 -12  524.76   18.21
  -7   2 -12  478.20   17.38
  -7   2 -13  113.46   11.71
  -7   2 -13  131.49   10.59
  -7   2 -14   73.97   11.43
  -7   2 -14   73.41   10.87
  -7   2 -15   59.75    9.29
  -7   2 -15   64.68    9.94
  -7   1  18   40.80    8.64
   7  -1 -18    4.46    9.57
  -7   1  17   55.85    9.11
   7  -1 -17   72.02   10.13
  -7   1  16   -2.32    8.92
   7  -1 -16   -3.62    9.85
  -7   1  15   52.97   10.78
   7  -1 -15   61.33   10.50
  -7   1  14   36.99    9.66
   7  -1 -14   37.64   10.04
  -7   1  13   -3.53    8.74
   7  -1 -13    8.55   10.50
  -7   1  12   30.20    9.66
   7  -1 -12   11.34    9.57
  -7   1  11    6.13   10.31
   7  -1 -11    7.99    9.85
  -7   1  10  490.94   18.49
   7  -1 -10  446.52   17.19
  -7   1   9  162.34   11.80
   7  -1  -9  176.38   12.08
  -7   1   8 2009.09   50.27
   7  -1  -8 2072.28   52.23
  -7   1   7  669.26   20.44
   7  -1  -7  723.91   22.67
  -7   1   6  338.35   13.75
   7  -1  -6  324.60   14.68
  -7   1   5   79.36    9.11
   7  -1  -5   84.29    9.94
  -7   1   4  180.00   10.41
   7  -1  -4  192.45   11.99
  -7   1   3   43.77    8.74
   7  -1  -3   53.90    9.39
  -7   1   2 1153.23   31.69
   7  -1  -2 1103.05   30.39
  -7   1   1   -5.95    8.46
   7  -1  -1    2.23    8.36
  -7   1   0 1227.57   33.18
   7  -1   0 1165.31   31.78
  -7   1  -1  164.11   11.62
   7  -1   1  163.46   11.24
  -7   1  -2 1011.05   28.71
   7  -1   2 1024.06   28.53
  -7   1  -3  447.72   17.47
   7  -1   3  452.65   16.17
  -7   1  -4  132.70   11.71
   7  -1   4  135.58   10.41
  -7   1  -5   17.01    9.85
   7  -1   5   -9.85    9.29
  -7   1  -6  161.51   12.17
   7  -1   6  133.44   11.06
  -7   1  -7   -1.21    9.01
   7  -1   7  -15.89    8.83
  -7   1  -8  448.56   18.03
   7  -1   8  426.35   16.63
  -7   1  -9  422.54   17.01
   7  -1   9  456.00   16.73
  -7   1 -10  239.94   14.03
   7  -1  10  242.08   13.38
  -7   1 -11  142.92   12.55
  -7   1 -11  168.01   12.73
  -7   1 -12   77.69   10.78
  -7   1 -12   67.28   10.78
  -7   1 -13  223.96   12.55
  -7   1 -13  234.18   12.82
  -7   1 -14   37.54    9.57
  -7   1 -14   65.24   10.41
  -7   0  18  132.33   10.50
   7   0 -18  111.70   10.22
  -7   0  17   16.82    8.18
   7   0 -17   18.31    9.39
  -7   0  16   30.76   10.04
   7   0 -16   11.80    9.76
  -7   0  15    2.69    9.39
   7   0 -15    7.81   10.69
  -7   0  14   38.47    9.85
   7   0 -14   24.81    9.76
  -7   0  13   73.41   10.31
   7   0 -13   90.98   11.06
  -7   0  12   55.38    9.48
   7   0 -12   60.40   10.22
  -7   0  11  488.24   16.82
   7   0 -11  498.65   18.12
  -7   0  10  463.43   16.91
   7   0 -10  459.53   16.82
  -7   0   9  888.76   25.46
   7   0  -9  860.32   25.56
  -7   0   8  203.88   12.17
   7   0  -8  235.20   13.01
  -7   0   7   26.21    9.94
   7   0  -7   23.70    9.76
  -7   0   6   15.52    9.66
   7   0  -6    3.81    7.62
  -7   0   5  165.97   11.43
   7   0  -5  148.87   11.24
  -7   0   4  395.50   15.98
   7   0  -4  398.75   15.43
  -7   0   3  733.57   22.77
   7   0  -3  732.45   22.40
  -7   0   2  462.04   17.19
   7   0  -2  443.17   16.36
  -7   0   1 1368.82   36.15
   7   0  -1 1355.81   35.96
  -7   0   0  605.89   19.79
   7   0   0  668.61   21.00
  -7   0  -1  263.17   12.36
   7   0   1  271.35   12.92
  -7   0  -2  235.66   12.45
   7   0   2  241.24   12.64
  -7   0  -3  141.81   10.87
   7   0   3  123.31   10.22
  -7   0  -4   66.72    9.85
   7   0   4   86.42   10.31
  -7   0  -5   33.55    9.29
   7   0   5   50.65    9.66
  -7   0  -6  301.74   13.38
   7   0   6  264.29   13.38
  -7   0  -7  642.69   19.98
   7   0   7  645.20   20.63
  -7   0  -8   87.26   10.41
   7   0   8  102.13   10.50
  -7   0  -9   61.80   10.41
   7   0   9   61.98   10.50
  -7   0 -10  183.16   11.80
  -7   0 -10  190.41   12.55
  -7   0 -11  250.25   13.57
  -7   0 -11  229.90   13.10
  -7   0 -12   54.92   10.97
  -7   0 -12   26.30   10.22
  -7   0 -13   21.00    9.94
  -7   0 -13   27.51    9.57
  -7  -1  18    0.74    8.27
   7   1 -18   11.89    9.01
  -7  -1  17   58.82    9.39
   7   1 -17   51.76   10.41
  -7  -1  16  136.98   11.34
   7   1 -16  156.03   12.08
  -7  -1  15  148.13   11.71
   7   1 -15  143.94   11.62
  -7  -1  14  151.94   11.15
   7   1 -14  147.01   11.62
  -7  -1  13  194.31   12.27
   7   1 -13  196.36   12.17
  -7  -1  12  192.08   12.82
   7   1 -12  188.46   12.92
  -7  -1  11  688.50   21.93
   7   1 -11  740.73   23.05
  -7  -1  10  246.35   13.66
   7   1 -10  229.44   13.01
  -7  -1   9   19.89    9.01
   7   1  -9   15.33    9.66
  -7  -1   8   -7.71    7.62
   7   1  -8    5.20    9.29
  -7  -1   7   42.28    9.29
   7   1  -7   40.33    9.01
  -7  -1   6   -6.88    7.71
   7   1  -6   12.27    9.57
  -7  -1   5  175.45   10.50
   7   1  -5  164.85   11.99
  -7  -1   4  586.84   18.86
   7   1  -4  593.81   19.33
  -7  -1   3 2614.05   63.47
   7   1  -3 2483.02   61.05
  -7  -1   2  673.45   20.44
   7   1  -2  629.03   19.79
  -7  -1   1  376.17   14.68
   7   1  -1  386.76   15.24
  -7  -1   0   46.46    9.48
   7   1   0   57.80    9.20
  -7  -1  -1  212.80   11.71
   7   1   1  201.84   11.62
  -7  -1  -2   38.56   10.41
   7   1   2   51.76    8.92
  -7  -1  -3  557.84   19.70
   7   1   3  551.99   18.49
  -7  -1  -4  862.09   25.56
   7   1   4  828.54   24.35
  -7  -1  -5  542.88   19.42
   7   1   5  539.17   18.21
  -7  -1  -6 1098.40   30.39
   7   1   6 1023.13   28.53
  -7  -1  -7  932.99   27.32
   7   1   7  946.00   27.04
  -7  -1  -8  403.86   17.10
   7   1   8  404.33   15.52
  -7  -1  -9   84.66   10.97
  -7  -1  -9   75.92   10.41
  -7  -1 -10   34.57   10.31
  -7  -1 -10    1.21    9.66
  -7  -1 -11    3.35   10.31
  -7  -1 -11  -14.22   10.31
  -7  -1 -12   12.73    9.76
  -7  -1 -12    0.00    9.01
  -7  -1 -13    9.85   10.69
  -7  -2  19    7.34    8.74
   7   2 -19  -10.41    9.94
  -7  -2  18  137.81   10.69
   7   2 -18   93.39   10.50
  -7  -2  17  593.25   18.86
   7   2 -17  597.25   19.61
  -7  -2  16  746.11   22.40
   7   2 -16  755.13   22.86
  -7  -2  15  221.91   13.01
   7   2 -15  252.86   13.20
  -7  -2  14  204.91   12.36
   7   2 -14  177.40   11.80
  -7  -2  13   81.31    9.76
   7   2 -13   96.18   10.59
  -7  -2  12  781.06   23.05
   7   2 -12  764.14   23.23
  -7  -2  11    8.27    8.55
   7   2 -11    7.99    8.74
  -7  -2  10  234.55   13.01
   7   2 -10  241.89   13.66
  -7  -2   9  331.75   14.59
   7   2  -9  334.63   14.59
  -7  -2   8  149.33   10.78
   7   2  -8  140.51   10.78
  -7  -2   7  677.07   22.02
   7   2  -7  694.73   21.47
  -7  -2   6 1139.29   31.78
   7   2  -6 1034.28   28.81
  -7  -2   5  148.87   11.34
   7   2  -5  153.80   10.69
  -7  -2   4 1352.10   36.33
   7   2  -4 1303.77   34.57
  -7  -2   3    1.02    8.92
   7   2  -3   13.75    8.64
  -7  -2   2  255.55   13.38
   7   2  -2  255.27   12.55
  -7  -2   1  103.24   10.69
   7   2  -1  106.03    9.85
  -7  -2   0  262.43   12.82
   7   2   0  262.52   12.64
  -7  -2  -1   67.74   10.13
   7   2   1   60.87    8.83
  -7  -2  -2   30.76    9.76
   7   2   2   37.17    8.92
  -7  -2  -3  100.64   10.13
   7   2   3   79.64    9.66
  -7  -2  -4  458.69   16.54
   7   2   4  468.08   16.91
  -7  -2  -5 1231.29   32.99
   7   2   5 1235.01   33.08
  -7  -2  -6  865.16   25.65
   7   2   6  888.39   25.56
  -7  -2  -7  112.44   11.43
   7   2   7  116.81   10.69
  -7  -2  -8   29.74   10.22
   7   2   8   32.52    9.39
  -7  -2  -9   14.40   10.22
  -7  -2  -9    4.65    9.76
  -7  -2 -10    2.14    9.94
  -7  -2 -10    3.07    9.66
  -7  -2 -11  197.84   11.89
  -7  -2 -11  212.99   11.24
  -7  -2 -12  299.41   14.03
  -7  -2 -12  279.43   13.29
  -7  -3  19   40.70    8.08
  -7  -3  18  310.28   13.29
   7   3 -18  301.92   13.29
  -7  -3  17  290.96   13.29
   7   3 -17  285.57   13.38
  -7  -3  16  140.60   10.97
   7   3 -16  142.36   11.52
  -7  -3  15  339.00   15.33
   7   3 -15  332.31   14.68
  -7  -3  14  117.37   11.43
   7   3 -14  114.86   10.87
  -7  -3  13  215.78   13.57
   7   3 -13  192.45   12.36
  -7  -3  12  222.56   12.36
   7   3 -12  219.96   13.47
  -7  -3  11   72.11   10.22
   7   3 -11   63.93   10.31
  -7  -3  10   52.04    9.29
   7   3 -10   40.42    9.94
  -7  -3   9  135.58   10.31
   7   3  -9  118.67   10.69
  -7  -3   8  670.75   20.72
   7   3  -8  709.78   21.75
  -7  -3   7  769.81   23.14
   7   3  -7  801.78   23.70
  -7  -3   6   62.82    9.66
   7   3  -6   39.40    9.48
  -7  -3   5  805.50   23.14
   7   3  -5  825.94   24.25
  -7  -3   4    2.23    8.08
   7   3  -4    8.55    8.74
  -7  -3   3   84.19    8.92
   7   3  -3   84.84    9.39
  -7  -3   2  157.70   10.87
   7   3  -2  181.77   11.62
  -7  -3   1  313.35   13.29
   7   3  -1  327.76   13.57
  -7  -3   0  799.73   23.79
   7   3   0  833.10   24.07
  -7  -3  -1  604.03   19.89
   7   3   1  592.04   19.14
  -7  -3  -2 1059.37   29.46
   7   3   2 1073.31   29.18
  -7  -3  -3  713.31   22.49
   7   3   3  675.86   20.72
  -7  -3  -4  245.05   12.92
   7   3   4  238.17   12.36
  -7  -3  -5   57.89    9.48
   7   3   5   87.17   10.13
  -7  -3  -6   68.95   10.69
   7   3   6   89.77   10.13
  -7  -3  -7   65.14   10.50
   7   3   7   80.01    9.11
  -7  -3  -8    1.39    9.85
  -7  -3  -8   -8.08    9.66
  -7  -3  -9  164.39   11.15
  -7  -3  -9  172.57   11.52
  -7  -3 -10  194.13   11.99
  -7  -3 -10  209.55   11.52
  -7  -3 -11   42.93    9.66
  -7  -3 -11   35.03    9.94
  -7  -4  18  177.49   11.34
   7   4 -18  175.08   11.89
  -7  -4  17   71.46   10.13
   7   4 -17   80.38   10.78
  -7  -4  16   79.82   11.52
   7   4 -16   86.24   10.41
  -7  -4  15   26.39   11.71
   7   4 -15   20.91    9.85
  -7  -4  14  -17.10   10.04
   7   4 -14   -0.93    9.20
  -7  -4  13  137.53   11.89
   7   4 -13  126.94   11.71
  -7  -4  12  158.44   11.89
   7   4 -12  132.98   11.06
  -7  -4  11  150.91   11.80
   7   4 -11  124.34   10.59
  -7  -4  10   93.49   11.34
   7   4 -10  113.46    9.94
  -7  -4   9   64.77    9.85
   7   4  -9   64.49    9.11
  -7  -4   8  200.44   11.62
   7   4  -8  207.23   11.62
  -7  -4   7  519.56   18.03
   7   4  -7  482.39   16.54
  -7  -4   6  474.67   17.28
   7   4  -6  472.07   16.45
  -7  -4   5   28.62    9.20
   7   4  -5    6.13    7.99
  -7  -4   4   47.30    9.57
   7   4  -4   28.81    8.64
  -7  -4   3    0.56    8.55
   7   4  -3   15.43    8.55
  -7  -4   2   34.75    8.92
   7   4  -2   25.74    7.81
  -7  -4   1   28.90    8.46
   7   4  -1   44.23    8.18
  -7  -4   0  269.86   11.99
   7   4   0  320.79   13.47
  -7  -4  -1 1000.83   27.32
   7   4   1 1018.49   28.16
  -7  -4  -2  564.72   19.24
   7   4   2  562.68   18.31
  -7  -4  -3   32.06    9.85
   7   4   3   29.18    7.99
  -7  -4  -4    7.25    9.48
   7   4   4   23.98    8.92
  -7  -4  -5   46.09   11.06
   7   4   5   34.85    9.57
  -7  -4  -6   22.77    9.39
   7   4   6  -10.69    8.08
  -7  -4  -7  292.54   13.38
  -7  -4  -7  275.62   13.75
  -7  -4  -8  381.10   15.98
  -7  -4  -8  400.05   15.33
  -7  -4  -9  168.76   11.15
  -7  -4  -9  165.23   11.43
  -7  -5  18   48.32    9.85
   7   5 -18   55.20    9.66
  -7  -5  17    3.81    9.48
   7   5 -17    5.67    9.29
  -7  -5  16   18.31   10.22
   7   5 -16   17.19    9.57
  -7  -5  15  316.42   14.96
   7   5 -15  278.22   13.38
  -7  -5  14  841.83   24.90
   7   5 -14  762.75   22.77
  -7  -5  13 1118.85   31.04
   7   5 -13 1177.39   31.97
  -7  -5  12  551.06   18.68
   7   5 -12  585.44   19.14
  -7  -5  11  440.10   16.45
   7   5 -11  445.12   16.45
  -7  -5  10  294.67   13.66
   7   5 -10  314.19   13.29
  -7  -5   9  288.26   13.47
   7   5  -9  290.77   13.20
  -7  -5   8  563.23   18.21
   7   5  -8  604.77   19.14
  -7  -5   7   86.70    9.66
   7   5  -7  102.03    9.76
  -7  -5   6   -8.55    8.64
   7   5  -6   -1.58    7.90
  -7  -5   5   37.64    8.83
   7   5  -5   44.79    8.74
  -7  -5   4   35.68    9.57
   7   5  -4   67.37    9.11
  -7  -5   3  621.13   20.07
   7   5  -3  606.26   18.96
  -7  -5   2  343.55   14.40
   7   5  -2  331.01   13.29
  -7  -5   1  147.75   10.69
   7   5  -1  155.19   10.78
  -7  -5   0  386.39   14.59
   7   5   0  401.82   15.24
  -7  -5  -1  294.67   13.20
   7   5   1  312.79   13.38
  -7  -5  -2    1.21    9.01
   7   5   2    4.27    8.64
  -7  -5  -3   75.74    9.76
   7   5   3   95.06   10.41
  -7  -5  -4  161.97   12.55
   7   5   4  123.04   10.59
  -7  -5  -5   37.73   10.04
  -7  -5  -6  111.70   11.06
  -7  -5  -6  135.12   10.87
  -7  -5  -7  128.70   11.15
  -7  -5  -7  106.96   11.24
  -7  -5  -8  157.51   11.89
  -7  -5  -8  197.75   11.43
  -7  -6  18    5.85    8.92
   7   6 -18   -0.65   10.41
  -7  -6  17   -0.28    9.11
   7   6 -17    1.58    9.57
  -7  -6  16  198.12   11.99
   7   6 -16  216.15   13.10
  -7  -6  15   14.68   10.22
   7   6 -15   16.54   10.41
  -7  -6  14   31.87   11.34
   7   6 -14   29.64   10.31
  -7  -6  13  141.34   12.36
   7   6 -13  134.19   11.43
  -7  -6  12  381.47   15.33
   7   6 -12  355.08   14.59
  -7  -6  11  212.15   12.17
   7   6 -11  221.82   11.89
  -7  -6  10   -2.51    8.36
   7   6 -10    8.36    8.64
  -7  -6   9   13.20    8.74
   7   6  -9   15.05    8.08
  -7  -6   8  397.08   15.24
   7   6  -8  388.62   14.68
  -7  -6   7    1.95    8.36
   7   6  -7   17.94    8.36
  -7  -6   6  643.52   19.98
   7   6  -6  670.38   20.35
  -7  -6   5 1252.66   33.36
   7   6  -5 1200.62   31.78
  -7  -6   4 1783.28   44.98
   7   6  -4 1812.09   45.35
  -7  -6   3  370.04   15.05
   7   6  -3  353.40   13.57
  -7  -6   2  332.68   14.03
   7   6  -2  346.06   13.66
  -7  -6   1  562.58   18.31
   7   6  -1  559.70   17.75
  -7  -6   0  169.04   10.69
   7   6   0  190.32   11.15
  -7  -6  -1  124.34   10.13
   7   6   1  130.66   10.41
  -7  -6  -2  305.45   13.57
   7   6   2  356.56   14.40
  -7  -6  -3  153.05   10.87
   7   6   3  144.22   10.41
  -7  -6  -4  118.58   11.89
  -7  -6  -4  139.39   10.69
  -7  -6  -5  294.21   13.29
  -7  -6  -5  287.42   13.66
  -7  -6  -6  435.64   16.63
  -7  -6  -6  399.77   14.96
  -7  -6  -7  185.76   11.80
  -7  -6  -7  203.05   11.34
  -7  -7  17  560.07   18.21
   7   7 -17  556.73   18.86
  -7  -7  16  196.73   11.52
   7   7 -16  221.17   13.10
  -7  -7  15  185.02   11.89
   7   7 -15  174.15   12.36
  -7  -7  14   62.91   10.78
   7   7 -14   70.44   10.13
  -7  -7  13   16.26    9.76
   7   7 -13   14.12    9.01
  -7  -7  12    5.67    9.39
   7   7 -12    1.39    9.11
  -7  -7  11   13.94    9.11
   7   7 -11    6.69    8.74
  -7  -7  10   45.44    9.39
   7   7 -10   58.73    9.39
  -7  -7   9  134.47   10.50
   7   7  -9  118.30    9.76
  -7  -7   8    9.01    9.20
   7   7  -8   27.41    8.08
  -7  -7   7  357.31   14.87
   7   7  -7  321.99   13.29
  -7  -7   6  241.61   12.36
   7   7  -6  273.11   11.99
  -7  -7   5  268.19   12.82
   7   7  -5  271.16   11.99
  -7  -7   4  332.87   14.12
   7   7  -4  413.06   14.78
  -7  -7   3  666.10   20.72
   7   7  -3  650.40   19.89
  -7  -7   2   80.66    9.57
   7   7  -2   86.24    9.66
  -7  -7   1  103.34    9.76
   7   7  -1   96.83    9.57
  -7  -7   0  193.10   11.62
   7   7   0  194.68   11.52
  -7  -7  -1   38.47    9.29
   7   7   1   59.57    9.39
  -7  -7  -2   26.48    9.57
   7   7   2   44.33    8.64
  -7  -7  -3  233.43   12.17
  -7  -7  -3  203.33   11.52
  -7  -7  -4  413.81   15.33
  -7  -7  -4  406.28   15.43
  -7  -7  -5   72.30   10.04
  -7  -7  -5  102.59    9.76
  -7  -8  16   21.09   10.22
   7   8 -16   16.17    9.39
  -7  -8  15    2.14    9.66
   7   8 -15   15.98    9.57
  -7  -8  14   -3.35    9.66
   7   8 -14   -0.84    9.11
  -7  -8  13  -13.85   10.13
   7   8 -13   18.68    9.57
  -7  -8  12    7.06    9.29
   7   8 -12   -0.56    8.83
  -7  -8  11   94.97   10.13
   7   8 -11  126.57   10.22
  -7  -8  10  203.79   11.62
   7   8 -10  212.53   11.89
  -7  -8   9  123.97   10.69
   7   8  -9   96.64    9.94
  -7  -8   8   84.75   10.69
   7   8  -8  104.54    9.76
  -7  -8   7  248.12   12.64
   7   8  -7  239.57   12.08
  -7  -8   6  140.60   10.59
   7   8  -6  135.67   10.04
  -7  -8   5  198.77   11.34
   7   8  -5  201.10   10.97
  -7  -8   4  162.72   11.62
   7   8  -4  146.64   10.31
  -7  -8   3    8.83    9.01
   7   8  -3   31.60    8.36
  -7  -8   2   78.24   11.24
   7   8  -2   76.11    9.57
  -7  -8   1  219.59   12.82
   7   8  -1  206.39   11.34
  -7  -8   0  414.55   15.98
   7   8   0  436.95   15.80
  -7  -8  -1  668.80   21.09
  -7  -8  -2  339.00   13.29
  -7  -8  -2  386.21   15.43
  -7  -8  -3   17.19    9.48
  -7  -8  -3   34.38    7.53
  -7  -9  15   -6.78   10.41
   7   9 -15    3.53    8.64
  -7  -9  14   34.20   10.69
   7   9 -14   39.59    9.01
  -7  -9  13   32.06   10.22
   7   9 -13   37.08    9.57
  -7  -9  12  379.14   15.98
   7   9 -12  370.59   15.15
  -7  -9  11    4.37   10.13
   7   9 -11   12.64    9.76
  -7  -9  10  259.36   13.75
   7   9 -10  210.48   12.08
  -7  -9   9   96.27   10.50
   7   9  -9   76.29    9.66
  -7  -9   8  101.38   11.62
   7   9  -8  123.22   10.22
  -7  -9   7   18.68   10.78
   7   9  -7   17.56    8.46
  -7  -9   6   25.00   10.22
   7   9  -6   43.49    9.20
  -7  -9   5   48.79   10.78
   7   9  -5   35.87    9.20
  -7  -9   4   31.69    9.94
   7   9  -4   22.67    8.64
  -7  -9   3  200.26   13.01
   7   9  -3  193.75   10.87
  -7  -9   2  255.36   13.38
   7   9  -2  229.81   11.62
  -7  -9   1  113.19   11.89
   7   9  -1  132.61    9.48
  -7  -9   0   75.83    8.83
  -7  -9   0   59.19   10.13
  -7  -9  -1   57.52    9.76
  -7  -9  -1   39.12   10.04
  -7 -10  13  217.08   13.85
   7  10 -13  219.68   12.64
  -7 -10  12   61.98   11.80
   7  10 -12   60.68    9.94
  -7 -10  11  517.89   18.21
   7  10 -11  492.14   16.73
  -7 -10  10  125.82   12.17
   7  10 -10  105.19   10.31
  -7 -10   9    2.97   11.99
   7  10  -9    4.65    8.36
  -7 -10   8   -0.65   11.80
   7  10  -8   24.35    8.55
  -7 -10   7   35.41   11.43
   7  10  -7   29.27    9.57
  -7 -10   6    9.94   11.62
   7  10  -6    8.74    8.46
  -7 -10   5  251.00   15.15
   7  10  -5  233.25   11.80
  -7 -10   4  260.57   14.96
   7  10  -4  307.13   13.20
  -7 -10   3  121.74   13.57
   7  10  -3  123.59   10.41
   8 -16   4    2.97    9.11
  -8  16  -5   16.08    9.66
   8 -16   5   32.15    9.29
  -8  16  -6   -8.74   10.22
   8 -16   6  108.35   10.31
   8 -16   7   38.01   10.22
  -8  15   1    4.09    9.94
   8 -15  -1   12.17    9.48
  -8  15   0   15.70    9.39
   8 -15   0    9.29    8.92
  -8  15  -1    6.50    8.36
   8 -15   1   96.46    9.94
  -8  15  -2  126.94   10.59
   8 -15   2  118.85   10.04
  -8  15  -3  232.13   11.80
   8 -15   3  224.23   11.80
  -8  15  -4  219.68   11.34
   8 -15   4  211.78   11.34
  -8  15  -5   79.82    9.48
   8 -15   5   81.59   10.04
  -8  15  -6   43.40    8.74
   8 -15   6   55.85    9.57
  -8  15  -7   34.66    8.83
   8 -15   7   37.36    9.57
  -8  15  -8   -3.72    8.27
   8 -15   8   -6.50    9.01
  -8  15  -9    8.18    7.99
   8 -15   9   18.77    9.57
  -8  15 -10    1.21    8.64
   8 -15  10   13.01    9.48
  -8  14   3  -21.93    8.55
   8 -14  -3    5.58    8.74
  -8  14   2    9.76    7.81
   8 -14  -2   -7.53    8.27
  -8  14   1   86.33    9.11
   8 -14  -1   84.47   10.41
  -8  14   0  217.54   11.24
   8 -14   0  195.89   11.89
  -8  14  -1  203.79   11.15
   8 -14   1  208.06   11.80
  -8  14  -2  313.26   12.92
   8 -14   2  306.57   13.66
  -8  14  -3  161.42   10.31
   8 -14   3  156.49   11.52
  -8  14  -4   30.39    8.46
   8 -14   4   48.69   10.13
  -8  14  -5   85.21    9.11
   8 -14   5   92.93   10.22
  -8  14  -6    6.50    7.71
   8 -14   6   22.02    9.29
  -8  14  -7   42.47    8.27
   8 -14   7   40.61    9.57
  -8  14  -8    3.25    7.71
   8 -14   8    0.93    9.57
  -8  14  -9   11.62    8.27
   8 -14   9    1.39    9.20
  -8  14 -10   80.29    9.11
   8 -14  10   84.66    9.39
  -8  14 -11   51.11    8.64
   8 -14  11  300.34   11.80
  -8  14 -12   65.51    9.57
   8 -14  12   56.78    9.85
  -8  13   5   53.81    9.01
   8 -13  -5   76.39   10.50
  -8  13   4   40.61    8.46
   8 -13  -4   38.47   10.22
  -8  13   3  163.65   10.50
   8 -13  -3  152.77   11.24
  -8  13   2  333.42   13.57
   8 -13  -2  281.01   13.38
  -8  13   1  221.91   11.80
   8 -13  -1  253.13   12.64
  -8  13   0  211.60   11.06
   8 -13   0  194.68   12.36
  -8  13  -1  191.34   11.34
   8 -13   1  192.73   11.89
  -8  13  -2   99.15    9.39
   8 -13   2   91.91   10.50
  -8  13  -3   88.00    9.29
   8 -13   3   84.75   10.50
  -8  13  -4   -8.83    7.90
   8 -13   4    0.09    9.39
  -8  13  -5   21.19    8.64
   8 -13   5   16.36    8.55
  -8  13  -6  166.06   11.15
   8 -13   6  154.17   11.06
  -8  13  -7  153.14   10.04
   8 -13   7  151.10   11.06
  -8  13  -8  122.76   10.41
   8 -13   8  101.20   10.22
  -8  13  -9  423.28   15.52
   8 -13   9  390.95   15.15
  -8  13 -10  226.00   11.71
   8 -13  10  235.29   12.17
  -8  13 -11  110.40   10.13
   8 -13  11  106.77    9.20
  -8  13 -12   22.12    9.57
   8 -13  12   28.71    8.08
  -8  13 -13   18.31    8.83
   8 -13  13   16.17    8.08
  -8  12   7   -5.48    8.74
   8 -12  -7    2.14    8.55
  -8  12   6    3.81    8.83
   8 -12  -6   20.07    9.48
  -8  12   5  148.13   10.22
   8 -12  -5  140.51   11.24
  -8  12   4  317.63   13.66
   8 -12  -4  337.14   14.59
  -8  12   3  279.15   12.92
   8 -12  -3  283.61   13.57
  -8  12   2  190.32   11.15
   8 -12  -2  215.59   11.89
  -8  12   1  194.13   11.24
   8 -12  -1  182.70   11.99
  -8  12   0  101.85   10.13
   8 -12   0   96.09   10.69
  -8  12  -1   29.55    9.20
   8 -12   1   15.89    9.66
  -8  12  -2   26.67    8.92
   8 -12   2   59.38    9.85
  -8  12  -3    6.78    8.18
   8 -12   3   10.59    9.20
  -8  12  -4   72.48    9.57
   8 -12   4   66.91   10.22
  -8  12  -5  211.13   11.52
   8 -12   5  223.58   12.08
  -8  12  -6  394.11   15.24
   8 -12   6  436.39   16.63
  -8  12  -7  336.77   14.31
   8 -12   7  345.88   14.78
  -8  12  -8  346.15   14.59
   8 -12   8  354.52   14.40
  -8  12  -9  231.85   12.27
   8 -12   9  226.46   12.36
  -8  12 -10  203.79   11.80
   8 -12  10  189.67   11.52
  -8  12 -11   56.22    9.66
   8 -12  11   71.65    9.76
  -8  12 -12   -1.12    8.74
   8 -12  12   10.13    9.01
  -8  12 -13   20.17    9.11
   8 -12  13   21.75    9.01
  -8  12 -14   89.49    9.94
  -8  12 -14   83.45   10.13
  -8  11   9    2.97    9.57
   8 -11  -9    5.76    9.57
  -8  11   8    5.58    8.92
   8 -11  -8   -3.16    8.55
  -8  11   7  183.90   10.78
   8 -11  -7  212.34   11.62
  -8  11   6  231.39   12.27
   8 -11  -6  232.41   12.27
  -8  11   5  527.92   18.03
   8 -11  -5  556.08   18.77
  -8  11   4  475.32   16.73
   8 -11  -4  454.14   17.19
  -8  11   3  294.67   13.66
   8 -11  -3  274.60   13.57
  -8  11   2   87.35   10.31
   8 -11  -2   97.11   10.59
  -8  11   1    6.50    8.27
   8 -11  -1   -5.58    9.20
  -8  11   0   10.78    8.55
   8 -11   0   -0.56    9.39
  -8  11  -1    6.23    8.46
   8 -11   1   -1.30    9.11
  -8  11  -2   76.11    9.39
   8 -11   2   51.39    9.29
  -8  11  -3  294.58   13.10
   8 -11   3  279.90   12.82
  -8  11  -4  112.72    9.66
   8 -11   4  130.84   10.87
  -8  11  -5  104.73   10.04
   8 -11   5  100.64   10.59
  -8  11  -6  119.69   10.69
   8 -11   6  111.05   10.13
  -8  11  -7  186.69   11.43
   8 -11   7  190.97   12.55
  -8  11  -8  365.86   14.68
   8 -11   8  361.21   14.96
  -8  11  -9  187.71   11.80
   8 -11   9  177.21   11.43
  -8  11 -10   27.23    9.01
   8 -11  10    2.14    9.01
  -8  11 -11   59.85    9.39
   8 -11  11   52.13    8.64
  -8  11 -12   49.62    9.01
   8 -11  12   25.37    8.55
  -8  11 -13   89.86   10.41
   8 -11  13   77.59    9.20
  -8  11 -14   52.78    9.29
  -8  10  10   16.26    8.74
   8 -10 -10    9.94    9.39
  -8  10   9   15.80    8.74
   8 -10  -9    4.00    9.29
  -8  10   8  393.46   15.15
   8 -10  -8  367.44   15.15
  -8  10   7  268.37   12.92
   8 -10  -7  267.45   13.20
  -8  10   6  424.03   15.61
   8 -10  -6  424.86   15.89
  -8  10   5  370.87   14.96
   8 -10  -5  368.09   15.33
  -8  10   4  146.83   10.41
   8 -10  -4  166.43   12.36
  -8  10   3   15.43    8.64
   8 -10  -3   22.12    8.92
  -8  10   2   24.25    9.20
   8 -10  -2  -15.24    9.76
  -8  10   1    2.60    9.11
   8 -10  -1    6.13    8.55
  -8  10   0   19.61    8.83
   8 -10   0  -11.52    8.83
  -8  10  -1   91.25    9.94
   8 -10   1  102.50   10.13
  -8  10  -2  129.17   10.41
   8 -10   2  144.32   10.97
  -8  10  -3  189.57   11.62
   8 -10   3  210.57   11.99
  -8  10  -4  471.98   16.82
   8 -10   4  456.55   16.08
  -8  10  -5  371.52   14.96
   8 -10   5  332.68   13.85
  -8  10  -6   86.98    9.85
   8 -10   6   77.59    9.20
  -8  10  -7   40.33    9.39
   8 -10   7   24.44    8.92
  -8  10  -8    9.85    9.29
   8 -10   8   19.05    9.20
  -8  10  -9   44.98    9.66
   8 -10   9   44.98    9.85
  -8  10 -10  119.78   10.22
   8 -10  10  133.44   11.24
  -8  10 -11  190.59   11.06
   8 -10  11  192.73   10.78
  -8  10 -12  450.42   16.17
   8 -10  12  398.29   14.78
  -8  10 -13  151.10   11.06
   8 -10  13  159.09   10.50
  -8  10 -14  171.45   11.06
  -8   9  11   68.02    9.48
   8  -9 -11   55.20    9.66
  -8   9  10  245.70   11.99
   8  -9 -10  262.33   12.73
  -8   9   9  662.11   20.26
   8  -9  -9  636.65   20.17
  -8   9   8  450.79   16.26
   8  -9  -8  437.32   15.70
  -8   9   7  449.12   16.54
   8  -9  -7  440.57   15.43
  -8   9   6  143.48   10.97
   8  -9  -6  113.37   10.13
  -8   9   5   22.21    9.01
   8  -9  -5    7.53    9.48
  -8   9   4   35.87    8.92
   8  -9  -4   42.00    9.76
  -8   9   3  116.53   10.31
   8  -9  -3   94.51   10.22
  -8   9   2  185.39   11.34
   8  -9  -2  210.02   11.62
  -8   9   1  647.52   19.89
   8  -9  -1  638.78   20.17
  -8   9   0  253.79   12.55
   8  -9   0  269.03   12.73
  -8   9  -1   65.98    9.39
   8  -9   1   54.46    9.20
  -8   9  -2   86.14    9.94
   8  -9   2   83.26    9.57
  -8   9  -3  325.71   13.94
   8  -9   3  297.93   13.29
  -8   9  -4  109.19   10.78
   8  -9   4  104.92   10.13
  -8   9  -5   23.51    9.11
   8  -9   5   25.83    8.83
  -8   9  -6  253.97   12.64
   8  -9   6  246.91   12.55
  -8   9  -7   70.62   10.13
   8  -9   7   80.48   10.13
  -8   9  -8    4.46    9.39
   8  -9   8    4.55    9.11
  -8   9  -9  105.19   10.78
   8  -9   9  122.66   10.50
  -8   9 -10  294.58   13.20
   8  -9  10  300.06   13.57
  -8   9 -11  312.52   13.47
   8  -9  11  322.64   14.03
  -8   9 -12  183.62   11.99
   8  -9  12  196.63   11.99
  -8   9 -13  216.99   12.08
   8  -9  13  189.11   11.06
  -8   9 -14   -3.07    8.74
  -8   9 -14   -4.55    8.18
  -8   9 -15   -7.34    8.55
  -8   8  12   45.35    9.01
   8  -8 -12   36.52    8.55
  -8   8  11  348.57   13.66
   8  -8 -11  372.08   14.78
  -8   8  10  478.86   16.54
   8  -8 -10  488.71   17.10
  -8   8   9  498.00   17.01
   8  -8  -9  486.01   17.10
  -8   8   8  254.16   12.82
   8  -8  -8  271.16   13.10
  -8   8   7   49.07    9.39
   8  -8  -7   21.75    8.74
  -8   8   6  108.17   10.04
   8  -8  -6   87.44   10.22
  -8   8   5  149.06   10.97
   8  -8  -5  164.67   10.41
  -8   8   4  264.66   12.55
   8  -8  -4  272.74   13.57
  -8   8   3  538.42   18.31
   8  -8  -3  522.53   17.84
  -8   8   2 1620.66   41.54
   8  -8  -2 1592.78   40.98
  -8   8   1  960.87   26.86
   8  -8  -1  958.08   27.13
  -8   8   0  318.00   14.12
   8  -8   0  294.67   13.38
  -8   8  -1  189.48   11.71
   8  -8   1  204.91   11.89
  -8   8  -2   71.28    9.85
   8  -8   2   72.48    9.76
  -8   8  -3   -4.93    8.46
   8  -8   3    5.48    8.55
  -8   8  -4   23.23    8.83
   8  -8   4   22.02    8.64
  -8   8  -5    3.90    8.55
   8  -8   5    3.72    8.64
  -8   8  -6  327.29   14.59
   8  -8   6  327.29   14.03
  -8   8  -7  743.79   22.95
   8  -8   7  757.55   23.05
  -8   8  -8  198.86   12.92
   8  -8   8  206.02   11.80
  -8   8  -9  151.75   11.62
   8  -8   9  150.54   11.24
  -8   8 -10   55.11   10.04
   8  -8  10   76.29   10.31
  -8   8 -11  224.05   12.45
   8  -8  11  224.98   11.89
  -8   8 -12   81.50   10.04
   8  -8  12   90.23    9.76
  -8   8 -13   15.43    9.48
   8  -8  13    3.62    8.18
  -8   8 -15    6.41    8.08
  -8   7  13   76.48    9.94
   8  -7 -13   75.92    8.92
  -8   7  12  240.68   12.27
   8  -7 -12  266.33   12.55
  -8   7  11  103.61   10.04
   8  -7 -11  109.56   10.69
  -8   7  10  241.70   12.17
   8  -7 -10  242.35   12.64
  -8   7   9  185.86   11.71
   8  -7  -9  202.02   11.80
  -8   7   8   59.01    9.85
   8  -7  -8   49.07    9.66
  -8   7   7  104.54   10.22
   8  -7  -7  111.70    9.76
  -8   7   6  114.02    9.48
   8  -7  -6  102.22   10.31
  -8   7   5   46.09    9.20
   8  -7  -5   37.73    9.48
  -8   7   4  141.53   11.24
   8  -7  -4  138.37   11.43
  -8   7   3  867.39   25.09
   8  -7  -3  818.51   24.25
  -8   7   2  591.48   19.24
   8  -7  -2  602.08   19.79
  -8   7   1  312.98   13.47
   8  -7  -1  317.35   14.12
  -8   7   0   72.11    9.11
   8  -7   0   76.39    9.85
  -8   7  -1   -3.72    8.46
   8  -7   1    7.25    8.64
  -8   7  -2   38.01    8.55
   8  -7   2   42.28    9.01
  -8   7  -3  106.59   10.04
   8  -7   3  116.35    9.94
  -8   7  -4  288.73   13.66
   8  -7   4  305.55   13.47
  -8   7  -5  461.11   16.54
   8  -7   5  456.74   16.54
  -8   7  -6  470.40   16.91
   8  -7   6  468.91   16.73
  -8   7  -7  355.73   14.68
   8  -7   7  303.87   13.57
  -8   7  -8  372.55   14.87
   8  -7   8  327.66   14.59
  -8   7  -9  106.59   10.13
   8  -7   9  120.34   11.24
  -8   7 -10  101.57   10.87
   8  -7  10  109.00   11.06
  -8   7 -11   13.75   10.13
   8  -7  11   -8.92    9.66
  -8   7 -12    9.01    9.85
   8  -7  12    2.32    8.46
  -8   7 -13    7.06   10.50
   8  -7  13    9.94    8.64
  -8   7 -14   42.56    9.66
  -8   7 -14   22.49    9.29
  -8   6  14  180.28   11.34
   8  -6 -14  187.06   10.97
  -8   6  13  322.46   13.29
   8  -6 -13  298.58   13.01
  -8   6  12   91.53   10.31
   8  -6 -12  107.15   10.31
  -8   6  11  107.42   10.69
   8  -6 -11  142.55   10.97
  -8   6  10   15.33    9.76
   8  -6 -10   27.41    9.85
  -8   6   9  194.59   12.36
   8  -6  -9  209.92   12.36
  -8   6   8  388.07   15.80
   8  -6  -8  398.29   15.89
  -8   6   7  447.91   16.45
   8  -6  -7  450.14   16.45
  -8   6   6  344.02   13.47
   8  -6  -6  332.59   14.12
  -8   6   5  527.92   17.94
   8  -6  -5  540.84   18.03
  -8   6   4  464.54   16.54
   8  -6  -4  521.88   18.59
  -8   6   3  207.88   12.36
   8  -6  -3  197.47   11.99
  -8   6   2  216.99   12.55
   8  -6  -2  215.50   11.62
  -8   6   1  170.24   11.52
   8  -6  -1  156.30   10.87
  -8   6   0  117.83   10.97
   8  -6   0  103.43   10.41
  -8   6  -1   35.50    8.46
   8  -6   1   30.48    8.08
  -8   6  -2   51.11    9.76
   8  -6   2   61.61    9.48
  -8   6  -3  694.73   21.56
   8  -6   3  714.52   22.21
  -8   6  -4  315.86   13.94
   8  -6   4  318.28   14.03
  -8   6  -5  112.72   10.87
   8  -6   5   97.48    9.94
  -8   6  -6  299.23   13.94
   8  -6   6  327.01   14.22
  -8   6  -7  323.67   14.59
   8  -6   7  325.99   14.50
  -8   6  -8   13.57    8.83
   8  -6   8    9.94    9.20
  -8   6  -9   13.20    9.39
   8  -6   9   21.00   10.22
  -8   6 -10   42.65    9.29
   8  -6  10   45.44   10.04
  -8   6 -11  -25.65    9.11
   8  -6  11    6.32    9.57
  -8   6 -12   98.97   10.31
   8  -6  12   86.24    9.76
  -8   6 -13   84.94   10.69
  -8   6 -14    7.43    8.74
  -8   6 -14   10.97    9.29
  -8   5  14   96.46   10.22
   8  -5 -14   73.04    9.66
  -8   5  13   29.92    8.74
   8  -5 -13   28.71    9.20
  -8   5  12   19.70    9.20
   8  -5 -12   21.56    9.48
  -8   5  11   47.76   10.41
   8  -5 -11   47.86    9.20
  -8   5  10   96.64   10.31
   8  -5 -10   92.65   10.50
  -8   5   9   -4.55    8.83
   8  -5  -9   -0.19    9.01
  -8   5   8  107.42   10.97
   8  -5  -8  113.56   10.69
  -8   5   7  510.73   17.47
   8  -5  -7  462.78   16.63
  -8   5   6  568.90   18.68
   8  -5  -6  612.39   19.70
  -8   5   5  180.47   11.43
   8  -5  -5  178.14   11.89
  -8   5   4  307.40   13.01
   8  -5  -4  295.42   13.94
  -8   5   3  118.48   10.22
   8  -5  -3  118.76   10.50
  -8   5   2   43.58    9.20
   8  -5  -2   55.48    9.94
  -8   5   1  703.18   21.65
   8  -5  -1  692.59   21.37
  -8   5   0  414.92   16.08
   8  -5   0  369.57   15.05
  -8   5  -1  155.19   10.97
   8  -5   1  153.61   10.50
  -8   5  -2 1156.95   31.78
   8  -5   2 1078.89   29.92
  -8   5  -3  998.97   28.44
   8  -5   3 1017.56   28.34
  -8   5  -4  263.08   13.47
   8  -5   4  289.38   13.38
  -8   5  -5  167.92   11.80
   8  -5   5  166.43   11.24
  -8   5  -6   34.01   10.22
   8  -5   6   23.23    8.64
  -8   5  -7   66.16   10.50
   8  -5   7   59.75    9.66
  -8   5  -8    1.21    8.83
   8  -5   8   19.24    8.83
  -8   5  -9  145.80   10.78
   8  -5   9  163.74   11.43
  -8   5 -10  253.97   12.73
   8  -5  10  253.23   12.92
  -8   5 -11  381.56   15.80
   8  -5  11  387.14   14.59
  -8   5 -12  145.52   10.87
   8  -5  12  135.67   10.31
  -8   5 -13   96.74    9.76
  -8   5 -13   83.63   10.13
  -8   5 -14   31.04    7.53
  -8   5 -14   39.12    9.39
  -8   4  15   -2.51    9.85
   8  -4 -15   -4.46    9.39
  -8   4  14   -0.19    9.11
   8  -4 -14   20.35    9.85
  -8   4  13  114.58   10.41
   8  -4 -13  123.78   10.50
  -8   4  12  408.42   15.80
   8  -4 -12  415.39   16.08
  -8   4  11  896.01   25.65
   8  -4 -11  903.81   25.93
  -8   4  10  334.45   14.68
   8  -4 -10  291.33   13.94
  -8   4   9  381.19   15.15
   8  -4  -9  351.54   15.05
  -8   4   8  387.60   14.78
   8  -4  -8  394.29   15.70
  -8   4   7  434.62   16.63
   8  -4  -7  435.27   16.08
  -8   4   6   35.96    9.11
   8  -4  -6   44.61    9.48
  -8   4   5  177.03   12.08
   8  -4  -5  177.21   11.62
  -8   4   4    3.90    8.92
   8  -4  -4    6.13    8.55
  -8   4   3  171.92   11.24
   8  -4  -3  179.63   11.43
  -8   4   2  333.61   14.40
   8  -4  -2  341.32   14.50
  -8   4   1  317.63   13.94
   8  -4  -1  330.54   14.12
  -8   4   0  249.88   12.64
   8  -4   0  281.85   13.38
  -8   4  -1 1333.51   34.94
   8  -4   1 1274.97   34.29
  -8   4  -2  565.00   18.31
   8  -4   2  559.14   18.49
  -8   4  -3   41.72    8.46
   8  -4   3   53.81    9.29
  -8   4  -4   10.22    8.55
   8  -4   4    0.93    7.71
  -8   4  -5   22.12    8.64
   8  -4   5   19.33    8.92
  -8   4  -6   10.87    9.11
   8  -4   6   12.82    8.83
  -8   4  -7   67.56   10.13
   8  -4   7   77.32    9.94
  -8   4  -8   70.07   10.97
   8  -4   8   98.04   10.59
  -8   4  -9  155.28   12.08
   8  -4   9  163.83   11.80
  -8   4 -10  290.03   14.22
   8  -4  10  271.35   12.82
  -8   4 -11  284.54   12.64
   8  -4  11  311.03   13.47
  -8   4 -12  257.04   12.73
   8  -4  12  273.49   11.99
  -8   4 -13    8.74    9.11
  -8   4 -13   23.88   10.13
  -8   3  16    7.25    8.36
   8  -3 -16    4.00    9.01
  -8   3  15   28.62    9.29
   8  -3 -15   40.42    9.66
  -8   3  14  378.12   14.68
   8  -3 -14  384.16   14.96
  -8   3  13  525.23   17.84
   8  -3 -13  534.61   18.31
  -8   3  12  664.43   20.91
   8  -3 -12  726.23   22.12
  -8   3  11  322.64   13.57
   8  -3 -11  321.34   14.22
  -8   3  10  197.38   12.45
   8  -3 -10  187.34   12.17
  -8   3   9  254.44   13.29
   8  -3  -9  279.80   13.38
  -8   3   8  293.37   13.57
   8  -3  -8  309.54   13.66
  -8   3   7   22.67    8.74
   8  -3  -7   24.25    9.01
  -8   3   6   18.68    8.74
   8  -3  -6    3.44    9.11
  -8   3   5   90.98    9.11
   8  -3  -5   97.57   10.41
  -8   3   4  626.15   19.61
   8  -3  -4  611.93   19.70
  -8   3   3  395.03   15.43
   8  -3  -3  400.42   15.52
  -8   3   2  840.25   24.81
   8  -3  -2  761.36   22.67
  -8   3   1 1179.25   32.62
   8  -3  -1 1107.70   30.57
  -8   3   0  184.74   11.99
   8  -3   0  218.38   12.17
  -8   3  -1   29.09    9.57
   8  -3   1   33.55    9.01
  -8   3  -2  149.71   11.52
   8  -3   2  166.34   11.06
  -8   3  -3  -10.13    8.92
   8  -3   3    9.48    7.90
  -8   3  -4  296.07   14.03
   8  -3   4  279.99   13.01
  -8   3  -5  313.26   14.40
   8  -3   5  296.25   13.75
  -8   3  -6  749.46   22.95
   8  -3   6  780.59   23.51
  -8   3  -7  188.74   11.99
   8  -3   7  205.00   12.27
  -8   3  -8  397.36   15.61
   8  -3   8  388.53   15.33
  -8   3  -9  373.38   14.40
   8  -3   9  363.07   15.05
  -8   3 -10  286.59   13.66
   8  -3  10  263.17   13.29
  -8   3 -11   44.79    9.01
   8  -3  11   54.08    9.29
  -8   3 -12   -5.58    9.11
  -8   3 -12  -13.85    8.92
  -8   3 -13   11.99    9.29
  -8   3 -13   35.78    9.11
  -8   2  16  -10.59    8.08
   8  -2 -16   11.52    8.83
  -8   2  15  207.32   11.62
   8  -2 -15  230.92   12.36
  -8   2  14  169.04   11.52
   8  -2 -14  167.83   11.52
  -8   2  13  172.10   11.15
   8  -2 -13  160.76   12.08
  -8   2  12  208.25   12.55
   8  -2 -12  208.16   12.17
  -8   2  11  115.32   10.87
   8  -2 -11  108.73   10.87
  -8   2  10   55.66    9.39
   8  -2 -10   84.29   10.41
  -8   2   9   46.18    9.29
   8  -2  -9   42.65   10.04
  -8   2   8   27.69    9.20
   8  -2  -8   13.57    8.64
  -8   2   7  151.01   10.87
   8  -2  -7  147.57   11.06
  -8   2   6  505.62   18.03
   8  -2  -6  474.58   17.38
  -8   2   5 1065.88   29.74
   8  -2  -5 1014.77   28.71
  -8   2   4  421.61   16.45
   8  -2  -4  423.56   15.98
  -8   2   3  409.44   15.89
   8  -2  -3  421.33   16.17
  -8   2   2  535.82   18.12
   8  -2  -2  544.28   18.77
  -8   2   1  151.56   10.22
   8  -2  -1  126.47   10.69
  -8   2   0   27.69    8.83
   8  -2   0   24.07    8.92
  -8   2  -1   40.14    9.01
   8  -2   1   52.41    9.66
  -8   2  -2  177.96   10.78
   8  -2   2  171.27   11.06
  -8   2  -3  529.04   17.38
   8  -2   3  565.00   18.68
  -8   2  -4    8.36    9.11
   8  -2   4    2.32    9.01
  -8   2  -5   91.25    9.48
   8  -2   5   85.77    9.85
  -8   2  -6  118.67   10.50
   8  -2   6  110.12    9.76
  -8   2  -7  279.43   13.29
   8  -2   7  289.84   13.75
  -8   2  -8   51.48    9.76
   8  -2   8   46.46    9.57
  -8   2  -9   87.17   10.04
   8  -2   9   64.40    9.66
  -8   2 -10   55.38   10.13
   8  -2  10   17.47    9.48
  -8   2 -11   19.05    8.36
   8  -2  11   25.65    8.83
  -8   2 -12   -0.37    9.48
  -8   2 -12   10.50    8.55
  -8   1  16  197.38   10.87
   8  -1 -16  198.96   11.71
  -8   1  15  203.98   11.62
   8  -1 -15  188.83   11.89
  -8   1  14   63.66    8.74
   8  -1 -14   66.91    9.85
  -8   1  13  244.96   13.20
   8  -1 -13  223.96   12.55
  -8   1  12   55.20    9.48
   8  -1 -12   54.55   10.22
  -8   1  11    8.36    9.66
   8  -1 -11    2.23    9.66
  -8   1  10    7.99    9.57
   8  -1 -10    8.18    9.48
  -8   1   9   10.13    9.29
   8  -1  -9   12.45    9.11
  -8   1   8  588.32   19.14
   8  -1  -8  565.09   18.86
  -8   1   7  780.68   22.95
   8  -1  -7  762.84   22.86
  -8   1   6  767.58   22.12
   8  -1  -6  776.13   23.05
  -8   1   5  352.20   14.40
   8  -1  -5  365.11   14.59
  -8   1   4  327.85   13.85
   8  -1  -4  355.08   14.68
  -8   1   3  770.74   23.70
   8  -1  -3  749.83   22.49
  -8   1   2   32.99    9.20
   8  -1  -2   29.83    9.20
  -8   1   1   25.93    9.76
   8  -1  -1    6.88    8.64
  -8   1   0  151.47   11.52
   8  -1   0  147.20   10.50
  -8   1  -1  370.32   15.80
   8  -1   1  316.23   13.75
  -8   1  -2  166.80   11.80
   8  -1   2  159.28   10.87
  -8   1  -3   32.34    9.48
   8  -1   3   38.38    8.46
  -8   1  -4  344.76   15.33
   8  -1   4  371.34   14.87
  -8   1  -5  225.07   12.45
   8  -1   5  223.77   12.17
  -8   1  -6    6.13   10.04
   8  -1   6    8.46    9.01
  -8   1  -7   14.96    9.66
   8  -1   7    9.29    9.76
  -8   1  -8  195.89   12.08
   8  -1   8  193.48   11.52
  -8   1  -9   32.06    9.66
   8  -1   9   47.95    9.57
  -8   1 -10   17.10    9.57
   8  -1  10    7.16    8.92
  -8   1 -11   50.27    9.11
  -8   1 -11   45.16    9.48
  -8   1 -12   81.03    9.57
  -8   1 -12   76.39   10.31
  -8   0  16  225.91   10.87
   8   0 -16  198.77   11.80
  -8   0  15   73.78   10.31
   8   0 -15   70.81   10.13
  -8   0  14   58.08    9.39
   8   0 -14   51.95    9.66
  -8   0  13    2.23    9.29
   8   0 -13    8.27    9.57
  -8   0  12   11.15    9.29
   8   0 -12   -0.93    9.94
  -8   0  11  159.00   10.97
   8   0 -11  170.89   11.99
  -8   0  10   36.52    9.57
   8   0 -10   21.75    9.39
  -8   0   9  574.01   19.42
   8   0  -9  524.85   17.84
  -8   0   8  614.72   20.54
   8   0  -8  613.97   19.42
  -8   0   7  227.95   12.82
   8   0  -7  207.60   12.27
  -8   0   6  210.29   12.27
   8   0  -6  210.29   12.82
  -8   0   5  221.82   12.36
   8   0  -5  224.51   11.89
  -8   0   4   46.84    9.48
   8   0  -4   43.68    9.20
  -8   0   3  223.96   11.43
   8   0  -3  231.02   11.99
  -8   0   2  366.41   14.59
   8   0  -2  393.64   15.43
  -8   0   1 1359.53   35.50
   8   0  -1 1300.06   34.66
  -8   0   0 1401.35   36.43
   8   0   0 1347.45   35.50
  -8   0  -1  804.57   23.42
   8   0   1  732.73   22.02
  -8   0  -2  605.52   19.14
   8   0   2  597.99   18.96
  -8   0  -3  282.59   12.73
   8   0   3  285.75   13.10
  -8   0  -4  140.41   11.06
   8   0   4  172.01   11.34
  -8   0  -5   24.81    9.01
   8   0   5   44.79    8.74
  -8   0  -6   14.03    8.64
   8   0   6  -17.38    9.29
  -8   0  -7  -11.80    8.74
   8   0   7   17.19    9.01
  -8   0  -8   34.29    9.76
   8   0   8   26.86    9.57
  -8   0  -9   49.07   10.04
   8   0   9   34.94    8.92
  -8   0 -10   -5.39    9.11
  -8   0 -10   -7.53    9.01
  -8   0 -11   18.68    9.11
  -8   0 -11  -12.64    9.01
  -8  -1  17   39.59    9.29
  -8  -1  16   -2.69    8.74
   8   1 -16    6.04    9.11
  -8  -1  15   16.63    9.11
   8   1 -15  -12.55    9.57
  -8  -1  14   12.55    9.01
   8   1 -14    8.55    9.48
  -8  -1  13   18.96    9.20
   8   1 -13   19.70    9.57
  -8  -1  12  432.95   16.26
   8   1 -12  431.93   16.36
  -8  -1  11  361.30   14.96
   8   1 -11  354.89   15.24
  -8  -1  10  979.46   27.51
   8   1 -10 1017.56   28.81
  -8  -1   9 1286.12   33.73
   8   1  -9 1274.97   33.92
  -8  -1   8  262.71   12.45
   8   1  -8  290.03   13.57
  -8  -1   7   80.10    9.66
   8   1  -7   66.07    9.94
  -8  -1   6    9.85    8.64
   8   1  -6   18.96    8.18
  -8  -1   5   19.61    9.39
   8   1  -5   10.13    8.83
  -8  -1   4   81.96   10.50
   8   1  -4   40.70    9.48
  -8  -1   3    7.34    9.20
   8   1  -3   19.79    8.64
  -8  -1   2  746.21   23.14
   8   1  -2  763.77   23.05
  -8  -1   1  829.38   24.90
   8   1  -1  822.13   24.35
  -8  -1   0  143.57   10.87
   8   1   0  134.19   10.31
  -8  -1  -1  290.49   13.29
   8   1   1  290.77   13.10
  -8  -1  -2  138.28   10.97
   8   1   2  106.68   10.50
  -8  -1  -3  180.09   12.08
   8   1   3  184.28   11.34
  -8  -1  -4  -11.71    9.66
   8   1   4    0.84    8.55
  -8  -1  -5  204.72   12.27
   8   1   5  209.37   12.08
  -8  -1  -6  660.16   20.91
   8   1   6  695.38   21.37
  -8  -1  -7  266.14   13.10
   8   1   7  273.11   12.92
  -8  -1  -8  101.94   10.59
   8   1   8  127.40   10.41
  -8  -1 -10  115.23    9.76
  -8  -1 -10   85.03    9.29
  -8  -2  17  -13.01    9.48
  -8  -2  16    6.23    8.92
   8   2 -16   12.27    8.83
  -8  -2  15   64.12    9.94
   8   2 -15   72.76    9.66
  -8  -2  14  124.15   10.41
   8   2 -14  143.39   11.52
  -8  -2  13  204.35   11.89
   8   2 -13  235.20   12.92
  -8  -2  12  164.39   11.24
   8   2 -12  153.05   11.62
  -8  -2  11  331.01   14.59
   8   2 -11  332.40   14.68
  -8  -2  10  556.36   19.24
   8   2 -10  554.31   18.49
  -8  -2   9  104.54   10.59
   8   2  -9  102.78   10.41
  -8  -2   8    6.41    9.20
   8   2  -8    8.64    9.20
  -8  -2   7    3.25    9.01
   8   2  -7   -2.51    8.74
  -8  -2   6   47.95    8.64
   8   2  -6   47.76    9.39
  -8  -2   5  235.94   11.71
   8   2  -5  215.68   11.71
  -8  -2   4  432.39   15.70
   8   2  -4  461.76   16.45
  -8  -2   3 1063.09   29.18
   8   2  -3 1004.55   27.97
  -8  -2   2  675.49   20.82
   8   2  -2  670.19   20.82
  -8  -2   1  122.66   10.41
   8   2  -1  131.77   10.22
  -8  -2   0  328.41   14.31
   8   2   0  329.06   13.29
  -8  -2  -1   13.57    9.66
   8   2   1   25.18    8.46
  -8  -2  -2    8.92    9.57
   8   2   2   19.51    8.74
  -8  -2  -3   45.91    9.11
   8   2   3   68.30    9.76
  -8  -2  -4    7.81    9.85
   8   2   4   15.80    8.18
  -8  -2  -5  253.32   13.29
   8   2   5  227.30   11.99
  -8  -2  -6  191.15   12.73
   8   2   6  170.52   11.52
  -8  -2  -7  270.05   13.01
   8   2   7  238.73   12.08
  -8  -2  -8  361.30   14.40
  -8  -2  -9   -8.36    9.11
  -8  -2  -9    6.23    8.92
  -8  -3  16   19.51    9.29
   8   3 -16   15.70    9.11
  -8  -3  15  217.26   12.45
   8   3 -15  172.75   12.45
  -8  -3  14  157.98   11.34
   8   3 -14  137.72   11.89
  -8  -3  13  480.71   16.91
   8   3 -13  473.37   17.19
  -8  -3  12  220.70   12.45
   8   3 -12  236.41   12.64
  -8  -3  11   84.47   10.78
   8   3 -11   98.04   10.41
  -8  -3  10   22.30   10.59
   8   3 -10   15.61    8.74
  -8  -3   9  -10.97    9.66
   8   3  -9   12.17    9.20
  -8  -3   8  -10.78    8.83
   8   3  -8   12.08    9.48
  -8  -3   7  282.78   13.94
   8   3  -7  287.24   13.01
  -8  -3   6  444.84   16.82
   8   3  -6  422.63   15.80
  -8  -3   5  607.00   19.61
   8   3  -5  610.81   19.51
  -8  -3   4  104.92   10.50
   8   3  -4   95.34   10.41
  -8  -3   3   14.22    9.57
   8   3  -3   21.93    8.36
  -8  -3   2   94.32    9.76
   8   3  -2   92.09    9.39
  -8  -3   1  341.04   13.85
   8   3  -1  330.73   13.57
  -8  -3   0    7.25    9.11
   8   3   0    8.46    7.99
  -8  -3  -1   48.88    9.57
   8   3   1   59.85    8.83
  -8  -3  -2   46.93    9.85
   8   3   2   62.82    9.76
  -8  -3  -3   79.27    9.29
   8   3   3   79.64    9.48
  -8  -3  -4  721.86   21.84
   8   3   4  710.34   21.37
  -8  -3  -5  432.67   16.26
   8   3   5  435.64   15.70
  -8  -3  -6   92.74   10.87
   8   3   6   88.28    9.48
  -8  -3  -7   69.88    9.76
  -8  -3  -8   46.46    9.29
  -8  -3  -8   30.39    9.01
  -8  -4  16  275.25   12.45
   8   4 -16  244.40   12.08
  -8  -4  15  153.80   10.97
   8   4 -15  153.52   12.27
  -8  -4  14  361.67   14.40
   8   4 -14  340.49   14.96
  -8  -4  13   50.09   10.13
   8   4 -13   53.15    9.66
  -8  -4  12    7.43    9.48
   8   4 -12   12.45    9.57
  -8  -4  11   49.44    9.76
   8   4 -11   41.63    9.29
  -8  -4  10   82.15   10.50
   8   4 -10   78.43    9.94
  -8  -4   9  188.64   12.17
   8   4  -9  198.21   11.71
  -8  -4   8  530.43   18.59
   8   4  -8  502.09   17.10
  -8  -4   7  152.03   10.97
   8   4  -7  144.60   10.69
  -8  -4   6  633.39   20.63
   8   4  -6  640.27   19.89
  -8  -4   5  210.85   11.99
   8   4  -5  198.21   10.97
  -8  -4   4   53.81    9.39
   8   4  -4   54.27    8.46
  -8  -4   3   81.13   10.59
   8   4  -3   58.17    9.01
  -8  -4   2    4.65    8.46
   8   4  -2    4.27    8.08
  -8  -4   1    7.34    8.92
   8   4  -1   14.68    8.46
  -8  -4   0   12.64    9.29
   8   4   0   12.82    9.01
  -8  -4  -1   90.42   10.59
   8   4   1  124.89   10.59
  -8  -4  -2  340.30   14.12
   8   4   2  340.11   13.75
  -8  -4  -3  476.25   16.91
   8   4   3  446.52   15.70
  -8  -4  -4  223.03   11.71
   8   4   4  238.08   11.89
  -8  -4  -5   94.60   10.69
   8   4   5  113.28    9.66
  -8  -4  -6   29.18    9.66
  -8  -5  15  192.64   11.24
   8   5 -15  173.77   11.80
  -8  -5  14   58.36    9.57
   8   5 -14   63.28   10.59
  -8  -5  13   90.42   10.59
   8   5 -13   76.01    9.94
  -8  -5  12  208.53   11.89
   8   5 -12  196.54   11.52
  -8  -5  11  378.87   14.96
   8   5 -11  380.82   15.05
  -8  -5  10  517.51   18.03
   8   5 -10  560.07   18.86
  -8  -5   9  645.75   20.44
   8   5  -9  659.69   20.44
  -8  -5   8  418.36   15.89
   8   5  -8  428.40   16.08
  -8  -5   7  741.19   22.49
   8   5  -7  808.38   23.70
  -8  -5   6   84.47   10.59
   8   5  -6   82.61    9.29
  -8  -5   5   70.35   10.31
   8   5  -5   81.40    9.20
  -8  -5   4  101.48   10.13
   8   5  -4   76.67    9.57
  -8  -5   3   79.92    9.76
   8   5  -3   82.80    9.29
  -8  -5   2   59.47   10.22
   8   5  -2   56.04    9.11
  -8  -5   1  277.95   13.10
   8   5  -1  284.17   13.29
  -8  -5   0  218.01   11.89
   8   5   0  218.94   11.52
  -8  -5  -1  215.13   11.80
   8   5   1  219.87   11.34
  -8  -5  -2   47.49    9.29
   8   5   2   38.94    8.92
  -8  -5  -3  177.58   10.97
   8   5   3  175.45   11.15
  -8  -5  -4  245.98   12.45
   8   5   4  224.79   11.15
  -8  -5  -5    0.56    8.08
  -8  -5  -5   -2.32    9.57
  -8  -6  15   17.01    9.48
   8   6 -15   13.38   10.50
  -8  -6  14  177.96   11.71
   8   6 -14  151.29   10.50
  -8  -6  13   75.09    9.76
   8   6 -13   70.44    9.76
  -8  -6  12    2.23    8.74
   8   6 -12   20.54    9.39
  -8  -6  11  166.43   11.24
   8   6 -11  179.35   10.97
  -8  -6  10  446.05   16.36
   8   6 -10  463.24   16.17
  -8  -6   9  309.08   13.94
   8   6  -9  306.94   13.47
  -8  -6   8  104.26   10.59
   8   6  -8  107.52   10.22
  -8  -6   7   -7.53    8.64
   8   6  -7    5.39    8.83
  -8  -6   6   27.13    8.74
   8   6  -6   16.08    8.92
  -8  -6   5   -9.29    9.76
   8   6  -5    9.11    8.46
  -8  -6   4  286.50   13.10
   8   6  -4  289.47   12.45
  -8  -6   3  347.83   13.75
   8   6  -3  333.42   13.38
  -8  -6   2  416.13   15.89
   8   6  -2  410.27   15.24
  -8  -6   1  158.07   10.97
   8   6  -1  152.03   10.69
  -8  -6   0  193.48   11.71
   8   6   0  221.07   11.43
  -8  -6  -1   88.00   10.50
   8   6   1   70.90    9.11
  -8  -6  -2  117.55   10.31
   8   6   2  104.45    9.66
  -8  -6  -3   14.87    9.11
   8   6   3   33.83    8.46
  -8  -7  13   86.33    9.76
   8   7 -13   89.40   10.22
  -8  -7  12  241.80   12.45
   8   7 -12  228.42   12.36
  -8  -7  11   90.51   10.13
   8   7 -11   75.92    9.48
  -8  -7  10  109.84   10.78
   8   7 -10  152.31   10.50
  -8  -7   9    1.12    9.11
   8   7  -9    6.97    8.27
  -8  -7   8   -2.51    9.01
   8   7  -8    0.46    8.55
  -8  -7   7   33.45    9.39
   8   7  -7   41.17    8.92
  -8  -7   6  120.34    9.94
   8   7  -6  137.53   10.50
  -8  -7   5  306.57   13.85
   8   7  -5  278.60   12.45
  -8  -7   4  138.28   11.89
   8   7  -4  139.95   10.50
  -8  -7   3  164.57   11.62
   8   7  -3  181.95   11.06
  -8  -7   2  376.91   14.96
   8   7  -2  360.65   13.94
  -8  -7   1  298.11   13.29
   8   7  -1  329.52   13.47
  -8  -7   0   -7.53    9.57
   8   7   0    7.25    8.55
  -8  -7  -1   52.69   10.69
   8   7   1   47.21    9.29
  -8  -8  12   14.78   11.43
  -8  -8  11  114.21   11.34
   8   8 -11  112.81   10.41
  -8  -8  10    4.18    9.11
   8   8 -10   -7.53    9.11
  -8  -8   9   13.10    9.01
   8   8  -9   28.44    9.48
  -8  -8   8   54.64    9.85
   8   8  -8   77.13    9.76
  -8  -8   7  107.70   10.97
   8   8  -7  117.93    9.85
  -8  -8   6  162.81   11.52
   8   8  -6  166.90   10.59
  -8  -8   5  242.91   12.55
   8   8  -5  242.08   12.27
  -8  -8   4  204.35   12.08
   8   8  -4  183.16   11.06
  -8  -8   3  126.38   12.08
   8   8  -3  124.89   10.13
  -8  -8   2   27.41   10.31
   9 -14   1   32.34   10.13
  -9  14  -2   66.54    9.85
   9 -14   2   47.49    9.57
  -9  14  -3  192.55   11.06
   9 -14   3  188.92   11.62
  -9  14  -4  348.20   13.29
   9 -14   4  338.07   13.57
  -9  14  -5  135.02   10.04
   9 -14   5  110.49   10.41
  -9  14  -6  105.01    9.57
   9 -14   6  110.68   10.04
  -9  13   2    3.25    8.55
   9 -13  -2    8.08    9.01
  -9  13   1   48.23    8.46
   9 -13  -1   26.58    9.39
  -9  13   0   78.99    9.20
   9 -13   0   82.52    9.76
  -9  13  -1  136.79   10.22
   9 -13   1  103.89   10.04
  -9  13  -2  163.46   10.31
   9 -13   2  149.99   11.06
  -9  13  -3  304.34   13.01
   9 -13   3  284.92   12.73
  -9  13  -4   97.76    9.76
   9 -13   4  102.13    9.29
  -9  13  -5   29.18    8.92
   9 -13   5   13.10    8.74
  -9  13  -6    1.30    8.74
   9 -13   6   -4.27    8.92
  -9  13  -7    4.83    8.36
   9 -13   7    2.97    8.08
  -9  13  -8   37.45    8.83
   9 -13   8   21.75    8.08
  -9  13  -9   94.14    9.20
   9 -13   9   93.39    9.39
  -9  12   4    2.14    7.81
   9 -12  -4    6.04    8.92
  -9  12   3   66.26    8.74
   9 -12  -3   65.89    9.57
  -9  12   2  211.13   10.97
   9 -12  -2  188.74   11.06
  -9  12   1   96.55    9.66
   9 -12  -1   92.09   10.69
  -9  12   0  263.64   12.64
   9 -12   0  276.83   12.92
  -9  12  -1  295.32   13.20
   9 -12   1  309.45   13.20
  -9  12  -2  214.85   11.62
   9 -12   2  229.25   12.08
  -9  12  -3   34.94    9.29
   9 -12   3   26.67    9.57
  -9  12  -4   23.05    8.83
   9 -12   4   25.93    9.29
  -9  12  -5   18.21    8.83
   9 -12   5   25.18    9.01
  -9  12  -6   27.32    8.55
   9 -12   6   13.57    9.01
  -9  12  -7    1.49    7.99
   9 -12   7   -0.56    8.83
  -9  12  -8  245.51   11.89
   9 -12   8  248.21   12.17
  -9  12  -9   41.35    8.92
   9 -12   9   36.24    9.11
  -9  12 -10   38.66    8.46
   9 -12  10   62.08    9.39
  -9  11   6   28.62    8.08
   9 -11  -6   38.84    8.83
  -9  11   5    6.32    8.64
   9 -11  -5    3.35    8.55
  -9  11   4  105.84    9.39
   9 -11  -4  103.52   10.78
  -9  11   3  124.15   10.13
   9 -11  -3  152.12   10.78
  -9  11   2   88.10    9.39
   9 -11  -2   64.49    9.57
  -9  11   1  145.52   10.87
   9 -11  -1  164.48   11.34
  -9  11   0  175.17   11.34
   9 -11   0  159.00   11.62
  -9  11  -1   44.05    9.11
   9 -11   1   53.99    9.57
  -9  11  -2   22.77    8.74
   9 -11   2    8.83    8.64
  -9  11  -3    4.27    9.20
   9 -11   3   14.22    8.74
  -9  11  -4   40.52    9.29
   9 -11   4   68.49    9.76
  -9  11  -5  400.89   14.87
   9 -11   5  374.50   14.59
  -9  11  -6  206.48   11.62
   9 -11   6  174.15   10.87
  -9  11  -7  261.41   11.99
   9 -11   7  265.22   12.45
  -9  11  -8   51.76    9.01
   9 -11   8   57.24    8.92
  -9  11  -9  115.42    9.57
   9 -11   9  119.23    9.66
  -9  11 -10  193.29   10.87
   9 -11  10  184.46   10.50
  -9  11 -11   67.74    9.57
   9 -11  11   64.03    7.71
  -9  10   8  -10.78    8.55
   9 -10  -8  -12.36    8.27
  -9  10   7  123.78    9.01
   9 -10  -7   92.18    9.20
  -9  10   6  140.13    9.85
   9 -10  -6  138.55   10.31
  -9  10   5  515.00   16.91
   9 -10  -5  488.80   16.63
  -9  10   4  445.22   15.80
   9 -10  -4  474.67   16.26
  -9  10   3  287.61   13.10
   9 -10  -3  307.13   13.29
  -9  10   2  231.76   11.99
   9 -10  -2  226.46   11.80
  -9  10   1  161.23   10.41
   9 -10  -1  156.40   10.50
  -9  10   0   13.85    7.99
   9 -10   0    8.92    8.27
  -9  10  -1   -3.90    8.27
   9 -10   1   13.94    8.83
  -9  10  -2    7.99    8.36
   9 -10   2   -2.51    8.27
  -9  10  -3    5.20    8.55
   9 -10   3    1.49    7.90
  -9  10  -4  149.99   10.41
   9 -10   4  145.43   10.22
  -9  10  -5   16.45    8.18
   9 -10   5   11.15    8.46
  -9  10  -6  108.26    9.57
   9 -10   6  103.89    9.39
  -9  10  -7  276.46   12.64
   9 -10   7  267.72   12.45
  -9  10  -8  104.17   10.22
   9 -10   8  115.51    9.76
  -9  10  -9   38.66    9.01
   9 -10   9   26.95    8.83
  -9  10 -10    0.65    8.74
   9 -10  10   12.64    8.46
  -9  10 -11   -0.74    8.18
   9 -10  11   -4.37    8.08
  -9   9   9   84.75    9.76
   9  -9  -9   72.30    8.36
  -9   9   8  155.56    9.66
   9  -9  -8  169.22   10.13
  -9   9   7  332.22   13.38
   9  -9  -7  330.36   13.94
  -9   9   6  523.09   17.10
   9  -9  -6  540.56   17.94
  -9   9   5  177.31   10.59
   9  -9  -5  168.29   10.69
  -9   9   4  193.29   10.97
   9  -9  -4  196.63   11.15
  -9   9   3  135.49   10.41
   9  -9  -3  135.12   10.31
  -9   9   2   31.60    8.18
   9  -9  -2   27.88    8.74
  -9   9   1   61.70    8.92
   9  -9  -1   60.68    9.01
  -9   9   0   40.33    8.92
   9  -9   0   54.46    8.74
  -9   9  -1  223.12   11.52
   9  -9   1  230.46   11.15
  -9   9  -2  265.40   12.55
   9  -9   2  249.23   11.99
  -9   9  -3  364.74   14.59
   9  -9   3  352.75   14.03
  -9   9  -4  549.48   18.12
   9  -9   4  566.49   18.31
  -9   9  -5  290.68   13.01
   9  -9   5  275.99   12.73
  -9   9  -6  323.57   13.47
   9  -9   6  323.67   13.66
  -9   9  -7    7.25    8.46
   9  -9   7    7.25    8.74
  -9   9  -8    4.83    9.01
   9  -9   8   -0.56    8.36
  -9   9  -9   21.75    9.39
   9  -9   9    2.14    8.46
  -9   9 -10   -0.93    8.92
   9  -9  10    0.09    8.55
  -9   9 -11   85.96   10.13
   9  -9  11   90.33    9.48
  -9   9 -12   28.81    9.57
  -9   8  10   92.93    9.94
   9  -8 -10   82.52    8.46
  -9   8   9   67.37    9.11
   9  -8  -9   75.27    8.83
  -9   8   8  348.76   13.85
   9  -8  -8  323.29   13.29
  -9   8   7  189.67   11.34
   9  -8  -7  174.24   11.52
  -9   8   6   42.47    9.20
   9  -8  -6   42.37    9.48
  -9   8   5   68.39    8.27
   9  -8  -5   49.16    9.66
  -9   8   4    3.72    8.92
   9  -8  -4    6.69    8.27
  -9   8   3   24.16    9.48
   9  -8  -3   48.32    9.29
  -9   8   2  117.37    9.57
   9  -8  -2  131.86   10.41
  -9   8   1  115.04   10.22
   9  -8  -1  118.11    9.76
  -9   8   0  335.56   14.12
   9  -8   0  350.99   13.85
  -9   8  -1  700.86   21.19
   9  -8   1  705.51   21.09
  -9   8  -2  326.73   13.75
   9  -8   2  343.65   14.12
  -9   8  -3  335.75   13.94
   9  -8   3  345.04   13.85
  -9   8  -4   46.09    8.83
   9  -8   4   38.10    8.64
  -9   8  -5  203.79   11.99
   9  -8   5  203.51   11.71
  -9   8  -6   35.13    9.11
   9  -8   6   36.52    9.29
  -9   8  -7    4.65    8.92
   9  -8   7   -5.02    8.46
  -9   8  -8   79.08   10.41
   9  -8   8  107.98    9.76
  -9   8  -9  241.24   12.36
   9  -8   9  237.71   11.99
  -9   8 -10  162.90   11.24
   9  -8  10  184.18   10.04
  -9   8 -11   22.49    9.11
   9  -8  11   15.15    7.81
  -9   8 -12  200.63   11.06
   9  -8  12  165.50   10.50
  -9   7  11  449.12   15.05
   9  -7 -11  464.27   15.43
  -9   7  10  235.11   11.24
   9  -7 -10  255.64   12.36
  -9   7   9  451.91   15.70
   9  -7  -9  453.95   15.98
  -9   7   8  102.41    9.85
   9  -7  -8   81.96    9.76
  -9   7   7   47.67    9.76
   9  -7  -7   39.49    9.48
  -9   7   6    7.16    8.92
   9  -7  -6   22.58    9.29
  -9   7   5   23.51    7.90
   9  -7  -5    5.20    9.66
  -9   7   4   67.93    9.57
   9  -7  -4   61.33    8.92
  -9   7   3   14.68    9.20
   9  -7  -3    1.95    8.18
  -9   7   2    5.67    9.11
   9  -7  -2   21.84    9.01
  -9   7   1   32.06    8.64
   9  -7  -1   65.24    9.57
  -9   7   0  426.26   15.80
   9  -7   0  415.48   15.43
  -9   7  -1  106.03   10.13
   9  -7   1  140.41   10.41
  -9   7  -2  164.67   11.06
   9  -7   2  196.26   11.43
  -9   7  -3   75.46    9.39
   9  -7   3   71.74    9.11
  -9   7  -4  199.05   11.89
   9  -7   4  173.59   10.69
  -9   7  -5   13.38    9.39
   9  -7   5   14.40    8.08
  -9   7  -6  130.19   10.69
   9  -7   6  153.80   11.06
  -9   7  -7  132.79   11.52
   9  -7   7   90.51    9.85
  -9   7  -8  341.04   14.78
   9  -7   8  337.70   13.66
  -9   7  -9  296.72   13.75
   9  -7   9  309.63   13.10
  -9   7 -10  209.74   11.89
   9  -7  10  200.72   10.97
  -9   7 -11  224.51   11.52
   9  -7  11  225.16   10.97
  -9   7 -12    4.93    8.46
  -9   6  12  261.31   12.17
   9  -6 -12  264.66   12.45
  -9   6  11  203.60   10.78
   9  -6 -11  197.01   11.34
  -9   6  10  292.91   12.73
   9  -6 -10  301.92   13.47
  -9   6   9   33.45    9.76
   9  -6  -9   16.36    8.55
  -9   6   8   -9.94    8.46
   9  -6  -8  -11.06    8.55
  -9   6   7   28.53    8.36
   9  -6  -7   36.06    9.94
  -9   6   6  158.35   11.43
   9  -6  -6  156.12   11.06
  -9   6   5  382.49   15.43
   9  -6  -5  372.45   14.68
  -9   6   4  302.66   12.92
   9  -6  -4  280.55   13.10
  -9   6   3  491.59   16.91
   9  -6  -3  454.79   16.73
  -9   6   2   80.85   10.04
   9  -6  -2  102.13   10.22
  -9   6   1   77.22   10.22
   9  -6  -1   65.51    9.20
  -9   6   0   61.89    9.48
   9  -6   0   50.74    9.48
  -9   6  -1  148.78   10.97
   9  -6   1  142.92   10.69
  -9   6  -2   86.33    9.76
   9  -6   2   62.54    9.39
  -9   6  -3   36.80    9.85
   9  -6   3   50.00    8.92
  -9   6  -4   17.19    8.64
   9  -6   4   38.19    8.92
  -9   6  -5  261.87   13.38
   9  -6   5  263.26   12.45
  -9   6  -6  102.96   10.04
   9  -6   6   92.09   10.04
  -9   6  -7  406.46   15.43
   9  -6   7  385.84   14.96
  -9   6  -8  345.23   14.50
   9  -6   8  346.43   14.03
  -9   6  -9  267.07   13.29
   9  -6   9  282.31   12.45
  -9   6 -10  101.20    9.39
   9  -6  10  130.19    9.66
  -9   6 -11   -8.55    8.83
   9  -6  11    4.46    7.43
  -9   5  12  272.46   12.64
   9  -5 -12  264.19   12.17
  -9   5  11   51.76    8.74
   9  -5 -11   85.31    9.85
  -9   5  10   -0.93    8.83
   9  -5 -10   13.75    9.39
  -9   5   9   95.53   10.22
   9  -5  -9   70.35   10.04
  -9   5   8  289.75   13.57
   9  -5  -8  293.65   13.47
  -9   5   7  210.95   11.89
   9  -5  -7  205.65   11.99
  -9   5   6  307.59   13.47
   9  -5  -6  332.22   13.57
  -9   5   5  269.21   13.20
   9  -5  -5  304.71   13.47
  -9   5   4  461.20   16.45
   9  -5  -4  463.80   16.17
  -9   5   3   68.95    8.92
   9  -5  -3   73.13    9.01
  -9   5   2   17.19    9.20
   9  -5  -2   16.08    8.18
  -9   5   1  129.45    9.29
   9  -5  -1  123.59    9.66
  -9   5   0    6.88    7.62
   9  -5   0  -13.29    8.64
  -9   5  -1   35.31    8.18
   9  -5   1   14.22    8.36
  -9   5  -2  252.39   12.45
   9  -5   2  244.49   12.08
  -9   5  -3    6.78    9.20
   9  -5   3    3.81    8.64
  -9   5  -4  321.62   13.29
   9  -5   4  326.18   13.57
  -9   5  -5  389.37   14.87
   9  -5   5  385.37   14.68
  -9   5  -6  454.88   16.26
   9  -5   6  458.23   16.26
  -9   5  -7  114.49   10.78
   9  -5   7   94.04    9.76
  -9   5  -8  194.50   11.89
   9  -5   8  203.88   11.15
  -9   5  -9   61.98    8.83
   9  -5   9   53.06    8.46
  -9   5 -10   23.79    8.92
   9  -5  10   20.17    7.90
  -9   5 -11  146.92    9.39
   9  -5  11  127.96    9.48
  -9   4  13  104.26    8.55
   9  -4 -13   94.51    9.48
  -9   4  12    1.58    7.90
   9  -4 -12   -0.65    8.83
  -9   4  11   12.92    8.27
   9  -4 -11   16.82    9.39
  -9   4  10  199.33   11.34
   9  -4 -10  184.74   11.15
  -9   4   9  671.31   20.54
   9  -4  -9  655.98   19.98
  -9   4   8  453.86   16.73
   9  -4  -8  462.69   16.08
  -9   4   7  325.99   13.66
   9  -4  -7  320.69   14.12
  -9   4   6  524.67   17.38
   9  -4  -6  489.45   17.19
  -9   4   5  473.93   16.91
   9  -4  -5  470.86   16.73
  -9   4   4  165.69   11.52
   9  -4  -4  172.57   11.15
  -9   4   3    3.07    8.92
   9  -4  -3   -4.65    7.81
  -9   4   2    7.34    7.99
   9  -4  -2   24.44    8.83
  -9   4   1  123.69   10.59
   9  -4  -1  129.63   10.31
  -9   4   0   -4.93    8.08
   9  -4   0   17.84    8.46
  -9   4  -1  225.07   11.80
   9  -4   1  205.09   11.62
  -9   4  -2  283.71   13.47
   9  -4   2  281.85   13.01
  -9   4  -3  423.75   16.45
   9  -4   3  430.35   15.61
  -9   4  -4  637.20   20.72
   9  -4   4  606.91   19.14
  -9   4  -5   80.66   10.59
   9  -4   5  104.26   10.13
  -9   4  -6    2.88    9.76
   9  -4   6   13.57    7.99
  -9   4  -7  123.50   10.22
   9  -4   7  132.14   10.41
  -9   4  -8   63.10    9.66
   9  -4   8   81.50    9.85
  -9   4  -9  205.65   11.99
   9  -4   9  217.92   11.52
  -9   4 -10  174.80   10.69
   9  -4  10  175.35   10.78
  -9   3  13   36.06    8.18
   9  -3 -13   20.91    9.57
  -9   3  12   36.24    8.27
   9  -3 -12   52.41   10.13
  -9   3  11  135.02   10.13
   9  -3 -11  149.61   10.87
  -9   3  10  340.39   14.22
   9  -3 -10  325.90   14.03
  -9   3   9  277.48   12.55
   9  -3  -9  281.29   13.01
  -9   3   8  205.93   12.08
   9  -3  -8  223.96   12.08
  -9   3   7  528.11   18.31
   9  -3  -7  527.46   17.75
  -9   3   6  154.91   11.34
   9  -3  -6  163.55   11.52
  -9   3   5   34.38    8.27
   9  -3  -5   20.07    9.01
  -9   3   4   80.75    9.29
   9  -3  -4   84.75    9.76
  -9   3   3   13.94    8.64
   9  -3  -3   10.69    8.55
  -9   3   2   87.35   10.04
   9  -3  -2   95.16    9.66
  -9   3   1   59.01    9.11
   9  -3  -1   64.86    9.48
  -9   3   0  331.47   13.85
   9  -3   0  345.69   14.22
  -9   3  -1  572.34   18.59
   9  -3   1  609.23   19.14
  -9   3  -2   58.82    9.76
   9  -3   2   48.42    8.74
  -9   3  -3  134.56    9.94
   9  -3   3  133.35   10.41
  -9   3  -4  144.60   10.87
   9  -3   4  138.65   10.97
  -9   3  -5  131.59   10.04
   9  -3   5  125.64   10.41
  -9   3  -6   26.21    9.11
   9  -3   6   36.33    9.20
  -9   3  -7  106.77   10.59
   9  -3   7  106.03   10.04
  -9   3  -8   82.43    9.85
   9  -3   8   87.07    9.29
  -9   3  -9   36.52    9.20
   9  -3   9   33.83    7.99
  -9   3 -10  182.04   10.04
   9  -3  10  175.63    9.94
  -9   2  14   35.68    8.27
   9  -2 -14   60.12   10.22
  -9   2  13  167.92   10.31
   9  -2 -13  156.68   10.59
  -9   2  12  180.28   10.87
   9  -2 -12  199.05   11.80
  -9   2  11  113.46    9.76
   9  -2 -11  117.37   10.87
  -9   2  10  260.10   13.01
   9  -2 -10  269.49   13.01
  -9   2   9  161.14   11.71
   9  -2  -9  175.63   11.06
  -9   2   8  113.93    9.85
   9  -2  -8  115.79    9.57
  -9   2   7   30.20    8.74
   9  -2  -7    5.76    9.01
  -9   2   6    8.83    8.64
   9  -2  -6   18.03    8.46
  -9   2   5   37.36    8.83
   9  -2  -5   17.38    7.99
  -9   2   4  286.59   13.10
   9  -2  -4  286.03   12.64
  -9   2   3  594.64   19.42
   9  -2  -3  583.86   18.49
  -9   2   2  363.81   14.50
   9  -2  -2  376.82   14.12
  -9   2   1  128.05   10.31
   9  -2  -1  135.40   10.31
  -9   2   0  564.63   18.31
   9  -2   0  566.11   18.40
  -9   2  -1   60.31    8.92
   9  -2   1   61.33    9.01
  -9   2  -2  251.55   12.45
   9  -2   2  232.50   11.80
  -9   2  -3   -2.23    9.01
   9  -2   3   15.24    8.83
  -9   2  -4   11.99    9.11
   9  -2   4   -3.90    8.83
  -9   2  -5   35.96    9.29
   9  -2   5   37.91    9.20
  -9   2  -6   18.03    9.66
   9  -2   6   35.50    9.20
  -9   2  -7   19.89    9.66
   9  -2   7   40.42    9.01
  -9   2  -8  112.44    9.66
   9  -2   8  102.03    9.39
  -9   2  -9  284.73   12.82
   9  -2   9  257.60   11.52
  -9   1  14  213.36   10.22
   9  -1 -14  227.77   11.62
  -9   1  13  133.17    9.01
   9  -1 -13  175.54   11.15
  -9   1  12   35.68    9.01
   9  -1 -12   30.39    9.66
  -9   1  11  148.87   10.69
   9  -1 -11  139.76   10.69
  -9   1  10  149.33   10.78
   9  -1 -10  181.39   11.24
  -9   1   9   48.69    9.94
   9  -1  -9   11.80    9.11
  -9   1   8    6.60    9.20
   9  -1  -8    3.90    9.20
  -9   1   7   11.24    8.18
   9  -1  -7    9.85    9.57
  -9   1   6   48.42    9.20
   9  -1  -6   42.10    9.20
  -9   1   5  589.72   18.59
   9  -1  -5  579.40   18.77
  -9   1   4  417.80   15.24
   9  -1  -4  415.94   15.70
  -9   1   3  592.41   19.42
   9  -1  -3  600.31   19.24
  -9   1   2  272.84   13.29
   9  -1  -2  266.24   12.55
  -9   1   1  479.23   16.82
   9  -1  -1  466.68   16.73
  -9   1   0   42.47    9.20
   9  -1   0   33.73    8.64
  -9   1  -1   36.80    9.29
   9  -1   1   42.93    9.20
  -9   1  -2  184.74   12.17
   9  -1   2  179.63   10.87
  -9   1  -3    0.46    9.20
   9  -1   3   15.61    8.92
  -9   1  -4  417.43   15.61
   9  -1   4  452.37   16.08
  -9   1  -5  342.72   14.12
   9  -1   5  336.03   13.66
  -9   1  -6  318.09   13.66
   9  -1   6  307.03   13.20
  -9   1  -7  180.00   11.34
   9  -1   7  185.58   10.41
  -9   1  -8  103.15   10.13
   9  -1   8   94.14    8.55
  -9   0  14  144.13    9.85
   9   0 -14  148.31   10.50
  -9   0  13   16.82    8.74
   9   0 -13    7.53    9.39
  -9   0  12   16.91    8.92
   9   0 -12   26.67    8.55
  -9   0  11   44.33    9.94
   9   0 -11   29.64    7.90
  -9   0  10  105.19   10.59
   9   0 -10   95.99    9.66
  -9   0   9  256.76   12.45
   9   0  -9  236.13   12.45
  -9   0   8  277.85   12.36
   9   0  -8  283.24   13.85
  -9   0   7  261.87   12.92
   9   0  -7  211.87   11.80
  -9   0   6  234.73   12.45
   9   0  -6  260.57   12.64
  -9   0   5   29.37    8.92
   9   0  -5   22.58    8.83
  -9   0   4  404.89   14.68
   9   0  -4  441.31   16.36
  -9   0   3  330.45   13.94
   9   0  -3  314.56   13.38
  -9   0   2   77.78    9.66
   9   0  -2   68.58    8.83
  -9   0   1   28.90    8.36
   9   0  -1   21.75    8.08
  -9   0   0   -0.46    8.55
   9   0   0   20.91    8.36
  -9   0  -1   13.94    9.29
   9   0   1   15.05    7.34
  -9   0  -2   32.06    9.76
   9   0   2   57.06    9.76
  -9   0  -3  549.11   18.21
   9   0   3  600.40   19.33
  -9   0  -4  224.70   11.71
   9   0   4  235.94   11.71
  -9   0  -5  110.12   10.31
   9   0   5  100.27    9.57
  -9   0  -6  167.64   11.71
   9   0   6  139.95    9.76
  -9   0  -7  151.19   10.50
   9   0   7  176.66    9.94
  -9  -1  14   24.90    8.64
   9   1 -14   23.32    9.01
  -9  -1  13   -7.06    8.55
   9   1 -13   -8.64    8.83
  -9  -1  12  -13.01    8.74
   9   1 -12    4.00    8.74
  -9  -1  11   31.04    9.57
   9   1 -11   11.24    8.74
  -9  -1  10   78.52    9.94
   9   1 -10   95.62   10.04
  -9  -1   9  251.46   12.36
   9   1  -9  254.53   12.73
  -9  -1   8  219.31   11.06
   9   1  -8  193.57   12.08
  -9  -1   7  327.10   13.94
   9   1  -7  352.10   14.40
  -9  -1   6  186.97   12.08
   9   1  -6  180.93   11.34
  -9  -1   5  228.32   12.27
   9   1  -5  257.22   12.55
  -9  -1   4   86.52    9.76
   9   1  -4   83.63    9.76
  -9  -1   3  189.01   11.43
   9   1  -3  199.70   11.34
  -9  -1   2   46.18    9.29
   9   1  -2   76.48    9.48
  -9  -1   1  363.81   14.59
   9   1  -1  364.28   14.22
  -9  -1   0  548.46   18.40
   9   1   0  544.00   17.94
  -9  -1  -1  420.13   15.52
   9   1   1  416.59   15.33
  -9  -1  -2  215.41   12.08
   9   1   2  210.02   11.06
  -9  -1  -3   37.08    9.01
   9   1   3   37.64    8.64
  -9  -1  -4   59.38    9.48
   9   1   4   92.00    9.76
  -9  -1  -5  209.64   11.62
   9   1   5  198.96   10.97
  -9  -1  -6  107.70   10.41
   9   1   6  103.99    9.20
  -9  -2  13   56.41    8.92
   9   2 -13   70.35    8.83
  -9  -2  12  108.91   10.04
   9   2 -12  110.77    9.76
  -9  -2  11   54.55    9.48
   9   2 -11   53.15    9.85
  -9  -2  10  270.05   12.92
   9   2 -10  253.88   12.92
  -9  -2   9  256.29   12.73
   9   2  -9  250.07   12.27
  -9  -2   8  135.58   10.69
   9   2  -8  131.96   10.41
  -9  -2   7  105.10    9.94
   9   2  -7  132.42   10.69
  -9  -2   6   52.32    9.20
   9   2  -6   38.94    9.39
  -9  -2   5   40.24    9.01
   9   2  -5   49.53    9.01
  -9  -2   4    9.94    9.29
   9   2  -4   11.24    8.92
  -9  -2   3   17.19    9.29
   9   2  -3    0.46    8.46
  -9  -2   2  108.82    9.85
   9   2  -2  117.74   10.04
  -9  -2   1  106.12   10.50
   9   2  -1   96.37    9.76
  -9  -2   0  200.35   11.80
   9   2   0  227.30   11.99
  -9  -2  -1  104.92   10.41
   9   2   1  125.64   10.50
  -9  -2  -2  187.34   10.78
   9   2   2  180.65   11.62
  -9  -2  -3   51.67    8.83
   9   2   3   46.93    9.11
  -9  -2  -4    3.62    8.74
   9   2   4    7.43    8.08
  -9  -2  -5    1.58    8.83
   9   2   5   10.13    8.36
  -9  -3  13  244.59   11.24
   9   3 -13  292.16   12.08
  -9  -3  12  418.08   14.50
   9   3 -12  432.76   15.52
  -9  -3  11  619.64   19.05
   9   3 -11  659.51   20.35
  -9  -3  10  197.66   11.89
   9   3 -10  208.62   11.71
  -9  -3   9    9.66    9.11
   9   3  -9  -18.77    8.64
  -9  -3   8   56.96   10.04
   9   3  -8   44.70    9.29
  -9  -3   7   22.02    9.20
   9   3  -7    5.20    8.64
  -9  -3   6   18.03    9.57
   9   3  -6    7.34    9.29
  -9  -3   5  179.81   11.34
   9   3  -5  198.59   11.34
  -9  -3   4  307.22   13.75
   9   3  -4  284.73   12.92
  -9  -3   3  384.35   14.96
   9   3  -3  397.17   15.24
  -9  -3   2   54.73    9.76
   9   3  -2   57.80    9.01
  -9  -3   1  140.88   10.50
   9   3  -1  159.18   10.78
  -9  -3   0   45.91    9.48
   9   3   0   43.30    8.92
  -9  -3  -1   58.17    9.66
   9   3   1   64.77    9.85
  -9  -3  -2   -4.37    8.27
   9   3   2  -16.08    8.46
  -9  -3  -3   11.62    8.27
   9   3   3   47.76    8.92
  -9  -3  -4   25.09    9.57
  -9  -4  12  279.34   11.71
   9   4 -12  270.42   12.64
  -9  -4  11   66.44    8.92
   9   4 -11   71.09    9.20
  -9  -4  10   -1.95    9.11
   9   4 -10   12.64    8.55
  -9  -4   9   23.05    8.92
   9   4  -9   15.61    8.74
  -9  -4   8  123.59   10.41
   9   4  -8  145.34   11.15
  -9  -4   7  581.35   18.31
   9   4  -7  579.22   18.96
  -9  -4   6  369.29   14.40
   9   4  -6  353.50   14.03
  -9  -4   5  581.35   18.77
   9   4  -5  544.74   17.94
  -9  -4   4  548.27   18.12
   9   4  -4  558.68   18.31
  -9  -4   3  283.61   13.75
   9   4  -3  291.42   12.82
  -9  -4   2  127.68   10.31
   9   4  -2  145.80   10.31
  -9  -4   1    3.16    9.57
   9   4  -1    3.53    8.18
  -9  -4   0   -7.16    8.46
   9   4   0    8.92    8.92
  -9  -4  -1   -4.27    8.83
   9   4   1    7.62    8.55
  -9  -4  -2   14.68    9.20
   9   4   2    7.62    9.94
  -9  -5  11   -0.46    8.46
   9   5 -11  -13.47   10.22
  -9  -5  10   26.48    8.64
   9   5 -10   28.34    8.92
  -9  -5   9   58.54    9.39
   9   5  -9   75.83    9.57
  -9  -5   8  149.89   10.78
   9   5  -8  152.87   10.13
  -9  -5   7   44.98    9.29
   9   5  -7   70.07    9.20
  -9  -5   6  341.04   13.47
   9   5  -6  377.01   14.40
  -9  -5   5  299.60   13.29
   9   5  -5  288.54   12.55
  -9  -5   4   88.10    9.85
   9   5  -4   96.64    9.29
  -9  -5   3    4.55    8.83
   9   5  -3   16.08    8.46
  -9  -5   2    4.65    8.64
   9   5  -2   -4.93    8.74
  -9  -5   1    7.53    8.83
   9   5  -1    6.97    8.83
  -9  -6   8  130.93   12.92
  -9  -6   7  201.75   12.17
  -9  -6   6   18.49    9.20
   9   6  -6    5.30    9.01
  -9  -6   5   32.06   10.04
 -10  11   1   30.76    8.74
  10 -11  -1   28.71    8.74
 -10  11   0  128.89    8.92
  10 -11   0  132.79    9.57
 -10  11  -1  204.91   10.04
  10 -11   1  197.47   10.41
 -10  11  -2   74.25    8.83
  10 -11   2   58.54    7.81
 -10  11  -3   -0.28    7.81
  10 -11   3    4.83    7.71
 -10  11  -4  135.21   10.04
  10 -11   4  148.50    9.11
 -10  11  -5  122.76   11.06
  10 -11   5  139.48    9.01
 -10  10   3  132.51    9.01
  10 -10  -3  140.41    9.01
 -10  10   2  379.70   13.38
  10 -10  -2  376.91   13.85
 -10  10   1  509.43   16.26
  10 -10  -1  508.69   16.45
 -10  10   0  342.34   13.01
  10 -10   0  333.42   13.20
 -10  10  -1   61.33    9.48
  10 -10   1   83.45    9.39
 -10  10  -2   -5.11    8.55
  10 -10   2  -11.34    7.81
 -10  10  -3    0.37    8.18
  10 -10   3   -5.76    7.81
 -10  10  -4   43.49    9.20
  10 -10   4   37.36    8.27
 -10  10  -5   83.82    9.39
  10 -10   5   96.18    9.48
 -10  10  -6  238.73   11.71
  10 -10   6  233.81   11.24
 -10   9   5  176.84    9.76
  10  -9  -5  156.21   10.04
 -10   9   4   19.24    7.53
  10  -9  -4   32.25    8.46
 -10   9   3  345.60   13.01
  10  -9  -3  365.58   12.92
 -10   9   2  366.41   13.94
  10  -9  -2  336.68   13.01
 -10   9   1  219.40   11.43
  10  -9  -1  247.56   11.80
 -10   9   0   25.65    7.99
  10  -9   0   14.22    8.08
 -10   9  -1    7.90    8.64
  10  -9   1   -3.16    8.36
 -10   9  -2   17.84    8.46
  10  -9   2   23.60    7.71
 -10   9  -3   94.41    9.29
  10  -9   3  108.54    9.11
 -10   9  -4   43.49    8.64
  10  -9   4   13.29    7.90
 -10   9  -5  321.99   13.10
  10  -9   5  311.21   12.92
 -10   9  -6  300.53   13.29
  10  -9   6  285.10   12.17
 -10   9  -7  137.35   10.69
  10  -9   7  141.44    9.39
 -10   8   6  301.36   11.99
  10  -8  -6  283.71   11.71
 -10   8   5   17.66    7.34
  10  -8  -5   13.01    8.18
 -10   8   4  237.80   10.87
  10  -8  -4  253.97   11.80
 -10   8   3  200.35   10.31
  10  -8  -3  214.10   10.41
 -10   8   2   94.32    9.57
  10  -8  -2  108.63    9.48
 -10   8   1    9.48    8.92
  10  -8  -1   27.41    7.43
 -10   8   0    2.60    9.01
  10  -8   0   -5.58    8.27
 -10   8  -1   61.05    9.39
  10  -8   1   33.64    8.36
 -10   8  -2  183.25   11.06
  10  -8   2  199.61   11.34
 -10   8  -3  106.49    9.85
  10  -8   3  111.33    9.20
 -10   8  -4  323.57   13.75
  10  -8   4  343.18   13.10
 -10   8  -5  140.04   10.59
  10  -8   5  152.40   10.13
 -10   8  -6   47.21    8.74
  10  -8   6   73.78    9.01
 -10   8  -7    7.90    7.62
  10  -8   7    2.32    7.71
 -10   7   7  245.05   10.78
  10  -7  -7  227.58   10.41
 -10   7   6  107.42    9.20
  10  -7  -6  109.00    9.11
 -10   7   5  174.52   10.59
  10  -7  -5  183.35   10.87
 -10   7   4   52.13    8.74
  10  -7  -4   61.80    8.83
 -10   7   3    9.94    8.18
  10  -7  -3   -7.62    7.99
 -10   7   2    7.34    8.83
  10  -7  -2   14.59    8.46
 -10   7   1   55.20    9.76
  10  -7  -1   29.09    8.46
 -10   7   0  180.00   11.34
  10  -7   0  177.12   10.41
 -10   7  -1  343.00   14.22
  10  -7   1  369.11   13.85
 -10   7  -2  439.64   16.36
  10  -7   2  413.99   14.87
 -10   7  -3  317.44   13.20
  10  -7   3  298.11   12.82
 -10   7  -4   87.72    9.76
  10  -7   4   89.02    8.92
 -10   7  -5   65.05    8.92
  10  -7   5   49.34    8.64
 -10   7  -6   12.45    7.53
  10  -7   6  -12.82    8.08
 -10   7  -7    8.27    7.62
  10  -7   7   11.24    7.71
 -10   6   8   71.28    8.74
  10  -6  -8   66.63    8.74
 -10   6   7  124.99    9.29
  10  -6  -7  100.27    9.01
 -10   6   6   45.26    7.43
  10  -6  -6   50.65    8.74
 -10   6   5    5.95    7.99
  10  -6  -5   26.02    8.18
 -10   6   4    7.06    8.18
  10  -6  -4   11.80    8.27
 -10   6   3   19.05    7.53
  10  -6  -3   15.70    8.27
 -10   6   2   45.72    9.01
  10  -6  -2   63.47    8.74
 -10   6   1  356.38   14.40
  10  -6  -1  373.29   13.94
 -10   6   0  192.55   11.43
  10  -6   0  240.12   11.89
 -10   6  -1  292.35   13.20
  10  -6   1  288.35   12.55
 -10   6  -2  169.69   10.78
  10  -6   2  171.36   10.41
 -10   6  -3   73.23    9.57
  10  -6   3   71.93    9.01
 -10   6  -4   46.09    8.83
  10  -6   4   51.02    8.74
 -10   6  -5    4.74    7.99
  10  -6   5    5.76    8.08
 -10   6  -6   17.28    8.36
  10  -6   6   22.95    8.46
 -10   6  -7   67.37    8.36
  10  -6   7   66.07    7.99
 -10   5   9   -0.74    7.16
  10  -5  -9   -3.16    8.55
 -10   5   8   60.22    8.64
  10  -5  -8   43.68    8.55
 -10   5   7   -0.56    7.99
  10  -5  -7   -5.58    8.27
 -10   5   6   50.18    8.18
  10  -5  -6   20.35    8.46
 -10   5   5  198.03   11.06
  10  -5  -5  186.69   10.78
 -10   5   4  182.51   11.15
  10  -5  -4  199.79   10.59
 -10   5   3   88.93    9.11
  10  -5  -3  110.68    9.94
 -10   5   2  291.89   12.08
  10  -5  -2  307.03   12.92
 -10   5   1  193.48   10.97
  10  -5  -1  169.96   10.13
 -10   5   0  298.48   12.55
  10  -5   0  253.79   12.08
 -10   5  -1   61.80    8.55
  10  -5   1   58.54    8.92
 -10   5  -2   28.62    8.46
  10  -5   2   26.02    8.55
 -10   5  -3   14.03    7.71
  10  -5   3    3.90    8.18
 -10   5  -4  109.47    9.48
  10  -5   4  111.14    9.94
 -10   5  -5  222.28   11.06
  10  -5   5  198.86   11.15
 -10   5  -6  256.94   11.71
  10  -5   6  227.02   11.52
 -10   5  -7  415.20   14.03
  10  -5   7  410.27   14.68
 -10   4   9    9.48    7.25
  10  -4  -9   22.40    8.08
 -10   4   8   21.56    8.08
  10  -4  -8   28.44    8.74
 -10   4   7  212.62   10.87
  10  -4  -7  208.53   11.52
 -10   4   6  280.46   11.71
  10  -4  -6  260.20   11.71
 -10   4   5  155.75   10.78
  10  -4  -5  176.84   10.50
 -10   4   4   60.03    9.48
  10  -4  -4   56.31    8.46
 -10   4   3  237.89   11.89
  10  -4  -3  217.36   11.62
 -10   4   2  245.79   12.64
  10  -4  -2  271.35   12.64
 -10   4   1  134.37   10.41
  10  -4  -1  116.44    9.85
 -10   4   0   12.92    8.08
  10  -4   0    6.69    8.18
 -10   4  -1   33.73    8.55
  10  -4   1   17.38    7.90
 -10   4  -2   30.20    8.27
  10  -4   2   23.79    8.08
 -10   4  -3   -6.50    8.18
  10  -4   3    9.20    7.62
 -10   4  -4  128.33    9.94
  10  -4   4  140.69    9.85
 -10   4  -5   76.39    8.83
  10  -4   5   84.38    8.92
 -10   4  -6  183.72    9.48
  10  -4   6  189.57    9.85
 -10   3  10   36.24    7.62
  10  -3 -10   23.51    9.01
 -10   3   9   54.73    7.90
  10  -3  -9   71.65    8.74
 -10   3   8  178.70    9.39
  10  -3  -8  198.03   10.69
 -10   3   7  202.30   10.31
  10  -3  -7  223.86   11.34
 -10   3   6  180.84   10.04
  10  -3  -6  191.80   10.22
 -10   3   5  241.15   10.69
  10  -3  -5  239.20   11.71
 -10   3   4   95.72    9.20
  10  -3  -4  105.57    9.57
 -10   3   3   92.74    9.01
  10  -3  -3   70.07    9.11
 -10   3   2   12.27    8.83
  10  -3  -2   15.61    8.55
 -10   3   1    0.37    8.18
  10  -3  -1   20.63    8.46
 -10   3   0    3.53    8.55
  10  -3   0  -14.78    7.99
 -10   3  -1   44.42    9.39
  10  -3   1   47.39    8.46
 -10   3  -2  136.70   10.22
  10  -3   2  136.60    9.76
 -10   3  -3  311.03   13.20
  10  -3   3  296.44   12.73
 -10   3  -4  100.83    9.29
  10  -3   4  102.59    9.29
 -10   3  -5  107.05    9.20
  10  -3   5  114.49    9.48
 -10   3  -6   95.06    9.29
 -10   2  10   94.79    8.46
  10  -2 -10  106.59    9.39
 -10   2   9  140.41    9.57
  10  -2  -9  153.33    9.85
 -10   2   8  131.21    8.74
  10  -2  -8  145.90   10.04
 -10   2   7  130.38    9.57
  10  -2  -7  126.29    9.48
 -10   2   6  123.31   10.22
  10  -2  -6  128.61    9.94
 -10   2   5   20.07    9.20
  10  -2  -5    3.07    7.53
 -10   2   4    9.01    8.36
  10  -2  -4    4.93    8.27
 -10   2   3   39.59    8.27
  10  -2  -3   34.85    8.64
 -10   2   2  111.61    8.74
  10  -2  -2  100.73   10.22
 -10   2   1  343.09   13.29
  10  -2  -1  362.97   14.40
 -10   2   0  443.36   15.15
  10  -2   0  418.82   15.24
 -10   2  -1  160.49   10.50
  10  -2   1  178.14   10.22
 -10   2  -2  343.46   13.29
  10  -2   2  345.69   13.01
 -10   2  -3  358.70   14.03
  10  -2   3  361.58   13.57
 -10   2  -4   68.30    9.57
  10  -2   4   86.89    9.11
 -10   2  -5   73.13    9.48
  10  -2   5   75.27    9.20
 -10   1  10  184.83   10.04
  10  -1 -10  209.92   11.06
 -10   1   9  149.33   10.04
  10  -1  -9  136.23    9.76
 -10   1   8   52.13    8.18
  10  -1  -8   66.72    8.18
 -10   1   7   57.99    8.74
  10  -1  -7   63.47    8.55
 -10   1   6    1.95    8.46
  10  -1  -6    6.60    7.53
 -10   1   5    8.64    8.92
  10  -1  -5   -3.35    8.46
 -10   1   4    1.39    8.55
  10  -1  -4   13.20    8.08
 -10   1   3    1.02    8.92
  10  -1  -3  -11.89    8.36
 -10   1   2  150.17    9.76
  10  -1  -2  177.77   10.50
 -10   1   1  250.16   12.08
  10  -1  -1  232.50   11.15
 -10   1   0  163.65   10.50
  10  -1   0  158.72   10.22
 -10   1  -1  188.74   11.15
  10  -1   1  209.83   10.78
 -10   1  -2  193.94   10.87
  10  -1   2  183.81    9.94
 -10   1  -3   -3.72    8.46
  10  -1   3   -2.51    7.81
 -10   1  -4    8.36    8.83
 -10   0   9   66.54    8.46
  10   0  -9   51.48    8.08
 -10   0   8   24.72    7.25
  10   0  -8    7.25    7.99
 -10   0   7   55.94    8.92
  10   0  -7   55.38    8.74
 -10   0   6  131.49   10.04
  10   0  -6  138.09   10.04
 -10   0   5  205.37   11.62
  10   0  -5  203.33   10.87
 -10   0   4  133.82   10.31
  10   0  -4  118.20    9.39
 -10   0   3  239.20   12.17
  10   0  -3  256.20   12.08
 -10   0   2  299.13   12.36
  10   0  -2  322.83   13.20
 -10   0   1  210.39   11.06
  10   0  -1  220.98   10.69
 -10   0   0   31.69    8.18
  10   0   0   33.92    7.90
 -10   0  -1   38.84    8.64
  10   0   1   70.81    8.83
 -10   0  -2   -1.95    7.99
  10   0   2   16.08    7.90
 -10  -1   9  -13.29    9.94
 -10  -1   8   14.59    7.81
  10   1  -8   19.61    8.27
 -10  -1   7   90.23    8.92
  10   1  -7   86.89    9.39
 -10  -1   6   49.81    9.20
  10   1  -6   47.49    8.64
 -10  -1   5   44.33    9.48
  10   1  -5   74.25    9.11
 -10  -1   4   63.19    8.74
  10   1  -4   58.54    9.01
 -10  -1   3  104.64    9.57
  10   1  -3  109.47    9.29
 -10  -1   2  188.64   11.06
  10   1  -2  195.05   10.50
 -10  -1   1   47.67    8.27
  10   1  -1   44.61    8.36
 -10  -1   0   -6.04    8.27
  10   1   0    4.74    7.53
 -10  -2   7  138.55   10.13
 -10  -2   6  280.18   12.17
  10   2  -6  241.24   11.71
 -10  -2   5  109.75   10.04
  10   2  -5   98.97   10.22
 -10  -2   4   22.58    8.36
  10   2  -4    7.62    8.83
 -10  -2   3   34.10    8.83
  10   2  -3   42.84    8.92
 -10  -2   2    1.77    9.20
   0   0   0    0.00    0.00

_computing_structure_solution     'SHELXT 2014/5 (Sheldrick, 2014)'
;
_shelx_hkl_checksum   67249

