 
data_Er-973_auto_a
 
_audit_creation_method            'SHELXL-2018/3'
_shelx_SHELXL_version_number      '2018/3'
_chemical_name_systematic         ?
_chemical_name_common             ?
_chemical_melting_point           ?
_chemical_formula_moiety          ?
_chemical_formula_sum
 'C4.22 H0.11 Mn0.22 N1.11 O0.44 S0.22' 
_chemical_formula_weight          92.83

loop_
 _atom_type_symbol
 _atom_type_description
 _atom_type_scat_dispersion_real
 _atom_type_scat_dispersion_imag
 _atom_type_scat_source
 'C'  'C'   0.0033   0.0016
 'International Tables Vol C Tables 4.2.6.8 and 6.1.1.4'
 'N'  'N'   0.0061   0.0033
 'International Tables Vol C Tables 4.2.6.8 and 6.1.1.4'
 'O'  'O'   0.0106   0.0060
 'International Tables Vol C Tables 4.2.6.8 and 6.1.1.4'
 'S'  'S'   0.1246   0.1234
 'International Tables Vol C Tables 4.2.6.8 and 6.1.1.4'
 'Mn'  'Mn'   0.3368   0.7283
 'International Tables Vol C Tables 4.2.6.8 and 6.1.1.4'
 'H'  'H'   0.0000   0.0000
 'International Tables Vol C Tables 4.2.6.8 and 6.1.1.4'
 
_space_group_crystal_system       triclinic
_space_group_IT_number            2
_space_group_name_H-M_alt         'P -1'
_space_group_name_Hall            '-P 1'
 
_shelx_space_group_comment
;
The symmetry employed for this shelxl refinement is uniquely defined
by the following loop, which should always be used as a source of
symmetry information in preference to the above space-group names.
They are only intended as comments.
;
 
loop_
 _space_group_symop_operation_xyz
 'x, y, z'
 '-x, -y, -z'
 
_cell_length_a                    7.4610(2)
_cell_length_b                    8.4963(5)
_cell_length_c                    13.5227(8)
_cell_angle_alpha                 81.823(5)
_cell_angle_beta                  74.102(4)
_cell_angle_gamma                 75.541(4)
_cell_volume                      795.80(7)
_cell_formula_units_Z             9
_cell_measurement_temperature     290(2)
_cell_measurement_reflns_used     ?
_cell_measurement_theta_min       ?
_cell_measurement_theta_max       ?
 
_exptl_crystal_description        ?
_exptl_crystal_colour             ?
_exptl_crystal_density_meas       ?
_exptl_crystal_density_method     ?
_exptl_crystal_density_diffrn     1.743          
_exptl_crystal_F_000              413
_exptl_transmission_factor_min    ?
_exptl_transmission_factor_max    ?
_exptl_crystal_size_max           ?
_exptl_crystal_size_mid           ?
_exptl_crystal_size_min           ?
_exptl_absorpt_coefficient_mu     0.989
_shelx_estimated_absorpt_T_min    ?
_shelx_estimated_absorpt_T_max    ?
_exptl_absorpt_correction_type    ?
_exptl_absorpt_correction_T_min   ?
_exptl_absorpt_correction_T_max   ?
_exptl_absorpt_process_details    ?
_exptl_absorpt_special_details    ?
_diffrn_ambient_temperature       290(2)
_diffrn_radiation_wavelength      0.71073
_diffrn_radiation_type            MoK\a
_diffrn_source                    ?
_diffrn_measurement_device_type   ?
_diffrn_measurement_method        ?
_diffrn_detector_area_resol_mean  ?
_diffrn_reflns_number             12259
_diffrn_reflns_av_unetI/netI      0.0376
_diffrn_reflns_av_R_equivalents   0.0379
_diffrn_reflns_limit_h_min        -9
_diffrn_reflns_limit_h_max        9
_diffrn_reflns_limit_k_min        -11
_diffrn_reflns_limit_k_max        10
_diffrn_reflns_limit_l_min        -16
_diffrn_reflns_limit_l_max        17
_diffrn_reflns_theta_min          2.483
_diffrn_reflns_theta_max          29.074
_diffrn_reflns_theta_full         25.242
_diffrn_measured_fraction_theta_max   0.857
_diffrn_measured_fraction_theta_full  0.996
_diffrn_reflns_Laue_measured_fraction_max    0.857
_diffrn_reflns_Laue_measured_fraction_full   0.996
_diffrn_reflns_point_group_measured_fraction_max   0.857
_diffrn_reflns_point_group_measured_fraction_full  0.996
_reflns_number_total              3666
_reflns_number_gt                 3353
_reflns_threshold_expression      'I > 2\s(I)'
_reflns_Friedel_coverage          0.000
_reflns_Friedel_fraction_max      .
_reflns_Friedel_fraction_full     .
 
_reflns_special_details
;
 Reflections were merged by SHELXL according to the crystal
 class for the calculation of statistics and refinement.
 
 _reflns_Friedel_fraction is defined as the number of unique
 Friedel pairs measured divided by the number that would be
 possible theoretically, ignoring centric projections and
 systematic absences.
;
 
_computing_data_collection        ?
_computing_cell_refinement        ?
_computing_data_reduction         ?
_computing_structure_solution     'SHELXT 2018/2 (Sheldrick, 2018)'
_computing_structure_refinement 'SHELXL-2018/3 (Sheldrick, 2018)'
_computing_molecular_graphics     ?
_computing_publication_material   ?
_refine_special_details           ?
_refine_ls_structure_factor_coef  Fsqd
_refine_ls_matrix_type            full
_refine_ls_weighting_scheme       calc
_refine_ls_weighting_details
'w=1/[\s^2^(Fo^2^)+(0.0002P)^2^+21.1312P] where P=(Fo^2^+2Fc^2^)/3'
_atom_sites_solution_primary      ?
_atom_sites_solution_secondary    ?
_atom_sites_solution_hydrogens    geom
_refine_ls_hydrogen_treatment     mixed
_refine_ls_extinction_method      none
_refine_ls_extinction_coef        .
_refine_ls_number_reflns          3666
_refine_ls_number_parameters      257
_refine_ls_number_restraints      0
_refine_ls_R_factor_all           0.1018
_refine_ls_R_factor_gt            0.0963
_refine_ls_wR_factor_ref          0.2698
_refine_ls_wR_factor_gt           0.2677
_refine_ls_goodness_of_fit_ref    1.161
_refine_ls_restrained_S_all       1.161
_refine_ls_shift/su_max           0.000
_refine_ls_shift/su_mean          0.000
 
loop_
 _atom_site_label
 _atom_site_type_symbol
 _atom_site_fract_x
 _atom_site_fract_y
 _atom_site_fract_z
 _atom_site_U_iso_or_equiv
 _atom_site_adp_type
 _atom_site_occupancy
 _atom_site_site_symmetry_order  
 _atom_site_calc_flag
 _atom_site_refinement_flags_posn
 _atom_site_refinement_flags_adp
 _atom_site_refinement_flags_occupancy
 _atom_site_disorder_assembly
 _atom_site_disorder_group
Mn01 Mn 0.97717(19) -0.16901(15) 0.94444(10) 0.0194(3) Uani 1 1 d . . . . .
S002 S 0.4085(4) 0.1773(3) 0.41053(19) 0.0351(6) Uani 1 1 d . . . . .
O1 O 0.7165(9) -0.0152(7) 0.9220(5) 0.0268(14) Uani 1 1 d . . . . .
O4 O -0.0818(9) 0.9400(7) 0.0979(5) 0.0221(12) Uani 1 1 d . . . . .
O2 O 0.8965(12) -0.3464(8) 0.8776(7) 0.0393(19) Uani 1 1 d . . . . .
H2 H 0.93(2) -0.416(16) 0.894(10) 0.059 Uiso 1 1 calc R U . . .
O3 O 1.2663(10) -0.2591(10) 0.8551(7) 0.040(2) Uani 1 1 d . . . . .
H3 H 1.319(14) -0.234(18) 0.870(9) 0.060 Uiso 1 1 calc R U . . .
O004 O 0.5919(9) -0.1426(8) 0.8326(6) 0.0307(15) Uani 1 1 d . . . . .
O005 O 0.0332(12) 0.6795(8) 0.0884(5) 0.0354(17) Uani 1 1 d . . . . .
N1 N 0.1076(10) 0.7066(8) 0.3851(5) 0.0211(14) Uani 1 1 d . . . . .
N008 N 0.3917(10) 0.3399(8) 0.7195(5) 0.0206(14) Uani 1 1 d . . . . .
N009 N 0.4001(11) 0.4181(9) 0.8003(6) 0.0238(15) Uani 1 1 d . . . . .
N00C N 0.4239(12) 0.1976(9) 0.5240(6) 0.0293(17) Uani 1 1 d . . . . .
C00E C 0.2728(12) 0.4457(10) 0.4598(6) 0.0207(16) Uani 1 1 d . . . . .
N00F N 0.2999(12) 0.3586(9) 0.3798(6) 0.0292(17) Uani 1 1 d . . . . .
N2 N 0.0237(14) 0.8693(10) 0.3952(7) 0.036(2) Uani 1 1 d . . . . .
C00G C 0.5138(11) 0.1451(10) 0.8242(6) 0.0187(16) Uani 1 1 d . . . . .
C00H C 0.1605(13) 0.6812(10) 0.5566(7) 0.0256(18) Uani 1 1 d . . . . .
H00H H 0.098901 0.790080 0.563509 0.031 Uiso 1 1 calc R U . . .
C00I C 0.3426(12) 0.3534(10) 0.5442(6) 0.0202(16) Uani 1 1 d . . . . .
C00J C 0.1799(12) 0.6146(10) 0.4672(6) 0.0205(16) Uani 1 1 d . . . . .
C00K C 0.1041(12) 0.6586(10) 0.2953(6) 0.0198(16) Uani 1 1 d . . . . .
H00K H 0.150904 0.553931 0.273278 0.024 Uiso 1 1 calc R U . . .
C00L C -0.0094(12) 0.8042(10) 0.1378(6) 0.0213(16) Uani 1 1 d . . . . .
C00M C 0.0179(13) 0.7937(10) 0.2421(7) 0.0231(17) Uani 1 1 d . . . . .
C00N C 0.4608(13) 0.1757(11) 0.7332(7) 0.0260(18) Uani 1 1 d . . . . .
H00N H 0.469963 0.098698 0.688519 0.031 Uiso 1 1 calc R U . . .
C00O C 0.4754(13) 0.2984(11) 0.8615(7) 0.0252(18) Uani 1 1 d . . . . .
H00O H 0.499855 0.314821 0.922676 0.030 Uiso 1 1 calc R U . . .
C00P C -0.0248(15) 0.9180(11) 0.3073(7) 0.030(2) Uani 1 1 d . . . . .
H00P H -0.082193 1.025208 0.290493 0.035 Uiso 1 1 calc R U . . .
C00Q C 0.2309(14) 0.5900(10) 0.6387(7) 0.0255(18) Uani 1 1 d . . . . .
H00Q H 0.214521 0.641493 0.697769 0.031 Uiso 1 1 calc R U . . .
C00R C 0.3223(12) 0.4291(10) 0.6356(6) 0.0210(16) Uani 1 1 d . . . . .
C00S C 0.6116(12) -0.0162(10) 0.8634(6) 0.0209(16) Uani 1 1 d . . . . .
 
loop_
 _atom_site_aniso_label
 _atom_site_aniso_U_11
 _atom_site_aniso_U_22
 _atom_site_aniso_U_33
 _atom_site_aniso_U_23
 _atom_site_aniso_U_13
 _atom_site_aniso_U_12
Mn01 0.0272(7) 0.0144(6) 0.0183(6) -0.0002(4) -0.0113(5) -0.0021(5)
S002 0.0597(17) 0.0188(11) 0.0261(12) -0.0058(9) -0.0206(11) 0.0060(10)
O1 0.032(4) 0.020(3) 0.033(3) 0.000(3) -0.021(3) -0.001(2)
O4 0.029(3) 0.018(3) 0.021(3) 0.004(2) -0.014(2) -0.002(2)
O2 0.045(5) 0.022(3) 0.058(5) -0.011(3) -0.028(4) -0.001(3)
O3 0.031(4) 0.028(4) 0.064(5) -0.017(3) -0.013(4) -0.004(3)
O004 0.030(4) 0.026(3) 0.042(4) -0.005(3) -0.021(3) -0.001(3)
O005 0.066(5) 0.018(3) 0.027(3) -0.003(3) -0.028(3) 0.002(3)
N1 0.028(4) 0.016(3) 0.019(3) 0.000(3) -0.012(3) 0.002(3)
N008 0.025(4) 0.016(3) 0.019(3) -0.003(3) -0.006(3) 0.000(3)
N009 0.028(4) 0.024(4) 0.020(3) -0.003(3) -0.011(3) -0.002(3)
N00C 0.039(5) 0.025(4) 0.022(4) -0.007(3) -0.013(3) 0.004(3)
C00E 0.024(4) 0.019(4) 0.020(4) 0.002(3) -0.012(3) -0.002(3)
N00F 0.040(5) 0.022(4) 0.025(4) -0.002(3) -0.016(3) 0.004(3)
N2 0.058(6) 0.022(4) 0.028(4) -0.005(3) -0.024(4) 0.007(4)
C00G 0.011(4) 0.026(4) 0.018(4) -0.003(3) -0.005(3) -0.001(3)
C00H 0.033(5) 0.016(4) 0.027(4) -0.003(3) -0.014(4) 0.003(3)
C00I 0.025(4) 0.015(4) 0.020(4) 0.000(3) -0.009(3) -0.001(3)
C00J 0.018(4) 0.021(4) 0.020(4) 0.001(3) -0.006(3) 0.001(3)
C00K 0.027(4) 0.019(4) 0.015(4) -0.001(3) -0.009(3) -0.003(3)
C00L 0.024(4) 0.021(4) 0.018(4) 0.000(3) -0.004(3) -0.006(3)
C00M 0.025(4) 0.022(4) 0.024(4) 0.004(3) -0.012(3) -0.004(3)
C00N 0.032(5) 0.023(4) 0.024(4) -0.004(3) -0.010(4) -0.004(3)
C00O 0.033(5) 0.026(4) 0.018(4) -0.003(3) -0.010(3) -0.004(3)
C00P 0.047(6) 0.020(4) 0.023(4) 0.003(3) -0.021(4) 0.002(4)
C00Q 0.040(5) 0.020(4) 0.018(4) -0.003(3) -0.015(4) 0.000(3)
C00R 0.019(4) 0.025(4) 0.017(4) 0.001(3) -0.007(3) -0.001(3)
C00S 0.022(4) 0.020(4) 0.020(4) 0.001(3) -0.008(3) -0.003(3)
 
_geom_special_details
;
 All esds (except the esd in the dihedral angle between two l.s. planes)
 are estimated using the full covariance matrix.  The cell esds are taken
 into account individually in the estimation of esds in distances, angles
 and torsion angles; correlations between esds in cell parameters are only
 used when they are defined by crystal symmetry.  An approximate (isotropic)
 treatment of cell esds is used for estimating esds involving l.s. planes.
;
 
loop_
 _geom_bond_atom_site_label_1
 _geom_bond_atom_site_label_2
 _geom_bond_distance
 _geom_bond_site_symmetry_2
 _geom_bond_publ_flag
Mn01 O1 2.127(6) . ?
Mn01 O2 2.142(7) . ?
Mn01 O3 2.170(7) . ?
Mn01 O4 2.218(6) 2_666 ?
Mn01 O005 2.255(6) 1_646 ?
Mn01 O4 2.281(6) 1_646 ?
Mn01 C00L 2.620(8) 1_646 ?
S002 N00C 1.606(8) . ?
S002 N00F 1.607(8) . ?
O1 C00S 1.260(10) . ?
O4 C00L 1.259(10) . ?
O004 C00S 1.260(10) . ?
O005 C00L 1.260(10) . ?
N1 C00K 1.344(10) . ?
N1 N2 1.377(10) . ?
N1 C00J 1.416(10) . ?
N008 C00N 1.365(11) . ?
N008 N009 1.380(10) . ?
N008 C00R 1.418(10) . ?
N009 C00O 1.329(11) . ?
N00C C00I 1.343(11) . ?
C00E N00F 1.339(11) . ?
C00E C00I 1.433(11) . ?
C00E C00J 1.434(11) . ?
N2 C00P 1.317(11) . ?
C00G C00N 1.365(12) . ?
C00G C00O 1.398(12) . ?
C00G C00S 1.483(11) . ?
C00H C00J 1.363(12) . ?
C00H C00Q 1.407(11) . ?
C00I C00R 1.428(11) . ?
C00K C00M 1.378(11) . ?
C00L C00M 1.467(12) . ?
C00M C00P 1.391(12) . ?
C00Q C00R 1.368(12) . ?
 
loop_
 _geom_angle_atom_site_label_1
 _geom_angle_atom_site_label_2
 _geom_angle_atom_site_label_3
 _geom_angle
 _geom_angle_site_symmetry_1
 _geom_angle_site_symmetry_3
 _geom_angle_publ_flag
O1 Mn01 O2 84.5(3) . . ?
O1 Mn01 O3 139.0(3) . . ?
O2 Mn01 O3 86.6(3) . . ?
O1 Mn01 O4 83.2(2) . 2_666 ?
O2 Mn01 O4 141.1(3) . 2_666 ?
O3 Mn01 O4 79.0(3) . 2_666 ?
O1 Mn01 O005 128.4(3) . 1_646 ?
O2 Mn01 O005 98.4(3) . 1_646 ?
O3 Mn01 O005 92.5(3) . 1_646 ?
O4 Mn01 O005 118.0(2) 2_666 1_646 ?
O1 Mn01 O4 88.6(2) . 1_646 ?
O2 Mn01 O4 140.6(3) . 1_646 ?
O3 Mn01 O4 121.6(3) . 1_646 ?
O4 Mn01 O4 75.7(2) 2_666 1_646 ?
O005 Mn01 O4 57.3(2) 1_646 1_646 ?
O1 Mn01 C00L 111.5(3) . 1_646 ?
O2 Mn01 C00L 123.2(3) . 1_646 ?
O3 Mn01 C00L 106.8(3) . 1_646 ?
O4 Mn01 C00L 95.7(2) 2_666 1_646 ?
O005 Mn01 C00L 28.7(2) 1_646 1_646 ?
O4 Mn01 C00L 28.7(2) 1_646 1_646 ?
N00C S002 N00F 100.8(4) . . ?
C00S O1 Mn01 133.4(6) . . ?
C00L O4 Mn01 130.7(6) . 2_666 ?
C00L O4 Mn01 90.7(5) . 1_464 ?
Mn01 O4 Mn01 104.3(2) 2_666 1_464 ?
C00L O005 Mn01 91.9(5) . 1_464 ?
C00K N1 N2 112.1(7) . . ?
C00K N1 C00J 129.5(7) . . ?
N2 N1 C00J 118.4(7) . . ?
C00N N008 N009 110.9(7) . . ?
C00N N008 C00R 128.2(7) . . ?
N009 N008 C00R 120.9(7) . . ?
C00O N009 N008 104.0(7) . . ?
C00I N00C S002 107.3(6) . . ?
N00F C00E C00I 113.8(7) . . ?
N00F C00E C00J 126.1(7) . . ?
C00I C00E C00J 120.1(7) . . ?
C00E N00F S002 106.3(6) . . ?
C00P N2 N1 103.2(7) . . ?
C00N C00G C00O 104.7(7) . . ?
C00N C00G C00S 124.9(8) . . ?
C00O C00G C00S 130.0(8) . . ?
C00J C00H C00Q 121.9(8) . . ?
N00C C00I C00R 127.8(8) . . ?
N00C C00I C00E 111.9(7) . . ?
C00R C00I C00E 120.4(7) . . ?
C00H C00J N1 121.7(7) . . ?
C00H C00J C00E 117.6(7) . . ?
N1 C00J C00E 120.7(7) . . ?
N1 C00K C00M 107.0(7) . . ?
O4 C00L O005 119.3(8) . . ?
O4 C00L C00M 119.3(8) . . ?
O005 C00L C00M 121.4(8) . . ?
O4 C00L Mn01 60.5(4) . 1_464 ?
O005 C00L Mn01 59.3(4) . 1_464 ?
C00M C00L Mn01 173.9(6) . 1_464 ?
C00K C00M C00P 104.0(7) . . ?
C00K C00M C00L 127.3(8) . . ?
C00P C00M C00L 128.6(8) . . ?
C00G C00N N008 107.7(8) . . ?
N009 C00O C00G 112.8(8) . . ?
N2 C00P C00M 113.6(8) . . ?
C00R C00Q C00H 123.1(8) . . ?
C00Q C00R N008 122.0(8) . . ?
C00Q C00R C00I 116.9(7) . . ?
N008 C00R C00I 121.1(7) . . ?
O004 C00S O1 124.9(8) . . ?
O004 C00S C00G 118.6(7) . . ?
O1 C00S C00G 116.4(7) . . ?
 
_refine_diff_density_max    2.188
_refine_diff_density_min   -0.796
_refine_diff_density_rms    0.198

_shelx_res_file
;
TITL Er-973_auto_a.res in P-1
    Er-973_auto_a.res
    created by SHELXL-2018/3 at 10:48:57 on 20-Sep-2022
REM Old TITL Er-973_auto in P-1
REM SHELXT solution in P-1: R1 0.194, Rweak 0.072, Alpha 0.094
REM <I/s>   0.000 for    0 systematic absences,  Orientation as input
REM Formula found by SHELXT:  C19 N5 O2 S Mn
CELL  0.71073   7.4610   8.4963  13.5227   81.823   74.102   75.541
ZERR    9.000   0.0002   0.0005   0.0008    0.005    0.004    0.004
LATT  1
SFAC C N O S Mn H
UNIT 38 10 4 2 2 1
ACTA
OMIT 0 4 10
OMIT 4 1 8
OMIT 0 -4 2
OMIT 0 4 4
OMIT 1 0 2
OMIT 2 1 7
OMIT 1 0 4
OMIT -1 0 4
OMIT -3 -1 4
OMIT 2 0 2
OMIT 2 1 3
TEMP 17
L.S. 10
BOND
LIST 6
FMAP 2
PLAN 20
WGHT    0.000200   21.131205
FVAR       0.52326
MN01  5    0.977171   -0.169014    0.944443    11.00000    0.02722    0.01444 =
         0.01834   -0.00017   -0.01130   -0.00205
S002  4    0.408516    0.177292    0.410533    11.00000    0.05969    0.01883 =
         0.02610   -0.00583   -0.02061    0.00601
O1    3    0.716513   -0.015215    0.922042    11.00000    0.03210    0.02007 =
         0.03290   -0.00026   -0.02062   -0.00119
O4    3   -0.081794    0.940039    0.097943    11.00000    0.02893    0.01777 =
         0.02116    0.00364   -0.01426   -0.00207
O2    3    0.896512   -0.346396    0.877642    11.00000    0.04503    0.02240 =
         0.05828   -0.01050   -0.02770   -0.00127
AFIX 148
H2    6    0.933259   -0.416343    0.893745    11.00000   -1.50000
AFIX   0
O3    3    1.266290   -0.259097    0.855119    11.00000    0.03115    0.02829 =
         0.06435   -0.01655   -0.01267   -0.00443
AFIX 148
H3    6    1.319139   -0.234418    0.869703    11.00000   -1.50000
AFIX   0
O004  3    0.591861   -0.142638    0.832583    11.00000    0.02953    0.02568 =
         0.04222   -0.00543   -0.02063   -0.00141
O005  3    0.033159    0.679507    0.088362    11.00000    0.06566    0.01757 =
         0.02687   -0.00273   -0.02762    0.00212
N1    2    0.107596    0.706604    0.385129    11.00000    0.02787    0.01574 =
         0.01920   -0.00036   -0.01193    0.00214
N008  2    0.391717    0.339854    0.719490    11.00000    0.02453    0.01649 =
         0.01895   -0.00260   -0.00599    0.00025
N009  2    0.400073    0.418108    0.800295    11.00000    0.02830    0.02419 =
         0.02037   -0.00308   -0.01143   -0.00165
N00C  2    0.423900    0.197641    0.523967    11.00000    0.03942    0.02484 =
         0.02249   -0.00739   -0.01255    0.00362
C00E  1    0.272780    0.445650    0.459841    11.00000    0.02408    0.01943 =
         0.01956    0.00237   -0.01192   -0.00169
N00F  2    0.299856    0.358580    0.379801    11.00000    0.03971    0.02180 =
         0.02522   -0.00236   -0.01629    0.00433
N2    2    0.023675    0.869259    0.395153    11.00000    0.05828    0.02213 =
         0.02820   -0.00549   -0.02396    0.00660
C00G  1    0.513812    0.145103    0.824150    11.00000    0.01112    0.02593 =
         0.01832   -0.00253   -0.00469   -0.00130
C00H  1    0.160496    0.681168    0.556600    11.00000    0.03328    0.01639 =
         0.02679   -0.00272   -0.01441    0.00348
AFIX  43
H00H  6    0.098901    0.790080    0.563509    11.00000   -1.20000
AFIX   0
C00I  1    0.342649    0.353371    0.544192    11.00000    0.02518    0.01505 =
         0.01999   -0.00006   -0.00895   -0.00103
C00J  1    0.179921    0.614566    0.467246    11.00000    0.01762    0.02142 =
         0.01954    0.00094   -0.00640    0.00148
C00K  1    0.104068    0.658582    0.295342    11.00000    0.02653    0.01946 =
         0.01469   -0.00073   -0.00939   -0.00286
AFIX  43
H00K  6    0.150904    0.553931    0.273278    11.00000   -1.20000
AFIX   0
C00L  1   -0.009442    0.804245    0.137816    11.00000    0.02416    0.02071 =
         0.01830    0.00013   -0.00413   -0.00612
C00M  1    0.017908    0.793748    0.242113    11.00000    0.02452    0.02170 =
         0.02442    0.00361   -0.01164   -0.00442
C00N  1    0.460752    0.175740    0.733165    11.00000    0.03237    0.02288 =
         0.02412   -0.00401   -0.01038   -0.00375
AFIX  43
H00N  6    0.469963    0.098698    0.688519    11.00000   -1.20000
AFIX   0
C00O  1    0.475361    0.298411    0.861528    11.00000    0.03304    0.02598 =
         0.01790   -0.00286   -0.01014   -0.00392
AFIX  43
H00O  6    0.499855    0.314821    0.922676    11.00000   -1.20000
AFIX   0
C00P  1   -0.024824    0.917967    0.307335    11.00000    0.04667    0.02003 =
         0.02282    0.00262   -0.02081    0.00213
AFIX  43
H00P  6   -0.082193    1.025208    0.290493    11.00000   -1.20000
AFIX   0
C00Q  1    0.230904    0.589957    0.638659    11.00000    0.04000    0.01997 =
         0.01806   -0.00344   -0.01520    0.00023
AFIX  43
H00Q  6    0.214521    0.641493    0.697769    11.00000   -1.20000
AFIX   0
C00R  1    0.322301    0.429077    0.635598    11.00000    0.01942    0.02501 =
         0.01708    0.00098   -0.00694   -0.00102
C00S  1    0.611588   -0.016232    0.863362    11.00000    0.02206    0.02037 =
         0.02013    0.00066   -0.00781   -0.00282
HKLF 4




REM  Er-973_auto_a.res in P-1
REM wR2 = 0.2698, GooF = S = 1.161, Restrained GooF = 1.161 for all data
REM R1 = 0.0963 for 3353 Fo > 4sig(Fo) and 0.1018 for all 3666 data
REM 257 parameters refined using 0 restraints

END

WGHT      0.0245     23.0281

REM Highest difference peak  2.188,  deepest hole -0.796,  1-sigma level  0.198
Q1    1   1.0566 -0.4198  0.9429  11.00000  0.05    2.19
Q2    1   0.0967  0.9201  0.0581  11.00000  0.05    1.98
Q3    1  -0.1431  0.6735  0.0595  11.00000  0.05    1.41
Q4    1   0.1777  0.6633  0.0584  11.00000  0.05    1.30
Q5    1   1.1674 -0.1662  0.9011  11.00000  0.05    0.82
Q6    1  -0.2475  0.9362  0.0693  11.00000  0.05    0.82
Q7    1   1.3402 -0.3524  0.8211  11.00000  0.05    0.79
Q8    1   0.8055 -0.2867  0.8347  11.00000  0.05    0.74
Q9    1   0.4962  0.0756  0.5816  11.00000  0.05    0.74
Q10   1   0.2453  0.2795  0.9412  11.00000  0.05    0.73
Q11   1   0.2623  0.7416  0.2975  11.00000  0.05    0.71
Q12   1   0.1837  0.9924  0.3005  11.00000  0.05    0.70
Q13   1   0.1610  0.3946  0.3048  11.00000  0.05    0.69
Q14   1   0.2760  0.8079  0.5275  11.00000  0.05    0.68
Q15   1   0.3359  0.4733  0.1728  11.00000  0.05    0.67
Q16   1  -0.0615  1.1410  0.2924  11.00000  0.05    0.65
Q17   1   1.0977 -0.2108  0.9433  11.00000  0.05    0.63
Q18   1   0.7209 -0.3842  0.9047  11.00000  0.05    0.63
Q19   1  -0.1885  0.9356  0.4753  11.00000  0.05    0.63
Q20   1   0.3691  0.4364  0.4072  11.00000  0.05    0.63
;
_shelx_res_checksum   99497

_shelx_hkl_file
;
   0   0   2  408.90    5.55
   0   0  -2  405.72    5.63
   0   0   2  409.39    6.46
   0   0  -2  378.90    6.19
   0   0   2  405.03    6.20
   0   0   3  471.71    7.33
   0   0  -3  471.82    7.45
   0   0  -3  458.75    8.32
   0   0   3  479.80    8.58
   0   0   3  442.48    8.07
   0   0   4 2093.89   17.97
   0   0  -4 2027.34   18.12
   0   0   4 2043.86   20.92
   0   0  -4 2010.18   20.17
   0   0   4 2095.93   20.37
   0   0  -5  232.88    6.81
   0   0   5  232.59    6.66
   0   0  -5  217.87    7.56
   0   0   5  234.70    7.85
   0   0   5  227.22    7.48
   0   0  -6  698.60   12.96
   0   0   6  690.41   12.63
   0   0  -6  703.94   14.77
   0   0   6  692.07   14.48
   0   0   7    3.50    1.02
   0   0  -7    4.15    1.12
   0   0   7    3.77    1.07
   0   0  -7    2.31    0.95
   0   0  -8   86.40    5.34
   0   0   8   85.69    5.21
   0   0  -8   85.67    6.03
   0   0   8   86.71    6.03
   0   0  -9  704.15   16.33
   0   0   9  648.98   15.43
   0   0  -9  674.01   18.33
   0   0   9  676.77   17.87
   0   0  10   61.43    5.09
   0   0 -10   72.59    5.67
   0   0 -10   67.73    6.09
   0   0  11    8.88    2.01
   0   0 -11   12.08    2.75
   0   0  12  102.13    7.32
   0   0 -12  100.12    8.31
   0   0  13   40.75    4.83
   0   0 -13   41.27    5.58
   0   0  14    1.79    1.23
   0   0 -14    0.82    0.85
   0   0  15   67.87    7.01
   0   0 -15   68.58    7.95
   0   0  16    1.52    1.10
   0   0  17   55.99    7.14
   0  -1  17   -0.67    0.62
   0  -1  16   17.93    3.79
   0  -1  15    3.19    1.38
   0   1 -15    5.14    2.28
   0  -1  14   88.37    7.74
   0   1 -14   96.72    9.18
   0  -1  13   48.05    5.40
   0   1 -13   54.78    6.62
   0  -1  12   26.37    3.90
   0   1 -12   18.89    3.74
   0  -1  11  595.43   17.28
   0   1 -11  556.19   19.00
   0   1 -10   70.31    5.66
   0  -1  10   68.36    5.53
   0   1 -10   69.43    6.33
   0  -1   9  210.30    9.18
   0   1  -9  215.73    9.28
   0   1  -9  205.12   10.16
   0  -1   9  217.88   10.21
   0   1  -8    9.86    2.00
   0  -1   8   27.90    3.35
   0  -1   8   20.78    3.38
   0   1  -8    8.01    2.37
   0  -1   7   67.37    4.50
   0   1  -7   62.79    4.40
   0   1  -7   56.94    4.71
   0  -1   7   52.58    4.47
   0   1  -6   77.98    4.56
   0  -1   6  100.28    5.48
   0   1  -6   79.09    5.13
   0   1  -6   73.92    4.87
   0  -1   6   81.28    5.21
   0   1  -5    3.74    0.92
   0  -1   5    5.35    1.12
   0   1  -5    4.89    1.17
   0  -1   5    6.94    1.41
   0  -1   4   29.22    2.29
   0   1  -4   23.87    2.08
   0  -1   4   27.66    2.42
   0   1  -4   24.61    2.28
   0   1  -3 1255.82   13.64
   0  -1   3 1265.46   13.65
   0  -1   3 1235.67   14.54
   0   1  -3 1258.91   14.76
   0   1  -2  287.02    5.75
   0  -1   2  307.20    6.01
   0   1  -2  289.50    6.20
   0   1  -2  293.68    6.08
   0  -1   2  282.80    6.00
   0   1  -1  445.62    6.54
   0  -1   1  456.82    6.45
   0   1  -1  457.19    6.55
   0  -1   1  455.15    6.55
   0   1  -1  443.40    6.60
   0  -1   1  449.62    6.64
   0  -1   1  437.76    6.30
   0   1   0  114.09    2.96
   0  -1   0  109.25    2.88
   0  -1   0  113.74    3.02
   0   1   0  111.95    3.00
   0   1   0  112.00    2.77
   0  -1   0  105.79    2.68
   0  -1  -1 2518.86   15.04
   0   1   1 2438.01   15.10
   0   1   2   26.88    1.79
   0  -1  -2   26.57    1.80
   0   1   3 1181.04   11.96
   0  -1  -3 1183.69   13.95
   0   1   3 1163.40   14.14
   0   1   4   49.76    2.82
   0   1   4   48.84    3.27
   0  -1  -4   46.87    3.16
   0   1   5   34.86    2.57
   0  -1  -5   35.14    2.61
   0  -1  -5   33.28    2.98
   0   1   5   34.66    3.09
   0  -1  -6  976.63   15.04
   0   1   6 1018.43   15.36
   0  -1  -6  986.95   17.50
   0   1   6  965.21   17.90
   0  -1  -7   51.84    3.80
   0   1   7   50.05    3.70
   0   1   7   52.39    4.44
   0  -1  -7   50.41    4.59
   0   1   8  529.84   12.94
   0  -1  -8  494.93   12.53
   0  -1  -8  516.03   14.87
   0   1   8  544.96   15.72
   0  -1  -9   45.61    4.23
   0   1   9   42.39    3.90
   0   1   9   44.71    4.85
   0  -1  -9   56.87    5.63
   0   1   9   41.62    4.50
   0  -1 -10   53.09    4.64
   0   1  10   56.94    4.83
   0  -1 -10   59.97    5.82
   0  -1 -11    9.20    2.47
   0   1  11    2.70    1.85
   0   1  12  262.38   11.49
   0  -1 -12  251.50   13.20
   0   1  13   23.97    3.69
   0  -1 -13   30.06    4.95
   0   1  14   52.46    5.72
   0  -1 -14   55.07    6.89
   0   1  15   25.86    4.25
   0  -1 -15   21.81    4.46
   0   1  16   46.62    5.94
   0   1  17   22.81    4.25
   0  -2  16   11.65    3.32
   0  -2  15    2.71    1.45
   0   2 -15    1.73    1.36
   0  -2  14   61.06    6.67
   0   2 -14   59.94    7.47
   0  -2  13   40.08    5.12
   0   2 -13   33.00    5.13
   0  -2  12   44.22    5.13
   0   2 -12   45.90    5.88
   0  -2  11   19.01    3.23
   0   2 -11   23.01    3.85
   0  -2  10    5.34    1.64
   0   2 -10    1.98    1.00
   0  -2   9   14.03    2.52
   0   2  -9   13.13    2.42
   0   2  -9   16.14    3.05
   0   2  -9   14.47    2.80
   0  -2   8   79.82    5.61
   0   2  -8   83.31    5.66
   0   2  -8   83.89    6.39
   0   2  -8   77.41    5.93
   0  -2   8   89.45    6.39
   0  -2   7    8.52    1.84
   0   2  -7    6.40    1.50
   0  -2   7    8.29    1.87
   0   2  -7    6.94    1.63
   0  -2   6  446.27   11.82
   0   2  -6  458.32   11.84
   0   2  -6  465.08   12.89
   0  -2   6  463.51   12.74
   0  -2   5  255.15    8.40
   0   2  -5  256.75    8.41
   0   2  -5  256.85    9.05
   0   2  -5  264.09    8.98
   0  -2   5  252.14    8.87
   0  -2   4  151.86    6.08
   0   2  -4  135.68    5.72
   0   2  -4  151.76    6.46
   0   2  -4  139.49    6.03
   0  -2   4  137.99    6.00
   0  -2   3  422.48    9.57
   0   2  -3  401.08    9.21
   0  -2   3  408.02    9.56
   0   2  -3  400.68    9.65
   0   2  -3  415.59    9.59
   0  -2   2   26.00    2.27
   0   2  -2   29.96    2.31
   0  -2   2   27.45    2.21
   0  -2   2   30.27    2.43
   0   2  -2   30.70    2.43
   0   2  -2   26.05    2.27
   0  -2   1   48.91    2.79
   0   2  -1   50.63    2.89
   0  -2   1   49.42    2.91
   0   2  -1   50.62    2.96
   0  -2   1   49.55    2.77
   0   2  -1   46.64    2.68
   0  -2   0 1723.68   16.15
   0   2   0 1684.14   16.16
   0  -2   0 1695.39   15.23
   0   2   0 1629.92   15.22
   0  -2   0 1662.91   16.45
   0   2   0 1679.88   16.43
   0  -2  -1   43.00    2.63
   0   2   1   41.20    2.56
   0   2   1   43.32    1.66
   0  -2  -1   44.30    2.73
   0   2   1   38.95    2.56
   0  -2  -1   41.73    1.28
   0   2   2  284.32    7.23
   0  -2  -2  284.01    7.21
   0   2   2  285.38    3.84
   0  -2  -3   46.61    3.11
   0   2   3   46.99    3.21
   0   2   3   45.31    1.98
   0  -2  -4   46.33    3.42
   0   2   4   45.58    3.44
   0   2   5  907.23   13.88
   0   2   5  847.09   16.36
   0  -2  -5  860.42   15.90
   0   2   6   21.48    2.34
   0   2   6   20.29    2.77
   0  -2  -6   21.08    2.64
   0   2   7  561.65   12.78
   0  -2  -7  531.23   14.39
   0   2   7  568.47   15.37
   0   2   8  104.63    5.92
   0   2   8  113.42    7.39
   0  -2  -8  106.61    6.87
   0   2   9  525.34   13.99
   0   2   9  536.83   16.64
   0  -2  -9  510.88   15.95
   0   2  10  108.46    6.75
   0   2  10  115.30    2.64
   0  -2 -10  102.22    7.69
   0   2  11  269.88   11.14
   0  -2 -11  238.02   12.31
   0   2  12   43.46    4.72
   0  -2 -12   42.72    5.43
   0   2  13   52.13    5.46
   0  -2 -13   43.29    5.79
   0   2  14   84.89    7.21
   0  -2 -14   74.26    7.96
   0   2  15   26.94    4.24
   0  -2 -15   33.52    5.61
   0   2  16    4.82    1.83
   0   2  17    1.64    1.28
   0  -3  15   25.90    4.68
   0  -3  14   13.70    3.30
   0   3 -14   16.17    3.97
   0  -3  13   28.81    4.53
   0   3 -13   34.52    5.45
   0  -3  12   66.97    6.76
   0   3 -12   65.23    7.22
   0  -3  11  134.19    9.04
   0   3 -11  135.90   10.06
   0  -3  10   76.33    7.06
   0   3 -10   59.63    6.35
   0   3 -10   50.27    5.60
   0  -3   9  593.53   17.48
   0   3  -9  611.96   18.71
   0   3  -8  132.17    7.58
   0  -3   8  137.38    8.04
   0   3  -8  139.45    8.71
   0  -3   8  132.67    8.26
   0   3  -8  145.07    8.57
   0   3  -7    6.44    1.76
   0  -3   7    8.64    2.01
   0   3  -7    7.42    1.70
   0   3  -7    8.42    1.76
   0  -3   7    8.20    2.09
   0   3  -6   16.39    2.45
   0  -3   6   15.75    2.56
   0   3  -6   14.08    2.22
   0  -3   6   19.51    2.74
   0   3  -6   17.13    2.74
   0  -3   5  594.84   14.29
   0   3  -5  585.66   13.99
   0  -3   5  598.72   14.75
   0  -3   5  599.12   14.50
   0   3  -5  593.71   15.04
   0   3  -5  578.03   14.53
   0  -3   4  135.28    6.70
   0   3  -4  137.44    6.47
   0  -3   4  135.95    6.47
   0   3  -4  135.02    6.79
   0   3  -4  139.73    6.68
   0  -3   3   13.07    1.98
   0   3  -3   12.49    1.99
   0   3  -3   10.17    1.79
   0  -3   3   11.18    1.95
   0   3  -3    9.47    1.60
   0  -3   3   12.46    1.85
   0   3  -2   69.94    4.27
   0  -3   2   72.55    4.38
   0   3  -2   66.83    4.24
   0  -3   2   68.17    4.33
   0   3  -2   68.74    4.36
   0  -3   2   68.09    4.10
   0   3  -2   66.83    4.11
   0   3  -1   44.73    3.31
   0  -3   1   46.82    3.46
   0   3  -1   41.66    3.30
   0  -3   1   40.75    3.26
   0  -3   1   45.52    3.22
   0   3  -1   45.24    3.23
   0  -3   0   36.90    2.91
   0   3   0   37.16    2.96
   0   3   0   30.38    2.57
   0  -3   0   34.18    2.70
   0  -3   0   34.63    1.33
   0  -3   0   35.32    2.92
   0   3   0   34.01    2.86
   0   3   1   34.30    2.84
   0  -3  -1   35.15    2.91
   0   3   1   33.31    1.64
   0   3   1   30.20    2.50
   0   3   1   32.77    2.82
   0  -3  -1   36.15    2.94
   0  -3  -1   33.22    1.43
   0   3   2   69.31    4.14
   0   3   2   64.23    2.77
   0   3   2   70.00    4.24
   0  -3  -2   68.31    4.16
   0  -3  -2   69.25    2.07
   0   3   3    3.32    0.82
   0   3   3    7.21    1.53
   0   3   3    5.25    0.61
   0  -3  -3    5.13    1.19
   0   3   4  230.81    8.64
   0  -3  -4  247.53    8.70
   0   3   4  224.95    4.94
   0  -3  -5  579.22   14.20
   0   3   5  601.67   14.70
   0   3   5  568.44    9.23
   0  -3  -6    2.21    0.99
   0   3   6    1.35    0.59
   0   3   7  134.28    6.56
   0   3   7  133.20    7.86
   0  -3  -7  122.77    7.26
   0   3   8  207.13    8.84
   0  -3  -8  174.14    9.20
   0   3   8  186.65    9.74
   0   3   9   77.39    5.59
   0  -3  -9   68.61    6.04
   0   3  10  141.86    7.92
   0  -3 -10  131.46    9.04
   0   3  11  317.79   12.38
   0  -3 -11  318.14   14.50
   0   3  12   21.32    3.40
   0   3  12   25.39    1.58
   0  -3 -12   27.43    4.81
   0   3  13   65.07    6.16
   0  -3 -13   71.08    7.68
   0   3  14    8.90    2.35
   0  -3 -14    7.13    2.54
   0   3  15   23.46    4.17
   0  -3 -15   27.15    5.11
   0   3  16    5.75    1.88
   0   3  17  131.63   10.31
   0  -4  14   35.94    5.60
   0  -4  14   30.94    5.34
   0   4 -14   34.31    5.85
   0  -4  13   13.32    3.33
   0   4 -13   14.00    3.75
   0  -4  12  108.50    9.04
   0   4 -12  114.81    9.99
   0   4 -12  119.04    9.94
   0  -4  11    6.00    1.98
   0   4 -11    4.36    1.47
   0   4 -11    3.73    1.63
   0  -4  10   17.78    3.30
   0  -4  10   17.96    3.34
   0   4 -10   17.87    3.52
   0  -4   9  390.44   15.46
   0  -4   9  403.39   15.38
   0   4  -9  376.47   15.41
   0  -4   8    9.89    2.40
   0  -4   8   11.42    2.54
   0   4  -8   10.82    2.51
   0  -4   7  189.46    9.68
   0   4  -7  190.95    9.54
   0   4  -7  187.72    9.86
   0   4  -6   53.42    4.83
   0  -4   6   43.88    4.62
   0  -4   6   48.47    4.61
   0   4  -6   41.49    4.51
   0   4  -6   42.16    4.54
   0  -4   5  428.49   13.76
   0   4  -5  438.42   13.30
   0  -4   5  410.09   12.86
   0   4  -5  423.47   13.92
   0   4  -5  413.33   13.33
   0   4  -4  448.86   13.08
   0  -4   4  436.73   13.18
   0  -4   4  426.38   12.61
   0  -4   4  430.24   13.48
   0   4  -4  430.78   13.39
   0   4  -4  419.14   12.98
   0   4  -3 1363.04   22.25
   0  -4   3 1369.35   22.48
   0  -4   3 1340.41   21.46
   0  -4   3 1308.73   22.62
   0   4  -3 1368.58   23.05
   0   4  -3 1321.05   22.21
   0   4  -2  239.97    9.01
   0  -4   2  239.44    9.15
   0   4  -2  229.68    9.02
   0  -4   2  218.83    8.99
   0   4  -2  232.12    9.25
   0   4  -2  227.70    8.76
   0  -4   2  228.17    8.66
   0  -4   1    3.05    0.99
   0   4  -1    3.65    1.23
   0   4  -1    5.65    1.47
   0  -4   1    3.73    1.10
   0   4  -1    5.49    1.41
   0  -4   1    2.98    0.39
   0  -4   1    3.21    1.03
   0   4   0  969.02   17.61
   0  -4   0  975.14   17.79
   0  -4   0  996.01   18.24
   0   4   0  985.69   18.27
   0   4   0  951.71   16.75
   0  -4   0  982.09   16.97
   0   4   1  736.61   15.46
   0  -4  -1  747.29   15.73
   0   4   1  721.83    8.15
   0   4   1  738.05   14.61
   0   4   1  759.22   16.11
   0  -4  -1  754.20   15.96
   0   4   2    5.28    1.32
   0   4   2    5.42    1.27
   0   4   2    5.21    0.84
   0  -4  -2    5.04    1.25
   0   4   2    6.26    1.40
   0  -4  -2    6.18    0.69
   0   4   3  434.61   12.15
   0   4   3  420.93    8.55
   0   4   3  440.89   12.81
   0  -4  -3  459.61   12.77
   0   4   4  947.55   18.65
   0   4   4  965.02   14.40
   0  -4  -4  968.31   19.17
   0   4   4  960.61   19.56
   0   4   4  963.47    9.70
   0  -4  -5  267.14   10.38
   0   4   5  283.84   11.02
   0   4   5  265.07    5.82
   0   4   6  277.99   11.41
   0  -4  -6  273.23   11.01
   0   4   6  271.18    6.71
   0  -4  -7   32.46    3.98
   0   4   7   34.99    4.16
   0   4   7   33.28    2.62
   0   4   8  355.80   11.93
   0  -4  -8  366.55   14.04
   0   4   8  344.01    9.35
   0   4   9   25.45    3.61
   0  -4  -9   18.32    3.26
   0   4   9   16.36    2.26
   0   4  10  217.94   10.32
   0  -4 -10  197.08   11.31
   0   4  10  223.47    8.76
   0   4  11   26.41    3.67
   0  -4 -11   28.55    4.54
   0   4  12    5.46    1.74
   0  -4 -12    8.32    2.55
   0   4  13   54.99    5.88
   0  -4 -13   58.82    7.04
   0   4  14    9.21    2.53
   0  -4 -14    8.84    2.67
   0   4  15   16.86    3.58
   0   4  15   18.95    3.45
   0  -4 -15   17.53    4.01
   0   4  16   31.46    4.87
   0   4  16   24.20    4.00
   0   4  17  112.12    9.09
   0  -5  13    1.40    1.87
   0   5 -13    1.01    1.51
   0   5 -13    3.06    2.02
   0  -5  12   17.85    3.96
   0   5 -12   16.62    3.84
   0   5 -12   17.83    4.14
   0  -5  11    0.77    0.47
   0   5 -11    3.16    1.72
   0  -5  10  122.07    9.38
   0   5 -10  133.65   10.13
   0  -5   9    7.52    2.27
   0   5  -9    2.27    1.32
   0  -5   8   23.16    3.81
   0   5  -8   23.90    3.90
   0  -5   7   33.19    4.26
   0   5  -7   29.62    4.23
   0  -5   6  461.89   15.59
   0   5  -6  449.20   15.86
   0   5  -5    1.44    0.89
   0   5  -5    0.36    0.71
   0  -5   5    2.06    1.28
   0   5  -4    4.17    1.34
   0  -5   4    8.03    2.44
   0   5  -4    8.21    2.00
   0  -5   4    4.88    1.50
   0  -5   4    5.45    1.66
   0   5  -4    5.76    1.73
   0  -5   3  306.64   11.80
   0   5  -3  311.58   11.82
   0  -5   3  280.85   10.91
   0  -5   3  285.18   11.69
   0   5  -3  303.93   11.97
   0   5  -3  293.60   11.57
   0   5  -2    9.07    1.89
   0  -5   2    7.82    1.70
   0   5  -2    9.53    2.10
   0  -5   2    9.17    2.00
   0   5  -2    8.70    1.98
   0   5  -2   10.62    2.13
   0  -5   2    9.66    0.76
   0  -5   2   11.35    2.13
   0  -5   1   17.57    2.62
   0   5  -1   15.12    2.50
   0  -5   1   14.00    2.51
   0   5  -1   20.10    2.98
   0  -5   1   19.82    2.68
   0   5  -1   16.40    2.56
   0   5   0  353.31   12.00
   0  -5   0  382.15   12.45
   0   5   0  380.38   11.97
   0   5   0  372.60   12.67
   0  -5   0  371.93   12.59
   0   5   1   22.99    3.06
   0  -5  -1   24.50    3.12
   0   5   1   22.22    2.86
   0   5   1   23.45    3.13
   0  -5  -1   20.52    2.92
   0  -5  -1   20.45    1.53
   0   5   2  214.24    9.33
   0   5   2  202.15    8.56
   0   5   2  204.39    5.29
   0   5   2  209.91    9.52
   0  -5  -2  201.42    9.35
   0  -5  -2  196.60    4.30
   0   5   3  239.61   10.08
   0   5   3  266.21   11.01
   0  -5  -3  254.97   10.70
   0   5   3  225.22    6.41
   0   5   3  239.57    9.45
   0   5   4  156.05    8.32
   0   5   4  145.78    8.38
   0  -5  -4  151.99    8.47
   0   5   4  147.90    5.76
   0   5   5   62.13    5.35
   0   5   5   62.43    4.13
   0  -5  -5   60.63    5.43
   0   5   5   65.15    5.76
   0   5   6  164.81    9.01
   0   5   6  154.09    7.06
   0   5   6  169.29    9.61
   0  -5  -6  157.93    9.12
   0   5   6  159.33    4.76
   0  -5  -7   82.16    6.83
   0   5   7   88.11    3.96
   0   5   8    1.24    0.69
   0  -5  -8   -0.11    0.77
   0   5   9  116.83    7.51
   0  -5  -9  113.51    8.63
   0   5   9  106.37    5.35
   0   5  10    5.62    1.76
   0  -5 -10    6.90    2.39
   0   5  10    6.07    1.42
   0   5  11   81.89    6.95
   0  -5 -11   79.40    8.02
   0   5  11   79.34    5.44
   0   5  12   17.89    3.32
   0  -5 -12   18.52    3.93
   0   5  12   20.83    2.94
   0   5  13   36.32    4.93
   0  -5 -13   37.60    5.77
   0   5  13   34.25    4.06
   0   5  14   15.64    3.26
   0   5  14   12.34    2.51
   0  -5 -14   12.92    3.41
   0   5  15    2.60    1.76
   0   5  15    4.16    1.70
   0   5  16   37.45    5.51
   0   6 -12    8.28    3.15
   0  -6  11   36.85    5.71
   0   6 -11   37.71    5.74
   0  -6  10   20.91    4.24
   0   6 -10   21.75    4.32
   0  -6   9  278.24   14.56
   0   6  -9  306.95   15.59
   0  -6   8    5.59    2.26
   0   6  -8    2.73    1.19
   0  -6   7   32.07    4.69
   0   6  -7   28.52    4.45
   0  -6   6   11.02    2.79
   0   6  -6   12.34    2.78
   0  -6   5  107.74    7.98
   0  -6   5   98.08    8.00
   0   6  -5  106.74    8.06
   0   6  -4    7.26    2.11
   0  -6   4    5.09    1.76
   0  -6   4    5.78    1.76
   0   6  -3  118.46    8.06
   0  -6   3  132.59    8.84
   0  -6   3  125.40    7.85
   0  -6   3  118.97    2.65
   0   6  -2   72.01    6.18
   0  -6   2   65.49    6.05
   0   6  -2   70.13    5.94
   0  -6   2   69.23    5.72
   0  -6   1  156.61    8.91
   0   6  -1  162.44    9.11
   0   6  -1  160.40    9.34
   0  -6   1  156.24    9.20
   0   6  -1  163.42    8.76
   0  -6   1  162.07    8.62
   0  -6   0  986.16   22.13
   0   6   0  940.63   21.56
   0   6   0  932.48   20.64
   0   6   0  962.92   22.54
   0  -6   0  892.99   21.83
   0  -6  -1   54.13    5.13
   0   6   1   52.15    5.08
   0   6   1   48.28    4.70
   0   6   1   48.63    1.98
   0  -6  -1   53.91    5.34
   0   6   1   52.68    5.21
   0  -6  -1   50.97    2.63
   0   6   2  317.00   12.62
   0   6   2  325.80   12.11
   0  -6  -2  324.61   13.18
   0   6   2  330.28   13.26
   0  -6  -2  315.99    5.87
   0   6   3   36.02    4.27
   0  -6  -3   36.40    4.45
   0   6   3   36.46    4.03
   0   6   3   38.15    2.68
   0   6   4   29.60    3.97
   0  -6  -4   29.56    4.11
   0   6   4   27.87    3.60
   0   6   4   26.72    2.55
   0   6   5   28.06    3.96
   0  -6  -5   26.35    3.86
   0   6   5   23.55    2.61
   0   6   5   24.41    3.44
   0   6   6  805.25   21.72
   0   6   6  845.00   16.82
   0  -6  -6  868.01   23.15
   0   6   7  164.14   10.09
   0   6   7  162.02    7.94
   0  -6  -7  150.59    9.91
   0   6   7  163.74    5.03
   0   6   8  280.94   13.61
   0   6   8  294.65   11.44
   0  -6  -8  337.91   15.32
   0   6   8  317.38    7.80
   0   6   9   67.22    6.90
   0  -6  -9   70.78    7.31
   0   6   9   64.17    3.85
   0   6  10   18.50    3.30
   0  -6 -10   17.86    3.71
   0   6  10   19.36    2.30
   0   6  11   65.88    6.54
   0  -6 -11   68.13    7.54
   0   6  11   69.82    4.75
   0   6  12    9.78    2.67
   0  -6 -12    9.41    2.77
   0   6  12    9.64    1.69
   0   6  13    0.73    0.52
   0  -6 -13    0.07    0.33
   0   6  14    8.29    2.60
   0   6  15   27.74    4.74
   0  -7  10    5.90    2.63
   0   7 -10    4.72    2.31
   0  -7   9  120.10   10.16
   0   7  -9  124.83   10.50
   0  -7   8    2.23    1.44
   0   7  -8    0.78    1.43
   0  -7   7    0.66    1.10
   0   7  -7    1.73    1.35
   0  -7   6  105.46    8.65
   0   7  -6  107.78    8.95
   0  -7   5  427.73   16.97
   0  -7   5  415.48    6.03
   0  -7   5  437.60   18.26
   0   7  -5  433.61   17.55
   0  -7   4   41.82    5.19
   0  -7   4   35.71    5.04
   0   7  -4   39.81    5.21
   0   7  -3  229.06   12.20
   0  -7   3  219.94   12.33
   0  -7   3  218.11   11.41
   0   7  -2    1.20    0.89
   0  -7   2   -0.81    1.29
   0  -7   2    0.77    0.28
   0   7  -1   47.51    5.50
   0  -7   1   43.68    5.34
   0   7   0   39.80    4.85
   0  -7   0   37.64    4.95
   0   7   1   20.58    3.44
   0   7   1   23.25    1.24
   0  -7  -1   27.98    4.21
   0  -7  -1   23.09    1.87
   0   7   2   25.86    3.96
   0  -7  -2   26.21    4.20
   0  -7  -2   28.01    1.81
   0   7   3  258.12   12.67
   0  -7  -3  280.19   13.57
   0   7   3  261.78    7.02
   0   7   4   37.42    4.89
   0  -7  -4   33.15    4.78
   0   7   4   37.16    2.95
   0   7   5   11.55    2.54
   0  -7  -5   17.24    3.42
   0   7   5   12.09    1.89
   0   7   6   65.40    6.68
   0  -7  -6   83.66    7.79
   0   7   6   68.11    4.77
   0   7   7  134.68    9.79
   0  -7  -7  131.39    9.98
   0   7   7  126.04    7.07
   0   7   8   78.48    7.66
   0  -7  -8   79.04    7.91
   0   7   9   -0.68    0.42
   0  -7  -9    3.53    2.21
   0   7  10   58.41    7.04
   0  -7 -10   57.69    7.20
   0   7  11    9.77    3.06
   0   7  11    8.58    2.53
   0  -7 -11    6.89    2.96
   0   7  12   62.25    6.80
   0   7  12   64.90    7.89
   0  -7 -12   54.88    7.36
   0   7  13    0.65    1.26
   0   7  14  100.80    9.08
   0  -8   8   41.57    6.11
   0   8  -8   53.90    7.10
   0  -8   7   36.12    5.55
   0   8  -7   44.78    6.32
   0  -8   6   74.68    7.74
   0   8  -6   76.04    8.05
   0  -8   5  106.69    8.94
   0  -8   5  111.39    9.93
   0   8  -5  116.77    9.88
   0  -8   4  128.35    9.67
   0  -8   4  136.22   10.85
   0   8  -4  116.17    9.61
   0  -8   3   32.97    4.89
   0  -8   3   32.33    5.08
   0   8  -3   38.33    5.51
   0   8  -2   61.43    6.74
   0  -8   2   58.75    6.96
   0   8  -1   84.69    7.90
   0  -8   1   82.43    8.23
   0   8   0  249.76   13.42
   0   8   0  263.57    6.24
   0  -8   0  276.29   14.50
   0  -8   0  262.08    7.34
   0   8   1   58.64    6.44
   0  -8  -1   56.47    6.59
   0   8   2  171.36   11.18
   0  -8  -2  177.18   11.68
   0   8   3  118.44    9.30
   0  -8  -3  121.32    9.67
   0   8   4  117.84    9.38
   0  -8  -4  108.30    9.26
   0   8   5   63.15    6.93
   0  -8  -5   54.76    6.64
   0   8   6  108.83    9.28
   0  -8  -6  122.06   10.06
   0   8   7   61.88    7.12
   0  -8  -7   55.70    6.87
   0   8   8   38.03    5.71
   0  -8  -8   46.65    6.43
   0   8   9   29.44    5.16
   0  -8  -9   36.06    5.85
   0   8  10   16.85    3.98
   0  -8 -10   22.75    4.55
   0   8  11   79.73    7.85
   0   8  11   83.90    9.08
   0   8  12   36.58    5.43
   0   8  13   47.73    6.42
   0  -9   6    5.21    2.69
   0   9  -6    1.92    1.74
   0  -9   5   81.46    8.36
   0  -9   5   77.27    9.05
   0   9  -5   79.54    8.67
   0   9  -4    5.48    1.85
   0  -9   4    7.28    2.54
   0  -9   4   11.10    3.10
   0   9  -3   16.88    3.93
   0  -9   3   13.71    3.75
   0   9  -2    3.63    1.70
   0  -9   2    5.12    2.39
   0   9  -1    1.08    0.53
   0  -9   1    1.39    1.36
   0   9   0   57.31    7.07
   0  -9   0   48.41    6.62
   0   9   1  118.83    9.95
   0  -9  -1  134.50   10.93
   0   9   2  250.43   14.48
   0  -9  -2  257.53   15.22
   0   9   3    9.12    2.78
   0  -9  -3   10.35    3.00
   0   9   4    0.02    1.39
   0  -9  -4   -0.25    0.19
   0   9   5    5.91    2.59
   0  -9  -5    6.23    2.21
   0   9   6   50.87    6.76
   0  -9  -6   50.31    6.92
   0   9   7   25.21    4.77
   0  -9  -7   33.74    5.91
   0   9   8   48.88    6.84
   0  -9  -8   56.56    7.79
   0   9   9   10.35    3.31
   0  10  -1   57.65    7.45
   0  10   0    7.03    2.65
   0 -10   0    8.49    3.14
   0  10   1    0.51    1.11
   0 -10  -1    0.49    0.34
   0  10   2    0.81    1.52
   0 -10  -2    0.27    0.14
   0  10   3   40.22    6.25
   0 -10  -3   49.29    7.21
   0  10   4    7.88    2.93
   0  10   5   47.54    6.78
  -1  10   3    2.30    1.89
  -1  10   2    8.46    2.63
  -1  10   1    3.98    2.51
  -1  10   0    4.72    3.04
  -1   9   8    2.59    2.09
  -1   9   7   62.46    7.72
  -1   9   6   19.59    4.50
   1  -9  -6    7.61    2.74
  -1   9   5   -1.80    0.93
   1  -9  -5    1.53    1.84
  -1   9   4    3.64    1.52
   1  -9  -4    4.82    2.17
  -1   9   3   20.59    4.13
   1  -9  -3   31.44    5.46
  -1   9   2    1.57    1.33
   1  -9  -2   -0.38    1.69
  -1   9   1   67.97    7.53
   1  -9  -1   62.71    7.63
  -1   9   0    1.95    1.61
   1  -9   0    2.64    1.08
  -1   9  -1   51.19    6.63
   1  -9   1   45.37    6.59
  -1   9  -2  101.72    9.37
   1  -9   2  109.53   10.36
  -1   9  -3    1.24    0.88
   1  -9   3    1.54    1.07
  -1   9  -4   38.28    5.90
   1  -9   4   31.80    5.66
   1  -9   4   36.44    5.52
  -1   9  -5   30.51    5.30
   1  -9   5   28.09    5.58
   1  -9   5   35.68    5.60
  -1   9  -6    2.02    1.68
   1  -9   6    0.94    1.73
  -1   8  11    9.99    3.63
  -1   8  10   29.89    5.61
  -1   8   9   11.59    3.67
   1  -8  -9   14.41    4.45
  -1   8   8   41.69    7.40
   1  -8  -8   50.40    7.31
  -1   8   7    6.01    3.16
   1  -8  -7    5.87    3.07
  -1   8   6  138.06   10.87
   1  -8  -6  140.43   11.53
  -1   8   5   13.84    4.35
   1  -8  -5   21.54    4.98
  -1   8   4   31.22    4.88
   1  -8  -4   42.51    5.90
  -1   8   3    1.70    1.88
   1  -8  -3    4.16    2.02
  -1   8   2   57.59    6.84
   1  -8  -2   59.22    7.04
  -1   8   1  103.26    8.59
   1  -8  -1  100.24    8.97
  -1   8   0   33.44    5.33
   1  -8   0   44.31    6.37
  -1   8  -1   48.52    6.04
   1  -8   1   45.81    6.29
  -1   8  -2    9.74    2.76
   1  -8   2   37.23    5.62
  -1   8  -3    9.14    3.13
   1  -8   3    8.97    3.30
   1  -8   3    4.75    3.56
   1  -8   4   86.10    7.85
   1  -8   4   75.34    8.24
  -1   8  -4   73.42    7.63
   1  -8   5  191.85   12.34
   1  -8   5  177.55   13.14
  -1   8  -5  174.39   12.24
   1  -8   6   26.51    4.42
  -1   8  -6   25.39    4.66
   1  -8   7   97.86    9.06
  -1   8  -7  103.57    9.80
  -1   8  -8   25.22    4.95
   1  -8   8   25.51    4.81
  -1   7  12   -0.68    0.82
  -1   7  12    1.22    0.98
  -1   7  11    3.05    2.79
   1  -7 -11    6.80    4.19
  -1   7  11    0.36    0.91
  -1   7  10    2.90    1.80
  -1   7  10    1.01    1.16
   1  -7 -10    1.28    1.45
  -1   7   9  218.58   13.27
   1  -7  -9  231.14   14.34
  -1   7   8   -0.12    0.13
   1  -7  -8    1.54    1.23
  -1   7   7   94.32    8.19
   1  -7  -7  103.78    9.09
  -1   7   6  166.45   10.74
   1  -7  -6  174.64   11.57
  -1   7   6  171.44    8.35
  -1   7   5    4.66    1.75
   1  -7  -5    6.74    2.54
  -1   7   5   11.00    2.34
  -1   7   4   87.69    7.46
  -1   7   4   86.97    5.18
   1  -7  -4  104.35    8.56
  -1   7   3   58.13    6.14
   1  -7  -3   53.45    6.06
   1  -7  -3   57.06    3.61
  -1   7   2  102.67    8.00
   1  -7  -2  100.26    8.26
   1  -7  -2  101.73    4.61
  -1   7   1   27.01    3.98
   1  -7  -1   29.21    4.42
   1  -7  -1   32.85    2.73
  -1   7   0   32.12    4.42
   1  -7   0   32.49    4.61
   1  -7   0   35.82    3.02
  -1   7  -1   27.97    4.20
   1  -7   1   27.42    4.56
  -1   7  -2  233.66   12.19
   1  -7   2  222.48   12.60
   1  -7   2  236.15    5.98
   1  -7   2  214.46   11.07
  -1   7  -3   20.45    3.67
   1  -7   3   21.15    4.00
   1  -7   3   21.96    2.41
   1  -7   3   19.17    3.75
   1  -7   4  116.71    8.57
   1  -7   4  111.79    4.14
   1  -7   4  102.04    8.81
  -1   7  -4  112.96    8.74
  -1   7  -5   29.69    4.59
   1  -7   5   28.60    5.16
   1  -7   5   29.24    5.28
   1  -7   5   32.27    2.77
  -1   7  -6    2.38    1.63
   1  -7   6    6.51    3.52
  -1   7  -7   10.84    2.90
   1  -7   7    8.29    2.36
  -1   7  -8    2.63    2.27
   1  -7   8   14.41    7.39
  -1   7  -9    0.34    1.20
   1  -7   9   -1.22    0.90
  -1   7 -10   45.01    6.57
   1  -7  10   50.02    6.60
  -1   6  13    2.15    0.97
  -1   6  12   59.49    6.26
   1  -6 -12   64.23    7.87
  -1   6  11   61.14    6.22
   1  -6 -11   50.07    6.74
  -1   6  11   49.77    4.31
  -1   6  10    1.06    0.91
  -1   6  10    0.14    0.82
   1  -6 -10    0.70    1.01
  -1   6  10    1.50    0.64
  -1   6   9   37.23    5.17
   1  -6  -9   47.84    6.12
  -1   6   9   47.25    3.80
  -1   6   8    1.42    1.19
   1  -6  -8    2.52    1.07
  -1   6   8    2.19    0.92
  -1   6   7  318.79   14.32
   1  -6  -7  332.59   15.10
  -1   6   7  332.14    8.97
  -1   6   6   11.99    2.79
   1  -6  -6   11.84    2.76
  -1   6   6    9.08    1.84
  -1   6   6   16.14    2.76
  -1   6   5  156.96    9.41
   1  -6  -5  149.51    9.69
  -1   6   5  151.19    7.23
  -1   6   5  153.04    8.31
  -1   6   4    7.61    2.16
  -1   6   4    6.15    1.38
  -1   6   4    6.00    1.72
   1  -6  -4    7.57    2.20
  -1   6   3  212.10   10.52
  -1   6   3  195.24    7.16
  -1   6   3  209.07    9.56
   1  -6  -3  219.30   11.39
   1  -6  -3  216.59    6.56
  -1   6   2  383.85   14.08
  -1   6   2  379.41   12.82
   1  -6  -2  388.80   14.94
   1  -6  -2  364.80    8.48
  -1   6   1  883.10   21.20
   1  -6  -1  895.57   21.44
  -1   6   1  907.57   19.89
   1  -6  -1  853.69   22.09
   1  -6  -1  847.74   13.25
   1  -6   0  107.08    7.38
  -1   6   0   99.33    7.05
  -1   6   0  106.52    6.88
   1  -6   0   96.36    7.40
   1  -6   0  103.36    4.85
  -1   6  -1   25.53    3.66
   1  -6   1   24.16    3.51
   1  -6   1   19.88    3.31
   1  -6   1   21.15    1.79
   1  -6   1   21.79    3.17
  -1   6  -1   19.35    3.05
  -1   6  -2    8.34    2.12
   1  -6   2    9.68    2.48
   1  -6   2   11.27    2.42
   1  -6   2    8.04    1.10
  -1   6  -3    3.21    1.33
   1  -6   3    4.73    1.75
   1  -6   3    5.25    1.64
   1  -6   3    5.28    0.98
  -1   6  -4   18.21    3.19
   1  -6   4   15.54    3.12
   1  -6   4   21.42    3.43
   1  -6   4   20.23    1.88
  -1   6  -5   26.81    3.99
   1  -6   5   26.48    3.96
   1  -6   5   29.07    4.53
   1  -6   6  128.45    8.92
  -1   6  -6  133.01    9.31
   1  -6   7   31.93    4.64
  -1   6  -7   39.44    5.24
   1  -6   8   60.41    6.58
  -1   6  -8   71.60    7.22
   1  -6   9    4.93    2.00
  -1   6  -9   11.20    3.17
   1  -6  10   88.70    8.39
  -1   6 -10  102.11    9.26
   1  -6  11    5.32    2.31
  -1   6 -11    1.64    1.02
  -1   6 -12   17.38    4.21
  -1   5  14   13.09    3.22
  -1   5  14    6.42    2.15
  -1   5  13   14.59    2.99
  -1   5  13   12.35    2.64
   1  -5 -13   17.81    4.04
  -1   5  12   61.71    6.02
   1  -5 -12   55.62    6.98
  -1   5  12   53.22    5.02
  -1   5  11   35.70    4.48
   1  -5 -11   34.09    5.32
  -1   5  11   52.64    4.75
  -1   5  10  136.16    8.50
   1  -5 -10  114.12    9.24
  -1   5  10  119.29    6.65
  -1   5   9   18.69    2.99
   1  -5  -9   14.77    3.19
  -1   5   9   12.48    2.06
  -1   5   8   13.04    1.92
   1  -5  -8   19.96    3.71
  -1   5   7    2.42    0.95
  -1   5   7    1.88    0.77
  -1   5   7    1.17    0.61
   1  -5  -7    3.39    1.62
  -1   5   6    1.54    1.07
  -1   5   6    1.55    0.84
   1  -5  -6    1.31    0.27
  -1   5   6    0.92    0.57
  -1   5   5   83.93    6.32
  -1   5   5   85.34    5.23
   1  -5  -5   82.45    6.61
  -1   5   5   87.03    6.88
  -1   5   5   83.81    4.05
  -1   5   4  652.88   17.00
  -1   5   4  620.73   13.25
  -1   5   4  650.21   15.44
   1  -5  -4  650.71   18.14
  -1   5   4  679.48   18.61
  -1   5   3  141.90    7.75
  -1   5   3  138.13    6.92
  -1   5   3  133.46    5.68
  -1   5   3  145.42    8.45
   1  -5  -3  136.68    8.16
   1  -5  -3  140.19    5.14
  -1   5   2  414.52   13.07
  -1   5   2  398.67    9.16
  -1   5   2  414.11   11.97
   1  -5  -2  424.97   14.16
  -1   5   2  412.83   13.91
   1  -5  -2  410.52    8.58
  -1   5   1  440.57   13.45
   1  -5  -1  465.78   13.89
  -1   5   1  437.77   12.43
  -1   5   1  467.92   14.64
   1  -5  -1  440.55   14.31
   1  -5  -1  400.12    8.58
  -1   5   0  172.30    8.35
   1  -5   0  183.99    8.71
   1  -5   0  167.73    8.79
  -1   5   0  177.43    9.05
   1  -5   0  164.27    5.25
  -1   5   0  168.94    7.79
   1  -5   1   88.49    6.03
  -1   5  -1   96.79    6.32
  -1   5  -1  103.34    6.56
  -1   5  -1  102.83    6.89
   1  -5   1   90.35    6.48
   1  -5   1   89.46    3.66
   1  -5   1   94.30    5.84
  -1   5  -1   92.87    5.91
  -1   5  -2  305.72   11.64
  -1   5  -2  290.02   11.19
   1  -5   2  286.49   11.09
   1  -5   2  262.47    6.23
   1  -5   2  275.70   10.37
  -1   5  -2  289.51   11.75
   1  -5   2  274.08   11.50
  -1   5  -3  140.75    7.96
   1  -5   3  156.77    8.44
   1  -5   3  139.48    7.60
   1  -5   3  139.79    8.37
  -1   5  -3  143.42    8.42
  -1   5  -3  137.79    7.88
  -1   5  -4   23.92    3.35
   1  -5   4   26.67    3.53
  -1   5  -4   26.76    3.55
   1  -5   4   28.25    3.58
   1  -5   4   22.66    3.42
  -1   5  -4   28.21    3.81
   1  -5   5  691.61   18.30
   1  -5   5  704.14   20.11
  -1   5  -5  720.08   19.23
   1  -5   6   86.96    6.68
  -1   5  -6   88.15    6.96
   1  -5   7  204.18   10.70
  -1   5  -7  197.99   10.85
   1  -5   8   26.14    4.02
  -1   5  -8   24.34    3.92
   1  -5   9    3.39    1.64
  -1   5  -9    1.89    1.26
   1  -5  10   97.54    8.49
  -1   5 -10  120.73    9.53
   1  -5  11   31.96    5.06
  -1   5 -11   31.45    5.09
   1  -5  12    2.96    2.26
  -1   5 -12    0.95    1.58
   1  -5  13   33.93    5.58
  -1   5 -13   43.43    6.52
  -1   5 -13   40.77    6.43
  -1   4  16    6.36    2.09
  -1   4  15   78.42    7.27
  -1   4  15   64.04    6.49
  -1   4  14    2.31    0.97
   1  -4 -14    3.58    2.30
  -1   4  14    0.84    0.71
  -1   4  13   60.29    6.00
   1  -4 -13   62.84    7.47
  -1   4  13   60.19    5.84
  -1   4  12   24.59    3.73
   1  -4 -12   36.25    5.49
  -1   4  12   30.00    3.84
  -1   4  11   87.14    6.64
   1  -4 -11   86.45    8.19
  -1   4  11   98.64    6.61
  -1   4  10  179.44    9.30
   1  -4 -10  170.99   11.25
  -1   4  10  182.60    8.61
  -1   4   9   23.97    3.53
   1  -4  -9   31.28    5.02
  -1   4   9   30.38    3.44
  -1   4   8   76.25    5.59
   1  -4  -8  151.60   10.08
  -1   4   8  164.14    7.72
  -1   4   7  148.85    7.81
  -1   4   7  120.72    8.50
   1  -4  -7  132.45    8.47
  -1   4   7  142.25    6.19
  -1   4   6  383.26   11.74
  -1   4   6  386.59   14.00
   1  -4  -6  361.04   13.39
  -1   4   6  373.01    9.29
  -1   4   5  342.30   11.80
  -1   4   5  389.70   11.08
   1  -4  -5  336.13   13.29
  -1   4   5  341.05   12.94
  -1   4   5  373.74    8.81
  -1   4   4  989.55   19.96
  -1   4   4 1175.39   17.88
   1  -4  -4  998.78   20.57
  -1   4   4  975.51   20.61
  -1   4   4  979.65   14.07
  -1   4   3    6.30    1.77
  -1   4   3    5.13    1.60
   1  -4  -3    6.86    2.14
   1  -4  -3    8.12    2.01
  -1   4   3    4.98    1.57
  -1   4   2   62.26    4.55
  -1   4   2   67.76    5.44
   1  -4  -2   62.79    4.93
  -1   4   2   64.28    5.08
   1  -4  -2   66.36    3.94
   1  -4  -1   34.96    3.45
  -1   4   1   34.39    3.34
   1  -4  -1   37.86    2.56
  -1   4   1   36.68    3.11
  -1   4   1   30.31    2.26
   1  -4  -1   32.53    3.43
  -1   4   1   29.34    3.33
   1  -4  -1   35.23    2.37
  -1   4   0  208.16    8.20
   1  -4   0  205.23    8.16
  -1   4   0  205.54    8.74
   1  -4   0  196.40    8.51
   1  -4   0  201.74    5.71
  -1   4   0  199.85    7.62
   1  -4   0  198.77    7.37
  -1   4  -1    4.65    1.22
   1  -4   1    5.09    1.30
   1  -4   1    4.47    1.19
  -1   4  -1    5.91    1.44
  -1   4  -1    5.99    1.77
  -1   4  -1    6.77    1.68
   1  -4   1    5.74    1.25
   1  -4   1    4.53    0.87
   1  -4   2  740.07   16.14
  -1   4  -2  751.68   16.11
  -1   4  -2  773.88   16.52
   1  -4   2  735.57   15.12
   1  -4   2  752.98   17.19
  -1   4  -2  739.20   16.92
   1  -4   3  125.30    6.82
  -1   4  -3  127.86    6.86
   1  -4   3  135.13    6.76
   1  -4   3  124.77    7.12
  -1   4  -3  126.25    7.16
  -1   4  -3  124.76    6.75
  -1   4  -4 1002.29   20.56
   1  -4   4  981.46   20.76
   1  -4   4 1088.64   20.39
  -1   4  -4  909.86   19.93
   1  -4   4  866.44   19.54
  -1   4  -4  874.14   18.67
   1  -4   5  299.69   11.63
  -1   4  -5  260.62   10.42
   1  -4   5  349.69   12.08
  -1   4  -5  301.57   12.82
  -1   4  -5  273.77   11.16
   1  -4   6  148.19   10.48
  -1   4  -6  100.74    7.40
   1  -4   6  199.84   10.06
  -1   4  -6  183.35   10.54
  -1   4  -6  114.04    7.72
   1  -4   7   94.39    7.11
   1  -4   7   86.30    6.90
  -1   4  -7   61.67    6.57
   1  -4   8  317.91   13.37
   1  -4   8  334.33   13.74
  -1   4  -8  329.89   13.67
   1  -4   9   73.00    6.64
  -1   4  -9   76.41    6.85
   1  -4  10  252.12   13.01
  -1   4 -10  256.77   13.37
   1  -4  11  112.74    9.08
  -1   4 -11  103.34    8.94
   1  -4  12   25.16    4.46
  -1   4 -12   23.15    4.43
  -1   4 -12   22.20    4.60
   1  -4  13   57.52    7.05
  -1   4 -13   44.05    6.60
   1  -4  14    0.78    0.84
  -1   4 -14    2.11    1.47
  -1   3  16   23.44    4.33
  -1   3  15   19.36    3.62
   1  -3 -15   20.20    4.56
  -1   3  15   18.18    3.57
  -1   3  14    8.89    3.00
  -1   3  14   12.29    3.06
   1  -3 -14   15.83    4.09
  -1   3  13    2.60    1.27
  -1   3  13    2.92    1.42
   1  -3 -13    1.86    1.50
  -1   3  12   16.67    3.57
   1  -3 -12   43.74    6.15
  -1   3  12   30.12    4.22
  -1   3  11  240.66   10.50
  -1   3  11  243.41    6.53
   1  -3 -11  231.58   12.63
  -1   3  11  241.74   10.56
  -1   3  10  128.96    7.49
   1  -3 -10  203.44   12.39
  -1   3  10  211.98    9.30
  -1   3   9  132.49    7.02
   1  -3  -9  129.99    8.70
  -1   3   9  138.28    7.07
  -1   3   8    0.97    0.60
   1  -3  -8    8.46    3.32
  -1   3   8    0.11    0.34
  -1   3   7   59.73    4.25
  -1   3   7   88.96    6.37
  -1   3   7   57.97    5.30
   1  -3  -7   64.33    5.78
  -1   3   7   78.29    4.80
  -1   3   6   17.60    2.56
  -1   3   6   19.70    2.97
  -1   3   6   16.63    2.05
   1  -3  -6   17.66    2.71
  -1   3   5    6.34    1.70
  -1   3   5    6.04    1.15
   1  -3  -5    3.38    1.16
  -1   3   5    4.67    1.45
  -1   3   4    1.42    1.25
  -1   3   4    1.07    0.93
  -1   3   4    0.02    0.30
   1  -3  -4    3.55    1.28
  -1   3   3  164.89    6.72
  -1   3   3  170.29    5.97
   1  -3  -3  163.90    3.19
  -1   3   3  168.74    7.36
   1  -3  -3  172.13    7.33
  -1   3   3  162.39    4.93
   1  -3  -3  162.36    5.13
  -1   3   2    6.28    1.28
  -1   3   2    6.61    1.11
  -1   3   2    4.17    0.83
   1  -3  -2    7.67    1.49
  -1   3   2    7.04    1.47
   1  -3  -2    7.83    1.07
  -1   3   1  283.15    8.24
   1  -3  -1  281.42    8.30
  -1   3   1  272.21    6.36
  -1   3   1  280.55    7.37
   1  -3  -1  283.16    6.50
  -1   3   1  271.78    3.57
  -1   3   1  274.31    8.77
   1  -3  -1  292.75    9.12
   1  -3  -1  278.41    6.11
   1  -3   0  413.50    9.95
  -1   3   0  420.93   10.12
   1  -3   0  417.94   10.78
  -1   3   0  417.75   10.75
   1  -3   0  425.66    9.19
  -1   3   0  413.54    9.13
   1  -3   0  413.94    7.27
  -1   3  -1  213.50    7.35
   1  -3   1  212.00    7.23
  -1   3  -1  209.27    7.20
  -1   3  -1  213.42    7.76
   1  -3   1  216.55    7.85
  -1   3  -1  201.17    6.67
   1  -3   1  213.63    6.83
   1  -3   1  205.53    4.92
  -1   3  -2  261.13    8.44
   1  -3   2  258.92    8.30
  -1   3  -2  254.98    8.27
   1  -3   2  260.79    7.87
  -1   3  -2  256.18    8.76
   1  -3   2  255.75    8.74
  -1   3  -3  736.87   14.65
   1  -3   3  725.08   14.45
   1  -3   3  712.68   13.77
   1  -3   3  735.17   15.40
  -1   3  -3  739.53   15.38
  -1   3  -3  729.09   14.51
  -1   3  -4 1083.13   18.54
   1  -3   4 1079.33   18.71
   1  -3   4 1055.63   18.64
   1  -3   4 1031.38   17.72
  -1   3  -4 1026.58   19.12
   1  -3   4 1041.67   19.33
  -1   3  -4 1049.00   18.30
  -1   3  -5  109.22    6.13
   1  -3   5  105.89    6.29
   1  -3   5  107.39    6.19
  -1   3  -5  115.18    6.76
  -1   3  -5  104.46    6.11
   1  -3   6   61.76    5.00
  -1   3  -6   61.16    4.88
  -1   3  -6   68.51    5.45
  -1   3  -6   61.19    4.92
   1  -3   6   62.56    4.98
   1  -3   7  192.33    9.26
  -1   3  -7  178.11    8.67
  -1   3  -7  184.98    9.47
   1  -3   7  185.04    9.13
  -1   3  -7  179.51    9.03
  -1   3  -8  132.06    7.81
   1  -3   8  124.81    7.69
  -1   3  -8  135.69    8.51
  -1   3  -8  125.35    7.94
   1  -3   8  127.77    8.02
   1  -3   9   73.00    6.84
  -1   3  -9   45.59    5.13
   1  -3  10  543.10   17.71
  -1   3 -10  492.05   17.73
   1  -3  11  120.57    9.07
  -1   3 -11   79.48    8.17
  -1   3 -11   61.29    3.33
  -1   3 -11   58.04    6.38
   1  -3  12  149.27   10.11
  -1   3 -12  141.87   10.78
   1  -3  13    1.17    0.94
  -1   3 -13    0.66    0.69
   1  -3  14   61.96    7.09
  -1   3 -14   59.36    7.42
   1  -3  15   40.96    6.07
  -1   2  16    0.85    1.07
  -1   2  15   20.18    3.63
   1  -2 -15   20.99    4.78
  -1   2  14    8.06    2.34
   1  -2 -14    3.23    1.71
  -1   2  13    2.08    1.58
   1  -2 -13    0.33    0.48
  -1   2  12  124.43    7.72
   1  -2 -12  118.15    9.29
  -1   2  11    3.24    1.31
   1  -2 -11    3.10    0.54
   1  -2 -11    6.58    2.11
  -1   2  10  315.41   11.01
   1  -2 -10  298.12   13.24
   1  -2 -10  314.55    6.29
  -1   2   9    5.51    1.38
  -1   2   9    3.69    0.70
   1  -2  -9    6.84    1.93
  -1   2   8    0.49    0.61
  -1   2   8    1.90    0.61
   1  -2  -8   -0.07    0.52
  -1   2   8    0.36    0.66
  -1   2   7   25.41    2.58
   1  -2  -7   25.14    3.24
  -1   2   7   31.89    3.77
  -1   2   6  669.01   12.58
   1  -2  -6  650.89   15.36
  -1   2   6  612.79   15.48
  -1   2   6  607.86   12.48
  -1   2   5  296.80    7.56
  -1   2   5  290.94    9.87
   1  -2  -5  300.05    9.79
  -1   2   5  289.51    7.98
  -1   2   4  685.57   12.85
  -1   2   4  710.86   14.26
   1  -2  -4  708.61   14.02
  -1   2   4  703.86   11.24
  -1   2   3   15.52    1.72
  -1   2   3   17.95    2.14
  -1   2   3   15.71    1.53
   1  -2  -3   14.90    1.99
   1  -2  -2   43.94    1.74
  -1   2   2   45.59    2.69
   1  -2  -2   46.92    3.21
  -1   2   2   47.11    3.19
  -1   2   2   45.27    2.37
   1  -2  -2   44.01    2.38
  -1   2   1   10.12    1.29
   1  -2  -1    9.97    1.15
  -1   2   1    9.37    1.06
  -1   2   1    9.98    1.15
   1  -2  -1   13.05    1.62
  -1   2   1   11.45    1.52
   1  -2  -1   11.83    1.19
   1  -2   0    1.93    0.62
  -1   2   0    1.67    0.48
   1  -2   0    0.96    0.42
  -1   2   0    1.36    0.58
   1  -2   0    0.95    0.37
  -1   2   0    2.50    0.64
   1  -2   0    1.18    0.34
  -1   2  -1 1123.17   13.75
  -1   2  -1 1156.37   14.18
   1  -2   1 1151.31   13.81
   1  -2   1 1114.94   12.83
  -1   2  -1 1117.37   14.79
   1  -2   1 1109.22   14.89
   1  -2   2   18.95    1.90
  -1   2  -2   17.90    1.85
   1  -2   2   17.25    1.79
   1  -2   2   20.26    1.93
   1  -2   2   15.84    1.87
  -1   2  -2   18.86    2.02
  -1   2  -2   16.58    1.79
  -1   2  -3   33.17    2.71
   1  -2   3   33.09    2.70
   1  -2   3   37.73    2.91
   1  -2   3   33.42    2.93
  -1   2  -3   35.30    2.88
  -1   2  -3   34.72    2.76
  -1   2  -4  954.35   15.59
   1  -2   4  953.15   15.77
  -1   2  -4  977.66   16.62
   1  -2   4  943.55   15.68
  -1   2  -4  937.25   15.62
  -1   2  -5   88.52    5.05
   1  -2   5   88.92    5.08
  -1   2  -5   87.93    5.32
   1  -2   5   92.10    5.29
  -1   2  -5   89.05    5.15
  -1   2  -6  966.59   17.71
   1  -2   6  996.16   18.14
  -1   2  -6 1003.49   19.52
  -1   2  -6  990.74   18.62
   1  -2   6  980.19   18.39
   1  -2   7  409.45   12.24
  -1   2  -7  429.00   12.48
  -1   2  -7  417.37   12.81
   1  -2   7  425.49   12.97
   1  -2   8    7.78    1.73
  -1   2  -8    7.67    1.77
   1  -2   8    7.94    1.90
  -1   2  -8    8.77    1.91
  -1   2  -9    0.38    0.18
   1  -2   9    3.94    1.63
   1  -2   9    2.40    1.16
  -1   2  -9    3.75    1.61
  -1   2  -9    0.62    0.36
  -1   2  -9    0.18    0.38
   1  -2  10    1.72    1.44
  -1   2 -10    0.42    0.15
   1  -2  10    1.17    0.34
  -1   2 -10    2.03    1.03
   1  -2  11    4.22    1.62
  -1   2 -11    9.33    2.86
   1  -2  11    4.83    0.61
   1  -2  12   63.60    6.32
  -1   2 -12   57.01    6.40
   1  -2  13   51.93    5.96
  -1   2 -13   83.09    8.69
   1  -2  14   35.73    5.18
  -1   2 -14   32.05    5.30
   1  -2  15   53.50    6.65
  -1   2 -15   56.56    7.53
   1  -2  16  258.79   15.24
  -1   1  16   10.25    2.60
  -1   1  15  101.97    8.22
   1  -1 -15   98.27    9.80
  -1   1  14   26.83    3.99
   1  -1 -14   26.52    4.82
  -1   1  13   36.22    4.44
   1  -1 -13   36.37    5.35
  -1   1  12   17.19    2.91
   1  -1 -12   17.34    3.41
  -1   1  11   12.36    2.25
   1  -1 -11   12.54    2.90
  -1   1  10   31.21    3.40
   1  -1 -10   29.22    4.09
  -1   1   9  252.10    9.16
   1  -1  -9  232.97   10.93
  -1   1   9  249.80   11.65
  -1   1   9  255.04   11.18
  -1   1   8    1.51    0.68
  -1   1   8    2.95    1.23
  -1   1   8    3.24    1.46
   1  -1  -8    2.36    0.46
   1  -1  -8    2.52    1.41
  -1   1   7  987.79   15.64
   1  -1  -7  976.09   19.48
  -1   1   7  946.48   19.44
   1  -1  -7  967.95    9.81
  -1   1   6    9.40    1.38
  -1   1   6    8.42    1.07
  -1   1   6    8.65    1.79
   1  -1  -6    7.74    1.64
  -1   1   5  412.97    8.34
   1  -1  -5  414.57   10.79
  -1   1   5  410.50   11.04
  -1   1   5  424.82    6.75
  -1   1   4  118.43    3.98
   1  -1  -4  115.76    5.20
  -1   1   4  109.98    5.15
  -1   1   3  415.22    6.46
  -1   1   3  420.07    8.70
   1  -1  -3  405.32    8.78
  -1   1   3  416.23    8.98
  -1   1   3  408.86    7.97
  -1   1   2  144.02    4.53
  -1   1   2  144.29    4.67
   1  -1  -2  143.25    4.70
  -1   1   2  143.17    4.15
   1  -1  -2  141.29    4.19
   1  -1  -1  434.07    5.61
  -1   1   1  432.89    6.95
   1  -1  -1  438.48    6.98
  -1   1   1  433.10    7.38
   1  -1  -1  428.58    7.26
   1  -1  -1  437.47    6.62
  -1   1   1  436.59    6.47
  -1   1   0  426.82    5.86
  -1   1   0  425.06    5.89
   1  -1   0  419.93    5.82
  -1   1   0  436.17    4.96
   1  -1   0  404.84    4.99
   1  -1   0  423.37    6.19
   1  -1   0  422.62    6.84
  -1   1   0  422.53    6.89
   1  -1   0  426.15    6.22
  -1   1  -1  106.42    3.31
   1  -1   1  114.71    3.45
   1  -1   1  109.76    3.17
  -1   1  -1  107.96    3.15
  -1   1  -1  104.54    3.55
   1  -1   1  104.32    3.55
   1  -1   2  686.68    9.43
  -1   1  -2  676.75    9.43
   1  -1   2  681.87    9.96
  -1   1  -2  682.95    9.83
  -1   1  -2  685.36    9.08
   1  -1   2  688.06    9.21
  -1   1  -3   60.14    3.16
   1  -1   3   68.36    3.34
  -1   1  -3   71.63    3.59
  -1   1  -3   63.97    3.24
   1  -1   3   69.33    3.32
  -1   1  -4  400.87    9.03
   1  -1   4  414.90    9.19
   1  -1   4  393.67    9.04
  -1   1  -4  410.25    9.25
   1  -1   5  551.26   11.50
  -1   1  -5  550.32   11.56
   1  -1   5  531.23   11.69
  -1   1  -5  563.20   12.00
   1  -1   6  415.19   10.86
  -1   1  -6  402.82   10.78
  -1   1  -6  420.80    6.57
   1  -1   6  412.59   11.25
  -1   1  -6  416.60   11.34
  -1   1  -7  123.50    6.40
   1  -1   7  126.34    6.37
  -1   1  -7  127.83    3.39
  -1   1  -7  121.76    6.91
   1  -1   7  125.35    6.73
   1  -1   8  166.71    7.94
  -1   1  -8  155.86    7.67
  -1   1  -8  163.30    8.54
   1  -1   8  160.96    3.66
   1  -1   8  160.07    8.19
  -1   1  -9   46.20    4.41
   1  -1   9   48.06    4.44
  -1   1  -9   42.41    4.55
   1  -1   9   43.41    4.52
   1  -1  10   43.25    4.53
  -1   1 -10   43.57    4.57
  -1   1 -10   38.15    4.63
   1  -1  11   14.72    2.74
  -1   1 -11   13.68    2.90
   1  -1  12   44.58    5.00
  -1   1 -12   44.70    5.76
   1  -1  13  137.98    9.34
  -1   1 -13  157.82   11.14
   1  -1  14   55.05    6.16
  -1   1 -14   54.19    6.87
   1  -1  15   31.68    4.92
  -1   1 -15   20.62    4.34
   1  -1  16    2.30    1.24
  -1   0  16   47.05    5.95
  -1   0  15   34.59    4.91
   1   0 -15   31.53    5.57
  -1   0  14   11.94    2.68
   1   0 -14    9.81    2.82
  -1   0  13   81.71    6.76
   1   0 -13   75.14    7.64
  -1   0  12  222.99   10.56
   1   0 -12  207.09   12.08
   1   0 -11   29.36    3.66
  -1   0  11   33.02    3.83
   1   0 -11   28.31    4.16
   1   0 -10   99.70    6.44
  -1   0  10   93.26    6.10
   1   0 -10   96.37    7.43
  -1   0   9   72.95    5.04
   1   0  -9   79.64    5.43
   1   0  -9   70.25    5.97
  -1   0   9   69.08    5.88
  -1   0   8   12.29    1.99
  -1   0   8    9.00    2.05
   1   0  -8   14.77    2.35
   1   0  -8   14.70    2.67
   1   0  -7  557.75   12.11
  -1   0   7  578.01   12.10
   1   0  -7  545.30   14.47
  -1   0   7  559.91   14.51
   1   0  -6  235.87    7.16
  -1   0   6  246.10    7.16
  -1   0   6  233.85    9.03
   1   0  -6  233.44    8.76
  -1   0   6  236.07    8.61
  -1   0   5  558.73    9.70
   1   0  -5  581.06   10.19
  -1   0   5  533.44   12.67
   1   0  -5  564.46   12.47
  -1   0   5  551.40   12.00
   1   0  -4  496.80    8.28
  -1   0   4  466.89    7.79
  -1   0   4  414.86   10.22
   1   0  -4  466.86   10.34
  -1   0   4  439.93    9.87
   1   0  -4  473.50    6.62
   1   0  -3 1989.29   13.72
  -1   0   3 2035.50   13.58
   1   0  -3 2088.78   12.42
   1   0  -3 2146.64   18.84
  -1   0   3 1958.49   17.96
  -1   0   3 2042.26   17.73
   1   0  -3 2026.67   12.37
   1   0  -2  573.70    5.62
  -1   0   2  585.05    5.57
  -1   0   2  585.72    8.61
   1   0  -2  596.63    6.52
   1   0  -2  600.50    8.41
  -1   0   2  575.66    8.28
  -1   0   2  594.21    7.86
   1   0  -2  582.17    6.57
   1   0  -1 1175.78   10.39
  -1   0   1 1131.61   10.31
   1   0  -1 1188.19    9.13
  -1   0   1 1140.45    8.76
   1   0  -1 1169.01    8.91
   1   0  -1 1132.04   10.52
  -1   0   1 1181.52    8.18
  -1   0   1 1150.48   10.34
   1   0  -1 1200.68    9.44
   1   0   0  274.94    4.44
   1   0   0  270.25    4.59
  -1   0   0  269.33    4.58
   1   0   0  668.63    6.80
  -1   0   0  651.49    6.72
  -1   0   0  273.45    4.43
   1   0   0  261.34    4.37
   1   0   0  675.21    7.05
  -1   0  -1  951.38    7.65
   1   0   1  971.32    7.56
  -1   0  -1  956.87    8.05
   1   0   1  975.65    8.15
   1   0   1  951.27    8.41
   1   0   2  937.66    9.53
  -1   0  -2  927.75    9.62
   1   0   2  937.93    7.97
   1   0   2  937.90    8.26
   1   0   2  903.23    8.81
  -1   0  -3  347.41    6.97
   1   0   3  335.19    6.86
   1   0   3  321.60    4.75
   1   0   3  343.45    4.97
   1   0   3  336.47    6.71
  -1   0  -4 1078.69   14.31
   1   0   4 1048.83   13.75
  -1   0  -4  922.70   14.15
   1   0   4  862.72    8.03
   1   0   4 1015.11    8.68
   1   0   4  955.18   13.41
   1   0   5 1008.09   14.78
  -1   0  -5  965.08   14.69
  -1   0  -5  949.96   14.96
   1   0   5  999.14   15.32
   1   0   5  990.75    8.76
  -1   0  -6  902.62   15.53
   1   0   6  910.45   15.35
  -1   0  -6  851.17   15.87
   1   0   6  908.29   16.20
  -1   0  -7  218.34    8.29
   1   0   7  212.59    7.95
  -1   0  -7  212.13    8.76
   1   0   7  221.28    8.86
  -1   0  -8  441.54   12.64
   1   0   8  402.63   11.74
  -1   0  -8  397.36   13.24
   1   0   8  394.63   12.88
  -1   0  -9   20.98    2.87
   1   0   9   24.76    3.06
   1   0   9   27.24    3.54
  -1   0  -9   21.84    3.22
  -1   0 -10   51.92    4.91
   1   0  10   41.83    4.39
  -1   0 -10   50.92    5.42
   1   0  11   96.57    6.93
  -1   0 -11   87.71    7.43
   1   0  12   14.37    2.80
  -1   0 -12   14.58    3.30
   1   0  13   89.78    7.49
  -1   0 -13   98.63    8.74
   1   0  14   39.52    5.09
  -1   0 -14   41.58    5.93
   1   0  15    8.81    2.49
  -1   0 -15   10.26    3.25
   1   0  16   52.73    6.60
  -1   0 -16   52.56    7.30
   1   0  17   23.16    4.52
  -1  -1  16   -1.47    1.41
  -1  -1  15   29.60    4.62
   1   1 -15   21.58    4.65
  -1  -1  14   63.35    6.55
   1   1 -14   61.95    7.45
  -1  -1  13  158.56    9.73
   1   1 -13  154.71   11.25
  -1  -1  12   83.16    6.96
   1   1 -12   76.33    7.64
  -1  -1  11  137.27    8.09
   1   1 -11  126.05    9.17
   1   1 -10   99.63    6.50
  -1  -1  10  123.09    7.33
   1   1 -10  127.14    8.74
  -1  -1   9   34.19    3.57
   1   1  -9   33.09    3.55
   1   1  -9   38.22    4.44
  -1  -1   9   42.19    4.66
  -1  -1   8   14.10    2.34
   1   1  -8   10.59    1.97
  -1  -1   8   12.88    2.56
   1   1  -8   10.61    2.30
   1   1  -7  137.79    6.30
  -1  -1   7  150.37    6.53
   1   1  -7  143.64    2.80
   1   1  -7  139.42    7.38
  -1  -1   7  143.02    7.41
   1   1  -6  145.55    5.97
  -1  -1   6  289.75    9.91
   1   1  -6  191.56    9.06
  -1  -1   6  289.96   10.77
  -1  -1   6  158.93    3.33
  -1  -1   5  105.56    4.67
   1   1  -5   96.43    4.39
   1   1  -5   99.22    5.30
  -1  -1   5  101.60    2.92
  -1  -1   5  110.78    5.62
   1   1  -5   95.45    5.10
  -1  -1   4  364.02    7.81
   1   1  -4  356.03    7.61
   1   1  -4  365.36    9.31
   1   1  -4  368.83    9.03
  -1  -1   4  361.94    9.04
  -1  -1   4  364.97    5.77
   1   1  -3  271.86    5.99
  -1  -1   3  279.29    6.15
  -1  -1   3  278.86    7.03
   1   1  -3  278.17    7.04
  -1  -1   2  553.78    7.81
   1   1  -2  550.82    7.69
  -1  -1   2  576.06    7.84
  -1  -1   2  561.87    8.68
   1   1  -2  578.16    8.73
  -1  -1   1  271.98    5.20
  -1  -1   1  281.03    5.18
  -1  -1   1  262.77    4.42
   1   1  -1  277.03    4.53
   1   1  -1  267.42    5.08
   1   1  -1  284.98    4.96
   1   1  -1  274.17    5.15
  -1  -1   0   35.73    1.64
   1   1   0   36.47    1.66
   1   1   0   35.14    1.36
   1   1   0   33.20    1.65
   1   1   0   35.31    1.42
  -1  -1   0   36.69    1.44
   1   1   0   34.84    1.52
  -1  -1   0   32.60    1.42
  -1  -1  -1    7.52    0.79
   1   1   1    6.88    0.73
  -1  -1  -1    6.61    0.65
   1   1   1    6.55    0.64
   1   1   1    6.80    0.59
   1   1   2  866.56    9.34
  -1  -1  -2  886.62    9.30
   1   1   3  192.67    5.31
  -1  -1  -3  196.71    5.28
   1   1   3  191.31    5.27
  -1  -1  -4  161.34    5.34
   1   1   4  170.21    5.51
  -1  -1  -4  159.10    5.63
   1   1   4  155.77    5.57
  -1  -1  -5  411.98    9.53
   1   1   5  400.68    9.35
   1   1   5  391.01    9.86
  -1  -1  -5  454.98   11.04
   1   1   6  167.63    6.50
  -1  -1  -6  177.20    6.88
   1   1   6  153.24    6.94
  -1  -1  -6  186.41    7.47
  -1  -1  -6  167.90    3.83
   1   1   7 1232.40   19.21
  -1  -1  -7 1216.61   19.04
   1   1   7 1179.35   21.15
  -1  -1  -7 1203.67   20.54
  -1  -1  -7 1224.88    9.54
   1   1   8   22.33    2.74
  -1  -1  -8   45.27    4.30
   1   1   8   26.47    3.94
   1   1   8   23.22    1.08
  -1  -1  -8   67.04    5.61
   1   1   9   37.91    3.80
  -1  -1  -9   41.33    3.99
  -1  -1  -9   37.88    4.17
   1   1   9   46.89    4.84
   1   1   9   47.07    4.59
   1   1  10    3.63    1.24
  -1  -1 -10   10.06    2.36
  -1  -1 -10   12.06    2.94
   1   1  11  146.04    8.40
  -1  -1 -11  146.31    9.61
   1   1  12   88.06    7.03
  -1  -1 -12  112.73    8.90
   1   1  13  469.26   16.48
  -1  -1 -13  427.93   17.86
   1   1  14  167.08   10.44
  -1  -1 -14  176.67   12.18
   1   1  15    8.54    2.88
  -1  -1 -15   21.98    4.72
   1   1  16   60.76    6.96
  -1  -1 -16   58.92    7.74
   1   1  17    9.71    2.89
  -1  -2  16   10.80    2.96
  -1  -2  15   20.36    3.93
   1   2 -15   24.02    4.61
  -1  -2  14   16.87    3.58
   1   2 -14   18.28    4.26
  -1  -2  13   53.89    5.97
   1   2 -13   55.84    6.92
  -1  -2  12   18.96    3.36
   1   2 -12   16.45    3.58
  -1  -2  11    0.43    0.64
   1   2 -11    1.27    1.31
  -1  -2  10   13.97    2.59
   1   2 -10   13.96    2.55
   1   2 -10   12.66    2.65
   1   2  -9  137.44    7.53
  -1  -2   9  130.23    7.48
   1   2  -9  131.41    8.40
  -1  -2   9  138.62    2.95
   1   2  -8    9.65    1.96
  -1  -2   8    9.75    2.00
  -1  -2   8    8.15    1.87
   1   2  -8   11.25    2.29
  -1  -2   8    9.89    1.04
   1   2  -8    6.98    1.91
  -1  -2   7  775.47   16.20
   1   2  -7  785.96   16.01
   1   2  -7  802.10   18.73
  -1  -2   7  808.39   18.32
   1   2  -7  799.35   18.17
  -1  -2   6   45.68    3.67
   1   2  -6   34.20    3.15
  -1  -2   6   30.76    3.33
   1   2  -6   31.42    3.33
  -1  -2   5  627.36   12.89
   1   2  -5  619.25   12.54
  -1  -2   5  630.30   13.99
   1   2  -5  629.26   14.03
   1   2  -4  558.02   11.11
  -1  -2   4  587.65   11.65
   1   2  -4  555.52   12.16
  -1  -2   4  546.99   12.20
  -1  -2   3    2.15    0.80
   1   2  -3    3.06    0.79
   1   2  -3    2.48    0.71
  -1  -2   3    2.90    0.88
   1   2  -3    2.82    0.77
   1   2  -2  149.78    5.28
  -1  -2   2  156.78    5.51
  -1  -2   2  149.52    5.26
  -1  -2   2  142.05    3.61
   1   2  -2  153.64    5.29
   1   2  -2  148.12    5.35
   1   2  -1 1263.16   14.58
  -1  -2   1 1231.87   14.39
   1   2  -1 1258.47   13.79
  -1  -2   1 1272.54   13.92
   1   2  -1 1240.04   14.30
  -1  -2   1 1215.07   14.46
  -1  -2   1 1221.88    8.12
  -1  -2   0  419.92    8.05
   1   2   0  434.92    8.20
  -1  -2   0  431.76    7.66
   1   2   0  415.09    7.57
  -1  -2   0  422.50    8.14
   1   2   0  415.47    8.02
  -1  -2  -1   11.19    1.33
   1   2   1   11.91    1.38
  -1  -2  -1   12.59    1.31
   1   2   1   10.16    1.23
   1   2   1   10.00    0.94
   1   2   2 1402.81   15.35
   1   2   2 1370.92   14.77
  -1  -2  -2 1401.64   14.65
  -1  -2  -2 1388.33   11.49
  -1  -2  -3   79.63    3.83
   1   2   3   81.73    3.98
   1   2   4  473.85   10.40
  -1  -2  -4  456.92   10.01
   1   2   5  836.46   13.96
   1   2   5  785.17   14.66
  -1  -2  -5  809.67   14.62
   1   2   6  139.77    6.26
  -1  -2  -6  136.50    6.57
   1   2   6  140.73    6.83
   1   2   7  183.97    7.57
   1   2   7  166.00    8.09
  -1  -2  -7  168.62    7.80
   1   2   8  296.39   10.18
  -1  -2  -8  285.74   11.02
   1   2   8  283.44   11.18
   1   2   9   11.78    2.25
  -1  -2  -9    6.88    1.82
   1   2   9    9.03    2.10
   1   2  10  512.22   15.11
  -1  -2 -10  489.93   16.23
  -1  -2 -10  565.55    7.58
   1   2  11  241.27   10.83
  -1  -2 -11  234.77   12.02
   1   2  12   40.43    4.64
  -1  -2 -12   48.30    5.77
   1   2  13   36.85    4.60
  -1  -2 -13   41.46    5.53
   1   2  14    0.74    1.08
  -1  -2 -14    2.02    1.33
   1   2  15   32.27    4.73
  -1  -2 -15   25.61    4.75
   1   2  16   22.50    4.21
  -1  -2 -16    9.23    3.02
   1   2  17    0.33    0.73
  -1  -3  15    7.95    2.76
  -1  -3  14    5.89    2.47
   1   3 -14    7.84    3.02
  -1  -3  13   16.96    3.54
   1   3 -13   17.67    3.87
  -1  -3  12   91.54    7.78
   1   3 -12   92.92    8.59
  -1  -3  11   80.03    6.98
   1   3 -11   85.46    7.83
  -1  -3  10  168.10    9.68
   1   3 -10  158.47   10.26
  -1  -3  10  183.59    5.02
   1   3 -10  165.17   10.36
  -1  -3   9   97.47    7.02
   1   3  -9  111.34    7.24
   1   3  -9  100.61    7.82
   1   3  -9  101.55    7.68
   1   3  -8    1.74    1.20
   1   3  -8    1.41    1.19
   1   3  -8    0.76    0.60
  -1  -3   8   -0.99    0.13
  -1  -3   7    2.95    1.27
   1   3  -7    1.60    0.84
   1   3  -7    1.56    0.89
  -1  -3   7    3.14    1.24
   1   3  -7    4.18    1.54
   1   3  -6  173.87    7.83
  -1  -3   6  158.02    7.64
  -1  -3   6  170.49    8.18
   1   3  -6  181.89    8.76
   1   3  -6  168.18    8.34
  -1  -3   6  170.84    8.50
   1   3  -5   46.90    3.87
  -1  -3   5   42.50    3.96
  -1  -3   5   42.27    3.84
   1   3  -5   45.58    4.11
   1   3  -5   43.03    3.99
   1   3  -4   32.63    3.14
  -1  -3   4   29.81    3.11
  -1  -3   4   34.25    3.24
   1   3  -4   36.00    3.42
   1   3  -4   36.81    3.43
   1   3  -3  110.40    5.52
  -1  -3   3  108.37    5.67
  -1  -3   3  113.77    5.69
   1   3  -3  111.40    5.67
   1   3  -3  108.06    5.68
   1   3  -2    0.16    0.54
  -1  -3   2    1.32    0.46
   1   3  -2    2.29    0.84
  -1  -3   2    1.63    0.67
   1   3  -2    1.05    0.59
  -1  -3   2    0.72    0.57
  -1  -3   2    0.93    0.26
  -1  -3   1  767.23   13.68
   1   3  -1  771.15   13.75
  -1  -3   1  769.92   13.33
   1   3  -1  753.03   13.31
   1   3  -1  742.29   13.31
  -1  -3   1  744.45   13.25
  -1  -3   0  261.47    7.81
   1   3   0  258.72    7.82
  -1  -3   0  267.11    7.65
   1   3   0  271.40    7.81
  -1  -3   0  277.69    7.91
   1   3   0  270.31    7.84
   1   3   1 1073.81   15.80
  -1  -3  -1 1077.41   15.89
  -1  -3  -1 1101.30   15.57
   1   3   1 1058.97   15.30
   1   3   1 1053.45   10.79
   1   3   1 1027.02   15.28
   1   3   2  204.06    6.97
  -1  -3  -2  197.25    6.74
   1   3   2  196.27    6.71
  -1  -3  -3    3.83    0.60
   1   3   3    4.00    0.90
  -1  -3  -3    5.38    1.16
   1   3   3    4.07    1.06
   1   3   4   11.78    1.81
  -1  -3  -4   12.36    1.81
   1   3   5  180.45    7.67
  -1  -3  -5  198.25    7.89
  -1  -3  -6   85.68    5.50
   1   3   6   91.61    5.86
   1   3   7  475.87   12.57
   1   3   7  454.05   13.70
  -1  -3  -7  435.34   13.20
   1   3   8  144.14    7.58
  -1  -3  -8  132.19    7.69
   1   3   8  138.08    8.07
   1   3   9   28.10    3.50
  -1  -3  -9   31.73    4.00
   1   3   9   30.82    4.16
   1   3  10  493.97   15.12
  -1  -3 -10  474.93   16.53
   1   3  11   34.01    4.18
  -1  -3 -11   33.19    4.57
   1   3  12  167.10    9.66
  -1  -3 -12  155.87   10.46
  -1  -3 -12  189.83    5.17
   1   3  13    7.40    2.08
  -1  -3 -13    4.65    1.78
   1   3  14   33.64    4.70
  -1  -3 -14   38.86    5.87
   1   3  15   27.00    4.39
  -1  -3 -15   24.71    4.67
   1   3  16  138.92   10.43
  -1  -3 -16  142.52   11.95
   1   3  17   11.89    3.19
  -1  -4  14   28.32    5.31
  -1  -4  13   31.05    5.12
  -1  -4  13   28.72    5.14
   1   4 -13   31.90    5.67
  -1  -4  12   54.41    6.38
  -1  -4  12   54.12    6.56
   1   4 -12   60.56    7.40
  -1  -4  11   12.44    3.15
  -1  -4  11   19.32    3.95
   1   4 -11   15.07    3.95
   1   4 -11   22.23    4.47
  -1  -4  10  142.23    9.80
   1   4 -10  160.29   10.81
   1   4 -10  159.51   10.62
  -1  -4   9   20.32    3.77
   1   4  -9   15.81    3.89
  -1  -4   8   30.35    4.42
   1   4  -8   21.56    4.02
  -1  -4   7   26.01    3.65
   1   4  -7   25.25    3.75
   1   4  -7   31.41    3.83
   1   4  -6  102.81    6.75
  -1  -4   6  119.69    7.77
  -1  -4   6  115.16    7.22
   1   4  -6  113.48    7.54
   1   4  -6  102.06    7.23
  -1  -4   5  208.22   10.13
   1   4  -5   97.37    6.50
  -1  -4   5  224.40    9.73
   1   4  -5  152.40    9.22
   1   4  -5  147.74    9.16
   1   4  -4  279.36   10.41
  -1  -4   4  339.07   12.06
  -1  -4   4  366.97   12.00
   1   4  -4  325.35   11.64
   1   4  -4  257.80   10.12
  -1  -4   3  629.68   15.56
   1   4  -3  401.27   12.15
  -1  -4   3  685.35   15.89
  -1  -4   3  383.19   12.01
   1   4  -3  454.57   13.22
   1   4  -3  393.42   12.51
   1   4  -2  540.36   13.67
  -1  -4   2  724.51   16.36
   1   4  -2  582.56   15.10
  -1  -4   2  514.52   13.51
   1   4  -2  541.48   15.77
  -1  -4   2  593.90    5.77
  -1  -4   2  756.25   16.33
   1   4  -1  799.14   16.10
  -1  -4   1  806.57   16.28
   1   4  -1  792.30   16.00
  -1  -4   1  787.07   15.90
   1   4  -1  767.33   15.48
  -1  -4   1  770.99   15.34
  -1  -4   0   30.32    3.04
   1   4   0   32.38    3.23
  -1  -4   0   31.54    3.14
   1   4   0   36.30    3.34
   1   4   0   30.23    3.10
  -1  -4   0   36.72    3.39
   1   4   1   89.97    5.30
  -1  -4  -1   87.49    5.23
   1   4   1   88.41    5.21
  -1  -4  -1   88.11    5.22
   1   4   1   87.96    3.40
   1   4   1   81.73    4.96
  -1  -4  -2   73.94    4.80
   1   4   2   74.22    4.92
  -1  -4  -2   69.42    4.68
   1   4   2   74.58    4.81
   1   4   2   68.86    4.59
   1   4   3   23.20    5.10
   1   4   3   28.61    3.32
  -1  -4  -3   26.17    3.20
   1   4   4  751.68   16.28
  -1  -4  -4  744.80    9.26
  -1  -4  -4  765.42   16.35
   1   4   4  775.03   16.83
   1   4   5  798.08   17.81
  -1  -4  -5  759.98   16.94
   1   4   5  789.46    8.04
  -1  -4  -6  289.62   11.61
   1   4   6  263.57   11.61
   1   4   7  286.70   12.08
  -1  -4  -7  289.09   11.80
   1   4   8   68.40    5.57
   1   4   8   72.18    6.36
  -1  -4  -8   78.27    6.64
   1   4   9    8.54    2.30
  -1  -4  -9    9.66    2.67
   1   4  10   73.77    6.19
  -1  -4 -10   63.88    6.24
   1   4  11   43.01    4.87
  -1  -4 -11   44.26    5.58
   1   4  12   44.04    5.68
  -1  -4 -12   69.28    7.18
   1   4  13   32.25    4.58
  -1  -4 -13   32.86    5.14
   1   4  14   36.56    5.11
  -1  -4 -14   39.75    5.92
   1   4  15   61.24    6.79
  -1  -4 -15   65.58    8.01
   1   4  16   56.96    6.82
   1   4  17    8.86    3.08
  -1  -5  13   27.33    5.37
   1   5 -13   19.32    4.53
  -1  -5  12    6.85    2.46
   1   5 -12    8.66    2.60
   1   5 -12   10.16    2.99
  -1  -5  11   43.34    6.12
   1   5 -11   26.65    4.84
  -1  -5  10   46.99    5.82
   1   5 -10   52.48    6.46
  -1  -5   9  169.77   10.78
   1   5  -9  158.66   10.73
   1   5  -8    5.80    2.62
  -1  -5   8   23.94    6.45
   1   5  -7   26.56    4.11
  -1  -5   7   32.22    4.32
   1   5  -6    4.65    1.82
  -1  -5   6    3.92    1.57
   1   5  -5   12.93    2.55
   1   5  -5   14.82    2.65
  -1  -5   5   13.33    2.58
   1   5  -5   12.84    2.60
   1   5  -4  179.44    9.00
  -1  -5   4  193.69    9.74
  -1  -5   4  187.26    4.70
  -1  -5   4  175.64    9.00
  -1  -5   4  196.72    9.80
   1   5  -4  188.99    9.63
   1   5  -4  194.69    9.70
   1   5  -3    0.98    0.53
  -1  -5   3    1.74    0.92
   1   5  -3    2.26    1.15
  -1  -5   3    1.39    1.03
   1   5  -3    1.11    0.91
  -1  -5   3    0.95    0.24
  -1  -5   3    0.78    0.58
   1   5  -2  186.99    8.90
  -1  -5   2  196.41    9.22
  -1  -5   2  181.95    8.83
   1   5  -2  188.60    9.03
   1   5  -2  184.75    8.71
  -1  -5   2  180.82    8.60
   1   5  -1  140.70    7.60
  -1  -5   1  151.93    7.88
   1   5  -1  142.01    7.67
  -1  -5   1  142.15    7.59
   1   5  -1  142.51    7.48
  -1  -5   1  135.85    7.22
   1   5   0    0.26    0.32
  -1  -5   0   -0.40    0.51
  -1  -5   0    0.88    0.73
   1   5   0    0.37    0.12
   1   5   0    0.65    0.47
  -1  -5  -1  560.75   15.06
   1   5   1  542.80   14.78
   1   5   1  548.58   14.71
  -1  -5  -1  541.92   14.60
   1   5   1  561.44   14.50
   1   5   1  527.85    8.97
   1   5   2  103.62    6.42
  -1  -5  -2  100.62    6.33
   1   5   2   95.30    2.81
   1   5   2   96.81    5.98
   1   5   2  101.33    6.35
  -1  -5  -2   97.24    6.27
   1   5   3    7.87    1.85
   1   5   3    8.48    2.01
  -1  -5  -3    8.19    1.84
   1   5   3    9.66    1.92
   1   5   4  315.13   11.74
  -1  -5  -4  323.23   11.86
   1   5   4  340.05   12.21
   1   5   5   43.48    4.42
  -1  -5  -5   50.19    2.30
  -1  -5  -5   46.25    4.57
   1   5   5   50.76    4.85
   1   5   6   86.14    6.48
   1   5   6   91.41    6.83
  -1  -5  -6   90.31    6.56
   1   5   6   90.57    2.53
  -1  -5  -7  125.75    8.05
   1   5   7  117.02    8.08
   1   5   7  120.13    3.79
   1   5   8   11.32    1.47
  -1  -5  -8   12.73    2.67
   1   5   9   -0.36    0.30
  -1  -5  -9    1.71    2.10
   1   5   9    0.25    0.99
   1   5  10  516.94   16.76
  -1  -5 -10  511.80   18.60
   1   5  11  100.71    7.91
  -1  -5 -11  121.25   10.07
   1   5  12    2.47    1.39
  -1  -5 -12    8.52    3.95
   1   5  13  106.16    8.48
  -1  -5 -13  106.09    9.66
   1   5  14    1.40    1.27
  -1  -5 -14    1.90    1.73
   1   5  15   41.17    5.75
  -1  -5 -15   50.90    7.27
   1   5  16    4.38    1.84
   1   6 -12   59.37    7.95
  -1  -6  11    1.98    1.36
   1   6 -11    1.85    1.08
  -1  -6  10  192.48   12.63
   1   6 -10  189.64   12.85
  -1  -6   9   33.51    5.12
   1   6  -9   40.99    5.84
  -1  -6   8   47.27    5.81
   1   6  -8   43.60    5.76
  -1  -6   7  195.06   11.50
   1   6  -7  200.41   11.91
  -1  -6   6  113.07    8.39
  -1  -6   6  120.41    4.73
   1   6  -6  122.12    8.95
  -1  -6   5   60.11    5.95
  -1  -6   5   54.20    2.62
   1   6  -5   54.02    5.79
  -1  -6   4  120.50    2.65
  -1  -6   4  139.35    8.79
  -1  -6   4  130.32    8.83
   1   6  -4  142.89    9.14
  -1  -6   3  193.77    9.93
  -1  -6   3  202.77   10.58
   1   6  -3  209.59   10.75
   1   6  -2   52.52    5.21
  -1  -6   2   57.97    5.59
   1   6  -2   56.82    5.51
  -1  -6   2   58.49    5.29
   1   6  -1  640.86   18.02
  -1  -6   1  674.05   18.56
  -1  -6   1  612.24   17.68
   1   6  -1  668.06   18.40
   1   6  -1  628.19   17.46
  -1  -6   1  644.05   17.57
   1   6   0    7.44    1.99
  -1  -6   0    8.88    2.26
  -1  -6   0    6.70    1.75
   1   6   0    7.19    1.87
   1   6   0    7.04    1.87
  -1  -6  -1   62.09    5.61
   1   6   1   59.72    5.40
   1   6   1   61.04    5.44
  -1  -6  -1   58.93    5.39
   1   6   1   59.81    5.30
   1   6   1   57.34    3.10
   1   6   2   39.65    4.39
  -1  -6  -2   40.66    4.48
   1   6   2   42.14    4.52
  -1  -6  -2   36.41    4.25
   1   6   2   37.59    4.14
   1   6   2   37.89    1.62
   1   6   3   63.99    5.75
   1   6   3   64.04    2.92
   1   6   3   61.90    5.38
  -1  -6  -3   64.24    5.74
   1   6   3   68.32    5.91
   1   6   4   12.99    2.72
   1   6   4   16.33    2.85
   1   6   4   10.29    1.39
  -1  -6  -4   10.35    2.43
   1   6   4   11.08    2.43
   1   6   5    1.34    0.98
  -1  -6  -5    1.24    1.06
   1   6   5    1.05    0.51
   1   6   6   36.63    4.59
  -1  -6  -6   31.04    4.23
   1   6   7  124.93    8.70
  -1  -6  -7  132.90    3.92
  -1  -6  -7  127.43    8.86
   1   6   8  143.09    9.61
  -1  -6  -8  166.25    5.12
  -1  -6  -8  159.74   10.13
   1   6   8  162.56    4.26
   1   6   9    2.50    1.52
  -1  -6  -9    2.38    1.42
   1   6   9    1.14    0.38
   1   6  10   44.80    5.12
  -1  -6 -10   50.30    6.06
   1   6  10   48.56    3.27
   1   6  11   15.33    3.07
   1   6  11   14.29    2.02
  -1  -6 -11   16.38    3.54
   1   6  12   41.46    5.62
  -1  -6 -12   37.34    5.70
   1   6  12   33.46    3.32
   1   6  13    1.93    1.35
  -1  -6 -13   -0.54    0.54
   1   6  14   20.64    4.14
  -1  -6 -14   23.19    4.87
   1   6  15   -0.28    0.91
  -1  -7  10   37.62    5.96
   1   7 -10   32.67    5.58
  -1  -7   9    1.72    0.96
   1   7  -9   -1.11    1.32
  -1  -7   8    1.19    0.73
   1   7  -8    0.71    0.59
  -1  -7   7   28.05    4.72
   1   7  -7   29.69    4.84
  -1  -7   6    4.70    1.50
   1   7  -6    7.42    2.38
  -1  -7   5  265.52   13.51
   1   7  -5  302.14   14.73
  -1  -7   4  239.54   12.41
  -1  -7   4  224.33   12.55
   1   7  -4  257.37   13.24
  -1  -7   3  210.46   11.35
  -1  -7   3  192.87   11.31
   1   7  -3  207.58   11.70
   1   7  -2  176.80   10.60
  -1  -7   2  182.02   10.79
  -1  -7   2  178.13   10.33
   1   7  -1   22.00    3.75
  -1  -7   1   16.53    3.28
   1   7   0  264.60   12.58
  -1  -7   0  267.13   12.87
   1   7   1   35.27    4.63
  -1  -7  -1   43.52    5.13
   1   7   1   40.12    2.69
   1   7   2   11.42    2.53
  -1  -7  -2    9.17    2.28
   1   7   3   62.97    6.24
  -1  -7  -3   64.68    6.33
   1   7   3   64.62    2.73
   1   7   4    2.61    1.60
  -1  -7  -4    2.60    1.52
   1   7   4    1.36    0.75
   1   7   5  123.52    8.96
  -1  -7  -5  139.58    9.45
   1   7   5  133.90    5.59
   1   7   6    7.30    2.15
  -1  -7  -6    8.87    2.41
   1   7   6    6.85    1.41
   1   7   7  423.46   17.15
  -1  -7  -7  440.50   17.64
   1   7   7  398.62   11.78
   1   7   8   25.05    4.34
  -1  -7  -8   24.96    4.32
   1   7   8   22.28    3.05
   1   7   9   67.57    7.23
  -1  -7  -9   69.58    7.34
   1   7  10   55.40    6.81
  -1  -7 -10   58.61    7.05
   1   7  11   37.08    5.75
   1   7  11   39.78    5.33
  -1  -7 -11   32.72    5.26
   1   7  12    6.67    2.19
   1   7  12    7.87    3.01
  -1  -7 -12    3.62    1.65
   1   7  13   29.63    5.10
  -1  -7 -13   29.24    5.40
   1   7  14    7.21    2.50
  -1  -8   8   36.10    5.84
   1   8  -8   36.40    5.99
  -1  -8   7  127.60   10.61
   1   8  -7  130.81   10.89
  -1  -8   6   76.73    7.82
   1   8  -6   72.77    7.89
  -1  -8   5  163.49   11.57
   1   8  -5  164.73   11.95
  -1  -8   4  127.99    9.86
  -1  -8   4  111.51    9.60
   1   8  -4  121.64    9.84
   1   8  -3   18.06    4.22
  -1  -8   3   12.93    3.52
  -1  -8   3   15.97    3.74
   1   8  -2   37.90    5.38
  -1  -8   2   33.66    4.96
   1   8  -1  201.01   12.41
  -1  -8   1  189.94   12.07
   1   8   0   34.75    4.97
   1   8   0   37.71    3.03
  -1  -8   0   32.06    4.71
   1   8   1  541.46   19.49
   1   8   1  529.38    9.92
  -1  -8  -1  567.36   20.34
  -1  -8  -1  524.04    6.77
   1   8   2  291.80   15.07
  -1  -8  -2  262.23   15.09
   1   8   3   11.56    3.62
  -1  -8  -3   12.49    3.66
   1   8   4  185.21   11.96
  -1  -8  -4  194.05   12.22
   1   8   4  174.61    5.47
   1   8   5   16.39    3.76
  -1  -8  -5   14.46    3.91
   1   8   5   11.93    1.99
   1   8   6   28.70    4.57
  -1  -8  -6   32.57    4.97
   1   8   6   28.06    2.77
   1   8   7   45.09    6.33
  -1  -8  -7   50.89    7.33
   1   8   8  252.45   14.66
  -1  -8  -8  243.14   14.71
   1   8   9   25.65    5.44
  -1  -8  -9   29.81    5.62
   1   8  10  126.83   11.03
  -1  -8 -10  126.10   11.16
   1   8  11   37.80    6.23
  -1  -8 -11   37.36    6.18
   1   8  12    9.04    2.91
   1   8  13   38.35    5.86
   1   9  -6    5.54    2.49
  -1  -9   6    6.64    3.39
   1   9  -5    4.99    2.11
  -1  -9   5    6.00    3.24
   1   9  -4    6.07    2.53
  -1  -9   4    6.00    2.86
  -1  -9   4    7.23    3.62
   1   9  -3   27.71    4.94
  -1  -9   3   25.23    4.92
   1   9  -2   21.74    4.37
  -1  -9   2   20.81    4.42
   1   9  -1   58.00    6.98
  -1  -9   1   55.05    6.96
   1   9   0   29.43    4.88
  -1  -9   0   26.49    4.74
   1   9   1   91.01    8.63
  -1  -9  -1   85.18    8.51
   1   9   2  141.23   10.82
  -1  -9  -2  127.39   10.41
   1   9   3   21.61    4.15
  -1  -9  -3   21.89    4.37
   1   9   4   18.61    3.97
  -1  -9  -4   24.25    4.58
   1   9   5   56.82    7.09
  -1  -9  -5   66.10    7.62
   1   9   6   20.94    4.28
  -1  -9  -6   23.04    4.46
   1   9   7  194.90   13.37
  -1  -9  -7  207.00   13.97
   1   9   8   43.79    6.38
  -1  -9  -8   55.03    7.44
   1   9   9   41.68    6.46
  -1  -9  -9   54.09    7.36
   1  10  -2   79.53    8.83
  -1 -10   2   80.61    9.22
   1  10  -1   38.21    6.17
  -1 -10   1   34.74    5.98
   1  10   0    0.06    0.58
  -1 -10   0    0.74    1.38
   1  10   1   25.07    4.77
  -1 -10  -1   19.13    4.39
   1  10   2   20.05    4.54
  -1 -10  -2   19.69    4.45
   1  10   3   23.92    5.18
  -1 -10  -3   16.27    4.21
   1  10   4   78.52    8.78
  -1 -10  -4   72.60    8.42
   1  10   5  121.06   11.00
  -1 -10  -5  111.38   10.70
   1  10   6   11.41    3.29
  -2   9   7    7.38    2.69
  -2   9   6   16.99    4.01
  -2   9   5    3.58    2.13
  -2   9   4    9.00    2.74
   2  -9  -4    5.37    2.09
  -2   9   3    0.03    0.50
   2  -9  -3   -1.41    1.30
  -2   9   2   74.65    8.02
   2  -9  -2   84.03    9.09
  -2   9   1   33.62    5.40
   2  -9  -1   26.96    5.21
  -2   9   0   23.72    4.51
   2  -9   0   30.49    5.58
  -2   9  -1   69.59    7.72
   2  -9   1   80.13    9.01
  -2   9  -2    1.51    1.67
   2  -9   2   -0.97    0.54
  -2   9  -3   35.00    5.53
   2  -9   3   37.74    6.15
  -2   9  -4   -1.04    1.68
  -2   9  -5   21.71    4.43
   2  -9   5   19.98    4.09
   2  -9   6    0.17    0.72
  -2   8  10   19.59    4.81
  -2   8   9    3.52    2.71
  -2   8   8    4.26    2.12
   2  -8  -8    4.38    2.16
  -2   8   7   17.58    4.48
   2  -8  -7   19.99    4.51
  -2   8   6    5.07    2.86
   2  -8  -6    4.58    2.84
  -2   8   5   21.65    4.10
   2  -8  -5   19.66    4.19
  -2   8   4    7.71    4.08
   2  -8  -4    8.72    3.64
  -2   8   3    8.13    2.58
   2  -8  -3    5.56    2.17
  -2   8   2   56.41    6.53
   2  -8  -2   55.96    6.85
  -2   8   1   92.82    8.27
   2  -8  -1   97.33    9.05
  -2   8   0  195.03   12.09
   2  -8   0  210.74   13.43
  -2   8  -1    7.02    2.66
   2  -8   1   11.04    3.17
  -2   8  -2   11.22    2.91
   2  -8   2    8.45    2.71
  -2   8  -3   12.97    3.18
   2  -8   3    8.48    2.57
   2  -8   3   13.34    3.64
   2  -8   4  306.67   14.79
   2  -8   4  302.76   16.69
  -2   8  -4  305.45   15.58
  -2   8  -5   20.51    4.11
   2  -8   5   23.69    4.35
   2  -8   5   24.59    5.02
   2  -8   6  119.71    9.63
  -2   8  -6  118.85   10.03
  -2   8  -7   40.75    6.00
   2  -8   7   45.47    6.33
  -2   8  -8   -0.06    0.54
   2  -8   8    3.58    1.73
  -2   7  11   20.20    4.68
  -2   7  10   25.47    3.90
  -2   7  10   21.20    4.45
   2  -7 -10   24.46    4.97
  -2   7   9   24.16    4.77
   2  -7  -9   33.31    5.97
  -2   7   8  100.48    8.98
   2  -7  -8   95.74    9.37
  -2   7   7  183.16   11.68
   2  -7  -7  193.34   12.85
  -2   7   6   22.91    4.45
   2  -7  -6   21.81    4.92
  -2   7   5   22.55    4.30
   2  -7  -5   23.10    4.94
  -2   7   4    6.16    2.25
   2  -7  -4    5.02    2.41
  -2   7   3   32.75    4.70
   2  -7  -3   31.79    5.03
   2  -7  -3   37.22    3.44
  -2   7   2    8.38    2.87
   2  -7  -2    7.40    2.83
   2  -7  -2   10.57    2.07
  -2   7   1   87.74    8.05
   2  -7  -1   98.20    8.83
   2  -7  -1  111.43    6.42
  -2   7   0   39.22    5.16
  -2   7   0   31.17    1.38
   2  -7   0   38.94    5.42
   2  -7   0   44.03    3.85
  -2   7  -1  171.76   10.50
   2  -7   1  193.96    7.29
   2  -7   1  181.12   11.59
   2  -7   1  191.21    8.15
  -2   7  -2   30.39    4.36
   2  -7   2   29.01    4.56
   2  -7   2   34.11    4.36
   2  -7   2   32.26    2.86
  -2   7  -3   29.88    4.61
   2  -7   3   24.77    4.79
   2  -7   3   25.16    4.16
   2  -7   3   32.23    2.99
  -2   7  -4   12.39    2.84
   2  -7   4    7.58    2.14
   2  -7   4   12.28    1.78
   2  -7   4   13.42    3.40
   2  -7   5   63.75    4.09
   2  -7   5   71.94    6.89
   2  -7   5   75.81    7.84
  -2   7  -5   70.57    7.05
   2  -7   6   46.16    3.54
   2  -7   6   52.29    5.94
  -2   7  -6   41.95    5.55
   2  -7   7   83.48    8.45
  -2   7  -7   51.71    7.89
   2  -7   8   58.34    7.26
  -2   7  -8   50.68    6.82
   2  -7   9   41.00    5.87
  -2   7  -9   45.95    6.44
   2  -7  10   13.10    3.58
  -2   7 -10   15.14    3.89
  -2   6  12    1.84    1.43
  -2   6  11    5.35    1.76
  -2   6  11    4.18    2.28
   2  -6 -11    2.85    1.74
  -2   6  11    5.94    1.72
  -2   6  10  134.16    8.61
  -2   6  10  108.96    9.33
   2  -6 -10  121.76   10.41
  -2   6  10  117.33    7.05
  -2   6   9   22.82    3.40
  -2   6   9   22.19    4.11
   2  -6  -9   20.82    4.17
  -2   6   9   26.71    3.20
  -2   6   8   36.70    5.12
   2  -6  -8   27.10    4.60
  -2   6   8   31.51    3.34
  -2   6   7   13.67    2.89
   2  -6  -7   18.26    3.66
  -2   6   7   16.35    2.78
  -2   6   6   37.35    4.74
   2  -6  -6   34.81    4.90
  -2   6   6   36.64    4.01
  -2   6   5   17.63    3.33
  -2   6   5   17.65    2.75
  -2   6   5   17.49    2.72
   2  -6  -5   19.26    3.53
  -2   6   4   78.96    6.58
  -2   6   4   76.83    5.39
  -2   6   4   77.93    5.71
   2  -6  -4   80.61    7.13
   2  -6  -4   78.70    4.82
  -2   6   3   42.36    4.74
  -2   6   3   44.87    4.31
   2  -6  -3   45.94    5.31
   2  -6  -3   46.70    3.68
  -2   6   2  112.15    7.66
  -2   6   2  120.38    6.99
   2  -6  -2  125.93    8.70
   2  -6  -2  119.35    5.86
  -2   6   1  191.24    9.88
  -2   6   1  184.57    8.73
   2  -6  -1  194.77   10.78
   2  -6  -1  176.95    7.09
   2  -6   0  367.61   13.83
  -2   6   0  373.94   13.80
  -2   6   0  335.65   13.09
   2  -6   0  336.59    9.64
  -2   6   0  351.73   12.35
  -2   6   0  361.25    6.47
   2  -6   0  356.25   14.58
   2  -6   0  337.52   10.01
  -2   6  -1  193.86   10.06
   2  -6   1  202.86    7.20
   2  -6   1  196.39   10.85
   2  -6   1  199.12    7.93
  -2   6  -2    3.41    1.16
   2  -6   2    2.32    0.73
   2  -6   2    3.20    1.25
   2  -6   2    6.72    2.09
   2  -6   3  106.75    5.16
   2  -6   3  107.69    7.26
   2  -6   3  109.50    8.31
  -2   6  -3  113.68    7.92
   2  -6   4  621.05   18.03
   2  -6   4  608.00   12.33
   2  -6   4  642.30   20.53
  -2   6  -4  653.17   19.45
  -2   6  -5    6.71    2.11
   2  -6   5    8.71    2.38
   2  -6   5    7.28    2.06
   2  -6   6   -0.65    0.97
  -2   6  -6    0.54    0.89
   2  -6   7   17.72    3.39
  -2   6  -7   17.03    3.47
   2  -6   8    1.50    1.29
  -2   6  -8    2.66    1.56
   2  -6   9  194.10   12.03
  -2   6  -9  186.46   12.07
   2  -6  10   16.67    3.55
  -2   6 -10   17.12    3.76
   2  -6  11   13.32    3.29
  -2   6 -11   12.15    3.27
  -2   6 -12   10.94    3.43
  -2   5  13   48.37    5.33
   2  -5 -13   43.63    6.52
  -2   5  12    1.98    0.81
  -2   5  12    1.91    0.97
   2  -5 -12    1.87    1.36
  -2   5  11   62.04    5.63
  -2   5  11   65.28    5.24
   2  -5 -11   59.14    7.27
  -2   5  11   56.99    5.34
  -2   5  10    5.19    1.79
  -2   5  10    2.00    0.91
   2  -5 -10    1.21    1.00
  -2   5   9    1.35    0.94
  -2   5   9   -0.01    0.32
   2  -5  -9    0.24    0.57
  -2   5   8  132.95    7.49
  -2   5   8  124.91    8.74
   2  -5  -8  127.41    5.04
   2  -5  -8  130.59    9.47
  -2   5   8  130.50    6.85
  -2   5   7  569.83   17.93
   2  -5  -7  609.20    9.59
   2  -5  -7  581.95   19.25
  -2   5   7  598.05   14.08
  -2   5   6   39.12    4.54
   2  -5  -6   47.95    5.37
  -2   5   6   43.28    3.59
  -2   5   5  263.91   11.37
  -2   5   5  274.93   10.41
  -2   5   5  267.43    9.75
   2  -5  -5  278.55   12.57
  -2   5   5  264.72    8.60
  -2   5   4  177.11    9.01
  -2   5   4  180.88    7.75
  -2   5   4  175.85    7.94
   2  -5  -4  186.11   10.03
   2  -5  -4  176.70    7.21
  -2   5   3    8.77    1.88
  -2   5   3   10.10    1.89
  -2   5   3   10.00    1.81
   2  -5  -3   12.15    2.40
   2  -5  -3    7.69    1.56
  -2   5   3   13.13    2.71
  -2   5   2  246.76   10.27
  -2   5   2  262.24    9.27
  -2   5   2  264.24   11.59
   2  -5  -2  248.11   11.17
   2  -5  -2  252.76    8.22
  -2   5   1   20.64    2.87
  -2   5   1   21.23    2.63
   2  -5  -1   18.11    2.22
   2  -5  -1   19.17    3.06
   2  -5  -1   16.44    2.07
  -2   5   1   21.35    3.25
   2  -5   0  129.72    7.44
  -2   5   0  134.12    7.43
  -2   5   0  123.91    7.12
  -2   5   0  127.03    6.62
   2  -5   0  125.69    5.62
  -2   5   0  137.27    8.25
   2  -5   0  126.43    7.84
   2  -5   0  117.32    5.66
  -2   5  -1   47.02    4.42
   2  -5   1   48.87    4.58
  -2   5  -1   51.19    4.69
   2  -5   1   47.94    4.80
  -2   5  -1   48.90    4.96
   2  -5   1   43.35    3.94
   2  -5   1   40.82    3.12
  -2   5  -2  194.05    9.25
  -2   5  -2  190.80    9.08
   2  -5   2  197.66    9.35
   2  -5   2  186.02    6.54
   2  -5   2  189.09    8.42
   2  -5   2  196.37   10.00
  -2   5  -2  197.44   10.04
  -2   5  -3   62.40    5.36
   2  -5   3   65.09    5.43
   2  -5   3   64.64    3.92
   2  -5   3   65.44    5.20
  -2   5  -3   70.94    6.12
   2  -5   3   65.94    5.89
  -2   5  -3   70.16    5.64
  -2   5  -4    1.64    0.82
   2  -5   4    2.06    1.09
   2  -5   4    2.13    0.97
   2  -5   4    1.95    0.71
   2  -5   5  154.46    8.61
   2  -5   5  150.82    9.41
  -2   5  -5  158.36    8.96
   2  -5   6   91.38    6.83
  -2   5  -6   91.68    7.09
   2  -5   7   73.28    6.48
  -2   5  -7   79.23    6.86
   2  -5   8   10.14    2.68
  -2   5  -8   10.27    2.49
   2  -5   9   80.28    7.41
  -2   5  -9   82.57    7.54
   2  -5  10    0.51    0.52
  -2   5 -10    0.61    0.92
   2  -5  11   -0.88    0.64
   2  -5  11    0.57    1.32
  -2   5 -11   -0.90    1.17
   2  -5  12   44.14    6.30
   2  -5  12   38.96    5.79
  -2   5 -12   39.12    5.87
   2  -5  13   15.35    3.91
   2  -5  13    7.39    2.75
  -2   5 -13   12.57    3.42
  -2   4  15   10.66    3.72
  -2   4  14   12.92    2.98
  -2   4  13   12.18    2.77
   2  -4 -13   10.17    3.25
  -2   4  12    4.90    1.69
   2  -4 -12    3.37    2.17
  -2   4  12    7.80    2.29
  -2   4  11   10.98    3.12
  -2   4  11   14.89    2.64
  -2   4  11   34.50    4.85
   2  -4 -11   24.85    5.52
  -2   4  10   28.31    3.51
  -2   4  10   34.54    3.66
   2  -4 -10   33.98    5.67
  -2   4  10   36.75    4.41
  -2   4   9    2.05    0.93
  -2   4   9   17.75    2.97
   2  -4  -9   10.41    3.46
  -2   4   8  325.43   10.88
   2  -4  -8  325.73   15.19
  -2   4   8  363.01   12.49
  -2   4   7    0.84    0.56
   2  -4  -7    0.93    1.48
  -2   4   7    2.23    1.42
  -2   4   6  261.21   10.38
   2  -4  -6  249.23    6.85
   2  -4  -6  268.86   11.78
  -2   4   6  270.15   12.11
  -2   4   6  243.16    8.55
  -2   4   5   75.61    5.63
  -2   4   5   88.41    5.98
   2  -4  -5   71.78    3.29
   2  -4  -5   78.21    6.11
  -2   4   5   75.76    6.18
  -2   4   5   79.81    4.73
  -2   4   4   92.78    5.98
  -2   4   4   96.84    5.10
  -2   4   4  100.41    5.78
   2  -4  -4  102.38    6.88
  -2   4   4  106.09    7.03
   2  -4  -4  102.25    5.38
  -2   4   4  100.92    5.04
  -2   4   3  135.02    6.95
  -2   4   3  140.42    5.93
  -2   4   3  137.74    6.40
   2  -4  -3  142.03    7.88
  -2   4   3  146.06    8.04
   2  -4  -3  139.01    6.01
  -2   4   2    1.40    0.69
  -2   4   2    0.69    0.45
   2  -4  -2    1.90    1.26
  -2   4   2    1.09    0.76
   2  -4  -2    1.08    0.80
  -2   4   2    1.00    0.64
   2  -4  -2    1.64    0.82
  -2   4   1  254.69    9.15
  -2   4   1  252.11    7.94
  -2   4   1  257.81    5.29
   2  -4  -1  254.99    7.94
  -2   4   1  262.49   10.29
   2  -4  -1  255.33   10.11
   2  -4  -1  248.29    7.66
   2  -4   0   68.22    4.76
  -2   4   0   68.53    4.69
  -2   4   0   67.50    4.70
  -2   4   0   66.62    4.17
   2  -4   0   66.87    3.89
  -2   4   0   65.62    5.13
   2  -4   0   69.39    5.25
   2  -4   0   64.52    3.98
  -2   4  -1  546.39   13.44
   2  -4   1  537.65   13.39
  -2   4  -1  529.32   13.55
  -2   4  -1  541.23   14.82
   2  -4   1  540.68   14.70
   2  -4   1  512.30   10.51
   2  -4   1  516.44   11.93
  -2   4  -2   36.96    3.54
   2  -4   2   31.67    3.36
  -2   4  -2   31.19    3.37
   2  -4   2   33.46    2.65
   2  -4   2   34.68    3.23
  -2   4  -2   37.23    3.95
   2  -4   2   33.29    3.75
   2  -4   3  751.31   16.82
  -2   4  -3  768.34   17.12
   2  -4   3  746.70   15.79
   2  -4   3  756.95   18.18
  -2   4  -3  780.31   18.34
  -2   4  -3  745.83   16.52
  -2   4  -4  196.50    8.92
   2  -4   4  190.21    8.71
   2  -4   4  185.56    8.24
   2  -4   4  185.43    9.23
  -2   4  -4  180.87    9.09
  -2   4  -4  183.28    8.44
   2  -4   5   25.44    3.38
  -2   4  -5   29.97    3.62
   2  -4   5   23.91    3.18
  -2   4  -5   26.72    3.58
  -2   4  -5   27.39    3.41
  -2   4  -6  173.95    9.09
   2  -4   6  176.14    9.14
   2  -4   6  175.26    9.29
   2  -4   6  185.52    9.21
  -2   4  -6  182.64    9.76
  -2   4  -6  175.74    9.07
   2  -4   7   11.71    4.33
  -2   4  -7    3.61    1.67
   2  -4   8   20.97    3.49
  -2   4  -8   21.40    3.49
   2  -4   9  607.58   19.94
  -2   4  -9  507.42   17.95
   2  -4  10   59.32    6.40
  -2   4 -10   59.00    6.33
   2  -4  11   55.53    6.56
  -2   4 -11   54.73    4.27
  -2   4 -11   48.59    6.00
   2  -4  12  100.24    8.99
  -2   4 -12  101.16    5.55
  -2   4 -12   97.03    8.92
   2  -4  13   13.78    3.64
  -2   4 -13   10.66    3.33
   2  -4  14    2.78    2.07
  -2   4 -14    2.71    2.21
  -2   3  15    9.88    2.69
  -2   3  14   23.95    4.05
   2  -3 -14   40.18    6.34
  -2   3  13   25.09    3.49
  -2   3  13   16.70    3.34
   2  -3 -13   18.31    4.17
  -2   3  12   39.59    4.33
   2  -3 -12   41.33    5.82
  -2   3  12   38.41    4.74
  -2   3  11   80.75    5.86
   2  -3 -11   69.55    7.12
  -2   3  11   69.24    6.04
  -2   3  10   97.97    6.14
  -2   3  10  102.31    5.08
   2  -3 -10   90.57    7.77
  -2   3  10   90.70    6.49
  -2   3   9   72.31    5.18
   2  -3  -9   91.85    7.46
  -2   3   9   49.21    3.70
  -2   3   9   87.70    6.06
  -2   3   8  505.30   12.59
   2  -3  -8  627.22   20.23
  -2   3   8  521.19   12.35
  -2   3   7   41.69    3.53
   2  -3  -7   50.36    5.12
  -2   3   7   35.67    4.68
  -2   3   7   50.23    4.16
  -2   3   6   12.83    2.13
  -2   3   6   80.11    6.01
   2  -3  -6   42.47    5.50
  -2   3   6   17.52    4.12
  -2   3   6   65.60    4.72
  -2   3   5  122.57    6.62
   2  -3  -5  119.01    6.97
  -2   3   5  131.86    7.55
  -2   3   5  123.57    5.78
  -2   3   4   80.13    5.49
   2  -3  -4   70.48    3.48
  -2   3   4   67.33    5.14
   2  -3  -4   70.82    5.67
  -2   3   4   74.01    4.69
  -2   3   3    2.43    0.82
  -2   3   3    3.05    1.12
   2  -3  -3    2.66    0.63
   2  -3  -3    2.60    1.03
  -2   3   3    2.81    0.78
  -2   3   3    3.36    1.34
   2  -3  -3    2.49    0.74
  -2   3   2  539.60   11.79
  -2   3   2  523.59    9.57
  -2   3   2  532.04   11.49
   2  -3  -2  547.79   11.75
   2  -3  -2  555.69   13.47
  -2   3   2  543.26   13.45
  -2   3   2  540.15   10.68
   2  -3  -2  525.76   10.89
  -2   3   1   32.87    2.88
  -2   3   1   31.40    3.07
  -2   3   1   31.52    2.46
   2  -3  -1   43.21    3.45
  -2   3   1   33.77    2.06
   2  -3  -1   36.42    3.44
  -2   3   1   36.28    3.36
   2  -3  -1   34.20    3.00
  -2   3   0 1338.61   17.99
  -2   3   0 1356.81   18.35
   2  -3   0 1360.94   18.28
  -2   3   0 1337.66   15.91
   2  -3   0 1351.09   16.73
   2  -3   0 1351.52   15.92
  -2   3   0 1344.28   13.71
   2  -3   0 1381.20   20.55
  -2   3   0 1360.71   20.51
   2  -3   0 1320.25   16.93
  -2   3  -1  214.21    7.34
  -2   3  -1  239.19    8.27
   2  -3   1  204.99    7.19
  -2   3  -1  204.85    8.01
   2  -3   1  205.73    8.02
   2  -3   1  264.85    8.76
   2  -3   1  230.25    7.10
  -2   3  -2  124.32    5.87
  -2   3  -2  116.25    5.52
   2  -3   2  125.90    5.82
   2  -3   2  124.33    5.38
  -2   3  -2  122.44    6.31
   2  -3   2  122.90    6.28
   2  -3   3   45.52    3.99
  -2   3  -3   68.99    4.88
   2  -3   3   88.34    6.35
   2  -3   3   43.36    4.75
  -2   3  -3   44.93    4.02
  -2   3  -3   46.90    4.31
   2  -3   4   -0.55    0.38
  -2   3  -4   -0.21    0.49
  -2   3  -4    0.82    0.76
   2  -3   4    1.36    0.96
   2  -3   4   -0.83    0.48
  -2   3  -4    1.48    0.96
   2  -3   4   -0.41    0.70
   2  -3   5  117.58    6.96
   2  -3   5  128.22    7.47
  -2   3  -5  114.99    6.94
  -2   3  -5  125.75    7.29
  -2   3  -5  119.32    6.50
   2  -3   6   30.52    4.48
  -2   3  -6   46.31    4.90
   2  -3   6   53.97    5.20
  -2   3  -6   32.79    4.37
  -2   3  -6   26.44    4.28
   2  -3   7  173.62    8.84
  -2   3  -7  185.57    9.00
  -2   3  -7  189.05    9.61
  -2   3  -7  185.41    9.06
   2  -3   7  186.96    9.13
   2  -3   8   53.61    5.34
   2  -3   8   51.04    5.24
  -2   3  -8   41.50    4.73
   2  -3   9 1176.35   25.56
  -2   3  -9 1172.47   25.78
   2  -3  10  196.85   10.78
  -2   3 -10  208.24    7.48
  -2   3 -10  193.01   10.92
   2  -3  11   48.60    5.98
  -2   3 -11   39.47    5.78
  -2   3 -11   41.93    3.32
  -2   3 -11   42.87    6.08
   2  -3  12   34.96    5.15
  -2   3 -12   29.61    2.65
  -2   3 -12   38.26    5.68
   2  -3  13   39.85    5.65
  -2   3 -13   36.70    5.79
   2  -3  14   20.04    4.27
  -2   3 -14   12.89    3.60
   2  -3  15   89.32    8.98
  -2   3 -15   91.79    9.69
  -2   2  15    7.94    2.57
  -2   2  14   10.93    2.52
  -2   2  14    7.78    2.80
   2  -2 -14   11.56    3.35
  -2   2  13  120.11    7.77
   2  -2 -13  100.63    9.25
  -2   2  13  114.54    8.68
  -2   2  12    4.82    1.52
   2  -2 -12    4.05    1.74
  -2   2  12    3.89    1.55
  -2   2  11  125.85    7.08
   2  -2 -11  120.93    9.33
  -2   2  11  104.85    7.59
  -2   2  10   76.09    5.21
   2  -2 -10   72.20    6.64
   2  -2 -10   73.17    3.86
  -2   2  10   67.81    5.76
  -2   2   9   14.00    2.08
   2  -2  -9   11.65    2.55
  -2   2   9   11.90    2.27
   2  -2  -9   13.81    1.82
  -2   2   8   12.23    1.82
  -2   2   8   11.49    1.56
   2  -2  -8   12.74    2.57
  -2   2   8    9.80    2.34
  -2   2   8    9.81    1.94
  -2   2   7    5.20    1.15
  -2   2   7    4.77    1.31
  -2   2   7    6.80    1.23
  -2   2   7    2.98    1.04
  -2   2   7    6.08    1.68
   2  -2  -7    4.88    1.55
  -2   2   6    8.64    1.35
  -2   2   6    7.26    1.68
  -2   2   6   10.32    1.54
  -2   2   6    9.11    1.57
   2  -2  -6    9.19    1.94
  -2   2   6   10.23    2.09
  -2   2   5  200.26    5.98
  -2   2   5  193.54    8.02
   2  -2  -5  198.10    8.36
  -2   2   5  208.20    8.70
  -2   2   5  182.73    7.12
  -2   2   4  351.31   10.20
   2  -2  -4  359.60   10.63
  -2   2   4  345.05   10.53
  -2   2   4  339.12    9.13
  -2   2   3  267.81    8.39
   2  -2  -3  278.91    8.56
   2  -2  -3  280.54    6.87
   2  -2  -3  277.09    8.69
  -2   2   3  286.96    9.00
   2  -2  -3  277.09    8.09
  -2   2   3  265.18    7.53
  -2   2   2  828.14   12.53
   2  -2  -2  854.18   14.02
  -2   2   2  837.66   13.85
  -2   2   2  814.98    9.47
   2  -2  -2  814.79   10.86
  -2   2   2  834.75   14.54
   2  -2  -2  870.21   14.66
   2  -2  -2  830.36   13.24
  -2   2   2  820.61   12.72
  -2   2   1  448.83    8.65
  -2   2   1  449.65    6.84
  -2   2   1  437.45    9.46
   2  -2  -1  455.65    9.64
   2  -2  -1  458.76   10.28
  -2   2   1  456.70   10.31
  -2   2   1  458.58    9.23
   2  -2  -1  439.47    9.23
  -2   2   0  191.04    5.57
  -2   2   0  188.53    5.51
   2  -2   0  188.38    5.51
  -2   2   0  191.96    5.17
   2  -2   0  184.74    4.61
   2  -2   0  176.61    5.72
  -2   2   0  184.93    6.38
   2  -2   0  192.90    6.53
   2  -2   0  179.72    5.81
   2  -2   1    9.31    1.25
  -2   2  -1    8.49    1.17
   2  -2   1    8.54    1.24
   2  -2   1    8.45    1.04
  -2   2  -1    9.55    1.34
  -2   2  -1    9.64    1.48
   2  -2   1   10.82    1.54
   2  -2   2  107.40    4.46
  -2   2  -2  106.08    4.67
   2  -2   2  110.01    4.84
   2  -2   2  111.60    4.36
   2  -2   2  106.06    5.02
  -2   2  -2  112.67    5.14
  -2   2  -2  107.72    4.48
   2  -2   3 1050.02   15.15
  -2   2  -3 1038.17   15.77
   2  -2   3 1070.90   16.07
   2  -2   3 1102.46   16.90
  -2   2  -3 1055.99   16.54
  -2   2  -3 1069.57   15.03
   2  -2   4 1180.88   18.10
   2  -2   4 1195.92   17.39
  -2   2  -4 1185.53   18.03
  -2   2  -4 1237.27   19.04
  -2   2  -4 1207.93   17.32
  -2   2  -5   40.42    3.52
   2  -2   5   38.53    3.47
  -2   2  -5   45.30    3.84
   2  -2   5   40.97    3.48
  -2   2  -5   43.08    3.54
   2  -2   6  330.41   10.76
  -2   2  -6  341.76   10.92
  -2   2  -6  341.23   11.33
  -2   2  -6  341.58   10.77
   2  -2   6  336.82   10.73
   2  -2   7   12.79    2.22
  -2   2  -7   18.01    2.67
  -2   2  -7   20.36    2.89
  -2   2  -7   15.61    1.88
  -2   2  -7   15.98    2.52
   2  -2   7   15.34    2.40
   2  -2   8    1.57    0.89
  -2   2  -8    4.10    1.61
  -2   2  -8    2.22    1.19
   2  -2   8    2.66    1.14
  -2   2  -8    1.15    0.54
  -2   2  -8    1.09    0.99
   2  -2   9  118.35    7.53
  -2   2  -9  120.95    4.96
   2  -2   9  125.02    7.90
  -2   2  -9  119.23    7.72
   2  -2  10   10.95    2.56
  -2   2 -10   11.40    1.47
   2  -2  10    9.13    1.40
  -2   2 -10    9.58    2.57
   2  -2  11   55.31    5.71
  -2   2 -11   58.13    6.33
   2  -2  11   56.06    3.25
   2  -2  12  340.18   14.85
  -2   2 -12  310.83   15.15
   2  -2  12  369.52    7.88
   2  -2  13   68.13    6.91
  -2   2 -13   76.43    7.72
   2  -2  14   16.45    3.70
  -2   2 -14   15.05    3.69
   2  -2  15   90.10    8.76
  -2   2 -15   93.70    9.72
   2  -1 -15    2.93    1.97
  -2   1  15   -0.09    0.83
  -2   1  14   25.01    3.83
   2  -1 -14   25.88    5.06
  -2   1  14   23.08    4.13
  -2   1  13    5.57    1.60
   2  -1 -13    6.30    1.93
  -2   1  12    2.11    1.17
   2  -1 -12   11.59    3.51
  -2   1  11    6.60    1.72
   2  -1 -11    9.08    2.54
  -2   1  10  121.68    6.53
   2  -1 -10  105.93    7.89
  -2   1   9   48.68    3.79
   2  -1  -9   47.06    4.97
  -2   1   9   48.57    4.93
   2  -1  -9   49.37    2.91
  -2   1   9   49.62    4.79
  -2   1   8   25.33    2.53
  -2   1   8   19.33    2.96
   2  -1  -8   20.66    1.92
  -2   1   8   20.24    3.19
   2  -1  -8   23.78    3.28
  -2   1   8   20.80    2.93
  -2   1   7  242.02    7.21
  -2   1   7  232.37    9.71
  -2   1   7  233.26    9.96
   2  -1  -7  236.04    9.88
   2  -1  -7  232.33    6.44
  -2   1   7  234.02    9.31
  -2   1   7  237.64    9.55
  -2   1   6    1.11    0.48
  -2   1   6    1.46    0.57
   2  -1  -6    1.11    0.18
   2  -1  -6    1.87    0.69
  -2   1   6    1.71    0.88
  -2   1   6    1.19    0.58
  -2   1   5  296.86    6.47
  -2   1   5  301.11    9.76
   2  -1  -5  303.97    9.73
  -2   1   5  294.68    9.77
  -2   1   5  288.69    6.95
  -2   1   5  303.75    9.33
  -2   1   4  143.70    3.91
  -2   1   4  137.12    6.18
  -2   1   4  140.62    4.90
  -2   1   4  132.09    5.96
   2  -1  -4  142.10    6.03
  -2   1   4  133.92    5.77
  -2   1   3  110.15    2.94
   2  -1  -3  105.56    5.05
  -2   1   3  100.58    4.94
  -2   1   3   98.96    4.68
   2  -1  -3  103.99    4.71
  -2   1   3  104.45    4.29
  -2   1   3  102.01    4.69
  -2   1   2   17.68    1.91
   2  -1  -2   18.63    1.81
   2  -1  -2   16.90    1.90
   2  -1  -2   20.25    1.93
  -2   1   2   18.23    1.81
  -2   1   2   16.19    1.67
   2  -1  -2   18.57    1.93
  -2   1   2   17.58    1.80
  -2   1   1  397.17    5.24
  -2   1   1  403.24    6.32
   2  -1  -1  403.94    7.80
   2  -1  -1  414.39    8.71
  -2   1   1  401.00    8.54
  -2   1   1  426.20    8.69
   2  -1  -1  394.87    7.98
  -2   1   1  412.65    7.97
   2  -1  -1  407.61    8.52
  -2   1   1  408.93    8.35
  -2   1   0   15.89    1.15
  -2   1   0   13.51    1.06
   2  -1   0   15.15    0.83
   2  -1   0   15.56    1.59
  -2   1   0   16.81    1.58
  -2   1   0   17.23    1.56
  -2   1   0   17.43    1.84
   2  -1   0   15.43    1.54
   2  -1   0   15.22    1.61
  -2   1   0   15.29    1.61
  -2   1  -1  520.93    7.74
   2  -1   1  515.22    7.88
   2  -1   1  513.57    6.80
  -2   1  -1  499.85    8.53
  -2   1  -1  515.34    9.62
   2  -1   1  495.48    8.46
   2  -1   1  516.52    9.21
  -2   1  -1  530.33    6.79
  -2   1  -2  286.62    6.52
   2  -1   2  308.91    6.01
   2  -1   2  307.93    6.73
   2  -1   2  294.98    7.00
  -2   1  -2  301.70    6.91
  -2   1  -2  294.05    7.27
  -2   1  -2  313.25    5.99
   2  -1   3  556.53   10.13
  -2   1  -3  530.53    9.94
  -2   1  -3  540.80    9.73
  -2   1  -3  569.92   10.36
  -2   1  -3  574.66    9.42
   2  -1   3  557.54    9.28
   2  -1   4   39.35    2.92
  -2   1  -4   36.99    2.94
  -2   1  -4   40.80    3.06
  -2   1  -4   38.87    2.61
   2  -1   4   36.46    2.68
  -2   1  -4   37.76    2.72
   2  -1   5   45.54    3.45
  -2   1  -5   43.49    3.41
  -2   1  -5   43.78    2.75
  -2   1  -5   43.79    3.29
   2  -1   5   43.36    3.30
   2  -1   6  303.42    9.60
  -2   1  -6  304.58    9.75
  -2   1  -6  303.47    7.09
  -2   1  -6  305.04    9.53
   2  -1   6  293.73    9.34
   2  -1   7   -0.19    0.23
   2  -1   7    1.63    1.17
  -2   1  -7   -0.10    0.53
  -2   1  -7    0.16    0.31
   2  -1   7    0.02    0.28
   2  -1   8    3.17    1.15
  -2   1  -8    2.02    1.18
   2  -1   8    2.36    1.04
   2  -1   8    2.89    0.66
  -2   1  -8    1.19    0.75
   2  -1   9  159.68    8.37
  -2   1  -9  151.58    8.22
  -2   1  -9  151.77    8.70
   2  -1   9  144.66    8.12
   2  -1   9  147.42    4.95
   2  -1  10  163.52    8.95
  -2   1 -10  158.13    9.39
   2  -1  10  166.56    5.20
   2  -1  11   65.84    6.04
  -2   1 -11   58.90    6.01
   2  -1  12   75.43    6.74
  -2   1 -12   71.51    7.01
   2  -1  13   42.41    5.29
  -2   1 -13   41.44    5.68
   2  -1  14  160.20   10.82
  -2   1 -14  157.88   11.67
   2  -1  15    3.34    1.29
  -2   1 -15    3.49    1.90
   2  -1  16    1.40    1.60
  -2   1 -16    1.61    1.75
   2   0 -15   17.96    4.55
  -2   0  14    7.94    2.38
   2   0 -14    8.71    2.61
  -2   0  13   89.82    6.94
   2   0 -13  102.82    9.40
  -2   0  12    0.64    0.89
   2   0 -12   -1.44    0.68
  -2   0  11   44.72    4.34
   2   0 -11   42.31    4.18
   2   0 -11   38.39    5.10
  -2   0  10   76.51    5.28
   2   0 -10   76.57    5.26
   2   0 -10   74.29    6.57
  -2   0   9  199.06    8.09
   2   0  -9  217.51    8.68
   2   0  -9  243.16   11.93
  -2   0   9  132.94    8.62
  -2   0   8  205.07    7.45
   2   0  -8  189.26    7.17
  -2   0   8  202.80    9.41
   2   0  -8  205.06    9.70
  -2   0   8  190.51    9.23
  -2   0   7  273.45    8.39
   2   0  -7  265.33    8.59
  -2   0   7  222.29    9.65
   2   0  -7  301.53   11.90
  -2   0   7  190.57    9.42
  -2   0   6  183.57    5.84
   2   0  -6  177.02    5.85
  -2   0   6  178.03    7.76
  -2   0   6  184.78    8.23
   2   0  -6  189.15    8.04
  -2   0   6  182.80    7.71
   2   0  -6  166.27    5.20
  -2   0   5   26.03    2.05
   2   0  -5   30.44    2.32
  -2   0   5   20.16    2.75
  -2   0   5   24.82    2.97
   2   0  -5   30.30    3.22
  -2   0   5   30.71    3.06
   2   0  -5   22.88    2.00
  -2   0   5   21.97    2.99
  -2   0   4  176.95    4.47
   2   0  -4  197.74    4.80
  -2   0   4  156.08    6.45
   2   0  -4  166.63    6.52
  -2   0   4  159.06    6.40
   2   0  -4  181.92    5.37
  -2   0   4  203.15    6.71
  -2   0   4  156.40    6.62
  -2   0   3   54.17    1.95
   2   0  -3   72.41    2.48
  -2   0   3   57.52    3.57
  -2   0   3   61.00    3.42
   2   0  -3   62.98    3.53
   2   0  -3   90.10    3.93
   2   0  -3   94.70    3.95
  -2   0   3   55.98    3.53
  -2   0   3  127.51    4.87
   2   0  -2    2.65    0.71
  -2   0   2    4.26    0.94
   2   0  -2   17.95    1.99
  -2   0   2    4.16    0.79
   2   0  -2    6.00    1.08
   2   0  -2    2.85    0.69
   2   0  -2   25.43    2.35
  -2   0   2   17.40    1.80
  -2   0   2   33.61    2.37
   2   0  -1 1694.68   16.66
  -2   0   1 1664.46   16.50
   2   0  -1 1650.06   16.73
   2   0  -1 1604.87   15.18
   2   0  -1 1679.51   12.41
  -2   0   1 1698.07   12.30
  -2   0   1 1649.09   10.29
   2   0  -1 1712.45   16.95
   2   0  -1 1545.51   15.33
  -2   0   1 1699.57   16.54
   2   0   0 1740.97    8.33
   2   0   0 1748.35   16.62
   2   0   0 1772.85   16.08
  -2   0   0 1815.67   16.73
   2   0   0 1695.52   10.07
  -2   0   0 1761.74    9.87
   2   0   0 1603.37   14.91
  -2   0   0 1794.55   16.17
   2   0   0 1726.19   15.96
   2   0   0 1592.25   15.36
   2   0   1  434.79    5.97
  -2   0  -1  409.28    5.83
  -2   0  -1  417.96    8.04
   2   0   1  557.08    8.80
   2   0   1  414.10    4.84
  -2   0  -1  398.51    4.84
   2   0   1  410.38    7.70
   2   0   1  570.31    9.22
  -2   0  -2  209.97    7.12
   2   0   2  693.55    9.11
   2   0   2  697.64   10.07
   2   0   2  739.37   10.55
  -2   0  -3  726.20   11.17
   2   0   3  817.71   11.39
   2   0   3  766.74   10.30
   2   0   3  848.87   11.24
  -2   0  -4  138.88    5.32
   2   0   4  142.30    5.26
   2   0   4  142.73    4.59
  -2   0  -4  141.77    5.19
   2   0   4  142.66    4.93
   2   0   4  141.80    4.58
  -2   0  -5  261.39    8.11
   2   0   5  266.34    8.01
   2   0   5  264.40    6.22
  -2   0  -5  250.85    7.84
   2   0   5  245.25    7.42
   2   0   5  263.43    6.29
  -2   0  -6  202.34    7.85
   2   0   6  215.91    8.00
  -2   0  -6  165.84    7.45
   2   0   6  197.14    7.60
   2   0   6  208.26    5.71
   2   0   7   50.82    4.12
  -2   0  -7   47.90    4.01
  -2   0  -7   40.74    3.76
   2   0   7   43.48    3.86
   2   0   7   45.51    2.69
   2   0   8   66.29    5.46
  -2   0  -8   68.97    5.53
  -2   0  -8   38.96    4.30
   2   0   8   57.37    5.13
   2   0   9  805.72   18.06
  -2   0  -9  825.62   18.75
  -2   0  -9  752.48   18.68
   2   0   9  813.62   19.02
   2   0  10  144.35    8.37
  -2   0 -10  146.20    9.11
   2   0  10  156.99    9.17
   2   0  11  657.46   18.38
  -2   0 -11  621.21   19.42
   2   0  12   24.45    4.09
  -2   0 -12   25.39    4.50
   2   0  13   28.57    4.32
  -2   0 -13   23.82    4.36
   2   0  14   -0.58    0.80
  -2   0 -14   -0.56    0.70
   2   0  15   91.23    8.33
  -2   0 -15   92.14    9.20
   2   0  16    5.30    1.89
  -2   0 -16    4.64    2.34
  -2  -1  15   72.67    7.40
   2   1 -15   42.99    6.74
  -2  -1  14   92.64    7.69
   2   1 -14   94.34    9.28
  -2  -1  13   47.56    5.42
   2   1 -13   49.62    6.45
  -2  -1  12   94.67    6.99
   2   1 -12   79.38    7.73
   2   1 -11   66.01    5.57
  -2  -1  11   65.30    5.63
   2   1 -11   64.65    6.62
   2   1 -10    1.54    1.02
  -2  -1  10    1.40    0.86
   2   1 -10    2.12    1.17
   2   1  -9  150.83    7.39
  -2  -1   9  158.19    7.63
   2   1  -9  170.85    9.67
   2   1  -8    2.60    0.84
  -2  -1   8    2.43    0.89
  -2  -1   8    2.95    1.19
  -2  -1   8    1.44    0.95
   2   1  -8    5.16    1.61
   2   1  -7  375.30   10.12
  -2  -1   7  397.81   10.49
  -2  -1   7  414.40   12.69
   2   1  -7  414.72   13.23
   2   1  -7  332.95    6.64
  -2  -1   7  415.71   12.91
  -2  -1   6  314.18    8.46
   2   1  -6  308.42    8.22
  -2  -1   6  314.63   10.09
   2   1  -6  319.08   10.61
   2   1  -6  298.02    6.28
  -2  -1   6  315.74   10.34
  -2  -1   5 1142.99   14.63
   2   1  -5 1107.22   14.05
  -2  -1   5 1130.07   17.93
   2   1  -5 1132.37   18.26
  -2  -1   5 1137.66   12.77
  -2  -1   5 1143.70   18.06
  -2  -1   4  273.93    7.71
   2   1  -4  191.81    5.25
  -2  -1   4  405.20   10.65
   2   1  -4  676.86   12.99
  -2  -1   4  457.34   11.62
  -2  -1   4  650.87   10.05
   2   1  -4  409.70   11.82
  -2  -1   3   12.43    1.90
   2   1  -3    7.08    0.90
  -2  -1   3    8.60    1.32
   2   1  -3   48.39    3.03
  -2  -1   3   12.14    1.69
   2   1  -3   16.86    1.93
  -2  -1   3   21.07    2.79
  -2  -1   3   42.16    2.77
   2   1  -2   42.17    2.01
  -2  -1   2   49.04    2.54
  -2  -1   2   47.14    2.83
   2   1  -2   46.70    2.84
   2   1  -2  173.88    5.31
  -2  -1   2   51.38    2.69
   2   1  -2   48.38    2.67
  -2  -1   2  210.79    5.95
  -2  -1   2   51.72    4.37
  -2  -1   1 9999.00   31.90
   2   1  -1 9923.54   37.86
   2   1  -1 9886.06   32.22
  -2  -1   1 9765.17   37.42
  -2  -1   1 9924.05   32.29
  -2  -1   1 7823.81   35.16
  -2  -1   1 9887.97   39.58
   2   1  -1 9899.62   40.13
   2   1  -1 9856.99   31.27
   2   1   0 6147.26   27.83
   2   1   0 6034.60   24.07
   2   1   0 5994.83   31.86
   2   1   0 5928.11   21.10
  -2  -1   0 5970.18   21.29
  -2  -1   0 6045.36   28.20
   2   1   0 5901.28   28.57
  -2  -1   0 5465.70   29.96
  -2  -1  -1    7.43    1.09
   2   1   1    6.05    0.98
   2   1   1    5.63    0.65
   2   1   1    7.49    0.96
  -2  -1  -1    9.92    1.35
  -2  -1  -1    6.97    0.99
   2   1   2  431.34    7.45
  -2  -1  -2  435.24    5.61
   2   1   2  414.61    7.16
   2   1   3 3422.67   20.17
  -2  -1  -3 4316.16   26.38
  -2  -1  -4  378.42    8.69
   2   1   4  395.54    8.90
   2   1   4  380.60    8.21
  -2  -1  -4  391.16    8.18
  -2  -1  -4  392.99    7.85
   2   1   5   88.96    4.64
  -2  -1  -5   93.16    4.75
  -2  -1  -5   87.29    4.47
   2   1   5   87.76    4.64
  -2  -1  -5   91.73    3.72
   2   1   6 1162.14   18.06
  -2  -1  -6 1182.61   18.30
  -2  -1  -6 1136.06   17.86
   2   1   6 1164.25   18.56
  -2  -1  -6 1158.05   13.08
  -2  -1  -7  601.22   14.60
  -2  -1  -7  599.49   14.31
   2   1   7  535.68   14.50
  -2  -1  -7  560.50    9.49
   2   1   8  132.39    7.13
  -2  -1  -8  174.03    8.16
  -2  -1  -8  174.42    8.36
   2   1   8   97.32    3.70
   2   1   9  321.96   11.42
  -2  -1  -9  375.27   12.56
   2   1   9  296.38    6.16
  -2  -1  -9  365.91   12.89
   2   1   9  318.29   11.98
   2   1  10    6.66    1.67
  -2  -1 -10   10.03    2.19
   2   1  10    6.96    1.92
  -2  -1 -10    7.58    1.98
   2   1  11  209.59   10.44
  -2  -1 -11  210.36   11.15
   2   1  12    3.80    1.61
  -2  -1 -12    1.35    1.00
   2   1  13  115.42    8.39
  -2  -1 -13  117.53    9.22
   2   1  14   55.38    6.08
  -2  -1 -14   55.09    6.72
   2   1  15  138.27   10.05
  -2  -1 -15  123.75   10.45
   2   1  16   44.28    6.09
  -2  -1 -16   56.47    7.58
   2   1  17  110.60    9.92
  -2  -2  15    5.78    2.06
  -2  -2  14   39.89    5.36
   2   2 -14   34.04    5.63
  -2  -2  13   71.32    6.74
   2   2 -13   76.96    8.17
  -2  -2  12   61.63    6.02
   2   2 -12   67.77    7.30
  -2  -2  11  108.33    7.50
   2   2 -11  112.15    8.89
  -2  -2  10   95.80    6.69
   2   2 -10  100.13    6.61
   2   2 -10   94.62    7.71
   2   2  -9    0.57    0.53
  -2  -2   9    0.46    0.05
   2   2  -9    0.75    0.27
   2   2  -9    1.36    0.51
   2   2  -8  144.79    7.06
  -2  -2   8  154.20    7.58
  -2  -2   8  146.98    7.75
   2   2  -8  136.61    8.12
  -2  -2   8  152.72    4.71
  -2  -2   8  156.63    8.73
  -2  -2   7  381.17   11.27
   2   2  -7  381.10   10.78
  -2  -2   7  374.30   11.56
   2   2  -7  372.56   12.62
  -2  -2   7  384.10   12.85
   2   2  -7  380.65   12.76
  -2  -2   7  396.41    8.03
  -2  -2   6  857.04   15.76
   2   2  -6  841.36   14.86
  -2  -2   6  845.18   16.15
   2   2  -6  847.30   18.03
  -2  -2   6  868.00   18.06
   2   2  -6  873.03   18.00
  -2  -2   6  943.58   13.30
   2   2  -5  311.85    8.62
  -2  -2   5  329.15    9.93
  -2  -2   5  318.04    9.16
   2   2  -5  322.76   10.27
  -2  -2   5  322.57   10.27
   2   2  -5  315.68   10.12
  -2  -2   5  325.91    7.72
  -2  -2   4   66.89    4.13
  -2  -2   4   61.80    3.69
   2   2  -4   60.49    3.52
   2   2  -4   65.93    4.22
  -2  -2   4   66.09    4.27
   2   2  -3    1.02    0.64
  -2  -2   3    0.57    0.41
   2   2  -3    0.79    0.40
  -2  -2   3    0.36    0.14
  -2  -2   3    0.36    0.33
   2   2  -3   -0.08    0.20
   2   2  -2  287.73    7.21
  -2  -2   2  305.90    7.84
   2   2  -2  314.38    6.93
  -2  -2   2  323.49    7.96
  -2  -2   2  310.98    6.83
   2   2  -2  325.77    7.54
   2   2  -2  323.39    7.93
  -2  -2   1  134.62    4.74
   2   2  -1  136.83    4.10
  -2  -2   1  132.78    4.02
  -2  -2   1  141.71    4.95
   2   2  -1  139.00    4.94
   2   2  -1  135.42    4.35
  -2  -2   1  140.36    4.77
   2   2  -1  134.32    4.78
   2   2   0 2501.81   19.41
  -2  -2   0 2464.64   19.24
   2   2   0 2446.20   16.26
   2   2   0 2456.73   20.25
   2   2   0 2381.64   21.41
   2   2   0 2447.79   16.82
  -2  -2   0 2474.48   16.92
  -2  -2   0 2437.22   17.73
  -2  -2  -1   34.47    2.27
   2   2   1   34.36    2.28
  -2  -2  -1   32.03    2.43
   2   2   1   33.30    2.38
   2   2   1   31.68    1.87
  -2  -2  -1   34.69    1.98
   2   2   1   34.66    1.93
  -2  -2  -1   32.77    1.86
   2   2   2   23.50    1.99
  -2  -2  -2   23.44    2.00
  -2  -2  -2   24.28    1.76
   2   2   2   21.59    1.71
   2   2   2   22.34    1.46
   2   2   3  978.24   12.44
  -2  -2  -3  975.56   12.39
   2   2   4   91.34    4.30
  -2  -2  -4   93.00    4.28
   2   2   5   23.20    2.38
   2   2   5   18.83    2.23
  -2  -2  -5   25.74    2.50
   2   2   6  178.86    7.40
   2   2   6  172.76    7.29
  -2  -2  -6  166.81    6.95
   2   2   7  185.84    7.87
  -2  -2  -7  182.97    7.94
   2   2   7  198.70    8.42
   2   2   8    5.78    1.43
  -2  -2  -8    7.84    1.24
  -2  -2  -8    7.56    2.09
   2   2   8    5.93    1.65
   2   2   9  370.85   12.40
   2   2   9  344.99   13.01
  -2  -2  -9  332.93   12.35
  -2  -2  -9  370.71    8.13
   2   2  10   59.52    5.26
   2   2  10   59.61    5.79
  -2  -2 -10   62.87    5.76
  -2  -2 -10   59.87    3.04
   2   2  11    0.68    0.62
   2   2  11    0.82    0.36
  -2  -2 -11    1.24    0.62
   2   2  12  184.92   10.21
  -2  -2 -12  182.77   10.94
   2   2  13    5.24    1.80
  -2  -2 -13    7.40    2.62
   2   2  14   15.98    3.33
  -2  -2 -14   22.91    4.21
   2   2  15    3.43    1.55
  -2  -2 -15    8.41    2.97
   2   2  16    1.38    1.53
  -2  -2 -16    2.89    1.97
   2   2  17    2.72    1.58
  -2  -3  14    6.94    2.67
  -2  -3  14    3.94    1.77
   2   3 -14    3.62    1.42
  -2  -3  13    6.01    2.12
  -2  -3  13    5.19    1.74
   2   3 -13    5.39    2.23
  -2  -3  12   12.76    2.88
  -2  -3  12   12.31    2.90
   2   3 -12   11.88    3.15
  -2  -3  11   69.40    6.40
  -2  -3  11   82.55    7.39
   2   3 -11   71.60    7.25
  -2  -3  10   55.90    5.47
  -2  -3  10   56.94    5.81
   2   3 -10   53.74    5.82
  -2  -3  10   58.21    2.92
   2   3  -9  166.12    8.58
  -2  -3   9  165.35    8.94
  -2  -3   9  156.98    8.34
  -2  -3   9  158.68    9.28
   2   3  -9  161.62    9.84
  -2  -3   9  176.87    5.81
   2   3  -9  157.54    9.66
   2   3  -8  231.32    9.63
  -2  -3   8  221.36   10.49
  -2  -3   8  202.49    8.95
   2   3  -8  224.25   11.04
   2   3  -8  223.88   10.89
  -2  -3   8  249.43    7.40
  -2  -3   7    2.55    1.04
   2   3  -7    0.13    0.37
  -2  -3   7    0.98    0.58
   2   3  -7    2.35    0.92
  -2  -3   7    3.41    1.22
   2   3  -7    2.26    1.17
   2   3  -7    1.56    0.61
  -2  -3   6    7.17    1.79
   2   3  -6    6.76    1.78
  -2  -3   6    6.39    1.46
  -2  -3   6    6.26    1.66
   2   3  -6    6.46    1.46
   2   3  -6    7.26    1.76
  -2  -3   5   59.34    4.76
   2   3  -5   50.61    3.96
  -2  -3   5   55.77    3.72
  -2  -3   5   55.23    4.41
   2   3  -5   54.06    4.47
   2   3  -5   62.65    4.84
  -2  -3   4  194.97    8.20
   2   3  -4  202.42    7.62
  -2  -3   4  190.91    7.87
  -2  -3   4  187.07    6.20
   2   3  -4  198.43    8.04
   2   3  -4  197.40    8.14
  -2  -3   3   72.36    4.69
   2   3  -3   69.07    4.33
  -2  -3   3   69.01    4.53
  -2  -3   3   61.00    3.16
   2   3  -3   72.76    4.53
   2   3  -3   72.29    4.63
  -2  -3   2  171.49    6.75
   2   3  -2  179.37    6.97
  -2  -3   2  170.10    6.73
  -2  -3   2  171.49    4.67
   2   3  -2  169.31    6.46
   2   3  -2  170.01    6.77
   2   3  -1    6.73    1.26
  -2  -3   1    7.97    1.37
  -2  -3   1    5.95    1.13
   2   3  -1    6.67    1.26
   2   3  -1    6.27    0.82
   2   3  -1    5.85    1.18
  -2  -3   1    6.81    1.24
   2   3   0 1177.36   16.41
  -2  -3   0 1179.96   16.35
   2   3   0 1166.51   16.90
   2   3   0 1151.84   10.06
   2   3   0 1127.19   15.12
  -2  -3   0 1164.47   15.22
  -2  -3   0 1140.01   12.29
  -2  -3  -1  443.83   10.04
   2   3   1  455.99   10.18
   2   3   1  436.50   10.31
   2   3   1  414.24    8.88
   2   3   1  420.28    9.04
  -2  -3  -1  436.46    9.17
  -2  -3  -1  426.99    6.44
   2   3   2  648.66   12.30
  -2  -3  -2  622.84   10.65
  -2  -3  -2  647.04   11.45
   2   3   2  618.06   11.21
   2   3   2  611.42    7.06
   2   3   3   42.22    3.28
  -2  -3  -3   40.58    2.72
   2   3   3   39.11    2.96
  -2  -3  -3   41.55    3.04
   2   3   3   37.20    1.68
   2   3   4  381.41    9.86
  -2  -3  -4  384.40    9.80
  -2  -3  -5   36.94    3.22
   2   3   5   38.59    3.40
  -2  -3  -6 1369.57   21.20
   2   3   6 1369.32   21.78
   2   3   7  167.95    7.69
   2   3   7  155.80    7.90
  -2  -3  -7  160.48    7.76
   2   3   8   17.78    2.64
   2   3   8   17.87    2.87
  -2  -3  -8   15.21    2.53
   2   3   9  260.22   10.64
   2   3   9  248.09   11.26
  -2  -3  -9  240.95   10.70
   2   3  10   10.60    2.35
  -2  -3 -10    8.05    2.02
   2   3  11  126.82    8.21
  -2  -3 -11  114.96    8.57
  -2  -3 -11  128.62    5.35
   2   3  12    4.82    1.62
  -2  -3 -12    4.88    1.02
  -2  -3 -12    5.15    1.93
   2   3  13   14.29    3.11
  -2  -3 -13   10.55    2.59
  -2  -3 -13   12.77    1.34
   2   3  14   35.72    4.94
  -2  -3 -14   33.08    5.24
   2   3  15  123.40    9.55
  -2  -3 -15  117.35   10.24
   2   3  16   18.01    3.84
  -2  -3 -16   23.76    4.92
   2   3  17   22.27    4.40
  -2  -4  13  105.33    9.54
   2   4 -13  101.80    9.91
  -2  -4  12    7.67    2.77
   2   4 -12    6.13    2.76
  -2  -4  11   21.33    3.97
   2   4 -11   14.66    3.38
   2   4 -11   15.73    3.38
  -2  -4  10   18.92    3.90
   2   4 -10    8.74    2.58
  -2  -4  10    8.10    1.42
   2   4 -10   10.75    3.36
  -2  -4   9  158.19   10.91
  -2  -4   9  171.67    8.94
   2   4  -9  128.94    9.52
   2   4  -9   90.05    7.90
   2   4  -8   12.63    2.94
  -2  -4   8   17.48    2.64
  -2  -4   8   15.76    3.15
   2   4  -7    7.44    2.13
  -2  -4   7   17.41    3.30
  -2  -4   7   12.98    3.98
   2   4  -7    7.25    1.83
   2   4  -6    1.83    0.70
  -2  -4   6    3.65    1.85
  -2  -4   6    7.60    2.09
  -2  -4   6    5.45    2.47
   2   4  -6    1.99    1.07
   2   4  -6    4.09    1.59
  -2  -4   5  288.40   11.52
   2   4  -5  293.48   10.66
  -2  -4   5  298.33   11.38
  -2  -4   5  278.45    8.11
   2   4  -5  289.47   11.24
   2   4  -5  279.11   11.17
  -2  -4   4  286.44   10.92
   2   4  -4  291.78   10.29
  -2  -4   4  283.82   10.60
  -2  -4   4  258.41    6.84
   2   4  -4  296.73   10.78
   2   4  -4  284.82   10.75
   2   4  -3  245.54    9.39
  -2  -4   3  239.97    9.55
  -2  -4   3  229.11    5.61
  -2  -4   3  237.81    9.34
   2   4  -3  235.06    9.13
   2   4  -3  241.20    9.55
   2   4  -2  284.27    9.96
  -2  -4   2  268.97    9.76
  -2  -4   2  272.66    9.43
   2   4  -2  278.03    9.50
  -2  -4   2  256.21    5.06
   2   4  -2  270.82    9.65
  -2  -4   2  280.01    9.74
   2   4  -1  526.41   13.24
  -2  -4   1  497.01   12.80
  -2  -4   1  500.94   12.72
   2   4  -1  513.77   13.00
  -2  -4   1  498.27   12.26
   2   4  -1  511.27   12.43
   2   4   0  533.45   12.90
  -2  -4   0  551.61   13.10
   2   4   0  535.39   13.16
   2   4   0  523.77    5.66
   2   4   0  531.59   12.38
  -2  -4   0  541.59   12.45
  -2  -4   0  517.05    8.57
   2   4   1    3.72    1.04
  -2  -4  -1    3.92    0.99
   2   4   1    5.23    1.07
   2   4   1    7.36    1.54
  -2  -4  -1    4.94    1.29
   2   4   1    4.59    1.20
  -2  -4  -1    4.39    0.66
   2   4   2  229.79    8.52
  -2  -4  -2  243.40    8.68
   2   4   2  228.17    8.57
   2   4   2  217.14    6.51
  -2  -4  -2  233.75    8.17
   2   4   2  226.19    8.00
  -2  -4  -2  226.69    3.66
   2   4   3 1585.68   22.80
  -2  -4  -3 1566.29   17.20
  -2  -4  -3 1567.96   21.74
   2   4   3 1573.88   21.88
   2   4   4 1600.81   23.71
  -2  -4  -4 1600.00   17.47
  -2  -4  -4 1605.99   22.64
   2   4   4 1628.21   23.09
   2   4   4 1565.67    8.03
   2   4   5  191.40    8.44
  -2  -4  -5  184.11    7.98
   2   4   5  185.96    8.22
  -2  -4  -6   35.41    3.73
   2   4   6   41.79    4.09
  -2  -4  -7   17.95    3.11
   2   4   7   18.06    2.85
   2   4   8   72.59    5.60
  -2  -4  -8   73.66    6.71
   2   4   8   79.11    6.27
   2   4   9   34.32    4.03
  -2  -4  -9   34.87    4.24
   2   4  10   86.31    6.76
  -2  -4 -10   77.72    6.79
   2   4  11   14.91    2.91
  -2  -4 -11   19.50    3.59
   2   4  12  307.01   13.71
  -2  -4 -12  310.55   14.80
   2   4  13   27.25    4.26
  -2  -4 -13   29.01    2.75
  -2  -4 -13   39.21    5.50
   2   4  14    9.83    2.63
  -2  -4 -14   11.32    3.25
   2   4  15   32.24    4.96
  -2  -4 -15   29.21    5.15
   2   4  16   18.00    3.99
  -2  -4 -16   33.05    6.11
  -2  -5  12   65.03    7.68
   2   5 -12   37.87    6.27
   2   5 -12   34.79    5.89
  -2  -5  11   34.91    5.30
   2   5 -11   41.37    6.09
   2   5 -11   39.76    6.06
  -2  -5  10  199.41   12.21
   2   5 -10  174.33   11.99
   2   5 -10  171.23   11.60
  -2  -5   9   95.05    6.22
  -2  -5   9  109.89    8.94
   2   5  -9   82.34    7.98
  -2  -5   8  174.25   11.03
  -2  -5   8  151.94    7.41
   2   5  -8  106.74   10.23
  -2  -5   7   51.94    5.66
  -2  -5   7   42.77    3.65
   2   5  -7   33.88    5.03
   2   5  -6    6.70    1.94
  -2  -5   6   10.26    1.65
  -2  -5   6   16.85    3.00
   2   5  -5    2.08    2.69
   2   5  -5   15.04    4.18
   2   5  -5    1.78    1.20
  -2  -5   5    9.16    1.79
   2   5  -4    0.48    0.81
  -2  -5   4    1.68    3.62
  -2  -5   4   13.69    3.89
  -2  -5   4    4.42    1.53
   2   5  -4    2.74    2.57
   2   5  -4    1.32    4.11
  -2  -5   3  407.77   13.80
   2   5  -3  415.63   13.45
  -2  -5   3  374.94    6.11
  -2  -5   3  398.34   13.22
  -2  -5   3  390.31   13.17
   2   5  -3  410.15   13.44
   2   5  -3  399.47   13.54
   2   5  -2   15.23    2.53
  -2  -5   2   15.57    2.80
   2   5  -2   16.31    3.03
  -2  -5   2   17.36    2.71
   2   5  -2   17.04    2.72
  -2  -5   2   19.11    3.29
   2   5  -1   69.79    5.36
  -2  -5   1   66.10    5.21
   2   5  -1   67.68    5.20
  -2  -5   1   72.78    5.36
   2   5  -1   71.46    5.67
  -2  -5   1   80.13    6.06
   2   5   0   74.67    5.44
  -2  -5   0   72.21    5.38
   2   5   0   75.36    5.58
   2   5   0   70.44    5.18
  -2  -5   0   73.76    5.29
   2   5   1  544.66   14.69
  -2  -5  -1  551.08   14.79
   2   5   1  524.06   14.42
   2   5   1  505.64   10.83
   2   5   1  536.69   14.20
  -2  -5  -1  528.80   14.07
  -2  -5  -1  515.59    7.15
  -2  -5  -2  175.63    8.36
   2   5   2  174.41    8.33
   2   5   2  164.83    7.86
  -2  -5  -2  167.10    7.91
   2   5   2  165.55    8.00
   2   5   2  152.55    5.69
   2   5   3  386.75   12.54
  -2  -5  -3  397.51   12.36
   2   5   3  396.48   12.36
   2   5   3  401.39   12.76
   2   5   4  339.46   11.92
   2   5   4  334.86   11.75
  -2  -5  -4  337.63   11.69
   2   5   5   74.69    5.76
  -2  -5  -5   74.55    3.85
  -2  -5  -5   73.88    5.72
   2   5   5   77.18    5.76
   2   5   6   13.32    6.58
  -2  -5  -6   10.33    3.99
  -2  -5  -6   23.41    5.12
   2   5   6   10.74    2.64
  -2  -5  -7  111.01    7.41
   2   5   7  109.44    7.49
  -2  -5  -8   82.00    6.67
   2   5   9   36.11    4.35
  -2  -5  -9   29.93    4.22
   2   5  10   73.69    6.51
  -2  -5 -10   70.77    6.93
   2   5  11  365.22   15.37
  -2  -5 -11  350.43   15.67
   2   5  12  264.41   13.24
  -2  -5 -12  247.42   13.64
   2   5  13  143.09   10.49
  -2  -5 -13  162.28   11.88
   2   5  14   35.43    5.36
  -2  -5 -14   34.61    5.63
   2   5  15   43.09    6.10
  -2  -5 -15   52.07    7.19
   2   5  16   46.19    6.34
  -2  -6  11    4.03    2.09
   2   6 -11    6.48    2.73
   2   6 -11    6.24    2.34
  -2  -6  10  120.48   10.05
   2   6 -10  145.84   11.32
  -2  -6   9   86.16    8.21
   2   6  -9   87.33    8.42
  -2  -6   8   18.24    3.58
   2   6  -8   13.62    3.32
  -2  -6   7    7.60    2.26
  -2  -6   7    9.35    1.53
   2   6  -7   11.14    2.69
  -2  -6   6   75.35    6.98
  -2  -6   6   78.30    4.00
   2   6  -6   82.04    7.35
  -2  -6   5   25.87    1.96
  -2  -6   5   30.47    4.25
   2   6  -5   27.39    4.08
  -2  -6   4  142.58    3.56
  -2  -6   4  142.96    8.92
   2   6  -4  154.23    9.47
   2   6  -3   15.09    2.89
   2   6  -3   18.41    3.21
  -2  -6   3   11.06    2.50
  -2  -6   3   13.93    2.77
   2   6  -2  150.32    8.85
  -2  -6   2  131.55    8.21
   2   6  -2  149.97    8.71
  -2  -6   2  146.69    8.64
   2   6  -1    9.63    2.21
  -2  -6   1    8.45    2.33
  -2  -6   1    7.19    1.85
   2   6  -1    8.74    2.25
   2   6  -1   10.66    2.39
   2   6   0  489.34   15.51
  -2  -6   0  524.10   16.02
   2   6   0  460.09   11.58
   2   6   0  504.03   15.64
   2   6   0  485.66   15.16
  -2  -6   0  476.43   15.03
   2   6   1   20.50    3.09
  -2  -6  -1   22.84    3.38
   2   6   1   19.99    3.17
   2   6   1   19.68    2.25
  -2  -6  -1   22.10    3.22
   2   6   1   23.08    3.25
  -2  -6  -1   19.76    1.40
   2   6   2   26.73    3.67
  -2  -6  -2   28.45    3.75
   2   6   2   25.60    2.40
   2   6   2   25.55    3.55
  -2  -6  -2   25.25    3.43
   2   6   2   22.89    3.26
   2   6   3    1.33    0.36
   2   6   3    0.68    0.45
  -2  -6  -3    1.60    0.90
   2   6   3    1.55    0.75
   2   6   4   62.19    5.58
   2   6   4   60.59    5.47
  -2  -6  -4   60.01    5.46
   2   6   4   57.12    5.33
   2   6   5   68.26    6.00
  -2  -6  -5   61.16    5.64
   2   6   5   74.80    6.23
   2   6   6   17.95    3.11
  -2  -6  -6   16.54    3.05
  -2  -6  -6   14.54    1.68
   2   6   7   44.93    5.26
  -2  -6  -7   51.22    3.35
  -2  -6  -7   48.59    5.24
  -2  -6  -8   13.44    1.78
   2   6   8   16.81    3.31
  -2  -6  -8   11.25    2.78
   2   6   8   13.69    0.85
   2   6   9  197.99   11.54
  -2  -6  -9  199.84   11.44
   2   6   9  213.82    5.14
   2   6  10   54.55    5.79
  -2  -6 -10   55.56    6.23
   2   6  10   54.68    3.18
   2   6  11  119.50    8.85
  -2  -6 -11  120.81    9.52
   2   6  11  111.32    5.16
   2   6  12    0.12    0.70
  -2  -6 -12    2.12    1.43
   2   6  13    3.74    1.70
  -2  -6 -13    2.15    1.75
   2   6  14   11.58    3.13
  -2  -6 -14   10.44    3.25
   2   6  15  126.38   10.48
  -2  -7  10    5.10    2.50
   2   7 -10    9.01    2.97
  -2  -7   9   87.75    8.84
   2   7  -9   72.61    8.14
  -2  -7   8    7.15    2.43
   2   7  -8    1.67    1.41
  -2  -7   7   27.46    4.47
   2   7  -7   27.19    4.73
  -2  -7   6  226.20   12.87
   2   7  -6  225.06   13.13
  -2  -7   5   53.96    6.02
   2   7  -5   53.28    6.14
  -2  -7   4   33.76    4.68
  -2  -7   4   37.58    5.20
   2   7  -4   37.38    5.03
  -2  -7   3   73.08    6.79
  -2  -7   3   65.32    6.65
   2   7  -3   79.40    7.24
   2   7  -2    0.98    0.74
  -2  -7   2    0.06    0.82
  -2  -7   2    1.51    0.97
   2   7  -1   28.27    4.13
  -2  -7   1   23.83    3.88
   2   7   0   58.93    5.94
   2   7   0   58.36    4.32
  -2  -7   0   58.04    5.90
   2   7   1   39.66    4.87
   2   7   1   37.76    3.24
  -2  -7  -1   33.09    4.39
  -2  -7  -1   37.33    1.87
   2   7   2   25.50    3.91
  -2  -7  -2   21.20    3.48
   2   7   3   73.60    6.68
  -2  -7  -3   81.12    6.90
   2   7   3   81.01    2.34
   2   7   4  146.11    9.44
  -2  -7  -4  132.77    8.97
   2   7   4  135.44    4.47
   2   7   5   69.46    6.64
  -2  -7  -5   71.74    6.61
   2   7   6  811.33   22.94
  -2  -7  -6  805.58   22.78
   2   7   7   70.05    6.88
  -2  -7  -7   63.52    6.53
   2   7   8  118.67    9.28
  -2  -7  -8  130.41    9.51
   2   7   9   25.12    4.34
  -2  -7  -9   24.58    4.22
  -2  -7  -9   28.03    2.51
   2   7  10    0.50    0.91
  -2  -7 -10    0.79    0.53
  -2  -7 -10    1.89    1.36
   2   7  11    6.07    2.05
   2   7  11    0.20    0.73
   2   7  12   84.76    8.16
   2   7  12   80.23    8.58
  -2  -7 -12   66.85    7.80
   2   7  13   21.40    4.28
  -2  -7 -13   13.86    3.72
   2   7  14   37.55    5.72
  -2  -8   8   43.25    6.95
   2   8  -8   38.37    7.14
  -2  -8   7   17.15    4.20
   2   8  -7   11.12    3.84
  -2  -8   6   23.02    4.36
   2   8  -6   32.87    5.20
  -2  -8   5  359.19   17.34
   2   8  -5  355.24   17.29
   2   8  -4    9.24    2.69
  -2  -8   4   16.57    3.85
  -2  -8   4    8.96    2.83
   2   8  -3   19.29    3.95
  -2  -8   3   18.45    3.78
  -2  -8   3   24.48    4.15
   2   8  -2   73.98    7.46
  -2  -8   2   63.73    6.91
   2   8  -1   59.90    6.69
  -2  -8   1   54.65    6.25
   2   8   0  114.90    9.15
   2   8   0  122.56    6.40
  -2  -8   0  125.21    9.47
  -2  -8   0  130.70    4.70
   2   8   1   84.45    7.74
   2   8   1   79.06    4.83
  -2  -8  -1   78.52    7.41
  -2  -8  -1   80.06    2.26
   2   8   2    4.32    1.89
  -2  -8  -2    2.76    1.17
   2   8   3  183.21   11.57
  -2  -8  -3  180.14   11.32
   2   8   4   69.25    7.16
  -2  -8  -4   51.35    6.07
   2   8   4   58.94    2.33
   2   8   5    0.57    1.03
  -2  -8  -5    1.55    1.78
   2   8   5    1.37    0.75
   2   8   6   45.38    5.59
  -2  -8  -6   55.77    6.45
   2   8   6   55.56    3.81
   2   8   7    2.27    1.74
  -2  -8  -7    1.79    1.37
   2   8   7    2.22    1.36
   2   8   8    9.21    2.90
  -2  -8  -8    4.15    1.76
   2   8   9  144.57   12.77
  -2  -8  -9  138.51   12.01
   2   8  10    3.71    2.62
  -2  -8 -10    2.38    2.81
   2   8  11   29.59    5.58
  -2  -8 -11   22.66    4.92
   2   8  12   77.76    8.32
   2   8  12   80.90    9.24
  -2  -8 -12   76.39    9.17
   2   9  -6   -1.27    1.53
   2   9  -5   28.75    5.50
  -2  -9   5   34.93    6.28
   2   9  -4   10.57    4.30
  -2  -9   4    2.93    3.42
  -2  -9   3   34.71    6.36
   2   9  -3   34.30    6.73
   2   9  -2  104.70   10.25
  -2  -9   2   93.18    9.89
   2   9  -1    6.60    2.16
  -2  -9   1    4.13    1.72
   2   9   0  140.18   10.76
  -2  -9   0  120.22   10.01
   2   9   1   55.09    6.65
  -2  -9  -1   54.56    6.69
   2   9   2   55.15    6.72
  -2  -9  -2   55.23    6.86
   2   9   3    9.87    4.28
  -2  -9  -3    4.49    3.32
   2   9   4   13.82    4.25
  -2  -9  -4   17.91    4.79
   2   9   5    3.47    1.84
  -2  -9  -5    1.37    1.37
   2   9   6  262.11   15.16
  -2  -9  -6  239.30   14.51
   2   9   7   94.79    9.42
  -2  -9  -7   91.52    9.09
   2   9   8   51.79    6.85
  -2  -9  -8   62.87    7.63
   2   9   9   53.08    7.24
  -2  -9  -9   49.59    7.22
   2   9  10    2.17    1.84
  -2  -9 -10    0.16    1.02
  -2 -10   3  100.09   10.39
   2  10  -2   32.84    5.70
  -2 -10   2   26.10    5.04
   2  10  -1   -0.57    0.69
  -2 -10   1    0.45    1.58
   2  10   0   12.32    3.26
  -2 -10   0    8.76    3.01
   2  10   1   33.27    5.51
  -2 -10  -1   29.75    5.26
   2  10   2    0.12    0.90
  -2 -10  -2   -0.22    0.76
   2  10   3   33.18    5.58
  -2 -10  -3   40.74    6.25
   2  10   4   45.08    6.48
  -2 -10  -4   48.00    6.79
   2  10   5   37.37    6.08
  -2 -10  -5   36.07    6.01
   2  10   6   51.75    7.15
  -2 -10  -6   39.28    6.38
  -2 -10  -7    8.28    2.88
  -3   9   6   -2.19    1.63
  -3   9   5    6.95    2.53
  -3   9   4   -0.37    0.90
  -3   9   3   79.25    8.32
  -3   9   2   12.12    3.27
  -3   9   1   44.44    6.14
  -3   9   0   18.98    3.98
  -3   9  -1    4.40    1.53
  -3   9  -2   68.75    7.84
  -3   9  -3    3.79    1.87
  -3   9  -4    9.89    3.15
  -3   9  -5    0.38    1.07
   3  -9   5   -1.19    0.95
  -3   8   9   14.67    4.02
  -3   8   8   19.55    5.33
  -3   8   7   13.40    3.58
  -3   8   6   38.27    5.67
   3  -8  -6   36.47    6.25
  -3   8   5   18.66    3.89
   3  -8  -5   14.88    3.66
  -3   8   4   68.94    7.37
   3  -8  -4   58.92    7.53
  -3   8   3  102.20    8.84
   3  -8  -3  108.22   10.11
  -3   8   2    2.56    1.43
   3  -8  -2    1.44    0.97
  -3   8   1   60.86    6.95
   3  -8  -1   64.98    7.71
  -3   8   0    5.14    1.92
   3  -8   0    0.50    0.89
  -3   8  -1    1.04    0.98
   3  -8   1    2.06    1.81
  -3   8  -2    0.48    0.52
   3  -8   2    1.10    1.36
   3  -8   3   67.57    8.01
  -3   8  -3   66.19    7.27
  -3   8  -4   12.52    3.17
   3  -8   4    7.30    2.08
   3  -8   4   11.01    3.34
   3  -8   5  217.87   12.79
   3  -8   5  238.39   15.37
  -3   8  -5  219.99   13.65
  -3   8  -6   31.42    5.24
   3  -8   6   30.74    4.92
  -3   8  -7   14.56    3.47
   3  -8   7   26.72    4.74
  -3   8  -8   42.02    6.28
   3  -8   8   36.33    5.62
  -3   7  11   13.07    3.70
  -3   7  10   49.60    6.72
  -3   7   9    7.80    2.45
   3  -7  -9    9.05    3.24
  -3   7   8   57.48    6.83
   3  -7  -8   66.70    7.95
  -3   7   7    8.13    2.44
   3  -7  -7    9.53    2.86
  -3   7   6  157.34   10.70
   3  -7  -6  146.35   11.31
  -3   7   5   24.03    4.01
   3  -7  -5   22.66    4.30
  -3   7   4   84.04    7.51
   3  -7  -4   96.29    8.86
  -3   7   3   26.39    4.25
   3  -7  -3   30.73    4.90
  -3   7   2   24.76    3.98
   3  -7  -2   23.54    4.22
  -3   7   1   90.78    7.58
   3  -7  -1  101.42    8.88
  -3   7   0   44.77    5.40
   3  -7   0   47.81    6.15
   3  -7   0   52.04    4.48
  -3   7  -1   23.43    3.89
   3  -7   1   23.81    4.25
   3  -7   1   27.36    3.11
  -3   7  -2  175.08   10.72
   3  -7   2  191.05   12.19
   3  -7   2  180.13    7.97
  -3   7  -3   17.65    3.47
   3  -7   3   18.40    3.91
   3  -7   3   27.01    3.97
   3  -7   3   22.13    2.80
  -3   7  -4   34.65    4.88
   3  -7   4   35.61    4.69
   3  -7   4   38.97    3.67
   3  -7   4   40.79    5.87
   3  -7   5   98.97    5.85
   3  -7   5   91.28    7.67
   3  -7   5   96.43    9.10
  -3   7  -5   89.25    8.01
   3  -7   6   17.49    3.53
   3  -7   6   17.87    2.53
  -3   7  -6   17.82    3.75
   3  -7   7   76.87    7.69
  -3   7  -7   76.38    7.79
   3  -7   8    7.79    2.79
  -3   7  -8    8.46    2.94
   3  -7   9  113.87    9.77
  -3   7  -9  115.57   10.16
   3  -7  10   10.01    3.02
  -3   7 -10    9.49    2.75
  -3   6  12   24.75    4.97
  -3   6  11    9.58    2.85
  -3   6  10    8.68    3.01
   3  -6 -10    7.99    2.65
  -3   6  10    8.51    2.36
  -3   6  10    6.34    2.02
  -3   6   9   95.55    8.54
   3  -6  -9   98.94    9.54
  -3   6   9   99.67    6.99
  -3   6   8   -0.41    0.94
  -3   6   8    1.03    0.72
   3  -6  -8   -0.63    0.85
  -3   6   8    0.75    0.33
  -3   6   7   14.73    3.23
   3  -6  -7   12.23    3.21
  -3   6   6   67.74    6.64
   3  -6  -6   79.97    7.73
  -3   6   5   -0.07    0.52
  -3   6   5    0.38    0.39
   3  -6  -5   -0.84    0.93
  -3   6   4   24.30    3.73
  -3   6   4   26.91    3.22
   3  -6  -4   25.09    4.16
   3  -6  -4   27.73    3.33
  -3   6   3   52.13    5.39
  -3   6   3   51.22    4.39
   3  -6  -3   42.24    5.35
   3  -6  -3   53.50    4.55
  -3   6   2  407.48   14.79
  -3   6   2  409.97   14.20
  -3   6   2  413.47   12.59
   3  -6  -2  450.94   17.06
   3  -6  -2  417.32   12.47
  -3   6   1  100.18    7.24
  -3   6   1  101.88    7.20
   3  -6  -1   99.77    6.25
   3  -6  -1   94.61    7.75
   3  -6  -1   96.94    5.98
  -3   6   0  226.09   10.86
  -3   6   0  237.36    6.29
   3  -6   0  237.93    9.39
   3  -6   0  226.22   11.99
   3  -6   0  240.65    9.50
  -3   6  -1    5.96    1.89
   3  -6   1   10.70    1.96
  -3   6  -1    8.92    1.45
   3  -6   1    9.57    2.59
   3  -6   1   14.30    3.67
  -3   6  -2   69.21    6.07
   3  -6   2   62.34    4.65
   3  -6   2   60.52    5.28
   3  -6   2   64.80    6.46
   3  -6   2   64.60    5.07
  -3   6  -3    2.07    1.01
   3  -6   3    0.77    0.83
   3  -6   3    3.24    1.25
   3  -6   3    2.61    1.34
  -3   6  -4    2.74    1.22
   3  -6   4    2.29    1.17
   3  -6   4    1.72    0.70
   3  -6   4    1.21    0.69
   3  -6   5   13.10    2.93
   3  -6   5   12.23    2.06
   3  -6   5   13.35    3.20
  -3   6  -5   31.02    4.49
   3  -6   6  130.58    9.33
  -3   6  -6  100.83    8.10
   3  -6   7   58.58    6.13
  -3   6  -7   69.26    6.86
   3  -6   8   67.95    7.02
  -3   6  -8   65.02    6.87
   3  -6   9    3.47    1.38
  -3   6  -9    1.68    0.80
   3  -6  10  121.81    9.99
  -3   6 -10  122.83   10.23
   3  -6  11   18.95    4.01
  -3   6 -11   15.90    3.65
  -3   6 -12   -0.65    0.94
  -3   5  13    1.26    0.79
  -3   5  12   23.22    3.72
   3  -5 -12   21.23    4.52
   3  -5 -11   42.43    6.35
  -3   5  11   51.49    5.34
  -3   5  10   -0.90    1.31
  -3   5  10    1.07    0.86
   3  -5 -10    0.55    0.46
  -3   5  10    0.77    0.96
  -3   5   9    1.14    1.16
  -3   5   9    0.56    0.45
  -3   5   9    2.10    1.14
   3  -5  -9   -0.45    1.07
  -3   5   9    0.10    0.10
  -3   5   8   88.73    5.90
  -3   5   8   63.55    6.49
   3  -5  -8   79.66    7.68
  -3   5   8   79.78    5.95
  -3   5   7   -0.68    0.90
  -3   5   7   -0.31    0.12
   3  -5  -7    1.19    1.08
  -3   5   7    0.50    0.65
  -3   5   6  144.16    8.91
  -3   5   6  146.39    7.00
   3  -5  -6  147.08    9.89
  -3   5   6  148.48    7.58
  -3   5   5   11.93    2.45
  -3   5   5    9.40    1.71
   3  -5  -5   12.58    2.74
  -3   5   4    5.23    1.61
  -3   5   4    4.64    1.11
   3  -5  -4    4.58    1.50
   3  -5  -4    6.41    1.55
  -3   5   3   13.62    2.57
  -3   5   3   15.04    2.52
  -3   5   3   16.50    2.27
   3  -5  -3   15.53    2.91
   3  -5  -3   13.49    2.30
  -3   5   2    2.12    0.92
   3  -5  -2    4.36    1.37
  -3   5   2    2.23    0.79
  -3   5   2    3.94    1.01
   3  -5  -2    3.00    1.16
   3  -5  -2    4.84    1.38
  -3   5   1  188.70    8.81
  -3   5   1  182.10    8.76
  -3   5   1  183.52    7.57
   3  -5  -1  182.22    8.16
  -3   5   1  187.84   10.05
   3  -5  -1  185.52    9.91
   3  -5  -1  179.35    7.87
  -3   5   0    8.57    1.89
  -3   5   0    9.40    1.37
  -3   5   0   11.22    2.18
   3  -5   0    9.44    1.99
   3  -5   0    9.28    2.12
  -3   5   0    9.55    2.36
   3  -5   0   12.02    2.13
  -3   5  -1   13.21    2.37
   3  -5   1   17.72    2.72
   3  -5   1   15.64    2.33
  -3   5  -1   13.97    2.50
  -3   5  -1   14.04    1.79
   3  -5   1   15.13    2.74
  -3   5  -1   13.25    2.82
   3  -5   1   13.96    2.26
  -3   5  -2    0.48    0.31
   3  -5   2    0.51    0.62
  -3   5  -2    0.75    0.69
   3  -5   2    1.67    0.64
   3  -5   2    1.41    0.86
   3  -5   2   -0.53    0.10
   3  -5   2    1.19    1.08
   3  -5   3   51.56    4.91
  -3   5  -3   42.82    4.56
   3  -5   3   44.36    3.76
   3  -5   3   43.18    4.20
   3  -5   3   47.30    5.07
  -3   5  -3   52.01    4.85
   3  -5   4  269.25   11.49
   3  -5   4  249.47   10.48
   3  -5   4  238.71    8.87
   3  -5   4  262.68   12.34
  -3   5  -4  267.94   11.33
  -3   5  -5   13.94    2.63
   3  -5   5   10.27    2.27
   3  -5   5   12.49    2.68
   3  -5   6  113.70    7.71
  -3   5  -6  119.21    8.08
   3  -5   7   65.89    6.09
  -3   5  -7   60.91    5.98
   3  -5   8   61.69    6.20
  -3   5  -8   57.87    6.02
  -3   5  -9    8.19    2.55
   3  -5   9    7.49    2.11
  -3   5 -10   36.82    5.24
   3  -5  10   34.04    4.94
   3  -5  10   31.28    4.94
  -3   5 -11   17.25    3.74
  -3   5 -11   18.71    2.98
   3  -5  11   16.43    3.58
   3  -5  11   15.43    3.58
  -3   5 -12    1.60    1.33
   3  -5  12    1.74    1.54
   3  -5  12    0.66    1.70
  -3   5 -12    2.07    0.97
  -3   5 -13   56.81    7.34
  -3   4  14    6.28    2.07
   3  -4 -13    3.20    2.15
  -3   4  13   23.86    4.20
   3  -4 -12    2.00    1.76
  -3   4  12   -1.01    1.09
  -3   4  11   14.40    3.16
   3  -4 -11   10.22    3.36
  -3   4  10   10.93    1.97
  -3   4  10   10.72    2.08
  -3   4  10    8.48    2.08
   3  -4 -10    9.54    2.74
  -3   4   9   94.55    5.73
  -3   4   9   89.94    6.08
   3  -4  -9   82.42    7.77
  -3   4   9   88.14    6.59
  -3   4   8   63.56    4.55
   3  -4  -8   56.38    4.28
   3  -4  -8   54.56    6.04
  -3   4   8   60.68    5.04
  -3   4   8   54.33    4.89
  -3   4   7  186.45    7.58
   3  -4  -7  164.29    6.93
   3  -4  -7  177.16   10.44
  -3   4   7  165.99    8.23
  -3   4   6   41.21    4.41
   3  -4  -6   43.31    3.31
   3  -4  -6   40.07    4.73
  -3   4   6   46.63    4.20
  -3   4   5    0.98    0.79
  -3   4   5    1.38    0.68
   3  -4  -5    1.62    0.72
  -3   4   5    2.12    1.15
  -3   4   5    2.72    0.99
  -3   4   4   55.23    4.66
  -3   4   4   56.24    4.82
  -3   4   4   52.88    3.52
   3  -4  -4   58.20    5.36
  -3   4   4   53.73    5.20
   3  -4  -4   51.16    4.41
  -3   4   4   52.99    4.17
  -3   4   3   84.25    5.58
  -3   4   3   87.23    5.76
  -3   4   3   89.87    4.48
   3  -4  -3  101.69    6.29
   3  -4  -3   86.68    6.38
  -3   4   3   83.96    6.36
   3  -4  -3   90.43    5.62
  -3   4   2   54.43    4.07
  -3   4   2   55.97    4.40
   3  -4  -2   56.65    4.52
  -3   4   2   56.68    3.50
   3  -4  -2   55.95    5.01
  -3   4   2   57.47    5.15
   3  -4  -2   60.11    4.46
  -3   4   1   42.92    3.77
  -3   4   1   41.72    3.63
  -3   4   1   44.54    3.18
   3  -4  -1   41.27    3.70
  -3   4   1   43.06    4.38
   3  -4  -1   46.00    4.53
   3  -4  -1   41.19    3.60
  -3   4   0  307.88    9.98
  -3   4   0  321.83   10.23
   3  -4   0  302.37    9.72
  -3   4   0  300.64    7.87
  -3   4   0  305.49   11.55
   3  -4   0  304.49   11.49
   3  -4   0  308.59    9.92
   3  -4   1   33.01    3.35
  -3   4  -1   33.83    3.38
  -3   4  -1   33.51    3.34
   3  -4   1   32.69    2.96
   3  -4   1   36.76    3.34
  -3   4  -1   35.34    3.91
   3  -4   1   32.75    3.73
   3  -4   1   38.84    3.54
  -3   4  -2  150.11    7.20
   3  -4   2  154.13    7.36
  -3   4  -2  163.09    7.71
   3  -4   2  157.18    6.78
   3  -4   2  156.94    6.81
  -3   4  -2  159.81    8.47
   3  -4   2  154.87    8.31
  -3   4  -3  209.88    9.09
   3  -4   3  208.71    8.79
   3  -4   3  205.56    7.81
   3  -4   3  208.58    8.31
  -3   4  -3  214.38   10.01
   3  -4   3  207.21    9.72
  -3   4  -3  214.57    8.84
  -3   4  -4   13.29    2.33
   3  -4   4   11.72    2.18
   3  -4   4   11.73    2.10
  -3   4  -4   12.08    2.16
  -3   4  -4   12.40    2.53
   3  -4   4    9.34    2.00
   3  -4   5  921.45   20.01
  -3   4  -5  937.67   20.87
   3  -4   5  895.19   19.01
   3  -4   5  897.51   21.49
  -3   4  -5  932.95   21.85
  -3   4  -5  919.64   19.75
   3  -4   6  146.11    8.12
   3  -4   6  149.38    8.71
   3  -4   6  137.06    7.99
  -3   4  -6  138.74    7.98
   3  -4   7    0.91    0.80
   3  -4   7    1.53    0.65
  -3   4  -7    0.94    0.95
   3  -4   8   43.35    4.96
   3  -4   8   44.75    5.30
  -3   4  -8   48.11    5.16
   3  -4   9  322.86   14.76
  -3   4  -9  315.29   13.90
  -3   4 -10    2.64    1.41
   3  -4  10    3.11    2.03
  -3   4 -10    1.56    1.27
   3  -4  11  106.06    9.18
  -3   4 -11   92.99    6.12
  -3   4 -11   98.00    8.52
  -3   4 -12    4.91    2.35
   3  -4  12    7.57    2.69
  -3   4 -12    5.33    1.45
   3  -4  13   24.07    4.76
  -3   4 -13   23.17    4.56
  -3   4 -14    4.18    2.11
  -3   3  14   16.66    3.50
   3  -3 -13   28.35    5.18
  -3   3  13   33.67    4.81
   3  -3 -12   33.51    5.29
  -3   3  12   44.53    5.32
   3  -3 -11  260.11   14.30
  -3   3  11  235.53   11.82
  -3   3  10   99.40    5.67
   3  -3 -10   92.24    8.19
  -3   3  10   91.04    7.05
  -3   3   9  184.46    7.38
   3  -3  -9  168.37   10.56
  -3   3   9  166.89    7.38
  -3   3   9  168.24    9.14
  -3   3   8   84.87    4.75
  -3   3   8   79.33    5.17
   3  -3  -8   76.78    6.80
  -3   3   8   76.32    5.82
  -3   3   7    4.23    1.08
  -3   3   7    4.73    1.40
   3  -3  -7    3.11    1.55
  -3   3   7    2.32    0.86
  -3   3   6  105.73    4.89
   3  -3  -6   89.51    5.21
   3  -3  -6   91.52    6.69
  -3   3   6   98.25    5.87
  -3   3   6   90.46    6.78
  -3   3   6   99.38    6.09
  -3   3   5  136.94    7.60
   3  -3  -5  136.13    6.00
   3  -3  -5  143.56    8.02
  -3   3   5  157.20    7.53
  -3   3   5  143.18    8.22
  -3   3   5  142.28    7.04
  -3   3   4   80.18    5.08
   3  -3  -4   87.39    4.56
  -3   3   4   89.73    5.91
  -3   3   4   85.43    3.85
   3  -3  -4   83.11    5.92
  -3   3   4   93.13    6.28
   3  -3  -4   85.93    5.54
  -3   3   4   90.06    5.39
  -3   3   3  150.91    6.66
   3  -3  -3  155.57    7.48
  -3   3   3  147.58    7.25
  -3   3   3  143.49    4.67
   3  -3  -3  137.17    7.35
  -3   3   3  140.53    7.40
  -3   3   3  140.68    6.54
   3  -3  -3  143.77    6.92
  -3   3   2  346.78    8.51
  -3   3   2  335.68    9.47
  -3   3   2  346.69   10.64
  -3   3   2  335.67    6.93
   3  -3  -2  337.48   10.55
   3  -3  -2  338.65   11.16
  -3   3   2  336.44   11.12
   3  -3  -2  342.25   10.39
  -3   3   1   46.49    3.23
  -3   3   1   43.04    3.34
   3  -3  -1   46.33    3.76
  -3   3   1   48.70    4.12
   3  -3  -1   46.03    4.02
   3  -3  -1   47.23    3.76
  -3   3   0  194.60    6.87
  -3   3   0  201.13    6.95
   3  -3   0  196.92    7.52
  -3   3   0  194.38    6.50
  -3   3   0  190.74    8.09
   3  -3   0  198.69    8.28
   3  -3   0  191.83    7.52
  -3   3  -1    0.24    0.36
   3  -3   1    0.43    0.38
  -3   3  -1    0.16    0.27
   3  -3   1    0.61    0.53
   3  -3   1    0.01    0.21
   3  -3   1    0.20    0.34
  -3   3  -1    0.72    0.65
   3  -3   1    0.09    0.31
  -3   3  -2  225.32    8.06
   3  -3   2  212.15    7.50
   3  -3   2  226.86    7.90
   3  -3   2  227.13    7.24
  -3   3  -2  232.41    9.10
   3  -3   2  223.54    8.89
  -3   3  -2  229.25    7.73
  -3   3  -3   50.13    4.02
   3  -3   3   51.37    3.91
   3  -3   3   52.65    3.70
   3  -3   3   52.79    4.42
  -3   3  -3   54.60    4.52
  -3   3  -3   53.59    3.89
   3  -3   4  190.35    8.45
  -3   3  -4  198.42    8.43
   3  -3   4  194.80    7.98
   3  -3   4  203.88    7.90
   3  -3   4  199.81    8.91
  -3   3  -4  198.14    8.87
  -3   3  -4  212.10    8.11
   3  -3   5  159.12    7.51
  -3   3  -5  157.08    7.82
   3  -3   5  165.54    8.19
  -3   3  -5  156.03    8.18
  -3   3  -5  155.65    7.34
  -3   3  -6  181.19    8.77
   3  -3   6  174.13    8.39
   3  -3   6  173.87    8.60
  -3   3  -6  174.96    8.99
  -3   3  -6  183.32    8.45
   3  -3   7   71.03    5.83
   3  -3   7   72.25    5.70
  -3   3  -7   73.75    5.89
  -3   3  -7   75.46    6.23
  -3   3  -7   68.28    5.49
   3  -3   8  178.95    9.74
   3  -3   8  176.96    9.36
  -3   3  -8  175.62    7.89
  -3   3  -8  167.16    9.07
  -3   3  -9    5.32    1.68
   3  -3   9    4.89    1.68
  -3   3  -9    4.48    1.24
   3  -3  10  143.93    9.51
  -3   3 -10  142.22    6.91
  -3   3 -10  144.06    9.35
   3  -3  11  130.63    9.40
  -3   3 -11  145.92    6.83
   3  -3  12   46.76    5.99
  -3   3 -12   56.58    6.82
   3  -3  13  120.91    9.88
  -3   3 -13  148.27   11.55
   3  -3  14   46.93    6.40
  -3   3 -14   37.55    6.02
   3  -2 -14    0.31    0.45
  -3   2  14    3.25    1.87
  -3   2  13   20.10    3.68
   3  -2 -13   16.80    3.82
  -3   2  12    4.00    1.80
   3  -2 -12    4.55    2.17
  -3   2  11   55.75    4.47
   3  -2 -11   47.82    5.88
  -3   2  11   46.53    5.32
  -3   2  10   58.99    4.25
   3  -2 -10   57.98    6.27
  -3   2  10   49.21    5.18
  -3   2   9   47.86    3.54
   3  -2  -9   44.97    5.26
  -3   2   9   42.83    4.65
   3  -2  -9   44.50    3.66
  -3   2   8   12.39    1.65
  -3   2   8   10.23    2.13
   3  -2  -8   12.92    2.86
   3  -2  -8   11.52    1.96
  -3   2   7    1.58    0.77
  -3   2   7    2.94    0.93
  -3   2   7    2.98    1.28
  -3   2   7   -0.03    0.40
   3  -2  -7    2.57    1.30
  -3   2   6  158.60    5.13
  -3   2   6  150.30    8.25
   3  -2  -6  160.24    8.34
  -3   2   6  158.21    6.71
  -3   2   6  153.50    7.69
  -3   2   5  213.12    5.43
  -3   2   5  223.62    9.49
  -3   2   5  209.73    7.83
   3  -2  -5  206.10    8.92
  -3   2   5  205.33    9.01
  -3   2   5  199.97    8.37
  -3   2   4  236.44    5.33
  -3   2   4  249.84    9.55
   3  -2  -4  231.02    7.87
   3  -2  -4  234.64    8.99
  -3   2   4  231.06    9.06
  -3   2   4  240.31    8.45
  -3   2   4  225.16    8.42
   3  -2  -3  467.73   12.63
  -3   2   3  475.22   12.60
  -3   2   3  451.67    6.50
   3  -2  -3  457.27   10.57
   3  -2  -3  463.87   12.06
  -3   2   3  480.63   11.98
  -3   2   3  473.95   12.22
  -3   2   3  461.73   11.65
   3  -2  -3  464.10   12.24
  -3   2   2  118.14    4.82
  -3   2   2  118.33    3.91
  -3   2   2  112.59    2.74
  -3   2   2  122.88    6.15
   3  -2  -2  120.02    5.20
   3  -2  -2  121.24    6.09
  -3   2   2  118.12    5.91
   3  -2  -2  120.79    5.88
  -3   2   2  110.46    5.57
  -3   2   2  114.73    5.63
   3  -2  -2  117.51    5.89
  -3   2   1  731.78   11.16
  -3   2   1  729.66   10.10
   3  -2  -1  749.82   14.58
   3  -2  -1  742.59   14.03
  -3   2   1  768.33   15.22
  -3   2   1  752.97   14.09
   3  -2  -1  737.84   14.33
  -3   2   1  734.98   13.95
  -3   2   0  173.74    5.32
  -3   2   0  184.11    5.37
   3  -2   0  177.90    6.87
  -3   2   0  179.10    6.30
  -3   2   0  176.03    6.64
   3  -2   0  174.80    6.64
   3  -2   0  181.69    6.94
  -3   2  -1   61.78    3.43
  -3   2  -1   63.30    3.19
   3  -2   1   65.50    3.30
   3  -2   1   57.15    3.82
   3  -2   1   61.00    2.83
  -3   2  -1   63.57    3.82
  -3   2  -1   60.64    3.93
   3  -2   1   61.35    3.92
   3  -2   1   60.11    3.99
  -3   2  -2  708.28   12.62
   3  -2   2  717.45   11.56
   3  -2   2  760.53   13.28
   3  -2   2  729.08   11.02
  -3   2  -2  726.88   13.88
   3  -2   2  728.54   13.74
  -3   2  -2  753.48   11.64
   3  -2   3  801.34   14.46
   3  -2   3  760.23   12.76
  -3   2  -3  758.30   13.89
  -3   2  -3  825.20   15.82
   3  -2   3  801.52   15.03
  -3   2  -3  797.42   15.03
  -3   2  -3  804.30   12.84
   3  -2   4   29.23    2.93
   3  -2   4   32.27    2.84
  -3   2  -4   28.54    2.89
  -3   2  -4   37.26    3.43
  -3   2  -4   28.11    2.94
  -3   2  -4   31.41    2.74
   3  -2   5  417.97   11.01
  -3   2  -5  392.59   11.47
   3  -2   5  422.67   11.89
  -3   2  -5  413.31   11.11
  -3   2  -5  423.52   12.20
  -3   2  -5  407.13   10.80
  -3   2  -6  113.65    6.53
   3  -2   6  118.12    6.64
  -3   2  -6  117.66    5.92
  -3   2  -6  121.65    6.85
   3  -2   6  118.97    6.33
  -3   2  -6  115.66    6.19
  -3   2  -7  108.12    6.75
   3  -2   7  117.26    7.10
  -3   2  -7  115.18    7.07
  -3   2  -7  104.71    5.54
   3  -2   7  111.59    6.55
  -3   2  -7  108.53    6.42
   3  -2   8    7.36    1.85
  -3   2  -8    6.34    1.74
   3  -2   8   11.43    2.95
  -3   2  -8    8.15    2.02
  -3   2  -8    6.26    1.50
  -3   2  -8    8.70    2.08
   3  -2   9  303.55   12.38
  -3   2  -9  307.27    9.17
   3  -2   9  313.51   12.44
   3  -2  10    0.80    0.84
   3  -2  10    0.96    1.08
  -3   2 -10    1.29    1.33
   3  -2  11   99.30    7.87
  -3   2 -11   99.08    8.27
   3  -2  11   95.83    5.26
   3  -2  12   15.68    3.34
   3  -2  12   14.15    2.00
  -3   2 -12   12.55    3.18
   3  -2  13    3.74    1.99
  -3   2 -13    1.69    0.91
   3  -2  14   47.70    6.21
  -3   2 -14   46.65    6.45
   3  -2  15   29.99    5.09
  -3   2 -15   28.70    5.49
  -3   1  14   22.23    4.13
   3  -1 -14   20.54    4.52
   3  -1 -13    1.37    0.69
  -3   1  13    0.86    0.86
  -3   1  12    6.30    1.68
   3  -1 -12    4.60    1.82
  -3   1  12    6.81    2.09
  -3   1  11  100.18    5.96
   3  -1 -11   73.23    7.21
  -3   1  11   82.48    7.17
  -3   1  10    0.69    0.64
   3  -1 -10    1.25    1.17
  -3   1  10    0.77    0.44
  -3   1   9   36.93    3.14
   3  -1  -9   29.02    4.04
  -3   1   9   36.16    4.27
   3  -1  -9   35.96    3.15
  -3   1   8   41.87    3.06
  -3   1   8   41.67    4.69
   3  -1  -8   39.85    4.50
  -3   1   8   34.42    4.02
   3  -1  -8   41.76    3.41
  -3   1   8   39.80    4.30
  -3   1   7    8.28    1.26
  -3   1   7    8.00    1.83
   3  -1  -7    8.17    1.52
  -3   1   7    6.31    1.50
   3  -1  -7    6.69    1.76
  -3   1   7    7.59    1.87
  -3   1   6  110.41    3.90
  -3   1   6  112.76    6.91
   3  -1  -6  113.01    6.58
  -3   1   6  104.97    6.48
   3  -1  -6  106.85    5.36
  -3   1   6  102.03    6.29
  -3   1   6  111.49    6.17
  -3   1   5   72.94    2.67
  -3   1   5   76.94    5.40
  -3   1   5   81.71    5.38
   3  -1  -5   77.04    5.07
  -3   1   5   81.87    4.84
  -3   1   5   76.71    5.21
   3  -1  -5   74.30    4.46
  -3   1   4  578.57    5.77
  -3   1   4  649.21   14.97
  -3   1   4  622.13   13.73
   3  -1  -4  617.60   13.40
  -3   1   4  591.70   11.90
   3  -1  -4  588.14   12.60
  -3   1   4  600.57   13.88
  -3   1   3  247.32    8.77
   3  -1  -3  247.67    8.83
   3  -1  -3  243.35    8.09
  -3   1   3  239.00    7.56
   3  -1  -3  244.39    7.83
  -3   1   3  240.87    7.77
  -3   1   3  249.87    8.43
   3  -1  -3  249.49    8.78
   3  -1  -2    1.89    0.68
   3  -1  -2    2.27    0.81
  -3   1   2    2.33    0.89
  -3   1   2    1.81    0.73
   3  -1  -2    1.45    0.48
  -3   1   2    2.14    0.75
  -3   1   2    3.58    0.90
   3  -1  -2    2.36    0.91
  -3   1   1  196.37    3.26
  -3   1   1  203.76    4.53
  -3   1   1  205.01    7.38
   3  -1  -1  214.79    7.47
   3  -1  -1  203.72    6.87
   3  -1  -1  219.58    6.28
  -3   1   1  212.36    6.17
  -3   1   1  204.67    7.05
  -3   1   1  215.96    7.34
   3  -1  -1  209.46    7.41
  -3   1   0 1422.44   11.54
  -3   1   0 1505.07   10.56
   3  -1   0 1565.18   19.52
  -3   1   0 1578.94   18.84
  -3   1   0 1562.21   16.03
   3  -1   0 1607.38   16.16
  -3   1   0 1446.68   18.75
  -3   1   0 1577.17   19.33
   3  -1   0 1562.44   19.46
   3  -1   1  338.54    6.85
  -3   1  -1  302.11    6.33
   3  -1   1  324.61    5.08
   3  -1   1  329.78    8.81
  -3   1  -1  334.05    8.73
  -3   1  -1  323.95    7.35
  -3   1  -1  316.32    8.79
   3  -1   1  321.11    7.40
  -3   1  -1  339.94    5.09
   3  -1   1  330.30    8.91
  -3   1  -2  546.93    9.71
   3  -1   2  596.91    8.08
   3  -1   2  609.62   10.17
  -3   1  -2  558.67   11.70
   3  -1   2  611.18   10.22
  -3   1  -2  592.59   10.32
   3  -1   2  599.82   12.09
  -3   1  -2  601.87    7.95
   3  -1   3    9.69    1.18
  -3   1  -3    7.55    1.07
  -3   1  -3    7.93    1.25
   3  -1   3    7.53    1.24
  -3   1  -3   10.20    1.62
  -3   1  -3    7.50    1.22
   3  -1   4  547.68   11.56
  -3   1  -4  518.56   11.40
  -3   1  -4  580.13   11.75
  -3   1  -4  527.35   11.19
   3  -1   4  552.92   10.29
  -3   1  -4  550.39   10.23
   3  -1   5   47.12    3.67
  -3   1  -5   44.67    3.65
  -3   1  -5   46.90    3.31
  -3   1  -5   48.45    3.67
   3  -1   5   47.65    3.34
  -3   1  -5   45.85    3.28
   3  -1   6    0.82    0.59
  -3   1  -6    2.38    1.05
   3  -1   6    3.46    1.22
  -3   1  -6    2.59    0.92
  -3   1  -6    2.33    0.83
   3  -1   6    0.38    0.31
   3  -1   7   91.33    5.89
  -3   1  -7   90.81    5.93
  -3   1  -7   95.62    6.00
   3  -1   7   94.21    4.91
   3  -1   7   93.48    5.66
   3  -1   8  110.38    6.81
  -3   1  -8  111.98    6.93
  -3   1  -8  120.59    7.31
   3  -1   8  114.36    5.41
   3  -1   8  110.22    6.60
   3  -1   9  122.56    7.59
  -3   1  -9  111.62    7.49
   3  -1   9  115.62    5.45
   3  -1   9  121.73    7.45
   3  -1  10  239.37   11.18
  -3   1 -10  228.89   11.44
   3  -1  10  242.24    7.96
   3  -1  11  395.64   15.00
  -3   1 -11  354.81   14.71
   3  -1  11  406.85   10.20
   3  -1  12   11.89    2.78
  -3   1 -12   13.50    3.07
   3  -1  13   63.77    6.60
  -3   1 -13   56.27    6.54
   3  -1  14    1.76    1.47
  -3   1 -14    2.19    1.24
   3  -1  15   51.32    6.52
  -3   1 -15   47.80    6.55
   3  -1  16   44.17    6.29
  -3   1 -16   48.57    7.11
   3   0 -14    9.85    3.01
   3   0 -13   18.58    4.41
  -3   0  13   15.91    4.39
  -3   0  12   62.43    5.21
   3   0 -12   49.35    6.22
  -3   0  12   65.18    6.91
  -3   0  11  108.88    6.50
   3   0 -11  100.93    8.46
  -3   0  11   99.76    8.24
  -3   0  10    2.95    1.07
  -3   0  10    5.54    2.05
   3   0 -10    3.19    1.42
  -3   0   9   65.77    4.44
   3   0  -9   65.53    6.07
  -3   0   9   70.86    6.25
  -3   0   8   53.78    3.61
   3   0  -8   53.03    5.08
  -3   0   8   52.97    4.94
  -3   0   8   55.74    5.24
  -3   0   7  184.41    6.11
   3   0  -7  193.54    9.28
  -3   0   7  198.03    8.92
  -3   0   7  199.88    9.66
  -3   0   6    0.92    0.71
  -3   0   6    1.57    0.97
  -3   0   6    4.80    1.56
   3   0  -6   -0.14    0.05
   3   0  -6    3.48    1.87
  -3   0   6    1.06    1.09
  -3   0   6    1.74    2.06
  -3   0   5  104.23    3.45
  -3   0   5  111.77    6.36
  -3   0   5  123.07    6.48
   3   0  -5  116.14    6.24
  -3   0   5  143.95    6.51
  -3   0   5  111.67    6.56
   3   0  -5  114.76    5.49
  -3   0   4   59.65    4.37
  -3   0   4   55.98    3.82
   3   0  -4   55.68    3.77
   3   0  -4   54.39    3.67
  -3   0   4   50.64    3.39
  -3   0   4   52.48    4.08
  -3   0   3  652.44    8.22
   3   0  -3  671.11   13.97
  -3   0   3  643.14   13.62
  -3   0   3  596.10   11.03
   3   0  -3  675.74   12.48
   3   0  -3  641.26   11.41
  -3   0   3  648.62   10.72
  -3   0   3  638.76   13.55
   3   0  -3  615.67   12.26
  -3   0   2  145.18    6.14
  -3   0   2  147.23    2.96
   3   0  -2  147.35    6.19
   3   0  -2  144.84    6.24
   3   0  -2  148.07    5.74
  -3   0   2  145.88    4.79
   3   0  -2  146.86    4.76
  -3   0   2  143.13    4.09
  -3   0   2  140.88    6.00
   3   0  -2  142.62    6.26
   3   0  -2  146.35    5.94
  -3   0   1  732.17   13.22
   3   0  -1  711.06   13.33
   3   0  -1  743.38   13.33
  -3   0   1  733.90    9.08
   3   0  -1  736.83    8.99
   3   0  -1  701.46   12.56
  -3   0   1  731.91   13.11
   3   0  -1  744.64   13.53
   3   0  -1  696.22   12.79
  -3   0   1  725.12    6.80
   3   0   0  981.09    7.52
   3   0   0  996.73   15.42
   3   0   0 1012.68   15.01
  -3   0   0 1034.19   15.67
  -3   0   0 1001.29    8.81
   3   0   0  954.79   14.52
   3   0   0  983.78    9.01
  -3   0   0 1011.33   14.98
   3   0   0 1015.36   15.18
   3   0   0  948.07   14.76
   3   0   1   23.58    1.53
  -3   0  -1   21.52    1.52
  -3   0  -1   22.29    2.29
  -3   0  -1   22.92    1.29
   3   0   1   37.88    2.98
   3   0   1   24.04    1.31
   3   0   1   36.45    3.35
   3   0   1   25.03    2.36
   3   0   2   84.97    3.43
  -3   0  -2   88.21    3.65
   3   0   2   84.29    4.31
  -3   0  -2   88.57    2.98
   3   0   2   89.50    2.24
   3   0   2   87.25    4.37
   3   0   2   93.48    4.63
   3   0   3  138.59    5.16
  -3   0  -3   50.24    3.13
   3   0   3  182.01    6.20
  -3   0  -3   41.14    2.39
   3   0   3   41.53    2.11
   3   0   3  174.95    6.40
  -3   0  -4   34.01    3.60
  -3   0  -4   13.75    1.59
   3   0   4   38.87    2.91
   3   0   4   13.73    1.47
   3   0   5  211.95    7.49
  -3   0  -5  191.41    7.30
   3   0   5  208.98    6.83
  -3   0  -5  205.29    7.03
   3   0   5  202.97    6.58
   3   0   5  209.46    7.01
   3   0   6  873.45   16.41
  -3   0  -6  824.54   16.39
  -3   0  -6  817.07   15.45
   3   0   6  808.77   14.74
   3   0   6  837.29   14.07
   3   0   7   66.37    4.86
  -3   0  -7   60.39    4.81
  -3   0  -7   58.23    4.43
   3   0   7   65.65    4.60
   3   0   7   66.03    4.09
  -3   0  -8  872.18   18.83
   3   0   8  888.06   18.64
  -3   0  -8  822.55   17.91
   3   0   8  882.00   18.34
   3   0   8  908.72   14.97
   3   0   9  127.05    7.39
  -3   0  -9  128.39    7.64
  -3   0  -9  128.62    7.66
   3   0   9  130.71    5.59
   3   0   9  129.28    7.50
   3   0  10  203.54    9.99
  -3   0 -10  192.20   10.05
   3   0  10  207.90   10.25
   3   0  11    8.86    2.30
  -3   0 -11    3.94    1.73
   3   0  12   24.58    3.93
  -3   0 -12   24.61    4.14
   3   0  13   22.64    4.06
  -3   0 -13   16.06    3.41
   3   0  14   49.39    5.97
  -3   0 -14   39.58    5.79
   3   0  15   19.89    4.25
  -3   0 -15   16.26    3.85
   3   0  16  129.36   10.59
  -3   0 -16  125.63   11.13
   3   1 -14   81.62    8.78
   3   1 -13   38.71    5.66
  -3  -1  13   34.23    5.31
  -3  -1  12   86.82    6.61
   3   1 -12   83.98    8.10
  -3  -1  12   92.82    8.20
  -3  -1  11  124.12    7.38
   3   1 -11  116.73    9.00
  -3  -1  11  115.44    8.84
  -3  -1  10  131.15    7.14
   3   1 -10  155.53    7.52
   3   1 -10  138.19    9.28
  -3  -1  10  133.90    9.05
  -3  -1   9   59.54    4.53
   3   1  -9   64.79    4.55
   3   1  -9   62.87    5.84
  -3  -1   9   62.99    5.92
  -3  -1   8  130.50    6.19
   3   1  -8  130.49    5.90
   3   1  -8  127.59    7.82
  -3  -1   8  125.79    7.71
  -3  -1   8  122.52    7.85
   3   1  -7   66.25    3.88
  -3  -1   7   67.64    4.10
  -3  -1   7   72.53    5.49
   3   1  -7   66.96    5.27
   3   1  -7   69.87    3.87
  -3  -1   7   70.08    5.66
  -3  -1   7   69.69    5.35
   3   1  -6   91.14    4.11
  -3  -1   6   92.23    4.36
  -3  -1   6   96.89    6.03
   3   1  -6   88.64    5.63
   3   1  -6   82.33    4.18
  -3  -1   6   90.62    6.07
  -3  -1   6   93.94    5.72
   3   1  -5  359.39    7.36
  -3  -1   5  363.25    9.40
  -3  -1   5  385.84   11.43
   3   1  -5  358.91   10.40
   3   1  -5  362.99    8.68
  -3  -1   5  355.42   10.26
  -3  -1   5  370.95   11.68
   3   1  -4  453.98    7.21
  -3  -1   4  471.32    9.71
  -3  -1   4  499.86   12.26
   3   1  -4  444.63   10.47
   3   1  -4  454.36    9.66
  -3  -1   4  461.64   10.67
  -3  -1   4  488.38   12.61
   3   1  -3  729.30    7.80
   3   1  -3  748.10   14.43
  -3  -1   3  760.51   11.21
  -3  -1   3  782.50   14.46
   3   1  -3  721.42   11.73
   3   1  -3  730.84   12.24
  -3  -1   3  771.75   14.88
  -3  -1   3  742.32   12.07
  -3  -1   3  726.93   12.65
   3   1  -2  187.54    3.61
  -3  -1   2  194.79    6.83
  -3  -1   2  193.32    5.11
   3   1  -2  188.91    6.78
   3   1  -2  198.31    5.20
  -3  -1   2  191.36    5.32
  -3  -1   2  206.93    7.28
   3   1  -2  190.10    5.20
  -3  -1   2  186.19    6.38
  -3  -1   1  126.17    3.67
  -3  -1   1  141.72    5.57
   3   1  -1  124.53    3.78
   3   1  -1  136.83    5.50
   3   1  -1  127.71    5.87
   3   1  -1  125.42    3.30
   3   1  -1  131.63    3.61
   3   1  -1  130.54    5.61
  -3  -1   1  128.96    5.42
  -3  -1   1  125.67    5.25
   3   1  -1  130.69    5.72
   3   1   0  306.77    7.92
   3   1   0  289.56    5.65
   3   1   0  297.53    8.71
  -3  -1   0  281.07    4.43
   3   1   0  287.11    8.25
  -3  -1   0  296.58    7.87
   3   1   0  297.81    8.08
   3   1   0  309.99    4.52
  -3  -1   0  283.53    7.86
  -3  -1  -1    5.34    1.15
   3   1   1    4.60    0.75
   3   1   1    4.95    0.55
  -3  -1  -1    5.77    1.19
   3   1   1    5.35    1.13
   3   1   1    3.87    0.91
  -3  -1  -1    5.28    0.98
  -3  -1  -2    3.52    0.98
   3   1   2    2.09    0.63
   3   1   2    2.25    0.48
   3   1   2    2.71    0.80
  -3  -1  -2    4.08    0.98
   3   1   2    4.33    1.05
   3   1   3  232.03    6.60
  -3  -1  -3  234.50    4.85
   3   1   3  234.21    7.50
   3   1   3  235.09    6.89
  -3  -1  -3  212.12    6.91
   3   1   4  216.58    6.92
  -3  -1  -4  204.67    5.63
   3   1   4  199.56    7.01
  -3  -1  -4  185.83    6.45
   3   1   5  221.03    7.66
  -3  -1  -5  218.51    7.60
  -3  -1  -5  217.67    6.78
  -3  -1  -5  225.84    7.04
   3   1   6  971.29   17.29
  -3  -1  -6  944.04   17.08
  -3  -1  -6  950.11   15.92
   3   1   6  950.16   13.83
  -3  -1  -6  925.59   14.19
   3   1   7  857.59   17.28
  -3  -1  -7  853.01   17.17
  -3  -1  -7  817.52   16.28
   3   1   7  829.84   12.97
   3   1   8  638.23   15.62
  -3  -1  -8  619.91   15.60
  -3  -1  -8  585.38   14.88
   3   1   8  623.64   11.29
   3   1   8  644.71   15.66
   3   1   9   48.07    4.56
  -3  -1  -9   56.45    4.96
  -3  -1  -9   50.68    4.70
   3   1   9   52.93    3.32
   3   1   9   46.08    4.55
   3   1  10   57.24    5.28
  -3  -1 -10   63.51    5.62
   3   1  10   62.80    5.57
   3   1  11   78.95    6.52
  -3  -1 -11   71.19    6.46
   3   1  12  116.60    8.20
  -3  -1 -12  104.84    8.18
   3   1  13  256.37   12.84
  -3  -1 -13  224.15   12.62
   3   1  14  209.25   12.06
  -3  -1 -14  224.36   13.28
   3   1  15   49.25    6.26
  -3  -1 -15   48.77    6.53
   3   1  16   68.25    7.64
  -3  -1 -16   72.01    8.30
  -3  -2  15   -0.70    1.18
  -3  -2  14    6.65    2.08
   3   2 -14    4.82    2.57
  -3  -2  13   50.14    6.10
   3   2 -13   41.65    5.97
  -3  -2  12    3.89    1.27
  -3  -2  12    8.64    2.33
   3   2 -12    7.33    2.03
  -3  -2  11    0.69    1.12
  -3  -2  11    2.07    1.48
   3   2 -11    2.91    1.65
   3   2 -10    2.18    1.20
  -3  -2  10    1.11    0.88
  -3  -2  10    0.03    0.67
   3   2 -10    1.96    1.27
   3   2  -9  155.10    7.53
  -3  -2   9  162.07    8.93
   3   2  -9  145.70    9.22
   3   2  -9  163.25    5.67
   3   2  -8   35.38    3.36
  -3  -2   8   39.62    4.23
   3   2  -8   39.58    4.58
   3   2  -8   36.06    2.73
  -3  -2   8   38.86    4.50
   3   2  -7  154.85    6.56
  -3  -2   7  148.50    7.81
  -3  -2   7  153.94    7.80
   3   2  -7  154.05    8.26
   3   2  -7  151.45    5.62
  -3  -2   7  154.91    8.32
  -3  -2   7  148.70    5.81
   3   2  -6  171.73    6.43
  -3  -2   6  177.78    7.82
  -3  -2   6  175.13    7.95
   3   2  -6  171.79    8.07
  -3  -2   6  169.77    8.10
   3   2  -6  171.15    8.09
  -3  -2   6  181.50    6.46
  -3  -2   6  174.43    8.51
   3   2  -5   52.88    3.35
  -3  -2   5   53.62    4.01
  -3  -2   5   48.14    3.93
   3   2  -5   49.32    3.97
  -3  -2   5   53.80    4.22
   3   2  -5   55.45    4.28
  -3  -2   5   52.05    3.50
  -3  -2   5   52.12    4.41
   3   2  -4   44.93    2.89
  -3  -2   4   40.47    3.37
  -3  -2   4   48.49    3.59
   3   2  -4   39.12    3.22
   3   2  -4   43.28    3.51
  -3  -2   4   46.39    3.70
  -3  -2   4   45.08    3.87
  -3  -2   4   44.43    3.26
  -3  -2   3   88.26    4.67
   3   2  -3   91.20    3.94
  -3  -2   3   87.20    4.65
  -3  -2   3   91.57    4.62
   3   2  -3   96.63    4.63
   3   2  -3   91.42    4.51
   3   2  -3   96.07    4.78
  -3  -2   3   93.41    5.23
  -3  -2   3   98.50    5.04
   3   2  -2   71.54    3.50
  -3  -2   2   79.42    4.01
  -3  -2   2   73.30    3.98
  -3  -2   2   76.28    3.94
   3   2  -2   72.67    4.04
   3   2  -2   75.18    3.61
  -3  -2   2   81.41    4.62
  -3  -2   2   77.52    4.46
   3   2  -2   79.22    3.94
  -3  -2   1  166.28    5.34
   3   2  -1  159.94    5.46
   3   2  -1  162.51    5.76
   3   2  -1  158.87    6.80
   3   2  -1  157.51    4.47
  -3  -2   1  159.63    6.05
   3   2  -1  156.52    5.11
  -3  -2   1  169.31    6.63
   3   2   0  437.10    8.07
  -3  -2   0  429.86    8.07
   3   2   0  440.49   10.87
   3   2   0  437.15    9.00
   3   2   0  439.18    8.93
   3   2   0  432.59    6.35
  -3  -2   0  428.34    9.17
   3   2   0  432.02    9.48
  -3  -2   0  450.50   10.70
   3   2   1    0.54    0.34
  -3  -2  -1    0.69    0.42
  -3  -2  -1    0.81    0.45
   3   2   1    0.22    0.29
  -3  -2  -1    0.73    0.25
  -3  -2  -1   -1.06    0.58
   3   2   1    0.30    0.14
   3   2   1    0.97    0.29
   3   2   2  531.17    9.02
  -3  -2  -2  507.92   11.52
  -3  -2  -2  537.67    7.03
   3   2   2  521.27    6.86
   3   2   2  516.12    9.37
  -3  -2  -2  514.78   11.36
  -3  -2  -3    0.79    0.79
   3   2   3    0.38    0.43
   3   2   3    0.41    0.25
  -3  -2  -3    0.69    0.27
   3   2   3    0.40    0.06
   3   2   4   87.29    4.58
   3   2   4   82.74    3.81
  -3  -2  -4   84.13    3.79
  -3  -2  -4  102.83    5.19
   3   2   5  126.61    6.07
   3   2   5  114.57    5.12
  -3  -2  -5  111.64    4.96
  -3  -2  -5  124.04    5.65
   3   2   6  113.84    6.06
   3   2   6  111.26    5.57
  -3  -2  -6  121.67    5.73
  -3  -2  -6  122.30    5.65
   3   2   7  116.04    6.52
   3   2   7  120.20    6.42
  -3  -2  -7  128.52    6.46
  -3  -2  -7  133.09    5.76
   3   2   8  168.98    8.27
  -3  -2  -8  151.54    7.63
   3   2   8  148.78    7.79
  -3  -2  -8  154.05    6.09
   3   2   9   42.86    4.31
  -3  -2  -9   45.81    4.65
   3   2   9   45.56    4.70
  -3  -2  -9   38.55    3.01
   3   2  10   75.50    6.09
   3   2  10   79.61    6.55
  -3  -2 -10   68.79    6.14
  -3  -2 -10   72.21    4.04
   3   2  11  411.13   14.89
   3   2  11  413.37    9.04
  -3  -2 -11  388.15   14.87
   3   2  12  165.13    9.85
  -3  -2 -12  149.85    9.95
   3   2  12  169.85    5.72
   3   2  13   98.05    8.01
  -3  -2 -13   79.58    7.50
   3   2  14  120.27    9.22
  -3  -2 -14  112.13    9.38
   3   2  15    2.91    1.74
  -3  -2 -15    3.23    1.63
   3   2  16   35.83    5.53
  -3  -2 -16   36.54    6.03
  -3  -3  14    5.58    2.20
   3   3 -14    3.68    2.04
  -3  -3  13    5.16    2.03
   3   3 -13    8.47    2.66
  -3  -3  12   22.73    4.20
   3   3 -12   25.52    4.81
  -3  -3  11   73.13    6.99
   3   3 -11   81.50    7.91
  -3  -3  10   20.82    3.51
   3   3 -10   28.08    4.43
   3   3  -9   87.36    6.01
  -3  -3   9   85.36    6.84
   3   3  -9   84.68    7.17
  -3  -3   9   88.96    4.56
   3   3  -8    3.31    1.06
  -3  -3   8    2.49    1.31
   3   3  -8    5.41    1.67
  -3  -3   8    3.83    1.00
   3   3  -8    5.20    1.75
   3   3  -7   63.11    4.61
  -3  -3   7   60.94    5.23
  -3  -3   7   61.98    4.89
   3   3  -7   68.11    5.73
   3   3  -7   67.31    5.71
  -3  -3   7   66.01    5.68
   3   3  -7   68.83    5.77
  -3  -3   7   63.31    4.17
  -3  -3   6   56.49    4.97
   3   3  -6   53.08    4.10
  -3  -3   6   54.53    4.74
  -3  -3   6   52.74    4.26
   3   3  -6   57.36    4.94
   3   3  -6   60.25    5.07
   3   3  -6   53.70    4.82
  -3  -3   6   57.42    4.10
  -3  -3   5   16.22    2.55
   3   3  -5   11.04    2.04
   3   3  -5   13.03    1.90
  -3  -3   5   13.36    2.02
  -3  -3   5   13.77    2.28
   3   3  -5   13.58    2.20
  -3  -3   5   14.31    2.05
   3   3  -4    3.70    1.16
  -3  -3   4    3.50    1.05
  -3  -3   4    3.41    1.07
   3   3  -4    3.67    1.09
  -3  -3   4    3.03    1.07
   3   3  -4    3.66    1.20
  -3  -3   4    3.28    1.13
  -3  -3   3  292.82    9.58
   3   3  -3  287.77    8.74
  -3  -3   3  280.96    7.98
  -3  -3   3  300.96    9.62
   3   3  -3  290.02    8.95
   3   3  -3  308.23    9.63
  -3  -3   3  292.79    9.49
   3   3  -2    0.85    0.72
  -3  -3   2    0.62    0.26
  -3  -3   2    0.29    0.27
   3   3  -2    0.80    0.53
   3   3  -2    1.50    0.85
  -3  -3   2   -0.08    0.14
   3   3  -2    0.79    0.38
  -3  -3   2    0.86    0.53
  -3  -3   1  464.11   10.87
   3   3  -1  456.17   10.97
   3   3  -1  461.14    9.16
  -3  -3   1  453.38   10.97
   3   3  -1  455.25    9.59
   3   3  -1  471.04   10.75
  -3  -3   1  449.37   10.18
   3   3   0  411.71    9.74
  -3  -3   0  403.48    9.65
   3   3   0  392.06   10.62
   3   3   0  399.30   10.14
   3   3   0  385.70    8.05
   3   3   0  391.90    8.28
  -3  -3   0  394.17    8.33
  -3  -3   0  388.61    8.84
   3   3   1    5.73    1.18
  -3  -3  -1    5.13    1.03
   3   3   1    5.44    1.25
   3   3   1    6.50    1.32
   3   3   1    6.24    1.05
  -3  -3  -1    6.49    1.05
  -3  -3  -1    5.88    0.99
   3   3   1    5.68    1.05
   3   3   2  145.05    5.75
  -3  -3  -2  145.53    6.27
   3   3   2  141.34    4.89
  -3  -3  -2  145.01    5.03
  -3  -3  -2  144.28    4.76
   3   3   2  138.57    4.73
   3   3   3   38.77    3.09
  -3  -3  -3   35.77    3.10
   3   3   3   32.71    2.49
  -3  -3  -3   34.90    2.57
   3   3   3   31.01    2.17
   3   3   4   78.04    4.58
  -3  -3  -4   66.86    4.27
  -3  -3  -4   73.07    4.06
   3   3   4   72.68    4.03
   3   3   4   67.17    3.26
  -3  -3  -5    2.83    0.86
   3   3   5    3.74    1.00
   3   3   6  679.59   15.35
   3   3   6  652.15   14.42
  -3  -3  -6  682.56   14.35
   3   3   7   69.57    5.17
   3   3   7   69.31    5.14
  -3  -3  -7   70.89    5.00
   3   3   8  534.75   15.34
   3   3   8  506.26   14.75
  -3  -3  -8  488.08   14.03
   3   3   9   65.51    5.53
   3   3   9   71.34    5.81
  -3  -3  -9   64.37    5.42
  -3  -3  -9   65.18    4.36
   3   3  10   29.83    3.85
   3   3  10   27.82    3.86
  -3  -3 -10   33.97    3.17
  -3  -3 -10   26.12    3.62
   3   3  11   29.63    4.08
  -3  -3 -11   28.18    4.04
  -3  -3 -11   24.38    2.59
   3   3  12   12.45    2.82
  -3  -3 -12   13.99    1.92
  -3  -3 -12   14.10    3.12
   3   3  13    6.19    2.17
  -3  -3 -13    9.00    1.44
  -3  -3 -13   10.80    2.72
   3   3  14   48.61    5.86
  -3  -3 -14   33.49    5.15
   3   3  15   -0.67    1.13
  -3  -3 -15    1.32    1.01
   3   3  16  121.54   10.14
  -3  -3 -16  118.23   10.62
  -3  -4  13    2.64    1.50
   3   4 -13    0.08    0.78
  -3  -4  12   38.86    6.60
   3   4 -12   28.39    5.13
  -3  -4  11    7.52    2.48
   3   4 -11   11.74    3.13
  -3  -4  10   34.62    5.08
   3   4 -10   36.15    5.25
   3   4 -10   34.72    4.88
  -3  -4  10   37.39    3.17
  -3  -4   9   14.05    3.02
   3   4  -9   10.94    2.61
  -3  -4   9   15.62    2.16
   3   4  -9    9.20    2.38
   3   4  -8    5.70    1.65
  -3  -4   8    3.58    1.46
  -3  -4   8    6.21    1.76
   3   4  -8    7.89    2.18
  -3  -4   8    7.11    1.65
   3   4  -8    6.38    2.00
  -3  -4   7  128.69    8.30
  -3  -4   7  129.91    7.00
   3   4  -7  133.87    7.52
  -3  -4   7  139.19    6.88
   3   4  -7  122.87    8.23
  -3  -4   6   15.91    2.93
   3   4  -6   16.75    2.85
   3   4  -6   15.03    2.44
  -3  -4   6   14.59    2.19
  -3  -4   6   19.31    3.01
   3   4  -6   22.86    3.29
  -3  -4   5  199.05    9.61
   3   4  -5  196.18    8.54
  -3  -4   5  186.48    9.15
  -3  -4   5  192.21    7.37
   3   4  -5  198.26    9.19
   3   4  -5  192.12    9.29
   3   4  -4  121.63    6.62
  -3  -4   4  134.57    7.46
  -3  -4   4  132.32    7.37
  -3  -4   4  131.64    5.59
   3   4  -4  126.93    6.96
   3   4  -4  130.92    7.31
   3   4  -3  359.44   11.26
  -3  -4   3  368.55   11.90
  -3  -4   3  370.01   11.83
  -3  -4   3  341.04    8.34
   3   4  -3  346.86   10.84
   3   4  -3  346.71   11.44
  -3  -4   3  348.55   10.56
  -3  -4   2   58.40    4.58
  -3  -4   2   55.25    4.41
   3   4  -2   60.23    4.65
   3   4  -2   61.58    4.36
  -3  -4   2   57.86    4.02
   3   4  -2   62.37    4.71
   3   4  -1   52.92    4.16
  -3  -4   1   52.34    4.20
   3   4  -1   55.29    2.98
   3   4  -1   56.00    4.39
  -3  -4   1   52.55    3.90
   3   4  -1   56.63    4.02
  -3  -4   1   55.24    3.63
   3   4   0  108.28    5.83
  -3  -4   0  109.97    5.96
   3   4   0  112.96    4.07
   3   4   0  109.50    6.10
   3   4   0  109.31    5.88
   3   4   0  102.84    5.27
  -3  -4   0  108.05    5.38
  -3  -4   0  110.67    4.69
   3   4   1    1.73    0.82
  -3  -4  -1    3.07    1.22
   3   4   1    2.65    0.95
   3   4   1    1.37    0.79
   3   4   1    1.78    0.48
  -3  -4  -1    2.00    0.90
   3   4   1    1.71    0.79
  -3  -4  -1    1.84    0.50
   3   4   2  129.20    6.36
  -3  -4  -2  123.36    6.26
   3   4   2  131.13    6.72
   3   4   2  126.38    5.98
   3   4   2  125.38    5.67
  -3  -4  -2  129.76    5.86
  -3  -4  -2  123.97    4.20
   3   4   3  289.65    9.63
  -3  -4  -3  277.73    8.79
  -3  -4  -3  271.19    8.66
   3   4   3  271.33    8.62
   3   4   3  271.43    5.94
   3   4   4  260.06    9.46
  -3  -4  -4  256.74    8.48
  -3  -4  -4  259.47    8.74
   3   4   4  258.06    8.72
   3   4   4  253.11    5.55
   3   4   5 1175.43   20.76
  -3  -4  -5 1124.53   18.02
  -3  -4  -5 1169.19   19.40
   3   4   5 1145.73   19.52
   3   4   5 1144.29   12.19
  -3  -4  -6    0.49    0.55
   3   4   6    0.68    0.48
  -3  -4  -7  154.89    7.90
   3   4   7  150.33    7.94
   3   4   8   11.81    2.33
   3   4   8   12.40    2.37
  -3  -4  -8   12.70    2.45
   3   4   9  318.68   12.79
   3   4   9  324.09   13.13
  -3  -4  -9  312.72   12.49
   3   4  10   17.39    3.06
  -3  -4 -10   14.04    2.81
   3   4  11  114.60    8.25
  -3  -4 -11  104.43    8.16
   3   4  12   24.86    4.06
  -3  -4 -12   22.49    3.97
  -3  -4 -12   26.39    3.01
   3   4  13    6.33    2.09
  -3  -4 -13    9.54    1.79
  -3  -4 -13    8.15    2.60
   3   4  14   21.14    3.93
  -3  -4 -14   18.86    3.99
   3   4  15    2.40    0.80
  -3  -4 -15    7.70    2.91
   3   4  16  102.51    9.35
  -3  -4 -16   97.83    9.84
  -3  -5  12    4.02    2.03
   3   5 -12    3.96    2.50
  -3  -5  11   42.10    5.96
   3   5 -11   39.69    5.87
   3   5 -11   37.76    5.65
  -3  -5  10    5.25    1.86
   3   5 -10    8.08    2.60
   3   5 -10    7.53    2.47
  -3  -5   9   54.93    6.26
   3   5  -9   52.06    6.22
  -3  -5   9   56.24    4.69
   3   5  -9   47.40    5.93
  -3  -5   8   23.25    2.99
  -3  -5   8   25.55    4.04
   3   5  -8   24.34    4.14
  -3  -5   7   85.85    7.18
  -3  -5   7   84.77    5.30
   3   5  -7   89.62    7.49
  -3  -5   6  622.14   18.65
  -3  -5   6  605.81   13.26
   3   5  -6  608.03   18.75
   3   5  -5   57.39    5.25
  -3  -5   5   62.89    5.81
  -3  -5   5   60.69    3.82
   3   5  -5   60.37    5.62
   3   5  -5   56.00    5.50
   3   5  -4   79.21    6.06
  -3  -5   4  107.28    7.37
  -3  -5   4   87.16    4.29
  -3  -5   4   86.43    6.48
   3   5  -4   83.77    6.28
   3   5  -4   88.43    6.62
  -3  -5   3   55.21    5.14
   3   5  -3   51.81    4.82
  -3  -5   3   47.74    4.64
   3   5  -3   53.14    4.83
   3   5  -3   51.02    4.95
   3   5  -2   20.83    3.02
  -3  -5   2   20.58    3.09
  -3  -5   2   20.11    3.09
   3   5  -2   17.61    2.81
  -3  -5   2   17.38    2.73
   3   5  -2   19.64    2.87
  -3  -5   2   21.33    2.51
   3   5  -1   55.80    4.95
  -3  -5   1   57.58    4.98
   3   5  -1   59.21    5.16
   3   5  -1   52.30    4.62
  -3  -5   1   55.80    4.78
  -3  -5   1   58.78    3.91
   3   5   0  441.79   13.38
  -3  -5   0  476.37   13.88
   3   5   0  461.58   13.90
   3   5   0  441.23    7.20
   3   5   0  434.19   12.24
   3   5   0  449.93   12.65
  -3  -5   0  448.90   12.68
  -3  -5   0  447.09    9.49
   3   5   1  167.80    8.16
  -3  -5  -1  159.36    7.97
   3   5   1  160.42    8.14
   3   5   1  156.76    4.31
   3   5   1  157.53    7.15
   3   5   1  161.98    7.48
  -3  -5  -1  163.62    7.56
  -3  -5  -1  150.31    4.92
   3   5   2  376.60   12.42
  -3  -5  -2  387.49   12.48
   3   5   2  383.28   12.66
   3   5   2  355.95   10.49
   3   5   2  358.04   11.31
  -3  -5  -2  365.41   11.46
  -3  -5  -2  366.82    6.97
   3   5   3   73.27    5.64
  -3  -5  -3   69.86    5.25
   3   5   3   81.62    5.63
   3   5   3   85.93    6.13
   3   5   4  252.34   10.69
  -3  -5  -4  263.85    8.86
  -3  -5  -4  256.54   10.04
   3   5   4  251.58    9.93
   3   5   5  116.10    7.19
  -3  -5  -5  106.95    5.49
  -3  -5  -5  114.25    6.78
   3   5   5  112.25    6.72
   3   5   5  111.42    2.96
   3   5   6   24.94    3.45
  -3  -5  -6   27.98    2.88
  -3  -5  -6   22.73    3.07
   3   5   6   24.92    3.29
   3   5   6   27.12    1.62
   3   5   7   92.27    6.87
  -3  -5  -7   96.30    6.68
   3   5   7  101.06    6.99
  -3  -5  -7  100.37    5.56
  -3  -5  -8  115.86    7.70
   3   5   8  124.78    8.10
   3   5   9  132.31    8.45
  -3  -5  -9  121.18    8.22
   3   5  10  894.52   23.04
  -3  -5 -10  814.27   22.50
   3   5  11  122.37    9.08
  -3  -5 -11  105.74    8.47
   3   5  12   29.45    4.55
  -3  -5 -12   26.07    4.30
   3   5  13   55.33    6.39
  -3  -5 -13   40.26    5.66
   3   5  14    4.67    1.92
  -3  -5 -14    4.80    1.78
   3   5  15   24.02    4.85
  -3  -5 -15   21.32    4.52
  -3  -6  11   10.18    2.78
   3   6 -11    5.12    1.97
   3   6 -11   14.37    3.86
  -3  -6  10   30.21    5.32
   3   6 -10   25.00    4.73
   3   6 -10   28.57    4.95
  -3  -6   9  132.18   10.23
   3   6  -9  151.48   11.29
  -3  -6   8   18.93    3.75
   3   6  -8   21.44    4.06
  -3  -6   7   22.61    3.82
   3   6  -7   23.81    4.21
  -3  -6   6    1.15    0.61
  -3  -6   6    2.00    1.27
   3   6  -6    0.96    1.08
  -3  -6   5   21.02    2.07
  -3  -6   5   23.30    3.74
   3   6  -5   19.60    3.48
  -3  -6   4   15.83    3.01
   3   6  -4   14.31    2.89
  -3  -6   3  289.93   12.56
   3   6  -3  276.15   11.87
   3   6  -3  261.22   12.11
   3   6  -2   36.11    4.36
  -3  -6   2   31.12    3.99
   3   6  -2   33.93    4.06
  -3  -6   2   31.04    3.96
  -3  -6   2   28.93    2.92
   3   6  -1  364.49   13.72
  -3  -6   1  353.68   13.44
   3   6  -1  355.50   12.82
  -3  -6   1  331.89   12.56
  -3  -6   1  349.82    9.45
   3   6   0    2.45    1.03
  -3  -6   0    2.06    0.99
   3   6   0    2.25    0.92
  -3  -6   0    2.56    0.81
   3   6   0    1.98    0.98
  -3  -6   0    3.29    0.80
   3   6   1  148.54    8.52
  -3  -6  -1  153.03    8.68
   3   6   1  156.67    8.87
   3   6   1  141.39    6.98
   3   6   1  146.42    3.09
   3   6   1  150.25    8.10
  -3  -6  -1  142.82    7.93
  -3  -6  -1  143.86    4.70
   3   6   2   44.92    4.72
  -3  -6  -2   52.48    5.10
   3   6   2   42.60    2.03
   3   6   2   40.41    3.59
   3   6   2   49.73    4.96
   3   6   2   42.36    4.30
  -3  -6  -2   45.13    4.44
  -3  -6  -2   44.75    2.18
   3   6   3   93.65    6.83
   3   6   3   93.78    6.85
   3   6   3   93.47    6.45
  -3  -6  -3   92.78    6.47
   3   6   4    0.50    1.00
  -3  -6  -4    2.09    1.14
   3   6   4   -0.23    0.21
   3   6   5   76.74    6.36
  -3  -6  -5   75.90    6.09
   3   6   5   77.85    6.17
   3   6   6  124.42    8.33
  -3  -6  -6  134.80    8.32
   3   6   6  139.81    8.53
  -3  -6  -6  125.10    6.01
   3   6   7   87.04    7.19
  -3  -6  -7   87.16    5.18
  -3  -6  -7   80.86    6.67
   3   6   8  155.14    9.87
  -3  -6  -8  161.12    7.20
  -3  -6  -8  154.64    9.57
   3   6   8  154.32    3.19
  -3  -6  -9    9.38    1.83
   3   6   9    9.04    2.50
  -3  -6  -9    6.61    2.19
   3   6  10  140.79    9.49
  -3  -6 -10  129.90    9.38
   3   6  11   76.80    7.24
  -3  -6 -11   70.67    7.18
   3   6  12   19.37    3.81
  -3  -6 -12   16.66    3.67
   3   6  13    1.14    0.99
  -3  -6 -13    3.94    2.05
   3   6  14  100.70    9.16
  -3  -6 -14   94.42    9.36
   3   6  15    7.79    2.72
  -3  -6 -15    6.32    2.38
  -3  -7   9    5.66    2.45
   3   7  -9    4.55    2.29
  -3  -7   8    9.78    2.95
   3   7  -8   11.15    3.23
  -3  -7   7   21.10    4.10
   3   7  -7   22.97    4.34
  -3  -7   6  128.52    9.75
   3   7  -6  123.05    9.76
  -3  -7   5    0.57    0.99
   3   7  -5    0.41    0.77
  -3  -7   4   72.07    7.01
   3   7  -4   72.06    7.10
  -3  -7   3  108.93    8.45
  -3  -7   3  100.37    8.00
   3   7  -3  100.74    8.14
   3   7  -2   12.73    2.86
  -3  -7   2    9.24    2.58
  -3  -7   2    8.70    1.64
   3   7  -1  118.11    8.54
   3   7  -1  121.24    7.30
  -3  -7   1  113.59    8.13
  -3  -7   1  125.09    5.73
   3   7   0   29.15    4.18
   3   7   0   31.98    3.53
  -3  -7   0   27.22    3.93
  -3  -7   0   28.88    2.46
   3   7   1   15.89    2.98
   3   7   1   13.09    2.19
  -3  -7  -1   12.00    2.69
  -3  -7  -1   13.21    1.41
   3   7   2    0.67    0.64
  -3  -7  -2    1.14    0.73
   3   7   2    1.08    0.77
   3   7   3   82.45    7.09
  -3  -7  -3   94.92    7.32
   3   7   4   86.40    7.24
  -3  -7  -4   88.26    7.13
   3   7   5   54.10    5.82
  -3  -7  -5   51.90    5.59
   3   7   6   56.57    6.01
  -3  -7  -6   59.60    6.08
   3   7   7  147.51    9.96
  -3  -7  -7  144.17    9.67
   3   7   8  150.45   10.38
  -3  -7  -8  156.74   10.27
  -3  -7  -8  166.82    7.17
   3   7   9    3.68    1.81
  -3  -7  -9    2.11    0.63
  -3  -7  -9    2.89    0.97
   3   7  10   32.44    5.09
  -3  -7 -10   31.51    4.86
  -3  -7 -10   32.81    3.41
   3   7  11   93.58    8.32
   3   7  11   90.46    8.87
  -3  -7 -11   86.09    5.76
  -3  -7 -11   80.11    8.12
   3   7  12   28.85    4.89
   3   7  12   19.31    4.29
  -3  -7 -12   20.19    4.11
  -3  -7 -13   47.05    6.71
   3   7  13   37.78    5.79
   3   7  14   81.45    8.61
  -3  -7 -14   65.87    8.35
   3   8  -8   23.57    4.80
  -3  -8   7   84.93    8.66
   3   8  -7   94.63    9.35
  -3  -8   6   25.54    4.70
   3   8  -6   25.20    4.79
  -3  -8   5    9.39    2.78
   3   8  -5    8.96    2.81
  -3  -8   4    1.42    1.26
   3   8  -4    0.46    1.14
   3   8  -3    0.38    1.26
  -3  -8   3    0.97    1.01
  -3  -8   3    0.98    1.41
   3   8  -2   82.67    7.81
  -3  -8   2   71.29    7.22
  -3  -8   2   79.63    5.17
   3   8  -1    1.86    0.88
   3   8  -1    1.01    0.49
  -3  -8   1    0.77    0.80
  -3  -8   1    2.30    1.03
   3   8   0  145.57   10.24
   3   8   0  128.01    7.36
  -3  -8   0  123.06    9.20
  -3  -8   0  130.25    5.08
   3   8   1  227.34   12.62
   3   8   1  223.58    9.34
  -3  -8  -1  214.74   12.10
  -3  -8  -1  236.47    5.18
   3   8   2  291.68   14.29
  -3  -8  -2  289.80   13.95
   3   8   3   15.17    3.34
  -3  -8  -3   12.24    2.84
   3   8   4    3.98    1.75
  -3  -8  -4    1.68    1.24
   3   8   4    3.73    0.56
   3   8   5   20.26    3.88
  -3  -8  -5   27.58    4.40
   3   8   6   99.18    8.62
  -3  -8  -6   90.76    8.09
   3   8   7    4.21    2.05
  -3  -8  -7    1.74    1.31
   3   8   8   71.53    7.66
  -3  -8  -8   74.83    7.69
   3   8   9    2.53    1.40
  -3  -8  -9    3.53    1.94
   3   8  10   58.47    7.29
  -3  -8 -10   56.82    6.98
   3   8  11   52.26    7.09
  -3  -8 -11   45.06    6.39
   3   8  12    7.20    2.57
   3   8  12   10.59    3.67
  -3  -8 -12   10.69    3.45
  -3  -9   5   51.70    6.92
   3   9  -5   51.45    7.09
   3   9  -4    1.58    0.82
  -3  -9   3  103.40    9.67
   3   9  -3  112.90   10.18
   3   9  -2    4.68    2.15
  -3  -9   2    3.11    1.53
   3   9  -1   59.77    7.20
  -3  -9   1   53.85    6.73
   3   9   0   49.66    6.63
  -3  -9   0   43.66    6.13
   3   9   1  164.71   11.68
  -3  -9  -1  144.67   10.78
   3   9   2   76.35    7.94
  -3  -9  -2   77.25    7.88
   3   9   3   55.70    6.81
  -3  -9  -3   57.60    6.78
   3   9   4   79.89    8.25
  -3  -9  -4   72.24    7.72
   3   9   5  217.84   13.98
  -3  -9  -5   85.23    8.26
   3   9   6   46.35    6.50
  -3  -9  -6   51.14    6.52
   3   9   7    5.01    2.62
  -3  -9  -7    2.21    1.50
   3   9   8  157.44   12.06
  -3  -9  -8  156.58   11.83
   3   9   9    4.77    2.18
  -3  -9  -9    9.01    2.93
   3   9  10   58.74    7.66
  -3  -9 -10   54.81    7.36
  -3  -9 -11   29.92    5.68
  -3 -10   3   18.76    4.43
   3  10  -2   30.08    5.61
  -3 -10   2   24.92    5.02
   3  10  -1    7.52    2.74
  -3 -10   1    1.87    1.13
   3  10   0   15.49    3.84
  -3 -10   0    9.11    2.96
   3  10   1   67.97    8.09
  -3 -10  -1   63.16    7.72
   3  10   2   30.00    5.26
  -3 -10  -2   23.02    4.57
   3  10   3   59.41    7.49
  -3 -10  -3   50.10    6.82
   3  10   4    5.05    2.01
  -3 -10  -4    2.29    1.12
   3  10   5   19.38    4.46
  -3 -10  -5   18.80    4.25
   3  10   6    1.59    1.42
  -3 -10  -6    3.30    1.61
  -3 -10  -7   32.82    5.71
  -3 -10  -8    2.82    1.69
  -4   9   0    2.64    1.78
  -4   9  -1   76.49    8.21
  -4   9  -2    5.38    1.68
  -4   9  -3   38.43    5.71
  -4   9  -4   15.39    3.55
  -4   8   4   28.09    4.60
   4  -8  -4   31.45    5.56
  -4   8   3    0.78    1.07
   4  -8  -3   -0.67    0.99
  -4   8   2   40.13    5.38
   4  -8  -2   48.55    6.90
  -4   8   1   12.60    2.93
   4  -8  -1    9.47    2.88
  -4   8   0   -0.06    0.85
   4  -8   0    0.68    0.94
  -4   8  -1    3.21    1.78
   4  -8   1   -2.24    1.02
   4  -8   2   93.23    9.54
  -4   8  -2   93.16    8.39
  -4   8  -3   35.58    5.17
   4  -8   3   38.81    6.19
  -4   8  -4   31.83    4.97
   4  -8   4   30.63    5.56
   4  -8   5   89.37    8.12
   4  -8   5   82.35    9.21
  -4   8  -5   84.66    8.39
   4  -8   6    0.84    0.49
  -4   8  -6    0.98    1.03
   4  -8   7    8.95    2.70
  -4   8  -7   14.95    8.54
  -4   7   9   11.78    3.08
  -4   7   8  127.68    9.98
  -4   7   7   42.16    5.63
   4  -7  -7   35.30    5.91
  -4   7   6   32.93    5.10
   4  -7  -6   39.80    6.30
  -4   7   5   44.51    5.55
   4  -7  -5   45.79    6.35
  -4   7   4   37.97    5.10
   4  -7  -4   39.05    5.75
  -4   7   3   11.11    2.76
   4  -7  -3   11.65    3.38
  -4   7   2   63.44    6.62
   4  -7  -2   56.94    7.59
  -4   7   1  118.33    8.56
   4  -7  -1  117.64    9.80
  -4   7   0   29.72    4.81
   4  -7   0   25.39    5.32
   4  -7   0   38.82    4.43
  -4   7  -1   79.49    7.34
   4  -7   1   88.70    6.47
   4  -7   1   78.29    8.17
   4  -7   2   49.58    4.74
   4  -7   2   51.71    6.53
  -4   7  -2   51.04    5.78
   4  -7   3   55.96    5.31
   4  -7   3   39.34    6.15
  -4   7  -3   46.22    5.94
   4  -7   4   80.99    7.25
   4  -7   4   80.92    6.04
   4  -7   4   73.70    8.15
  -4   7  -4   78.61    7.39
  -4   7  -5   11.70    3.02
   4  -7   5   12.79    3.61
   4  -7   5    9.85    2.14
   4  -7   5    5.06    1.80
   4  -7   6   20.57    4.04
   4  -7   6   21.50    3.45
  -4   7  -6   21.39    4.31
   4  -7   7   10.85    3.48
  -4   7  -7   15.55    3.99
   4  -7   8   40.43    5.91
  -4   7  -8   46.49    6.28
   4  -7   9   16.61    4.15
  -4   7  -9   13.29    3.82
  -4   7 -10  154.52   10.98
  -4   7 -10  170.76   12.87
  -4   7 -11    5.12    1.66
  -4   6   9    0.18    0.73
   4  -6  -9   -0.21    0.99
  -4   6   9    0.08    0.47
  -4   6   9   -0.50    0.66
  -4   6   8    9.74    2.83
   4  -6  -8   14.81    3.53
  -4   6   8   12.88    2.94
  -4   6   7  143.87    9.99
   4  -6  -7  154.90   11.51
  -4   6   7  140.55    9.75
  -4   6   6   11.31    2.71
   4  -6  -6   10.75    3.08
  -4   6   5    5.50    2.10
   4  -6  -5    4.51    2.25
  -4   6   4   44.66    5.05
   4  -6  -4   49.57    6.10
  -4   6   3   17.91    3.23
   4  -6  -3   15.75    3.45
  -4   6   2   66.08    6.02
   4  -6  -2   71.05    7.16
  -4   6   1  337.81   13.30
  -4   6   1  340.35   12.91
   4  -6  -1  310.59   14.71
   4  -6  -1  312.57   12.41
  -4   6   0   12.91    2.61
   4  -6   0   12.16    2.89
   4  -6   0   13.25    2.43
  -4   6  -1  120.72    8.03
   4  -6   1  117.17    9.03
   4  -6   1  120.04    7.57
  -4   6  -1  122.13    5.81
  -4   6  -2    6.35    1.76
   4  -6   2    4.38    1.40
   4  -6   2    5.12    1.67
  -4   6  -2   10.05    1.87
   4  -6   3    1.74    1.62
   4  -6   3    7.28    4.30
   4  -6   3    3.05    3.30
   4  -6   4  148.08    8.11
   4  -6   4  149.42    8.81
   4  -6   4  135.59   10.11
  -4   6  -4  130.58    8.76
   4  -6   5   41.34    4.24
   4  -6   5   36.64    4.51
   4  -6   5   33.97    5.06
  -4   6  -5   41.46    5.03
   4  -6   6   13.44    2.74
   4  -6   6    8.94    2.84
  -4   6  -6    9.68    2.71
   4  -6   7  141.16    9.64
  -4   6  -7  137.31    9.65
   4  -6   8   10.42    2.83
  -4   6  -8   15.69    3.47
   4  -6   9  133.62   10.52
  -4   6  -9  135.19    9.80
  -4   6  -9  134.47   10.42
  -4   6 -10    6.32    2.50
  -4   6 -10    5.76    1.98
   4  -6  10    5.01    2.27
  -4   6 -11    2.45    1.79
   4  -6  11    1.92    1.44
  -4   6 -11   -0.14    0.84
  -4   5  11    1.22    0.22
   4  -5 -11    2.04    0.84
  -4   5  11    4.90    1.89
  -4   5  10    8.25    2.47
   4  -5 -10    5.33    1.87
  -4   5  10    6.63    2.06
  -4   5   9    3.89    1.89
   4  -5  -9   -0.29    0.74
  -4   5   9    2.79    1.53
  -4   5   9    6.19    2.13
  -4   5   8   -0.41    0.99
  -4   5   8    1.74    1.30
   4  -5  -8    1.54    1.22
  -4   5   8    0.54    0.55
  -4   5   7   29.11    4.17
   4  -5  -7   24.77    4.20
  -4   5   7   21.01    3.47
  -4   5   7   26.75    3.65
  -4   5   6    0.74    0.81
   4  -5  -6    0.09    1.04
  -4   5   6    1.99    1.22
  -4   5   5   46.12    4.87
   4  -5  -5   51.22    5.88
  -4   5   4  249.19    9.60
  -4   5   4  236.73   10.68
   4  -5  -4  266.79   13.11
  -4   5   3    0.86    0.62
   4  -5  -3   -0.68    0.69
  -4   5   3    0.44    0.59
  -4   5   2    8.74    2.00
   4  -5  -2    7.26    2.12
  -4   5   2    8.37    1.86
   4  -5  -2    8.30    1.97
  -4   5   1    1.46    0.61
   4  -5  -1    1.22    0.86
  -4   5   1    2.39    1.08
   4  -5  -1    2.37    1.01
  -4   5   0   15.71    2.59
   4  -5   0   18.94    3.29
  -4   5   0   17.73    2.71
   4  -5   0   17.67    2.89
  -4   5  -1   12.30    2.21
  -4   5  -1   12.40    2.04
   4  -5   1   11.49    2.26
  -4   5  -1   12.44    2.36
   4  -5   1   11.89    2.74
  -4   5  -2   66.91    5.50
   4  -5   2   58.45    5.10
   4  -5   2   73.15    5.13
  -4   5  -2   73.27    4.89
   4  -5   2   64.64    5.21
   4  -5   2   66.70    6.21
  -4   5  -2   64.58    5.32
   4  -5   3  166.46    8.77
   4  -5   3  152.18    7.89
   4  -5   3  152.76    7.68
   4  -5   3  150.02    9.48
  -4   5  -3  158.81    8.54
   4  -5   4  378.68   13.60
   4  -5   4  358.76   12.08
   4  -5   4  365.18   12.66
   4  -5   4  366.65   15.18
  -4   5  -4  372.17   13.40
   4  -5   5  223.41    9.71
   4  -5   5  240.57   10.76
   4  -5   5  231.20   12.31
  -4   5  -5  241.71   11.11
   4  -5   6  126.46    8.17
  -4   5  -6  130.07    8.41
   4  -5   7  156.17    9.40
  -4   5  -7  158.25    9.76
  -4   5  -8    8.00    2.45
  -4   5  -8    6.95    2.12
   4  -5   8    5.36    1.77
  -4   5  -9   33.78    4.86
  -4   5  -9   35.34    4.58
   4  -5   9   24.42    3.92
  -4   5 -10   14.82    3.35
   4  -5  10   13.18    3.07
  -4   5 -10   17.27    3.14
   4  -5  11   73.04    7.99
   4  -5  11   64.46    7.04
  -4   5 -11   62.24    5.87
  -4   5 -11   62.93    7.13
   4  -5  12   63.71    7.38
  -4   5 -12   75.19    6.37
  -4   5 -12   72.82    8.06
   4  -4 -12    6.14    2.06
  -4   4  12    3.44    1.52
  -4   4  11    1.82    1.32
   4  -4 -11   -0.77    1.40
  -4   4  10   14.91    3.02
   4  -4 -10   15.80    3.61
   4  -4  -9   63.63    6.89
  -4   4   9   68.51    5.74
  -4   4   9   62.75    6.01
  -4   4   8   25.56    3.83
   4  -4  -8   31.76    4.77
  -4   4   8   39.26    4.32
  -4   4   8   32.46    4.17
  -4   4   7  345.44   13.56
  -4   4   7  350.82   13.12
   4  -4  -7  343.78   14.99
  -4   4   7  352.20   13.31
  -4   4   6    3.43    1.29
  -4   4   6    2.77    0.90
  -4   4   6    3.40    1.37
   4  -4  -6    2.78    1.55
  -4   4   6    0.23    0.22
  -4   4   5   24.74    2.53
  -4   4   5   27.28    3.49
  -4   4   5   28.55    2.29
   4  -4  -5   27.68    3.93
  -4   4   5   29.70    3.85
  -4   4   5   28.72    3.52
  -4   4   4   23.42    2.52
  -4   4   4   18.60    2.73
  -4   4   4   20.45    1.80
  -4   4   4   21.61    3.30
   4  -4  -4   21.37    3.48
  -4   4   4   18.02    2.70
  -4   4   3   18.99    2.25
  -4   4   3   19.90    2.69
   4  -4  -3   22.05    3.23
   4  -4  -3   22.81    3.34
  -4   4   3   17.80    2.98
  -4   4   2    4.42    1.15
  -4   4   2    3.31    0.93
   4  -4  -2    3.90    1.34
   4  -4  -2    5.72    1.71
  -4   4   2    8.11    2.05
  -4   4   1  138.23    6.75
  -4   4   1  140.89    6.47
   4  -4  -1  138.47    7.69
  -4   4   1  142.39    8.30
   4  -4  -1  130.92    7.89
   4  -4  -1  132.50    7.42
  -4   4   0    8.86    1.74
  -4   4   0    9.20    1.61
   4  -4   0    7.78    1.84
  -4   4   0    8.22    1.66
   4  -4   0    7.45    1.89
   4  -4   0    8.58    1.86
  -4   4   0    8.08    2.00
  -4   4  -1   28.53    3.14
  -4   4  -1   31.32    3.20
   4  -4   1   28.46    3.35
  -4   4  -1   34.20    3.19
  -4   4  -1   29.86    3.73
   4  -4   1   32.75    3.91
   4  -4   1   31.77    3.55
  -4   4  -2  159.87    7.77
   4  -4   2  166.69    7.66
  -4   4  -2  174.32    7.51
   4  -4   2  160.20    7.81
   4  -4   2  165.53    6.78
  -4   4  -2  161.07    8.78
   4  -4   2  164.00    8.83
  -4   4  -2  173.50    7.72
   4  -4   3  362.23   11.49
  -4   4  -3  373.46   12.39
   4  -4   3  349.54   11.45
   4  -4   3  377.57   11.01
  -4   4  -3  358.33   13.29
   4  -4   3  356.31   13.33
  -4   4  -3  368.86   11.56
  -4   4  -4    3.97    1.36
   4  -4   4    4.15    1.37
   4  -4   4    1.97    0.90
  -4   4  -4    4.07    1.37
   4  -4   4    3.57    1.23
  -4   4  -4    1.87    0.57
   4  -4   4    5.21    1.66
   4  -4   5   45.81    4.30
   4  -4   5   51.98    4.71
  -4   4  -5   49.82    4.59
   4  -4   6   16.67    2.76
  -4   4  -6   20.11    3.09
  -4   4  -6   20.49    3.21
   4  -4   6   18.45    2.82
  -4   4  -7    3.74    1.12
   4  -4   7    3.66    1.42
   4  -4   7    7.46    2.14
  -4   4  -7    5.29    1.57
   4  -4   8  150.95    9.83
   4  -4   8  142.83    8.94
  -4   4  -8  146.61    8.59
  -4   4  -8  150.33    9.22
   4  -4   9   49.39    5.84
   4  -4   9   49.68    5.59
  -4   4  -9   52.91    5.17
  -4   4  -9   52.13    5.66
   4  -4  10  139.25   10.27
  -4   4 -10  147.67    8.52
  -4   4 -10  140.84    9.79
   4  -4  11   43.61    5.87
  -4   4 -11   46.96    4.69
  -4   4 -11   50.33    6.03
   4  -4  12  106.77    9.61
  -4   4 -12  100.40    6.75
   4  -4  13   16.21    3.76
  -4   4 -13   13.50    3.64
   4  -3 -13   35.90    5.92
   4  -3 -12   45.16    6.55
  -4   3  12   51.37    6.18
   4  -3 -11   32.07    5.45
  -4   3  11   34.18    4.85
   4  -3 -10   49.76    6.11
  -4   3  10   52.40    5.71
   4  -3  -9   40.63    5.66
  -4   3   9   46.32    5.44
   4  -3  -8  190.34    9.25
   4  -3  -8  182.60   10.79
  -4   3   8  184.06    8.69
  -4   3   8  175.91    9.71
  -4   3   7   66.57    3.25
   4  -3  -7   62.56    5.12
  -4   3   7   62.05    5.13
   4  -3  -7   62.29    6.12
  -4   3   7   57.05    5.36
  -4   3   6  150.11    4.89
   4  -3  -6  137.72    7.63
   4  -3  -6  132.43    8.72
  -4   3   6  153.75    8.22
  -4   3   6  140.06    8.57
  -4   3   5   95.62    6.01
  -4   3   5  105.04    4.05
  -4   3   5  118.74    4.18
  -4   3   5  105.78    3.68
   4  -3  -5  100.89    5.86
   4  -3  -5  108.31    7.32
  -4   3   5  112.10    6.90
  -4   3   5  104.19    7.27
  -4   3   5  109.36    6.94
  -4   3   4  156.65    4.95
  -4   3   4  142.09    6.86
  -4   3   4  150.38    3.68
   4  -3  -4  160.12    8.55
  -4   3   4  167.76    8.46
  -4   3   4  151.77    8.41
  -4   3   4  162.10    8.23
  -4   3   3    1.97    0.75
   4  -3  -3    2.66    1.12
  -4   3   3    2.82    0.72
  -4   3   3    4.16    1.31
   4  -3  -3    3.30    1.28
  -4   3   3    2.63    1.24
  -4   3   3    4.55    1.59
   4  -3  -3    4.70    1.55
  -4   3   2  120.36    4.86
  -4   3   2   60.59    4.39
   4  -3  -2  110.67    7.00
   4  -3  -2   71.82    5.71
  -4   3   2  138.86    7.84
  -4   3   2   67.00    5.82
   4  -3  -2   99.97    6.50
  -4   3   1   69.13    3.77
  -4   3   1   63.24    3.99
   4  -3  -1   65.65    5.03
  -4   3   1   68.43    5.13
  -4   3   1   74.23    5.62
   4  -3  -1   67.36    5.10
   4  -3  -1   66.40    5.09
  -4   3   0   30.83    2.69
  -4   3   0   28.84    2.77
   4  -3   0   28.35    3.32
  -4   3   0   25.33    2.97
  -4   3   0   38.31    4.06
  -4   3   0   25.68    3.19
   4  -3   0   22.68    3.00
   4  -3   0   31.72    3.53
  -4   3  -1  233.84    7.51
  -4   3  -1  233.24    7.91
  -4   3  -1  227.24    8.35
   4  -3   1  225.13    9.00
   4  -3   1  225.94    6.27
  -4   3  -1  225.14    9.14
  -4   3  -1  228.47    9.87
   4  -3   1  228.48    9.21
   4  -3   1  244.06    9.59
   4  -3   2   49.14    4.14
  -4   3  -2  118.48    6.39
   4  -3   2   88.68    5.96
   4  -3   2   62.78    4.40
  -4   3  -2   84.77    5.57
  -4   3  -2   61.84    5.50
   4  -3   2   74.58    5.81
  -4   3  -2  135.47    7.74
  -4   3  -2  101.01    5.44
   4  -3   2   90.40    6.19
   4  -3   3   35.70    3.20
  -4   3  -3   40.32    3.70
   4  -3   3   37.75    3.76
   4  -3   3   34.97    3.09
  -4   3  -3   35.17    3.79
  -4   3  -3   41.41    4.19
   4  -3   3   39.34    4.00
  -4   3  -3   40.42    3.39
   4  -3   3   44.48    4.23
   4  -3   4   34.70    4.20
   4  -3   4   26.08    2.97
  -4   3  -4   36.61    3.93
   4  -3   4   34.77    3.55
  -4   3  -4   46.68    4.49
   4  -3   4   29.49    3.78
  -4   3  -4   28.61    3.70
  -4   3  -4   35.44    3.52
   4  -3   5  269.00   10.86
   4  -3   5  268.51    9.70
  -4   3  -5  265.49   10.42
   4  -3   5  267.49    9.61
  -4   3  -5  261.09   10.63
  -4   3  -5  266.77   10.94
  -4   3  -5  275.23    9.71
   4  -3   6    5.18    1.48
  -4   3  -6    9.28    1.99
  -4   3  -6    6.25    1.75
   4  -3   6    5.99    1.72
  -4   3  -6    7.50    1.98
  -4   3  -6    5.34    1.52
   4  -3   7  112.68    7.78
   4  -3   7   91.05    6.72
  -4   3  -7  110.90    6.97
  -4   3  -7   87.80    7.37
  -4   3  -7   97.45    6.92
   4  -3   8   64.32    6.15
   4  -3   8   50.12    5.37
  -4   3  -8   62.97    5.22
  -4   3  -8   51.56    5.24
   4  -3   9  310.77   13.70
  -4   3  -9  293.00   11.01
  -4   3  -9  313.85   13.12
   4  -3  10   80.90    7.31
  -4   3 -10   78.16    5.68
   4  -3  11  102.16    8.71
  -4   3 -11   91.82    6.28
   4  -3  12  114.17    9.35
  -4   3 -12  112.26    9.57
   4  -3  13   28.97    5.12
  -4   3 -13   26.37    5.18
   4  -3  14   54.78    7.17
  -4   3 -14   46.85    6.69
   4  -2 -13   46.11    6.51
   4  -2 -12   20.39    4.54
  -4   2  12   23.27    4.47
  -4   2  11   21.88    3.84
   4  -2 -11   22.50    4.22
   4  -2 -10   47.33    5.86
  -4   2  10   47.05    5.59
  -4   2   9   22.19    3.64
   4  -2  -9   16.28    3.23
  -4   2   8    6.77    1.02
  -4   2   8    4.44    1.55
   4  -2  -8    5.01    1.39
  -4   2   8    4.71    1.55
   4  -2  -8    6.48    1.91
   4  -2  -7   24.32    3.34
  -4   2   7   35.06    1.91
   4  -2  -7   22.25    3.54
  -4   2   7   28.44    3.80
  -4   2   7   24.78    3.68
  -4   2   7   28.09    3.68
   4  -2  -7   26.10    3.49
  -4   2   6   37.61    1.58
   4  -2  -6   36.06    3.89
  -4   2   6   40.95    4.48
   4  -2  -6   33.82    4.02
  -4   2   6   36.47    4.11
   4  -2  -6   42.00    4.21
   4  -2  -5  175.86    8.15
  -4   2   5  184.81    8.95
  -4   2   5  192.97    8.31
   4  -2  -5  185.33    8.78
  -4   2   5  188.77    9.07
   4  -2  -4  205.87    9.67
   4  -2  -4  210.44    8.61
   4  -2  -4  207.31    8.79
  -4   2   4  208.19    8.63
  -4   2   4  221.09    9.22
  -4   2   4  207.88    9.13
  -4   2   3    0.57    0.28
   4  -2  -3    0.02    0.50
  -4   2   3    0.77    0.21
  -4   2   3    1.11    0.78
  -4   2   3    0.84    0.22
   4  -2  -3    0.64    0.36
  -4   2   3    1.22    0.75
   4  -2  -3    4.72    1.29
  -4   2   3    1.74    0.81
   4  -2  -3    1.03    1.12
  -4   2   3    1.05    0.64
  -4   2   2  249.70    6.92
  -4   2   2  260.51    4.70
   4  -2  -2  259.55   10.05
   4  -2  -2  263.16    9.07
  -4   2   2  259.07    9.66
  -4   2   2  261.60    9.08
  -4   2   2  253.40    9.57
   4  -2  -2  261.38   10.00
  -4   2   1  107.17    4.18
  -4   2   1  308.79    6.11
   4  -2  -1  113.17    6.44
  -4   2   1  283.24   10.26
  -4   2   1  106.69    5.58
   4  -2  -1  108.57    5.70
   4  -2  -1  116.71    6.56
  -4   2   0  115.80    4.12
  -4   2   0  212.09    5.78
   4  -2   0  118.32    6.45
  -4   2   0  112.96    5.82
  -4   2   0  111.21    5.58
   4  -2   0  112.24    5.62
   4  -2   0  118.71    6.44
  -4   2  -1   93.41    4.39
  -4   2  -1   14.48    2.12
   4  -2   1   13.23    1.20
   4  -2   1   12.21    2.13
   4  -2   1   14.61    2.01
  -4   2  -1  104.24    6.21
  -4   2  -1   14.22    1.99
   4  -2   1   13.54    2.18
  -4   2  -1   13.16    1.36
  -4   2  -2  393.52    9.62
   4  -2   2  393.20    8.23
   4  -2   2  418.69   11.85
   4  -2   2  400.06    7.90
  -4   2  -2  415.70   11.52
  -4   2  -2  388.39   10.60
  -4   2  -2  398.98   12.05
   4  -2   2  400.00   10.69
  -4   2  -2  411.88    8.28
   4  -2   2  417.06   12.14
  -4   2  -3  508.16   12.00
   4  -2   3  512.79   10.22
   4  -2   3  528.88   12.42
   4  -2   3  519.65   10.37
  -4   2  -3  528.61   12.79
  -4   2  -3  539.04   14.09
   4  -2   3  542.93   12.83
  -4   2  -3  523.23   10.15
   4  -2   3  532.88   13.85
   4  -2   4  924.93   17.18
  -4   2  -4  881.03   16.76
   4  -2   4  897.53   14.61
  -4   2  -4  903.11   18.12
  -4   2  -4  935.00   17.58
  -4   2  -4  945.77   14.89
  -4   2  -5   69.96    6.19
   4  -2   5   50.42    3.79
   4  -2   5   57.19    4.79
  -4   2  -5  110.55    6.66
  -4   2  -5   49.89    4.25
  -4   2  -5   55.78    4.21
   4  -2   6    2.19    0.92
  -4   2  -6    0.10    0.26
  -4   2  -6    0.27    0.29
   4  -2   6    2.05    1.07
  -4   2  -6   -0.10    0.46
  -4   2  -6    0.16    0.54
   4  -2   7    4.59    1.82
  -4   2  -7   30.90    5.11
   4  -2   7   22.14    4.77
  -4   2  -7    4.83    1.69
  -4   2  -7   36.65    3.80
  -4   2  -7    7.83    3.22
   4  -2   8  417.18   14.43
  -4   2  -8  418.54   12.37
  -4   2  -8  414.90   14.37
   4  -2   8  425.81   12.97
   4  -2   8  396.51   13.24
   4  -2   9   54.44    5.46
  -4   2  -9   45.10    4.06
   4  -2   9   45.48    4.79
   4  -2   9   46.82    4.23
   4  -2  10   68.81    6.44
  -4   2 -10   60.74    6.25
   4  -2  10   69.38    5.16
   4  -2  11    3.65    1.55
   4  -2  11    4.11    1.27
  -4   2 -11    4.72    1.79
   4  -2  12   18.20    3.80
  -4   2 -12   11.71    3.36
   4  -2  13   78.68    7.81
  -4   2 -13   73.43    7.86
   4  -2  14    8.59    3.04
  -4   2 -14    8.41    3.49
  -4   2 -15  105.02   10.16
   4  -1 -13   16.96    3.83
   4  -1 -12   22.33    4.29
  -4   1  12   32.97    5.08
  -4   1  11    7.93    2.47
   4  -1 -11   11.15    3.45
  -4   1  10    8.54    2.48
   4  -1 -10    7.89    2.34
  -4   1   9    5.47    0.99
  -4   1   9    5.31    1.85
   4  -1  -9    3.90    1.60
  -4   1   8   94.52    3.57
   4  -1  -8   98.73    7.22
  -4   1   8  101.93    6.89
  -4   1   8   98.00    7.33
   4  -1  -8  107.94    6.44
  -4   1   7  137.08    3.34
   4  -1  -7  145.94    8.30
  -4   1   7  134.45    8.14
  -4   1   7  145.56    7.73
  -4   1   7  150.10    8.78
   4  -1  -7  165.07    7.81
  -4   1   6   15.33    2.30
   4  -1  -6   14.34    2.25
  -4   1   6   15.61    2.73
   4  -1  -6   12.49    2.29
  -4   1   6   14.82    2.49
  -4   1   5   29.01    1.88
   4  -1  -5   29.43    3.52
  -4   1   5   26.11    3.10
   4  -1  -5   25.38    3.03
  -4   1   5   27.70    3.40
   4  -1  -5   22.78    2.84
  -4   1   5   24.37    2.64
   4  -1  -4    5.09    1.31
   4  -1  -4    6.07    1.66
  -4   1   4    6.94    1.82
  -4   1   4    4.92    0.52
  -4   1   4    5.21    1.13
   4  -1  -4    5.50    1.51
  -4   1   4    7.69    1.73
   4  -1  -4    6.18    1.42
  -4   1   4    7.00    1.44
   4  -1  -3   28.21    3.34
  -4   1   3   35.05    3.71
   4  -1  -3   28.54    3.19
  -4   1   3   27.92    2.79
   4  -1  -3   29.93    2.84
  -4   1   3   28.85    3.30
  -4   1   3   27.15    2.21
   4  -1  -3   30.26    3.23
   4  -1  -3   32.46    3.57
  -4   1   2   38.24    2.28
  -4   1   2   38.16    3.74
   4  -1  -2   39.96    3.83
   4  -1  -2   34.32    3.37
   4  -1  -2   40.84    3.14
  -4   1   2   41.64    3.15
  -4   1   2   35.77    3.50
  -4   1   2   39.35    2.26
   4  -1  -2   39.34    3.87
   4  -1  -2   38.66    3.71
  -4   1   1   30.51    1.60
   4  -1  -1   32.69    3.37
   4  -1  -1   35.51    2.71
  -4   1   1   32.27    3.20
  -4   1   1   33.67    2.63
  -4   1   1   30.76    3.20
   4  -1  -1   33.79    3.43
   4  -1  -1   32.49    3.36
  -4   1   0   64.71    2.52
   4  -1   0   61.47    4.49
  -4   1   0   68.90    4.64
  -4   1   0   63.97    4.48
  -4   1   0   64.53    3.49
   4  -1   0   62.81    3.58
   4  -1   0   66.98    4.75
   4  -1   0   67.34    4.83
  -4   1  -1  267.24    6.28
   4  -1   1  289.28    6.69
   4  -1   1  274.95    3.94
   4  -1   1  278.46    9.39
  -4   1  -1  287.57    9.49
  -4   1  -1  264.84    7.02
  -4   1  -1  277.64    9.30
   4  -1   1  273.60    7.19
   4  -1   1  286.62    9.65
   4  -1   1  279.10    9.85
  -4   1  -2   72.54    3.74
   4  -1   2   79.28    2.58
   4  -1   2   79.37    3.89
   4  -1   2   76.23    4.92
  -4   1  -2   79.71    5.04
  -4   1  -2   72.67    3.83
  -4   1  -2   73.62    4.79
   4  -1   2   78.71    3.88
   4  -1   2   80.67    5.10
  -4   1  -2   76.71    2.47
   4  -1   2   76.35    5.10
  -4   1  -3  179.08    6.54
   4  -1   3  199.87    6.75
   4  -1   3  187.46    4.95
  -4   1  -3  179.36    7.48
  -4   1  -3  189.46    6.49
   4  -1   3  195.96    8.03
   4  -1   3  187.73    8.08
  -4   1  -4  279.00    8.84
   4  -1   4  300.67    9.00
   4  -1   4  304.55    7.46
  -4   1  -4  275.06    9.26
  -4   1  -4  307.45    8.83
   4  -1   4  314.36   10.42
  -4   1  -5   21.70    2.66
   4  -1   5   25.88    2.83
  -4   1  -5   23.51    2.68
  -4   1  -5   23.59    2.61
   4  -1   5   24.25    2.38
   4  -1   5   25.09    2.98
   4  -1   6    2.36    1.04
  -4   1  -6    4.19    1.37
   4  -1   6    3.29    1.16
  -4   1  -6    2.42    0.90
   4  -1   6    3.28    1.08
  -4   1  -7   57.58    4.90
   4  -1   7   49.64    4.50
  -4   1  -7   52.40    4.49
   4  -1   7   52.45    4.12
   4  -1   7   55.77    4.43
  -4   1  -8  184.80    9.30
   4  -1   8  192.80    9.24
  -4   1  -8  196.30    9.25
  -4   1  -8  198.69    9.40
   4  -1   8  187.78    8.57
   4  -1   8  192.44    8.19
   4  -1   9   46.89    4.80
  -4   1  -9   50.61    4.96
  -4   1  -9   40.20    4.59
   4  -1   9   45.69    4.51
   4  -1   9   47.13    4.06
   4  -1  10  254.02   11.86
  -4   1 -10  234.64   11.59
   4  -1  10  244.15    9.34
   4  -1  11   35.70    4.69
  -4   1 -11   27.25    4.08
   4  -1  11   39.69    3.85
   4  -1  12  156.56   10.12
  -4   1 -12  154.18   10.30
   4  -1  12  159.55    7.46
   4  -1  13   44.77    5.65
  -4   1 -13   47.27    6.01
   4  -1  14    0.46    1.03
  -4   1 -14    1.99    1.14
   4  -1  15    9.75    2.99
  -4   1 -15    9.93    2.92
  -4   1 -16   78.34    8.87
   4   0 -14    4.82    2.49
   4   0 -13    5.46    2.39
  -4   0  12    5.78    2.13
   4   0 -12    5.48    2.29
  -4   0  11   21.66    4.01
   4   0 -11   17.06    3.53
   4   0 -10  158.95   10.12
  -4   0  10  161.85   10.39
  -4   0   9   23.95    3.99
   4   0  -9   15.73    3.07
  -4   0   8   13.06    2.42
  -4   0   8   14.53    2.89
   4   0  -8    9.30    2.19
  -4   0   7   67.56    4.32
   4   0  -7   67.22    5.43
  -4   0   7   70.51    5.31
  -4   0   7   60.12    5.49
  -4   0   6   22.23    2.21
  -4   0   6   19.98    2.61
   4   0  -6   20.54    2.61
  -4   0   6   18.85    2.99
   4   0  -6   20.69    2.81
  -4   0   5   33.99    2.41
   4   0  -5   37.73    3.49
  -4   0   5   31.76    3.29
  -4   0   5   33.72    3.11
  -4   0   5   25.61    3.33
   4   0  -5   29.24    3.38
  -4   0   4  125.13    3.93
   4   0  -4  123.67    7.07
  -4   0   4  126.58    7.08
   4   0  -4  124.55    7.11
   4   0  -4  121.16    5.74
  -4   0   4  118.73    5.85
  -4   0   4  121.45    6.89
  -4   0   4  119.52    5.21
   4   0  -4  137.62    6.94
   4   0  -3   51.97    4.43
  -4   0   3   60.84    4.72
   4   0  -3   53.87    4.47
  -4   0   3   49.14    3.34
   4   0  -3   57.37    3.58
  -4   0   3   57.93    3.13
  -4   0   3   58.70    4.54
   4   0  -3   58.99    4.46
  -4   0   2   91.50    5.65
   4   0  -2   85.81    5.40
   4   0  -2   94.53    5.76
   4   0  -2   84.12    3.94
  -4   0   2   88.55    3.90
   4   0  -2   89.22    5.24
  -4   0   2   93.58    3.23
  -4   0   2   86.80    5.36
   4   0  -2   92.83    5.59
   4   0  -2   98.28    5.98
   4   0  -1  584.23   13.69
   4   0  -1  580.56   13.87
   4   0  -1  559.13    8.78
  -4   0   1  583.81    8.75
   4   0  -1  590.03   13.43
  -4   0   1  601.82   13.71
   4   0  -1  591.25   14.03
   4   0  -1  565.84   13.68
   4   0   0   83.74    2.33
   4   0   0   86.32    5.11
   4   0   0   82.95    5.02
   4   0   0   88.82    2.92
  -4   0   0   85.56    2.81
  -4   0   0   81.68    4.92
   4   0   0   85.00    5.29
   4   0   0   87.95    5.26
   4   0   1  198.10    4.82
   4   0   1  198.90    7.65
  -4   0  -1  201.75    7.99
   4   0   1  198.90    7.70
  -4   0  -1  199.58    3.98
   4   0   1  205.25    4.07
   4   0   1  197.54    7.64
   4   0   1  191.43    7.92
  -4   0  -2   12.09    1.44
   4   0   2   19.61    1.86
  -4   0  -2   12.82    2.04
  -4   0  -2   11.31    1.07
   4   0   2   11.29    1.79
   4   0   2   12.42    1.91
   4   0   2   10.69    1.88
  -4   0  -3    7.98    1.30
   4   0   3    7.86    1.25
  -4   0  -3    9.50    1.76
   4   0   3   11.55    1.97
  -4   0  -3    5.97    0.95
   4   0   3    7.96    1.80
   4   0   3    7.63    0.82
   4   0   3    8.62    1.64
   4   0   4  226.85    7.36
  -4   0  -4  236.60    7.97
   4   0   4  248.35    8.66
  -4   0  -4  239.77    6.67
   4   0   4  239.36    5.85
   4   0   4  251.57    9.00
   4   0   5  427.63   10.99
  -4   0  -5  453.62   11.86
  -4   0  -5  436.37   10.11
   4   0   5  473.98   12.04
  -4   0  -5  442.13   10.11
   4   0   5  434.47    9.26
   4   0   5  458.29   12.15
   4   0   6  110.94    6.02
  -4   0  -6  118.32    6.46
  -4   0  -6  120.96    5.86
  -4   0  -6  123.17    5.90
   4   0   6  108.48    5.21
   4   0   6  122.15    6.29
   4   0   7  230.71    9.22
  -4   0  -7  234.32    9.61
  -4   0  -7  235.09    8.80
   4   0   7  219.60    8.22
   4   0   7  257.81    9.36
   4   0   8   16.98    2.62
  -4   0  -8   17.55    2.96
   4   0   8   16.84    2.53
  -4   0  -8   17.05    2.56
   4   0   8   19.68    2.66
   4   0   9  167.77    8.77
  -4   0  -9  147.88    8.13
   4   0   9  154.86    8.13
   4   0   9  173.99    7.76
   4   0  10   71.64    6.10
  -4   0 -10   74.38    6.21
   4   0  10   66.63    4.75
   4   0  10   69.99    5.85
   4   0  11   28.18    4.04
  -4   0 -11   27.32    4.02
   4   0  12   14.94    3.16
  -4   0 -12   14.94    3.12
   4   0  13  198.37   11.74
  -4   0 -13  184.10   11.66
   4   0  14   16.30    3.65
  -4   0 -14   14.09    3.41
   4   0  15   45.61    6.12
  -4   0 -15   51.40    6.66
  -4   0 -16   15.75    4.01
   4   1 -14    6.05    2.60
   4   1 -13   51.50    6.68
  -4  -1  12    1.18    0.68
  -4  -1  12    2.28    1.32
   4   1 -12    1.46    1.02
  -4  -1  11   54.85    5.45
   4   1 -11   53.68    6.31
  -4  -1  11   58.93    6.67
  -4  -1  10   29.58    3.78
  -4  -1  10   26.36    4.35
   4   1 -10   26.40    4.12
  -4  -1   9  106.20    6.84
   4   1  -9   98.99    7.59
  -4  -1   9  105.01    8.21
   4   1  -8   89.83    4.33
  -4  -1   8   98.14    6.03
   4   1  -8   82.79    6.58
  -4  -1   8   78.92    6.28
  -4  -1   8   89.81    7.34
   4   1  -7  154.30    5.11
  -4  -1   7  168.41    7.38
   4   1  -7  153.85    8.19
  -4  -1   7  145.60    7.83
  -4  -1   7  159.66    9.16
   4   1  -6  345.08    6.82
  -4  -1   6  332.46    9.80
   4   1  -6  370.42   10.62
   4   1  -6  338.34   11.40
  -4  -1   6  343.70   11.23
  -4  -1   6  355.60   13.02
   4   1  -5  390.21    6.18
  -4  -1   5  383.23    9.57
  -4  -1   5  413.38   13.03
   4   1  -5  403.50   11.00
   4   1  -5  378.19   11.03
  -4  -1   5  373.64   10.80
  -4  -1   5  396.69   13.12
   4   1  -4  428.97    4.99
  -4  -1   4  434.85   12.74
  -4  -1   4  437.72    9.23
   4   1  -4  422.04   11.04
   4   1  -4  433.19   10.53
  -4  -1   4  430.59   10.40
  -4  -1   4  433.29   13.09
   4   1  -3   81.96    5.51
  -4  -1   3   86.58    5.56
  -4  -1   3   58.88    3.34
   4   1  -3   78.49    5.66
   4   1  -3  102.04    5.43
   4   1  -3   85.31    4.16
  -4  -1   3   97.40    6.05
  -4  -1   3   74.63    4.01
  -4  -1   2  283.90    6.73
  -4  -1   2  388.16   11.46
   4   1  -2  342.41   10.77
   4   1  -2  357.47   11.79
   4   1  -2  397.72   10.63
   4   1  -2  297.13    6.98
   4   1  -2  404.83   11.72
  -4  -1   2  371.09   11.05
   4   1  -2  367.86   11.43
  -4  -1   1   88.26    3.34
   4   1  -1  246.09    3.72
   4   1  -1  170.86    7.60
   4   1  -1  186.15    8.86
   4   1  -1   91.88    3.11
   4   1  -1  256.19    8.55
   4   1  -1  250.13    9.26
  -4  -1   1  190.61    7.96
   4   1  -1  215.62    8.35
   4   1   0  301.67    5.30
   4   1   0  173.89    4.79
   4   1   0  239.63    8.45
   4   1   0  240.60    9.37
   4   1   0  303.60    9.15
  -4  -1   0  256.50    8.92
   4   1   0  230.06    8.51
   4   1   0  317.69   10.33
   4   1   1   96.33    3.56
   4   1   1   92.44    5.05
  -4  -1  -1   92.01    5.53
   4   1   1   92.17    5.02
  -4  -1  -1   93.47    5.07
   4   1   1   92.78    5.16
  -4  -1  -1   88.81    5.13
   4   1   1   91.39    5.57
   4   1   2  108.70    4.34
   4   1   2   74.41    2.03
  -4  -1  -2   90.69    5.70
   4   1   2  100.76    5.26
   4   1   2   94.26    5.20
  -4  -1  -2   99.60    5.43
   4   1   2  113.38    6.14
   4   1   3   54.73    3.44
  -4  -1  -3   31.05    3.86
  -4  -1  -3   17.37    1.38
  -4  -1  -3   34.65    1.87
   4   1   3   58.30    4.04
   4   1   3   27.93    3.03
  -4  -1  -3   52.20    3.95
   4   1   3   63.74    4.61
   4   1   4  376.06    9.71
   4   1   4  378.27   10.27
  -4  -1  -4  379.75    7.19
   4   1   4  359.56   10.29
  -4  -1  -4  331.65   10.15
   4   1   4  427.81   11.97
   4   1   5  435.98   11.20
  -4  -1  -5  418.24    9.03
   4   1   5  416.81   10.72
   4   1   5  448.23   12.01
   4   1   5  405.29    9.08
   4   1   6  573.02   13.72
  -4  -1  -6  579.05   14.03
  -4  -1  -6  561.01   11.91
   4   1   6  570.77   12.59
   4   1   6  593.88   13.85
   4   1   6  557.90   11.96
   4   1   7  151.78    7.49
  -4  -1  -7  154.96    7.69
  -4  -1  -7  147.09    6.74
   4   1   7  150.65    6.54
   4   1   7  146.60    6.74
   4   1   8  184.27    8.96
  -4  -1  -8  210.57    9.60
  -4  -1  -8  222.16    9.08
   4   1   8  200.58    7.94
   4   1   8  194.72    8.79
   4   1   9  435.59   14.21
  -4  -1  -9  446.96   14.50
  -4  -1  -9  443.44   13.74
   4   1   9  457.06   11.62
   4   1   9  439.33   13.67
   4   1  10  637.62   17.99
  -4  -1 -10  602.77   17.28
   4   1  10  662.90   13.98
   4   1  10  645.46   17.66
   4   1  11   74.10    6.61
  -4  -1 -11   72.96    6.52
   4   1  12  156.57    9.82
  -4  -1 -12  151.98    9.81
   4   1  13  200.29   11.53
  -4  -1 -13  185.67   11.43
   4   1  14   45.38    5.77
  -4  -1 -14   36.33    5.31
   4   1  15  109.20    9.37
  -4  -1 -15   97.34    9.08
   4   1  16    1.44    1.32
  -4  -1 -16    0.60    0.39
  -4  -2  13    5.38    1.95
   4   2 -13    0.35    1.03
  -4  -2  12    9.03    2.85
   4   2 -12    6.59    2.35
  -4  -2  12   10.36    3.26
  -4  -2  11    3.49    1.56
   4   2 -11    7.92    2.68
  -4  -2  11    5.03    2.08
  -4  -2  10   49.54    5.23
   4   2 -10   42.88    5.30
  -4  -2  10   47.80    5.91
  -4  -2   9    4.33    1.91
  -4  -2   9    5.98    2.37
   4   2  -9    6.39    2.19
   4   2  -8    6.90    1.50
  -4  -2   8    6.37    1.79
   4   2  -8    5.33    1.20
  -4  -2   8   12.48    2.78
   4   2  -8    9.81    2.30
   4   2  -7   55.99    4.01
  -4  -2   7   67.92    5.46
   4   2  -7  111.85    7.46
   4   2  -7   53.47    3.98
  -4  -2   7   93.47    7.23
  -4  -2   7   59.63    5.55
   4   2  -6   24.18    2.21
  -4  -2   6   32.93    3.34
   4   2  -6   28.31    3.29
   4   2  -6   25.39    2.70
  -4  -2   6   27.80    3.36
  -4  -2   6   28.29    3.70
   4   2  -5  177.53    5.60
  -4  -2   5  180.95    7.39
  -4  -2   5  184.17    8.51
   4   2  -5  186.65    7.87
   4   2  -5  171.57    7.03
  -4  -2   5  174.46    7.80
  -4  -2   5  184.16    8.93
  -4  -2   5  165.65    7.21
  -4  -2   4   53.65    4.00
   4   2  -4   51.21    2.85
  -4  -2   4   46.94    4.08
  -4  -2   4   54.04    3.77
   4   2  -4   97.62    5.34
  -4  -2   4   62.08    5.06
   4   2  -4   50.75    3.91
  -4  -2   4   63.48    4.85
   4   2  -3   61.53    2.98
  -4  -2   3   64.20    4.01
   4   2  -3   64.28    4.63
  -4  -2   3   63.30    4.51
  -4  -2   3   61.63    3.78
   4   2  -3   70.65    3.96
   4   2  -3   62.27    3.69
  -4  -2   3   63.58    4.78
  -4  -2   3   60.35    4.56
   4   2  -3   64.15    3.96
   4   2  -2  360.67    7.38
  -4  -2   2  348.19    8.43
  -4  -2   2  348.64   10.27
   4   2  -2  352.11   10.39
   4   2  -2  372.10   12.20
   4   2  -2  350.66    7.57
   4   2  -2  380.06    7.78
   4   2  -2  360.92    8.54
  -4  -2   2  378.87   11.14
  -4  -2   2  351.28   10.51
  -4  -2   1 3328.84   24.01
   4   2  -1 3364.46   25.62
   4   2  -1 3402.16   30.93
   4   2  -1 3427.84   35.67
   4   2  -1 3260.85   18.33
   4   2  -1 3346.18   18.76
   4   2  -1 3312.18   23.42
  -4  -2   1 3330.75   31.18
  -4  -2   1 3131.39   31.39
   4   2  -1 3430.22   33.02
   4   2   0   -0.73    0.45
   4   2   0   -0.20    0.34
   4   2   0   -0.19    0.35
   4   2   0    0.79    0.40
  -4  -2   0    1.34    0.46
  -4  -2   0    0.14    0.52
   4   2   0    0.26    0.41
   4   2   1  553.10   11.93
   4   2   1  559.32   10.65
   4   2   1  561.04   13.91
   4   2   1  562.14    8.66
  -4  -2  -1  574.10   12.26
   4   2   1  575.01   12.48
  -4  -2  -1  581.26   13.54
  -4  -2  -2  176.73    7.70
   4   2   2  180.72    5.11
   4   2   2  176.34    5.95
   4   2   2  167.70    6.56
  -4  -2  -2  245.26    8.84
   4   2   3   78.65    3.69
   4   2   3   81.59    4.38
  -4  -2  -3   89.98    5.52
  -4  -2  -3   81.83    2.66
   4   2   3   85.22    4.65
   4   2   4  146.01    6.44
  -4  -2  -4  127.95    6.69
  -4  -2  -4  131.82    4.31
   4   2   4  132.52    5.86
  -4  -2  -4  129.17    6.34
   4   2   5   71.25    5.43
  -4  -2  -5   68.58    3.75
   4   2   6   39.36    3.73
  -4  -2  -6   40.13    3.23
   4   2   7   46.22    4.24
  -4  -2  -7   47.72    3.90
  -4  -2  -7   61.64    4.34
   4   2   8  212.41    9.56
  -4  -2  -8  218.81    9.00
  -4  -2  -8  217.00    8.24
   4   2   9   81.98    6.55
   4   2   9   83.13    4.88
  -4  -2  -9  102.04    6.84
  -4  -2  -9   91.71    5.63
   4   2  10    3.39    1.51
   4   2  10    2.74    0.92
  -4  -2 -10    7.40    2.21
   4   2  11  407.77   15.14
   4   2  11  388.22   10.47
  -4  -2 -11  372.46   14.50
   4   2  12   39.64    4.97
   4   2  12   37.78    3.25
  -4  -2 -12   38.50    5.01
   4   2  13   40.73    5.22
  -4  -2 -13   37.52    5.10
   4   2  14    7.17    2.64
  -4  -2 -14   15.80    4.11
   4   2  15    0.16    0.82
  -4  -2 -15    2.09    1.65
   4   2  16   49.42    6.60
  -4  -2 -16   44.15    6.31
  -4  -3  13    1.49    1.35
   4   3 -13    3.14    0.91
  -4  -3  12  100.19    8.59
   4   3 -12   96.86    8.98
  -4  -3  11    1.02    1.12
  -4  -3  11   -0.38    0.84
   4   3 -11   -0.61    0.69
  -4  -3  10   75.80    6.83
   4   3 -10   70.70    6.99
  -4  -3  10   68.13    7.02
  -4  -3   9    2.30    1.16
  -4  -3   9    3.14    1.69
   4   3  -9   -0.37    0.46
   4   3  -8    1.09    0.96
  -4  -3   8    1.64    1.11
   4   3  -8    0.24    0.45
  -4  -3   8    1.00    1.17
   4   3  -8   -0.35    0.53
  -4  -3   7   20.57    3.24
   4   3  -7   19.31    2.45
   4   3  -7   20.55    3.23
  -4  -3   7   18.75    2.91
   4   3  -7   18.47    2.97
  -4  -3   7   17.06    3.08
   4   3  -7   21.03    3.12
  -4  -3   7   20.93    2.64
  -4  -3   6    3.77    1.41
   4   3  -6    3.76    1.35
   4   3  -6    2.80    0.82
  -4  -3   6    4.04    1.37
  -4  -3   6    3.43    1.45
   4   3  -6    4.35    1.34
  -4  -3   6    4.84    1.35
  -4  -3   6    5.72    1.72
   4   3  -6    5.19    1.48
  -4  -3   5    8.38    1.91
   4   3  -5   11.52    2.14
   4   3  -5   11.84    1.77
  -4  -3   5    9.59    1.93
  -4  -3   5   12.20    2.13
   4   3  -5   12.41    2.15
  -4  -3   5   10.07    1.86
  -4  -3   5    9.22    2.19
   4   3  -5    9.24    1.81
  -4  -3   4   46.23    4.07
   4   3  -4   43.79    3.32
  -4  -3   4   46.74    3.96
  -4  -3   4   45.28    3.93
   4   3  -4   45.56    3.73
   4   3  -4   45.82    3.78
   4   3  -4   41.76    3.79
  -4  -3   4   45.43    4.29
  -4  -3   4   47.72    4.13
  -4  -3   3    1.24    0.75
   4   3  -3    0.44    0.42
  -4  -3   3    0.72    0.67
   4   3  -3    0.67    0.36
  -4  -3   3    2.06    0.74
   4   3  -3    4.31    1.30
   4   3  -3    0.97    0.51
  -4  -3   3    1.11    0.61
  -4  -3   3    1.21    0.81
   4   3  -3    1.00    0.52
  -4  -3   2  117.38    5.76
   4   3  -2  116.23    5.78
   4   3  -2  116.68    5.83
  -4  -3   2  121.76    6.01
   4   3  -2  125.73    7.35
   4   3  -2  113.86    5.02
  -4  -3   2  107.17    5.96
  -4  -3   2  122.88    6.77
   4   3  -2  123.26    5.79
   4   3  -1   13.62    1.83
  -4  -3   1   15.04    1.93
   4   3  -1   14.41    2.37
   4   3  -1   13.86    1.99
   4   3  -1   14.66    1.96
   4   3  -1   12.58    1.45
  -4  -3   1   15.11    2.35
  -4  -3   1   13.76    2.06
   4   3   0 1199.18   16.81
  -4  -3   0 1178.44   16.42
   4   3   0 1202.49   18.13
   4   3   0 1188.09   17.10
   4   3   0 1207.87   21.40
   4   3   0 1186.75   12.94
  -4  -3   0 1159.10   17.72
   4   3   0 1151.79   18.19
  -4  -3   0 1185.27   20.55
   4   3   1  143.83    5.71
  -4  -3  -1  144.50    5.65
   4   3   1  137.43    5.72
   4   3   1  140.68    6.18
   4   3   1  138.93    7.12
   4   3   1  137.42    4.09
  -4  -3  -1  147.05    4.26
  -4  -3  -1  145.08    7.17
  -4  -3  -1  134.50    5.79
   4   3   1  141.43    6.16
   4   3   2    0.91    0.39
  -4  -3  -2   -0.09    0.03
  -4  -3  -2    0.20    0.08
  -4  -3  -2    0.79    0.78
   4   3   2    1.21    0.66
   4   3   2    0.37    0.10
  -4  -3  -2    0.10    0.25
   4   3   3   62.15    3.97
  -4  -3  -3   62.81    4.62
  -4  -3  -3   60.52    3.09
   4   3   3   65.01    3.13
  -4  -3  -3   61.05    4.57
   4   3   3   63.47    3.85
   4   3   4   51.20    3.70
  -4  -3  -4   51.86    4.21
   4   3   4   52.96    3.13
  -4  -3  -4   51.73    3.16
   4   3   4   48.47    3.38
  -4  -3  -4   55.17    4.48
   4   3   5  435.56   12.11
  -4  -3  -5  428.11   12.51
   4   3   5  423.76   10.01
  -4  -3  -5  443.50   10.17
   4   3   5  431.04   10.17
  -4  -3  -5  433.03   12.39
   4   3   6   43.76    4.04
   4   3   6   40.06    3.36
  -4  -3  -6   44.91    3.54
  -4  -3  -6   42.24    3.92
   4   3   7  224.16    9.81
   4   3   7  196.00    8.10
  -4  -3  -7  206.88    8.18
  -4  -3  -7  211.06    8.80
   4   3   8    0.03    0.76
  -4  -3  -8    1.29    0.66
  -4  -3  -8    2.62    1.02
   4   3   8    0.84    0.44
   4   3   9  234.68   10.73
   4   3   9  241.64   10.55
  -4  -3  -9  247.00   10.37
  -4  -3  -9  256.25    9.50
   4   3  10  126.17    8.22
   4   3  10  125.37    8.20
  -4  -3 -10  118.80    7.72
  -4  -3 -10  129.41    6.65
   4   3  11    1.38    0.97
  -4  -3 -11    2.51    0.97
  -4  -3 -11    0.58    0.46
   4   3  12   43.06    5.30
  -4  -3 -12   36.77    4.78
  -4  -3 -12   41.42    3.69
   4   3  13   26.53    4.30
  -4  -3 -13   19.74    3.68
   4   3  14    8.26    2.44
  -4  -3 -14    4.86    1.92
   4   3  15  110.54    9.51
  -4  -3 -15   93.06    8.85
   4   3  16   48.42    6.52
  -4  -3 -16   52.63    7.00
  -4  -4  13   64.55    7.45
   4   4 -13   66.89    8.28
  -4  -4  12    1.62    1.17
   4   4 -12    0.81    1.52
  -4  -4  11    8.53    2.63
  -4  -4  11    6.49    2.45
   4   4 -11    7.60    2.77
  -4  -4  10   13.26    3.03
  -4  -4  10    9.93    2.78
   4   4 -10   11.37    2.82
  -4  -4   9    4.87    1.98
   4   4  -9    3.58    1.28
  -4  -4   9    3.94    1.26
   4   4  -9    4.04    1.60
  -4  -4   9    1.66    0.18
   4   4  -8    0.83    0.64
  -4  -4   8    4.66    2.05
   4   4  -8    1.79    1.28
  -4  -4   8    1.11    0.77
  -4  -4   8    1.36    1.68
   4   4  -8    0.39    0.91
  -4  -4   7   31.91    4.14
   4   4  -7   26.47    3.17
   4   4  -7   25.91    3.73
  -4  -4   7   27.19    4.05
   4   4  -7   26.18    3.61
  -4  -4   7   29.32    3.33
   4   4  -6   17.68    2.96
   4   4  -6   20.27    2.75
  -4  -4   6   21.46    3.24
  -4  -4   6   21.61    2.95
   4   4  -6   20.95    3.10
  -4  -4   6   18.84    2.79
  -4  -4   6   18.14    3.15
   4   4  -6   23.23    3.35
   4   4  -5   75.41    5.17
  -4  -4   5   69.67    5.70
  -4  -4   5   71.35    4.99
  -4  -4   5   73.73    5.76
   4   4  -5   75.43    5.64
   4   4  -5   73.23    5.56
   4   4  -5   76.30    5.93
  -4  -4   5   64.94    5.62
  -4  -4   5   82.53    5.70
   4   4  -4  137.77    6.90
  -4  -4   4  141.76    7.81
  -4  -4   4  131.57    6.36
  -4  -4   4  131.93    7.45
   4   4  -4  138.34    7.19
  -4  -4   4  145.49    7.64
   4   4  -4  140.99    7.68
  -4  -4   4  135.45    7.62
   4   4  -3   69.24    4.90
  -4  -4   3   74.55    5.41
  -4  -4   3   68.86    5.25
   4   4  -3   71.74    4.84
   4   4  -3   70.84    5.19
  -4  -4   3   67.40    5.05
  -4  -4   2  105.13    6.20
   4   4  -2  100.69    6.14
   4   4  -2  100.99    5.20
   4   4  -2   97.11    5.37
  -4  -4   2   99.67    5.80
   4   4  -2  105.56    6.10
  -4  -4   1   65.11    4.64
   4   4  -1   57.46    4.50
   4   4  -1   63.08    3.89
   4   4  -1   65.03    5.25
   4   4  -1   57.32    3.89
   4   4  -1   58.49    4.38
  -4  -4   1   58.42    4.19
   4   4   0    1.41    0.88
  -4  -4   0    1.58    0.75
   4   4   0    1.28    0.82
   4   4   0    0.49    0.32
   4   4   0    0.38    0.51
   4   4   0    1.10    0.59
  -4  -4   0    0.27    0.26
  -4  -4   0    0.90    0.47
   4   4   1   83.64    5.06
  -4  -4  -1   75.26    4.88
   4   4   1   75.97    4.08
   4   4   1   79.00    5.24
   4   4   1   67.43    5.08
   4   4   1   79.93    4.24
  -4  -4  -1   77.15    4.17
  -4  -4  -1   73.45    4.22
   4   4   2   60.70    4.36
   4   4   2   62.97    4.76
   4   4   2   68.77    5.06
   4   4   2   62.93    3.73
  -4  -4  -2   57.55    3.64
  -4  -4  -2   59.70    3.67
   4   4   2   58.10    3.71
   4   4   3   71.92    4.79
  -4  -4  -3   65.90    4.93
   4   4   3   69.93    4.04
  -4  -4  -3   68.40    4.09
   4   4   3   68.87    3.83
   4   4   4  308.48   10.24
  -4  -4  -4  305.07   10.46
  -4  -4  -4  314.70    9.12
   4   4   4  315.97    9.01
   4   4   4  309.60    7.95
   4   4   5    9.10    1.84
  -4  -4  -5   10.43    1.94
  -4  -4  -5   12.00    1.83
   4   4   5   11.73    1.54
   4   4   5   10.71    1.75
   4   4   6  263.35   10.20
  -4  -4  -6  261.73    9.97
  -4  -4  -6  265.52    9.26
   4   4   6  254.86    9.24
   4   4   6  254.05    7.39
   4   4   7   84.97    6.12
   4   4   7   87.12    5.78
  -4  -4  -7   86.60    5.66
   4   4   8   26.89    3.60
   4   4   8   26.76    3.42
  -4  -4  -8   24.90    3.25
   4   4   9   26.30    3.83
  -4  -4  -9   15.16    2.47
   4   4   9   17.24    2.92
  -4  -4  -9   17.76    2.89
   4   4  10   54.02    5.57
  -4  -4 -10   51.65    5.32
  -4  -4 -10   55.40    4.80
   4   4  11    2.57    1.62
  -4  -4 -11    1.10    0.62
  -4  -4 -11    1.74    0.79
   4   4  12   76.80    7.18
  -4  -4 -12   74.91    7.04
  -4  -4 -12   88.72    5.90
   4   4  13  221.28   12.67
  -4  -4 -13  183.64   11.54
  -4  -4 -13  202.94    8.68
   4   4  14    1.31    0.87
  -4  -4 -14    0.35    0.49
  -4  -4 -14   -0.62    1.16
   4   4  15   74.63    7.88
  -4  -4 -15   70.13    7.73
  -4  -4 -16    0.85    0.52
  -4  -5  12   -0.16    1.22
   4   5 -12    0.55    0.97
  -4  -5  11   58.52    7.01
   4   5 -11   61.09    7.33
  -4  -5  10   84.36    8.05
   4   5 -10   81.62    8.00
   4   5 -10   79.45    8.17
  -4  -5  10   86.81    8.31
  -4  -5   9   21.99    3.86
   4   5  -9   26.43    4.45
  -4  -5   9   26.63    3.32
  -4  -5   9   23.19    4.12
   4   5  -9   27.11    4.36
  -4  -5   8   55.52    6.08
   4   5  -8   66.92    6.77
  -4  -5   8   58.38    6.16
  -4  -5   8   63.37    5.42
   4   5  -8   59.69    6.53
  -4  -5   7  162.38    8.23
  -4  -5   7  169.78   10.31
   4   5  -7  178.41   10.55
   4   5  -7  161.64   10.53
  -4  -5   7  182.60   10.43
  -4  -5   7  189.61    9.32
   4   5  -6    2.40    1.32
  -4  -5   6    1.27    0.68
  -4  -5   6    5.29    1.78
   4   5  -6    4.88    1.95
  -4  -5   6    2.13    1.06
  -4  -5   6    2.79    1.21
   4   5  -5   73.58    6.37
  -4  -5   5  134.04    6.66
  -4  -5   5  135.11    8.65
   4   5  -5  130.36    8.59
   4   5  -5  111.39    8.34
  -4  -5   5  142.11    8.34
   4   5  -4   19.59    3.46
  -4  -5   4   24.30    3.98
  -4  -5   4   14.90    3.11
   4   5  -4   12.13    2.96
   4   5  -4   16.87    3.03
  -4  -5   4   24.02    3.34
   4   5  -3   11.63    2.27
  -4  -5   3   11.65    2.44
  -4  -5   3   12.61    2.46
   4   5  -3   10.81    2.28
   4   5  -3   10.51    2.10
  -4  -5   3   11.88    2.13
  -4  -5   2  200.85    9.51
   4   5  -2  210.83    9.84
   4   5  -2  200.78    8.73
   4   5  -2  194.02    9.32
  -4  -5   2  191.38    8.28
   4   5  -1  156.74    8.10
  -4  -5   1  153.00    8.04
   4   5  -1  156.14    5.82
   4   5  -1  150.81    8.17
   4   5  -1  151.90    8.34
   4   5  -1  147.21    7.12
  -4  -5   1  151.94    7.28
  -4  -5   1  145.10    6.65
   4   5   0   26.95    3.54
  -4  -5   0   32.80    4.06
   4   5   0   40.69    4.37
   4   5   0   35.48    2.94
   4   5   0   39.23    4.44
   4   5   0   30.14    3.47
  -4  -5   0   28.94    3.44
  -4  -5   0   42.77    3.46
   4   5   1   76.65    6.31
  -4  -5  -1   72.92    6.14
   4   5   1   77.90    4.98
   4   5   1   89.87    6.62
   4   5   1   88.22    7.01
   4   5   1   69.01    5.17
  -4  -5  -1   47.28    5.49
  -4  -5  -1   90.73    5.18
   4   5   2   11.56    2.61
   4   5   2   15.47    2.01
   4   5   2   18.55    3.28
   4   5   2    9.78    2.76
  -4  -5  -2    5.44    2.08
  -4  -5  -2   12.01    2.05
   4   5   2   11.14    2.07
   4   5   3   38.39    3.93
   4   5   3   38.42    4.17
   4   5   3   35.09    3.36
  -4  -5  -3   37.90    3.51
   4   5   4  214.45    9.48
  -4  -5  -4  214.00    8.94
  -4  -5  -4  211.67    8.55
   4   5   4  222.92    8.67
   4   5   4  216.90    6.21
   4   5   5   56.22    5.00
  -4  -5  -5   56.86    4.61
  -4  -5  -5   62.13    4.82
   4   5   5   67.45    4.98
   4   5   5   62.28    3.32
   4   5   6   50.96    5.79
  -4  -5  -6   60.87    5.30
  -4  -5  -6   41.30    5.16
   4   5   6   52.84    5.30
   4   5   6   50.37    3.59
   4   5   7  139.90    8.58
  -4  -5  -7  148.83    7.84
  -4  -5  -7  131.57    7.99
   4   5   7  136.01    8.09
   4   5   7  128.87    5.13
  -4  -5  -8    9.80    2.05
   4   5   8    5.70    1.79
  -4  -5  -8    5.62    1.85
   4   5   8    6.76    2.02
   4   5   8    8.73    1.43
   4   5   9   43.08    4.93
  -4  -5  -9   43.79    4.86
   4   5  10  234.99   12.21
  -4  -5 -10  219.02   11.39
   4   5  11    5.29    1.77
  -4  -5 -11    7.66    2.26
   4   5  12  266.13   13.81
  -4  -5 -12  258.35   13.62
  -4  -5 -12  262.35   11.08
   4   5  13   67.47    7.21
  -4  -5 -13   66.97    7.28
  -4  -5 -13   69.92    5.80
   4   5  14   14.71    3.99
  -4  -5 -14    9.77    2.15
  -4  -5 -14   12.96    3.44
   4   5  15   44.47    6.41
  -4  -5 -15   47.60    6.72
  -4  -5 -16  104.95   10.21
   4   6 -11    7.60    3.15
  -4  -6  10   72.70    7.99
   4   6 -10   76.59    8.18
   4   6 -10   74.79    8.38
  -4  -6  10   75.24    7.86
  -4  -6   9   30.65    5.15
   4   6  -9   24.83    4.59
  -4  -6   9   24.10    4.33
   4   6  -9   23.80    4.43
  -4  -6   8   39.43    5.62
  -4  -6   8   39.84    4.57
   4   6  -8   38.92    5.62
  -4  -6   8   42.91    5.41
  -4  -6   7   16.47    3.46
   4   6  -7   22.80    4.01
  -4  -6   7   23.52    3.81
  -4  -6   6    5.65    2.03
   4   6  -6    4.48    1.67
  -4  -6   6    1.89    1.20
  -4  -6   5   44.16    5.22
  -4  -6   5   51.55    5.13
   4   6  -5   49.93    5.62
  -4  -6   4  347.13   14.38
   4   6  -4  344.06   14.28
  -4  -6   4  345.12   12.60
  -4  -6   3   91.02    7.16
   4   6  -3   95.04    6.81
   4   6  -3   92.01    7.15
  -4  -6   3   87.60    5.95
   4   6  -2  111.31    7.22
   4   6  -2  105.22    7.51
  -4  -6   2  102.42    6.07
   4   6  -1  197.89   10.07
  -4  -6   1  206.91   10.34
   4   6  -1  193.67    9.23
  -4  -6   1  196.98    9.42
  -4  -6   1  181.62    7.49
   4   6   0   10.08    2.22
  -4  -6   0   11.51    2.45
   4   6   0    7.23    1.81
   4   6   0   10.67    1.35
  -4  -6   0    8.91    1.87
   4   6   0    9.63    1.91
  -4  -6   0   10.91    1.72
   4   6   1   16.68    2.79
  -4  -6  -1   17.69    2.98
   4   6   1   14.31    2.45
   4   6   1   15.65    1.61
  -4  -6  -1   13.94    2.39
   4   6   1   13.22    2.25
  -4  -6  -1   16.85    1.97
   4   6   2    6.57    1.79
  -4  -6  -2    6.37    1.80
   4   6   2    9.91    1.57
   4   6   2    7.95    1.78
  -4  -6  -2    6.98    1.60
   4   6   2    9.43    1.95
  -4  -6  -2    7.79    1.25
   4   6   3    6.68    1.84
  -4  -6  -3    9.24    2.03
   4   6   3    7.03    1.74
   4   6   4   29.15    3.85
   4   6   4   38.61    4.03
  -4  -6  -4   31.06    3.70
   4   6   5   45.26    4.92
  -4  -6  -5   32.56    3.87
   4   6   5   38.82    4.15
   4   6   6   36.08    4.48
  -4  -6  -6   40.01    3.89
  -4  -6  -6   35.63    4.19
   4   6   6   38.47    4.32
   4   6   6   38.13    2.21
   4   6   7  401.23   15.33
  -4  -6  -7  420.20   12.93
  -4  -6  -7  424.02   14.75
   4   6   7  434.81   15.05
   4   6   7  428.81    7.13
   4   6   8   25.93    4.00
  -4  -6  -8   26.14    3.27
  -4  -6  -8   32.47    4.28
   4   6   8   31.39    2.04
  -4  -6  -9   24.76    3.99
   4   6   9   23.71    4.15
   4   6   9   26.93    2.18
  -4  -6  -9   18.22    3.68
  -4  -6 -10   25.97    3.53
   4   6  10   25.00    4.37
   4   6  10   26.57    4.29
  -4  -6 -10   28.33    4.44
   4   6  11   -1.27    1.45
  -4  -6 -11    0.19    0.70
   4   6  12    2.07    1.37
  -4  -6 -12    3.87    2.55
   4   6  13   -0.28    1.00
  -4  -6 -13    2.52    2.83
   4   6  14    3.19    1.61
  -4  -6 -14    5.74    1.67
  -4  -6 -14    7.52    2.90
  -4  -6 -15   42.07    7.09
   4   7 -10   -0.24    1.16
  -4  -7   9   14.84    3.66
   4   7  -9   20.77    4.53
  -4  -7   9   14.18    3.36
   4   7  -9   15.54    3.61
  -4  -7   8    2.45    1.32
   4   7  -8    3.94    2.04
  -4  -7   8    3.42    1.52
  -4  -7   7   52.81    6.48
   4   7  -7   50.35    6.51
  -4  -7   7   54.95    5.89
  -4  -7   6    6.00    2.16
   4   7  -6    9.99    2.73
  -4  -7   6    7.18    2.01
  -4  -7   5   57.14    6.39
   4   7  -5   62.33    6.85
  -4  -7   5   54.14    5.32
  -4  -7   4  132.20    9.55
   4   7  -4  140.16    9.85
  -4  -7   4  145.85    8.41
   4   7  -3   39.22    5.10
  -4  -7   3   35.81    3.91
   4   7  -2   21.04    3.70
  -4  -7   2   25.87    3.87
  -4  -7   2   26.01    3.06
   4   7  -1   53.52    5.73
  -4  -7   1   50.45    5.29
  -4  -7   1   58.84    4.44
   4   7   0   27.68    4.08
  -4  -7   0   26.30    3.72
   4   7   0   31.76    4.05
  -4  -7   0   34.87    3.07
   4   7   1    9.54    2.48
   4   7   1    8.03    1.92
  -4  -7  -1    8.61    2.07
  -4  -7  -1   10.66    1.57
   4   7   1    6.90    1.78
   4   7   2    3.46    1.26
   4   7   2    1.88    0.52
   4   7   2    2.18    1.13
  -4  -7  -2    2.71    1.23
  -4  -7  -2    2.79    0.80
   4   7   2    2.53    0.97
   4   7   3   28.68    4.06
   4   7   3   30.69    4.02
  -4  -7  -3   37.78    4.45
   4   7   3   33.77    2.31
   4   7   4  209.63   11.36
   4   7   4  215.70   10.71
  -4  -7  -4  206.72   10.54
   4   7   5  443.24   16.64
  -4  -7  -5  453.37   15.94
   4   7   6  107.85    8.35
  -4  -7  -6  113.91    8.19
   4   7   7   20.11    3.59
  -4  -7  -7   22.56    3.83
   4   7   8   28.72    4.50
  -4  -7  -8   27.64    4.16
  -4  -7  -8   26.90    3.28
   4   7   9   12.44    3.03
  -4  -7  -9   11.36    2.92
  -4  -7  -9   14.06    2.47
   4   7  10   89.34    8.46
  -4  -7 -10   96.88    6.58
  -4  -7 -10   89.82    8.09
  -4  -7 -11   15.24    2.65
   4   7  11   14.99    3.70
   4   7  11   13.06    3.19
  -4  -7 -11   16.45    3.55
   4   7  12   40.27    6.05
   4   7  12   52.10    6.56
  -4  -7 -12   50.27    5.04
  -4  -7 -12   48.75    6.34
   4   7  13   21.92    4.47
   4   7  13   17.30    4.03
  -4  -7 -13   19.94    4.21
  -4  -7 -14    3.32    1.59
  -4  -8   9   -1.62    1.43
  -4  -8   8    3.40    1.70
  -4  -8   7   -0.87    0.28
   4   8  -7    3.28    2.29
  -4  -8   7   -1.52    1.37
  -4  -8   6   67.50    7.72
   4   8  -6   76.55    8.30
  -4  -8   6   67.60    6.47
  -4  -8   5   32.91    5.20
   4   8  -5   19.78    4.10
  -4  -8   5   17.14    3.25
   4   8  -4    2.71    1.53
  -4  -8   4    1.83    0.83
   4   8  -3    8.75    2.68
  -4  -8   3    6.18    1.66
   4   8  -2   10.79    2.84
  -4  -8   2    7.95    2.47
  -4  -8   2    8.32    1.79
   4   8  -1   79.98    7.69
  -4  -8   1   88.82    7.80
  -4  -8   1   83.69    5.15
   4   8   0   10.82    2.57
  -4  -8   0   10.03    2.42
  -4  -8   0   13.73    1.93
   4   8   1  103.87    8.59
  -4  -8  -1  109.78    8.33
  -4  -8  -1  107.62    4.60
   4   8   2   26.19    4.17
  -4  -8  -2   25.71    4.02
   4   8   3  123.89    9.37
  -4  -8  -3  124.20    8.84
   4   8   3  113.66    2.54
   4   8   4  215.66   12.46
  -4  -8  -4  225.03   12.02
   4   8   4  231.55    5.56
   4   8   5  126.33    9.66
  -4  -8  -5  128.91    9.24
   4   8   6  103.22    8.77
  -4  -8  -6  102.80    8.38
   4   8   7  279.72   14.67
  -4  -8  -7  266.76   13.77
   4   8   8   56.30    6.72
  -4  -8  -8   51.87    6.20
   4   8   9   61.45    7.20
  -4  -8  -9   56.22    6.66
   4   8  10   61.22    7.45
  -4  -8 -10   51.98    6.46
   4   8  11    2.65    1.20
   4   8  11    2.06    1.73
  -4  -8 -11    1.90    1.61
   4   8  12   30.52    5.55
   4   8  12   47.99    6.55
  -4  -8 -12   36.92    5.92
  -4  -8 -13    0.58    1.06
   4   9  -5   18.65    4.37
   4   9  -4   22.97    4.62
   4   9  -3   38.57    6.16
   4   9  -2   20.73    4.43
  -4  -9   2   24.99    4.71
   4   9  -1   27.32    5.01
  -4  -9   1   23.67    4.56
   4   9   0  140.56   11.56
  -4  -9   0  148.03   11.08
   4   9   1   50.90    6.49
  -4  -9  -1   55.09    6.47
   4   9   2    2.51    1.80
  -4  -9  -2   -0.75    0.73
   4   9   3   10.17    2.99
  -4  -9  -3    8.14    2.57
   4   9   4    1.94    1.63
  -4  -9  -4    0.98    0.78
   4   9   5   24.85    4.89
  -4  -9  -5   33.88    5.53
   4   9   6  216.34   13.79
  -4  -9  -6  225.05   13.42
   4   9   7   60.63    7.42
  -4  -9  -7   47.25    6.32
   4   9   8   19.25    4.26
  -4  -9  -8   19.73    4.23
   4   9   9   87.12    9.05
  -4  -9  -9   87.24    8.90
   4   9  10   12.42    3.61
  -4  -9 -10    8.33    3.21
  -4  -9 -11    7.61    3.04
  -4 -10   2   29.07    5.38
   4  10  -1   31.10    5.54
  -4 -10   1   22.21    4.63
   4  10   0    7.35    2.65
  -4 -10   0   11.39    3.37
   4  10   1   24.82    4.75
  -4 -10  -1   18.29    3.87
   4  10   2    7.24    2.75
  -4 -10  -2    2.96    2.27
   4  10   3   22.92    4.75
  -4 -10  -3   21.88    4.46
   4  10   4   39.68    6.06
  -4 -10  -4   41.81    6.20
   4  10   5   11.55    3.16
  -4 -10  -5    9.24    2.81
   4  10   6   15.44    3.75
  -4 -10  -6   19.40    4.29
   4  10   7    2.16    1.05
  -4 -10  -7    3.29    1.60
  -4 -10  -8    2.65    1.53
  -4 -10  -9   16.69    4.11
  -4 -11  -2   10.69    3.50
  -4 -11  -3    8.73    3.07
   5  -8   0    2.36    1.39
   5  -8   1   55.12    7.33
   5  -7  -6   14.02    4.49
   5  -7  -5   -1.76    1.39
   5  -7  -4   -0.49    1.30
   5  -7  -3    6.15    2.44
   5  -7  -2   20.10    4.09
   5  -7  -1    2.79    1.85
   5  -7   0   68.16    7.79
   5  -7   0   81.39    7.08
   5  -7   1   41.73    6.07
   5  -7   1   51.56    5.48
  -5   7  -2   19.74    3.83
   5  -7   2   23.55    3.90
   5  -7   2   10.97    3.35
   5  -7   3   42.93    5.08
   5  -7   3   24.07    5.07
  -5   7  -3   29.46    5.06
  -5   7  -4   27.23    4.20
   5  -7   4   22.85    4.61
   5  -7   4   28.91    3.90
  -5   7  -5   17.50    3.46
   5  -7   5   17.11    4.28
  -5   7  -6    0.86    0.59
  -5   7  -7    8.31    2.35
   5  -7   7    6.63    2.10
  -5   7  -8    1.65    1.18
   5  -7   8   -0.53    0.50
  -5   7  -9   36.41    5.73
   5  -7   9   25.84    4.69
  -5   6   8    4.58    2.06
   5  -6  -8    2.93    1.50
   5  -6  -7   13.30    3.71
  -5   6   7    5.16    1.96
   5  -6  -6   36.30    6.18
  -5   6   6   27.11    4.72
   5  -6  -5    6.00    2.45
  -5   6   5    6.20    2.33
  -5   6   4   14.10    3.49
   5  -6  -4   10.03    2.92
  -5   6   3  100.60    8.89
   5  -6  -3   95.63    8.63
  -5   6   2  102.43    7.29
  -5   6   2  103.08    8.82
   5  -6  -2  101.03    8.73
   5  -6  -2  102.08    8.01
  -5   6   1   92.97    6.90
  -5   6   1  107.39    9.00
   5  -6  -1  103.99    8.77
   5  -6  -1  102.01    7.85
  -5   6   0   76.79    6.26
   5  -6   0   68.35    7.08
   5  -6   0   71.97    6.51
  -5   6  -1   18.16    3.09
   5  -6   1   15.79    3.43
   5  -6   1   19.30    3.33
  -5   6  -2   17.51    3.16
   5  -6   2   19.09    3.32
   5  -6   2   12.50    3.11
   5  -6   3   48.53    5.34
  -5   6  -3   29.65    3.79
   5  -6   3   46.33    6.09
  -5   6  -3   45.17    5.31
   5  -6   4   61.92    5.91
   5  -6   4   43.41    4.86
  -5   6  -4   52.88    5.20
  -5   6  -4   60.88    6.88
   5  -6   4   54.64    6.83
  -5   6  -4   62.07    6.08
   5  -6   5   45.58    5.54
   5  -6   5   32.30    4.59
  -5   6  -5   53.25    6.60
   5  -6   5   48.19    6.44
  -5   6  -5   45.60    5.29
   5  -6   6  126.04    8.26
   5  -6   6  128.99    8.75
  -5   6  -6  130.08    9.86
  -5   6  -6  137.35    9.30
   5  -6   7   44.80    4.90
   5  -6   7   45.48    5.37
  -5   6  -7   49.98    6.17
  -5   6  -7   47.95    5.62
  -5   6  -8    5.44    2.14
   5  -6   8    7.52    2.06
   5  -6   8    8.91    2.39
  -5   6  -8    7.37    2.49
   5  -6   9   93.66    8.41
  -5   6  -9   92.54    8.31
  -5   6  -9   95.14    8.57
  -5   6 -10   16.68    3.88
  -5   6 -10   22.21    4.00
   5  -6  10   11.47    3.22
  -5   6 -11    5.05    1.83
  -5   6 -11    7.62    2.53
   5  -5 -10    7.03    2.65
  -5   5  10    4.45    1.96
   5  -5  -9    8.83    2.95
  -5   5   9    8.35    2.56
   5  -5  -8   25.34    4.77
  -5   5   8   22.16    3.79
  -5   5   8   28.36    4.40
  -5   5   7   34.52    4.75
   5  -5  -7   41.80    5.72
  -5   5   6   26.64    4.19
   5  -5  -6   23.11    4.22
  -5   5   5   52.93    5.18
   5  -5  -5   46.60    5.76
  -5   5   5   50.32    5.74
  -5   5   4    2.56    1.32
   5  -5  -4    1.68    0.79
  -5   5   4    4.12    1.77
  -5   5   3   -0.37    0.65
  -5   5   3    2.23    1.66
   5  -5  -3   -1.20    0.95
  -5   5   2   41.73    4.16
  -5   5   2   40.61    5.18
   5  -5  -2   39.12    5.02
   5  -5  -2   34.65    4.62
  -5   5   1   -0.40    0.06
   5  -5  -1   -0.27    0.44
  -5   5   1    1.50    1.18
   5  -5  -1   -0.28    0.38
  -5   5   0   45.86    4.36
   5  -5   0   43.82    4.95
  -5   5   0   45.79    5.54
   5  -5   0   43.38    5.13
  -5   5  -1   53.53    4.88
   5  -5   1   48.97    5.18
  -5   5  -1   50.01    4.34
  -5   5  -1   45.95    5.49
   5  -5   1   44.19    5.21
  -5   5  -1   55.18    4.74
  -5   5  -2   17.76    2.79
  -5   5  -2   15.58    2.46
   5  -5   2   12.73    2.58
  -5   5  -2   15.29    2.72
   5  -5   2   12.16    2.88
  -5   5  -2   12.00    2.71
   5  -5   3   87.99    6.36
   5  -5   3   83.51    6.50
   5  -5   3   90.22    5.77
  -5   5  -3   83.15    5.98
  -5   5  -3   80.83    7.31
   5  -5   3   89.55    7.55
  -5   5  -3   89.89    6.27
   5  -5   4   36.11    4.14
   5  -5   4   32.39    4.03
   5  -5   4   36.20    3.88
  -5   5  -4   45.03    5.38
   5  -5   4   45.13    5.49
  -5   5  -4   37.59    4.17
   5  -5   5   47.53    4.92
   5  -5   5   42.53    4.42
  -5   5  -5   49.19    5.67
  -5   5  -5   45.61    4.70
   5  -5   6   82.80    6.55
   5  -5   6   95.33    6.96
  -5   5  -6   98.07    8.02
  -5   5  -6   96.45    7.20
   5  -5   7   49.93    5.29
  -5   5  -7   57.54    6.19
  -5   5  -7   54.81    5.65
  -5   5  -8   35.03    4.63
   5  -5   8   24.48    3.83
  -5   5  -8   26.91    4.25
   5  -5   9  102.30    8.35
  -5   5  -9  105.78    8.28
  -5   5  -9  118.59    9.00
  -5   5 -10    6.31    2.06
  -5   5 -10    5.56    2.13
   5  -5  10    2.80    1.84
  -5   5 -11   28.20    4.80
   5  -5  11   28.11    4.79
  -5   5 -11   31.45    4.48
   5  -5  12   46.09    6.32
  -5   5 -12   43.63    5.27
   5  -4 -11   -0.01    0.73
   5  -4 -10    2.25    1.30
  -5   4  10    1.91    1.31
   5  -4  -9    6.42    2.48
  -5   4   9    1.52    0.58
   5  -4  -8   64.00    6.98
  -5   4   8   57.18    6.14
  -5   4   7    5.57    1.66
  -5   4   7    2.90    1.21
   5  -4  -7    4.41    1.87
  -5   4   7    3.77    1.29
  -5   4   6   99.23    6.89
   5  -4  -6  101.97    8.24
  -5   4   6   96.31    7.38
  -5   4   6  111.15    8.01
  -5   4   5   19.53    2.85
  -5   4   5   24.21    3.76
   5  -4  -5   27.42    4.13
  -5   4   5   24.29    3.64
  -5   4   4    8.34    1.77
   5  -4  -4    9.41    2.40
  -5   4   4    9.08    2.30
  -5   4   3    0.56    0.20
   5  -4  -3    1.10    0.99
  -5   4   3    0.38    0.27
   5  -4  -3    1.56    1.43
  -5   4   2  169.43    7.46
   5  -4  -2  167.48    9.70
  -5   4   2  167.18    9.91
  -5   4   2  161.50    9.25
   5  -4  -2  157.07    9.05
  -5   4   1   18.55    2.39
  -5   4   1   20.00    2.30
   5  -4  -1   22.46    3.40
  -5   4   1   18.30    3.30
   5  -4  -1   21.70    3.32
  -5   4   1   14.55    2.69
  -5   4   0  141.86    6.55
  -5   4   0  132.70    6.37
   5  -4   0  122.88    7.92
  -5   4   0  129.12    8.07
  -5   4   0  134.55    8.83
   5  -4   0  132.30    8.07
  -5   4  -1   21.83    2.78
   5  -4   1   27.77    3.78
  -5   4  -1   26.55    3.22
   5  -4   1   23.05    3.32
  -5   4  -1   26.75    3.66
  -5   4  -1   29.96    4.12
  -5   4  -1   29.59    3.00
  -5   4  -2   31.63    3.43
   5  -4   2   26.21    3.53
  -5   4  -2   31.65    3.57
   5  -4   2   29.91    3.73
  -5   4  -2   29.95    4.13
  -5   4  -2   26.87    3.68
  -5   4  -2   30.84    3.12
  -5   4  -3   16.33    2.31
   5  -4   3   16.35    2.38
  -5   4  -3   14.96    2.52
   5  -4   3   13.62    2.57
   5  -4   3   18.00    2.31
  -5   4  -3   18.34    2.77
  -5   4  -3   18.59    3.12
  -5   4  -3   15.38    2.97
   5  -4   3   14.84    2.79
  -5   4  -4  174.52    8.95
   5  -4   4  167.00    8.08
   5  -4   4  168.02    8.96
   5  -4   4  179.62    7.91
  -5   4  -4  170.36    9.96
   5  -4   4  185.23    9.96
  -5   4  -4  185.58    8.28
   5  -4   5   10.13    1.99
  -5   4  -5    7.47    1.70
  -5   4  -5    9.26    2.18
   5  -4   5   11.96    2.30
   5  -4   5   10.74    2.23
   5  -4   6    0.51    0.72
  -5   4  -6    2.22    0.88
   5  -4   6    1.67    1.38
  -5   4  -6    0.21    0.45
   5  -4   7   40.30    4.50
   5  -4   7   37.38    4.35
  -5   4  -7   34.33    4.45
  -5   4  -7   33.67    4.08
   5  -4   8   48.89    5.79
   5  -4   8   46.82    5.12
  -5   4  -8   41.03    4.87
  -5   4  -8   48.68    5.21
   5  -4   9  288.28   14.49
   5  -4   9  290.09   13.46
  -5   4  -9  279.26   12.51
  -5   4  -9  308.50   13.72
  -5   4 -10   35.50    4.78
  -5   4 -10   41.98    4.91
   5  -4  10   36.42    5.06
   5  -4  10   33.85    5.17
   5  -4  11   62.31    7.35
  -5   4 -11   56.24    5.54
   5  -4  12    2.52    1.86
  -5   4 -13    1.08    0.97
   5  -3 -11   59.53    7.40
   5  -3 -10    6.94    2.94
  -5   3  10    5.49    2.58
  -5   3   9   11.39    2.79
   5  -3  -9   10.42    2.61
   5  -3  -8    2.89    1.63
  -5   3   8    3.34    1.54
  -5   3   7   11.57    2.49
   5  -3  -7   13.79    3.42
  -5   3   7   15.19    3.19
  -5   3   6    1.11    0.97
   5  -3  -6    3.66    1.77
  -5   3   6    3.10    1.38
  -5   3   6    4.58    1.77
  -5   3   5    8.51    2.52
   5  -3  -5   13.79    4.28
  -5   3   5   78.21    6.57
  -5   3   5   20.66    4.29
  -5   3   5   55.12    6.79
  -5   3   4    6.11    1.45
   5  -3  -4   16.19    3.49
  -5   3   4   20.56    3.30
   5  -3  -4    6.46    1.88
  -5   3   4    3.24    1.46
  -5   3   4   14.98    2.94
  -5   3   3   91.47    2.60
  -5   3   3   81.11    4.73
   5  -3  -3   87.63    6.34
  -5   3   3   95.10    6.90
  -5   3   3   79.94    6.14
   5  -3  -3   87.23    6.98
  -5   3   2  301.71    6.35
  -5   3   2  227.05    7.37
   5  -3  -2  251.80   11.56
  -5   3   2  318.80   12.65
  -5   3   2  214.76    9.69
   5  -3  -2  242.25   10.19
  -5   3   1   20.62    2.17
  -5   3   1   61.42    3.35
   5  -3  -1   25.41    3.78
  -5   3   1   71.76    6.12
   5  -3  -1   20.40    2.93
  -5   3   1   19.17    2.80
  -5   3   0  372.53    9.22
   5  -3   0  338.94   12.67
  -5   3   0  398.72   14.13
  -5   3   0  316.06   11.27
   5  -3   0  318.63   11.23
  -5   3   0  319.60    8.16
  -5   3  -1    4.09    0.97
  -5   3  -1    2.19    0.82
   5  -3   1    1.07    0.68
  -5   3  -1    3.04    0.90
   5  -3   1    2.50    1.02
  -5   3  -1    3.86    1.54
  -5   3  -1    2.69    1.11
  -5   3  -2    0.49    0.41
   5  -3   2    1.97    1.05
  -5   3  -2   -0.21    0.42
  -5   3  -2    0.21    0.45
  -5   3  -2    0.70    0.25
  -5   3  -2    0.72    0.52
   5  -3   2    0.60    0.75
   5  -3   2    0.97    0.61
   5  -3   3    2.66    0.86
  -5   3  -3    0.50    0.52
  -5   3  -3    1.57    0.86
   5  -3   3    3.91    1.45
   5  -3   3    1.46    0.65
  -5   3  -3    1.67    0.97
  -5   3  -3    1.35    0.68
  -5   3  -3   -0.40    0.62
   5  -3   3    1.19    0.84
  -5   3  -4  320.87   11.81
   5  -3   4  251.92    8.66
   5  -3   4  263.30   11.05
   5  -3   4  246.50    8.44
  -5   3  -4  268.50   10.87
  -5   3  -4  351.82   13.43
  -5   3  -4  320.09    9.91
  -5   3  -5  125.12    7.40
   5  -3   5  114.87    6.28
   5  -3   5  115.45    7.29
   5  -3   5  119.26    6.43
  -5   3  -5  117.88    7.70
  -5   3  -5  121.23    7.56
  -5   3  -5  123.97    6.39
   5  -3   6  275.48   12.12
   5  -3   6  246.11    9.75
   5  -3   6  271.43   10.64
  -5   3  -6  315.58   12.59
  -5   3  -6  260.48   11.48
  -5   3  -6  289.97   10.62
   5  -3   7   42.90    4.28
   5  -3   7   57.64    6.00
  -5   3  -7   68.32    5.90
  -5   3  -7   54.93    5.07
   5  -3   8   24.66    3.42
   5  -3   8   32.16    4.41
  -5   3  -8   27.25    3.73
  -5   3  -8   31.68    3.98
   5  -3   9  236.46   12.29
  -5   3  -9  227.93   10.67
   5  -3  10   10.39    2.68
   5  -3  11   27.20    4.79
   5  -3  12    7.91    2.76
  -5   3 -12    5.05    2.13
   5  -3  13    3.53    2.09
  -5   3 -13    2.01    1.97
  -5   3 -14   25.23    5.04
   5  -2 -12    5.64    2.34
   5  -2 -11   16.77    3.88
  -5   2  10   12.54    3.38
   5  -2 -10   10.18    2.95
  -5   2   9   10.69    2.72
   5  -2  -9   12.65    2.95
  -5   2   8   14.37    3.24
   5  -2  -8   13.38    3.31
  -5   2   7   19.72    3.45
   5  -2  -7   16.20    3.29
  -5   2   6   14.21    2.32
  -5   2   6   13.18    2.66
   5  -2  -6    9.31    2.28
  -5   2   6   11.36    2.48
  -5   2   5  137.27    6.71
   5  -2  -5  151.46    8.55
  -5   2   5  144.37    8.45
   5  -2  -5  159.99    8.51
  -5   2   5  165.59    9.34
  -5   2   5  169.21    7.35
  -5   2   4   36.68    3.18
   5  -2  -4   38.75    4.67
   5  -2  -4   41.02    4.29
  -5   2   4   42.74    4.23
   5  -2  -4   45.16    4.33
  -5   2   4   36.81    4.27
  -5   2   4   49.20    3.64
  -5   2   3   44.30    3.02
   5  -2  -3   52.35    5.28
   5  -2  -3   49.13    4.25
  -5   2   3   52.87    4.82
  -5   2   3   51.97    4.40
  -5   2   3   51.44    4.95
  -5   2   2  168.65    5.17
   5  -2  -2  180.96    9.49
  -5   2   2  212.46    9.67
  -5   2   2  165.55    7.60
   5  -2  -2  171.99    7.65
  -5   2   2  199.12    9.63
  -5   2   1   28.80    1.96
  -5   2   1   35.10    1.86
   5  -2  -1   43.19    4.72
  -5   2   1   61.96    5.15
  -5   2   1   28.35    3.11
   5  -2  -1   25.34    2.97
  -5   2   0    8.14    0.89
   5  -2   0    5.96    1.53
  -5   2   0    7.93    1.08
   5  -2   0    7.28    1.48
  -5   2   0    8.28    1.96
  -5   2   0    7.39    1.48
  -5   2  -1  267.45    7.53
   5  -2   1  225.36   10.03
  -5   2  -1  207.46    9.16
  -5   2  -1  173.87    7.27
  -5   2  -1  258.10   10.57
   5  -2   1  213.45    8.05
  -5   2  -1  283.39    5.38
  -5   2  -2   46.43    3.42
   5  -2   2   40.90    4.23
   5  -2   2   33.65    2.08
  -5   2  -2   41.09    4.20
  -5   2  -2   38.56    3.45
  -5   2  -2   51.48    4.72
   5  -2   2   41.73    3.61
  -5   2  -2   50.32    2.55
  -5   2  -3  299.65    9.55
   5  -2   3  264.56    6.94
   5  -2   3  279.85    9.42
   5  -2   3  318.63   11.66
   5  -2   3  288.38    7.47
  -5   2  -3  305.88   11.42
  -5   2  -3  275.15    9.45
  -5   2  -3  323.77   11.94
   5  -2   3  309.39    9.93
  -5   2  -3  326.76    7.42
   5  -2   4    1.44    0.66
  -5   2  -4    4.13    1.01
  -5   2  -4    3.40    1.24
   5  -2   4    1.69    1.01
  -5   2  -4    1.77    0.62
  -5   2  -4    2.25    1.09
  -5   2  -5  104.49    6.43
   5  -2   5  105.48    6.47
   5  -2   5  104.97    5.28
  -5   2  -5   99.72    6.56
  -5   2  -5  101.11    6.15
  -5   2  -5  106.25    5.30
  -5   2  -6  255.69   10.73
   5  -2   6  214.82    8.38
   5  -2   6  239.30   10.33
  -5   2  -6  252.68   10.53
  -5   2  -6  228.71    9.89
   5  -2   7   17.54    2.81
   5  -2   7   24.16    3.78
  -5   2  -7   32.58    3.84
  -5   2  -7   17.92    3.14
   5  -2   8   47.96    4.60
   5  -2   8   43.94    4.88
  -5   2  -8   39.75    4.56
   5  -2   9  164.01    9.07
   5  -2   9  172.22   10.11
   5  -2  10   15.50    3.12
  -5   2 -10    9.82    2.56
   5  -2  11   25.53    4.29
  -5   2 -11   23.25    3.97
   5  -2  12   39.80    5.44
  -5   2 -12   36.13    5.25
   5  -2  13    5.70    2.11
  -5   2 -13    4.74    2.36
   5  -2  14   47.90    6.42
  -5   2 -14   39.94    5.98
  -5   2 -15   36.44    6.16
   5  -1 -12   13.17    3.21
  -5   1  11   33.31    5.20
   5  -1 -11   30.23    4.86
  -5   1  10   16.34    3.42
   5  -1 -10   15.98    3.28
  -5   1   9    6.69    2.13
   5  -1  -9    4.68    1.85
  -5   1   8   22.62    3.82
   5  -1  -8   24.98    3.81
  -5   1   7   -0.30    0.24
  -5   1   7    0.78    0.80
   5  -1  -7    0.13    0.42
  -5   1   7    0.65    1.15
  -5   1   6   10.33    0.79
  -5   1   6   18.59    2.52
  -5   1   6   12.26    2.62
   5  -1  -6   16.58    2.70
  -5   1   6   16.71    2.73
  -5   1   5    5.54    1.20
   5  -1  -5    7.13    1.62
  -5   1   5    5.91    1.73
  -5   1   5    5.63    1.43
  -5   1   4    1.72    0.59
   5  -1  -4    4.16    1.61
   5  -1  -4    4.08    1.64
   5  -1  -4    3.23    1.06
  -5   1   4    3.09    1.16
  -5   1   4    2.48    0.91
  -5   1   3   13.64    1.46
  -5   1   3    6.09    1.13
   5  -1  -3    7.08    1.74
   5  -1  -3    3.29    1.15
   5  -1  -3    5.69    1.29
  -5   1   3    8.64    2.07
  -5   1   3    6.64    1.47
  -5   1   2  130.55    3.45
   5  -1  -2  138.21    7.70
   5  -1  -2  133.78    7.84
  -5   1   2  135.37    5.88
   5  -1  -2  132.85    5.80
  -5   1   2  130.75    7.55
  -5   1   2  135.84    3.50
   5  -1  -1    5.43    1.52
   5  -1  -1    4.61    1.04
   5  -1  -1    5.78    1.58
  -5   1   1    4.79    1.00
  -5   1   1    5.41    1.45
   5  -1   0  223.08    9.70
  -5   1   0  222.17    6.68
   5  -1   0  235.21    6.91
   5  -1   0  213.57    9.74
  -5   1  -1    8.47    1.84
  -5   1  -1    9.22    1.18
   5  -1   1    8.86    1.95
   5  -1   1    9.08    1.34
   5  -1   1    9.09    2.08
   5  -1   1    9.30    2.03
  -5   1  -1    9.36    1.41
   5  -1   2   43.42    3.03
  -5   1  -2   48.88    3.18
   5  -1   2   44.30    2.07
   5  -1   2   41.18    4.05
  -5   1  -2   41.97    4.11
  -5   1  -2   43.42    2.97
   5  -1   2   42.87    2.96
   5  -1   2   44.63    4.26
   5  -1   2   43.54    4.31
   5  -1   3  140.99    3.31
   5  -1   3  149.71    6.18
  -5   1  -3  144.51    6.05
  -5   1  -3  154.24    8.03
  -5   1  -3  145.08    5.79
   5  -1   3  136.19    7.48
   5  -1   3  154.47    8.21
   5  -1   4    0.27    0.09
   5  -1   4    0.72    0.39
  -5   1  -4    0.87    0.68
  -5   1  -4    0.44    0.25
   5  -1   4    2.08    1.19
  -5   1  -5   23.39    2.86
   5  -1   5   26.44    2.96
   5  -1   5   24.94    2.28
  -5   1  -5   23.23    2.62
   5  -1   5   26.03    3.39
   5  -1   6    1.96    0.81
  -5   1  -6    0.94    0.83
   5  -1   6    0.36    0.60
  -5   1  -6    0.94    0.71
   5  -1   6    0.76    0.60
  -5   1  -7   61.18    5.24
   5  -1   7   64.70    5.28
  -5   1  -7   69.50    5.17
   5  -1   7   63.72    4.50
   5  -1   8    1.78    0.92
   5  -1   8    3.79    1.42
  -5   1  -8    1.95    0.80
  -5   1  -8    3.46    1.27
   5  -1   9  321.89   13.02
  -5   1  -9  320.37   12.76
  -5   1  -9  342.46   13.02
   5  -1   9  328.54   11.92
   5  -1  10   93.93    7.39
  -5   1 -10   85.12    6.90
   5  -1  10   88.57    6.61
   5  -1  11  367.80   15.27
  -5   1 -11  363.31   14.78
   5  -1  12   42.46    5.48
  -5   1 -12   41.25    5.28
   5  -1  13    2.08    0.66
  -5   1 -13   -0.07    0.53
   5  -1  14    0.20    0.85
  -5   1 -14    4.02    1.99
  -5   1 -15   13.64    3.43
  -5   1 -16    5.90    2.70
   5   0 -12   -0.51    0.55
   5   0 -11   72.49    7.38
  -5   0  11   76.35    7.94
  -5   0  10   22.84    4.19
   5   0 -10   21.82    3.80
   5   0  -9   33.71    4.51
  -5   0   9   36.98    5.16
  -5   0   8   26.39    2.73
  -5   0   8   23.86    3.95
   5   0  -8   25.09    3.59
  -5   0   7   10.31    1.54
  -5   0   7    8.96    1.84
  -5   0   7   13.07    2.83
   5   0  -7    9.48    2.10
  -5   0   6   13.10    1.51
  -5   0   6   13.15    2.12
   5   0  -6   10.33    2.10
  -5   0   6   12.47    2.78
   5   0  -6   13.00    2.31
  -5   0   5  163.32    4.19
   5   0  -5  163.71    7.49
  -5   0   5  158.38    6.65
  -5   0   5  161.91    9.03
   5   0  -5  168.42    8.78
   5   0  -4   65.31    5.74
   5   0  -4   61.04    4.17
  -5   0   4   60.07    5.33
  -5   0   4   59.02    3.57
   5   0  -4   69.33    5.69
   5   0  -3   75.16    5.91
   5   0  -3   78.75    6.09
   5   0  -3   80.68    4.32
  -5   0   3   77.47    4.34
  -5   0   3   69.42    5.56
  -5   0   3   85.20    3.58
   5   0  -3   82.14    6.14
  -5   0   2   20.81    1.20
   5   0  -2   22.22    3.10
   5   0  -2   19.31    2.85
   5   0  -2   23.04    2.07
  -5   0   2   19.62    1.91
  -5   0   2   18.53    2.77
   5   0  -2   25.07    3.35
   5   0  -1    5.18    1.52
   5   0  -1    7.10    1.81
   5   0  -1    5.88    0.97
   5   0  -1    6.25    1.64
   5   0  -1    7.45    1.89
  -5   0   1    5.61    0.82
  -5   0   1    7.02    1.66
   5   0   0  133.85    7.25
  -5   0   0  127.43    3.42
   5   0   0  124.83    3.46
  -5   0   0  131.94    7.12
   5   0   0  127.51    7.22
   5   0   0  128.67    7.42
  -5   0  -1   -1.17    0.97
   5   0   1    0.20    0.27
   5   0   1   -0.94    0.77
   5   0   1    0.09    0.46
   5   0   1    1.42    0.99
   5   0   1   -0.10    0.41
  -5   0  -1    0.44    0.24
  -5   0  -2    9.12    2.00
   5   0   2   10.43    2.01
   5   0   2   10.19    1.34
   5   0   2   10.05    2.00
  -5   0  -2    8.92    0.87
   5   0   2   10.88    2.14
   5   0   2   11.51    2.09
  -5   0  -3  136.06    5.63
   5   0   3  136.36    5.50
  -5   0  -3  136.21    7.53
  -5   0  -3  141.30    4.25
   5   0   3  137.93    7.37
   5   0   3  150.82    7.58
   5   0   3  136.12    7.54
   5   0   4   32.33    1.85
  -5   0  -4   33.19    3.05
   5   0   4   31.45    2.86
  -5   0  -4   32.91    3.73
  -5   0  -4   36.28    2.53
  -5   0  -4   34.13    2.46
   5   0   4   40.64    3.95
   5   0   4   31.00    3.62
  -5   0  -5   95.98    5.65
   5   0   5   91.53    5.33
  -5   0  -5   91.89    4.56
  -5   0  -5   95.47    4.65
   5   0   5   97.00    4.08
   5   0   5  100.05    6.30
   5   0   5   94.23    6.34
  -5   0  -6  268.78   10.16
   5   0   6  238.16    9.26
  -5   0  -6  230.10    7.95
  -5   0  -6  249.84    8.32
   5   0   6  258.40    7.71
   5   0   6  257.70   10.61
   5   0   7   26.09    3.25
  -5   0  -7   31.58    3.74
  -5   0  -7   26.62    2.91
  -5   0  -7   27.88    3.02
   5   0   7   27.68    3.55
   5   0   7   24.51    2.62
   5   0   8  121.59    7.37
  -5   0  -8  123.79    7.83
  -5   0  -8  111.12    6.51
  -5   0  -8  132.43    7.16
   5   0   8  120.42    6.48
   5   0   8  138.56    7.90
   5   0   9    9.57    1.95
   5   0   9   13.75    2.64
  -5   0  -9    8.70    1.93
   5   0   9   11.35    2.29
  -5   0  -9   10.56    2.20
   5   0  10    2.46    1.05
   5   0  10    3.70    1.76
  -5   0 -10    4.25    1.52
   5   0  10    3.25    1.18
  -5   0 -10    4.79    1.71
   5   0  11   37.58    4.84
  -5   0 -11   38.29    4.71
   5   0  12   16.90    3.34
  -5   0 -12   18.83    3.55
   5   0  13    3.07    1.62
  -5   0 -13    1.22    1.16
   5   0  14    7.96    2.72
  -5   0 -14    6.94    2.32
   5   0  15  194.34   12.94
  -5   0 -15  176.93   12.52
  -5   0 -16   -0.17    0.23
   5   1 -12   20.84    4.35
   5   1 -11   59.81    6.96
  -5  -1  10    6.39    2.23
   5   1 -10    6.58    2.22
  -5  -1   9   28.69    3.46
   5   1  -9   35.41    4.90
  -5  -1   9   43.19    5.76
  -5  -1   8  142.78    7.09
   5   1  -8  147.91    8.81
  -5  -1   8  144.91    9.95
  -5  -1   7   40.88    3.58
   5   1  -7   44.85    4.65
  -5  -1   7   45.88    4.54
  -5  -1   7   51.58    5.85
  -5  -1   6  240.03    7.81
   5   1  -6  244.19    9.74
  -5  -1   6  252.36   11.96
  -5  -1   6  232.27    9.20
  -5  -1   5   58.19    3.46
   5   1  -5   63.58    5.01
   5   1  -5   59.72    4.40
  -5  -1   5   62.27    5.66
  -5  -1   5   69.28    4.60
  -5  -1   4    3.90    1.41
   5   1  -4    6.87    2.38
   5   1  -4   22.73    3.10
  -5  -1   4   21.13    3.54
   5   1  -4    6.19    1.84
  -5  -1   3  100.87    4.35
   5   1  -3  101.60    6.67
   5   1  -3  106.45    4.63
   5   1  -3  105.28    6.33
  -5  -1   3   99.90    6.60
  -5  -1   2    1.70    0.45
   5   1  -2    2.39    1.14
   5   1  -2    3.02    1.27
   5   1  -2    2.65    0.98
   5   1  -2    1.45    0.53
  -5  -1   2    4.79    1.38
   5   1  -2    1.83    0.90
   5   1  -1   10.48    3.12
   5   1  -1   23.05    3.74
   5   1  -1  131.05    7.05
   5   1  -1  151.50    8.18
  -5  -1   1   22.23    3.32
   5   1  -1   22.97    3.66
   5   1   0    0.05    0.50
   5   1   0    1.02    0.33
   5   1   0    0.65    0.19
   5   1   0    2.34    1.35
   5   1   0    3.20    1.20
   5   1   0    1.44    0.99
   5   1   0    1.07    0.90
  -5  -1   0   -0.84    0.43
   5   1   1  153.49    4.78
   5   1   1   49.23    2.58
   5   1   1   53.38    4.38
  -5  -1  -1   55.76    4.89
   5   1   1  199.91    8.61
  -5  -1  -1   50.65    4.54
   5   1   1   57.44    4.63
   5   1   1  211.53    9.80
   5   1   2  101.31    4.43
   5   1   2   36.40    3.59
  -5  -1  -2   41.04    4.19
   5   1   2  102.03    6.19
   5   1   2   36.53    3.67
   5   1   2  119.07    7.27
   5   1   3  188.25    6.52
  -5  -1  -3  181.71    8.77
   5   1   3  189.01    8.26
   5   1   3  203.34    8.48
   5   1   3  193.03    9.13
   5   1   4  342.62    9.61
  -5  -1  -4  352.53   12.33
   5   1   4  360.04   11.41
  -5  -1  -4  368.24    6.10
  -5  -1  -4  358.95    6.16
   5   1   4  337.86    6.30
   5   1   4  366.14   11.48
   5   1   4  397.88   13.10
   5   1   5    1.74    0.65
   5   1   5    1.78    0.73
   5   1   5    1.40    0.88
  -5  -1  -5    1.54    0.52
   5   1   5    0.70    0.53
  -5  -1  -5    1.84    0.72
   5   1   5    1.96    0.89
   5   1   6  300.81   10.25
  -5  -1  -6  314.66    8.55
   5   1   6  317.82   10.81
  -5  -1  -6  328.00    8.78
   5   1   6  332.89   11.81
   5   1   6  308.10    8.51
   5   1   7    1.25    0.69
   5   1   7    2.35    1.29
   5   1   7    0.70    0.77
  -5  -1  -7    1.56    0.70
   5   1   8   47.33    4.89
  -5  -1  -8   49.25    5.34
  -5  -1  -8   56.44    4.87
   5   1   8   58.66    4.82
   5   1   8   45.74    4.22
   5   1   9   73.80    6.01
  -5  -1  -9   65.10    5.18
   5   1   9   77.37    5.44
   5   1   9   67.17    5.24
   5   1  10   27.97    4.00
  -5  -1 -10   28.93    3.98
   5   1  10   23.41    3.54
   5   1  11   98.45    8.05
  -5  -1 -11  101.49    8.04
   5   1  12   71.47    6.78
  -5  -1 -12   62.74    6.23
   5   1  13   86.08    7.94
  -5  -1 -13   84.29    7.88
   5   1  14   70.92    7.40
  -5  -1 -14   55.24    6.43
   5   1  15    0.63    1.11
  -5  -1 -15    0.01    1.44
  -5  -1 -16   81.30    8.79
   5   2 -12    8.21    2.69
   5   2 -11    0.33    0.90
  -5  -2  10    2.90    1.19
   5   2 -10    3.45    1.56
  -5  -2   9   23.73    3.62
  -5  -2   9   33.35    5.24
   5   2  -9   26.60    4.12
  -5  -2   8   58.73    5.07
   5   2  -8   59.87    5.56
  -5  -2   8   56.69    6.21
  -5  -2   7   86.71    6.39
  -5  -2   7   86.94    5.78
   5   2  -7   81.50    5.64
   5   2  -7   86.52    6.29
  -5  -2   7   98.06    7.85
  -5  -2   6   89.56    6.03
   5   2  -6   89.00    3.44
  -5  -2   6   87.36    5.42
   5   2  -6   78.21    5.46
   5   2  -6   82.15    5.64
  -5  -2   6   82.68    6.84
   5   2  -5  103.00    3.47
  -5  -2   5   63.05    4.93
  -5  -2   5   71.30    4.85
   5   2  -5   78.58    5.51
   5   2  -5   98.38    5.80
  -5  -2   5   90.04    6.86
   5   2  -4   47.42    2.26
  -5  -2   4   28.37    3.21
  -5  -2   4   31.41    3.22
   5   2  -4   50.12    4.40
   5   2  -4   37.84    3.53
   5   2  -4   56.68    3.99
  -5  -2   4   55.39    5.25
  -5  -2   3    5.51    1.39
   5   2  -3    5.16    1.92
   5   2  -3    5.43    0.85
   5   2  -3   15.95    2.65
   5   2  -3   12.96    1.69
   5   2  -3    5.75    1.47
  -5  -2   3   12.14    2.54
  -5  -2   2    6.60    1.40
   5   2  -2   12.85    2.61
   5   2  -2    5.62    0.91
   5   2  -2   37.82    3.99
   5   2  -2   16.74    1.80
   5   2  -2    6.45    1.24
  -5  -2   2   33.91    4.00
  -5  -2   2   45.79    4.60
   5   2  -1   20.12    3.30
   5   2  -1   45.70    5.30
  -5  -2   1   10.45    1.54
  -5  -2   1   47.91    4.89
  -5  -2   1  111.16    6.88
   5   2  -1   94.28    4.07
   5   2  -1   71.73    5.71
   5   2   0  406.84    9.03
   5   2   0  418.69   12.13
   5   2   0  428.68   13.84
   5   2   0  426.36    8.07
   5   2   0  424.26    7.02
  -5  -2   0  403.22   12.08
   5   2   0  440.57   13.01
  -5  -2   0  407.18   12.61
   5   2   1  358.29   11.04
   5   2   1  351.61    8.64
   5   2   1  382.20    8.52
   5   2   1  358.19    5.87
  -5  -2  -1  343.71   10.86
   5   2   1  368.67   11.52
  -5  -2  -1  323.53   11.19
   5   2   2  603.22   14.36
  -5  -2  -2  661.84   16.91
   5   2   2  601.73    8.08
   5   2   2  746.91   12.96
   5   2   2  684.12   15.52
  -5  -2  -2  671.28   16.20
  -5  -2  -3  360.23   12.55
   5   2   3  301.03    6.52
   5   2   3  569.66   12.16
   5   2   3  393.80   11.82
  -5  -2  -3  540.62   14.45
   5   2   4  150.37    6.80
   5   2   4   18.29    2.12
  -5  -2  -4   49.26    5.17
  -5  -2  -4   14.58    1.13
  -5  -2  -4   21.00    1.55
   5   2   4   99.57    5.98
  -5  -2  -4  175.38    8.36
   5   2   5  222.01    9.11
  -5  -2  -5  146.99    8.79
  -5  -2  -5   90.47    3.98
   5   2   5  182.36    7.99
  -5  -2  -5  256.24   10.26
   5   2   6  251.29    9.63
  -5  -2  -6  254.94    7.55
   5   2   6  257.37    9.55
  -5  -2  -6  229.13    9.37
   5   2   7  112.02    6.81
   5   2   7  120.40    6.59
  -5  -2  -7  120.51    5.83
  -5  -2  -7  109.29    6.56
   5   2   8   39.71    4.26
   5   2   8   34.06    3.48
  -5  -2  -8   42.60    3.78
  -5  -2  -8   36.95    3.78
   5   2   9  107.48    7.38
   5   2   9  103.69    6.15
  -5  -2  -9  104.56    6.58
   5   2   9  106.30    6.78
   5   2  10  135.35    8.61
   5   2  10  150.69    7.44
  -5  -2 -10  134.89    8.01
   5   2  10  134.05    8.19
   5   2  11   30.39    4.74
   5   2  11   29.83    3.43
  -5  -2 -11   32.20    4.54
   5   2  12   42.18    5.62
   5   2  12   35.06    3.80
  -5  -2 -12   44.94    5.61
   5   2  13   21.61    4.15
  -5  -2 -13   24.67    4.54
   5   2  14   48.66    6.14
  -5  -2 -14   51.26    6.23
   5   2  15    3.73    1.86
  -5  -2 -15    4.78    2.41
  -5  -2 -16    0.39    0.86
   5   3 -12   16.94    3.99
   5   3 -11   19.75    3.85
  -5  -3  10    2.94    1.27
  -5  -3  10    0.13    1.06
   5   3 -10   -0.22    0.67
  -5  -3   9   27.95    4.00
  -5  -3   9   31.24    4.88
   5   3  -9   32.66    4.44
  -5  -3   8    0.40    0.66
  -5  -3   8    0.84    0.99
   5   3  -8    1.30    0.93
  -5  -3   7    2.15    1.04
   5   3  -7    0.42    0.37
   5   3  -7    1.15    0.73
  -5  -3   7   -1.37    1.12
   5   3  -7    2.83    1.24
  -5  -3   6   -0.04    0.16
   5   3  -6    1.52    0.70
  -5  -3   6    0.95    0.93
   5   3  -6    1.32    0.93
   5   3  -6    2.63    1.21
  -5  -3   6    0.61    0.37
  -5  -3   6    1.39    0.95
   5   3  -6   -0.47    0.66
  -5  -3   5    5.26    1.50
   5   3  -5    7.07    1.80
   5   3  -5    4.29    0.88
  -5  -3   5    3.10    1.12
   5   3  -5    3.74    1.09
  -5  -3   5    5.08    1.51
  -5  -3   5    4.02    1.46
   5   3  -5    5.57    1.37
  -5  -3   4    3.72    1.08
   5   3  -4    5.28    1.30
  -5  -3   4    4.39    1.36
   5   3  -4    5.80    1.14
  -5  -3   4    3.72    1.38
   5   3  -4    5.63    1.34
  -5  -3   4    5.88    1.52
  -5  -3   4    5.68    1.54
   5   3  -4    5.34    1.20
  -5  -3   3   37.43    3.47
   5   3  -3   39.85    2.94
   5   3  -3   38.23    3.93
   5   3  -3   37.84    2.99
   5   3  -3   35.71    2.99
   5   3  -3   36.59    3.38
  -5  -3   3   35.80    3.94
  -5  -3   3   33.85    3.76
   5   3  -2   52.82    3.52
  -5  -3   2   49.28    3.69
   5   3  -2   53.70    4.44
   5   3  -2   45.74    2.87
   5   3  -2   53.68    3.21
   5   3  -2   58.77    3.99
  -5  -3   2   47.45    4.34
  -5  -3   2   49.03    4.61
  -5  -3   1  137.44    5.80
   5   3  -1  132.24    6.12
   5   3  -1  137.19    6.93
   5   3  -1  132.37    4.14
   5   3  -1  136.59    4.16
  -5  -3   1  146.18    7.40
   5   3  -1  142.25    5.79
  -5  -3   1  136.79    7.60
  -5  -3   0  452.22   10.01
   5   3   0  478.59   11.68
   5   3   0  458.40   12.42
   5   3   0  471.61   14.93
   5   3   0  441.64    5.49
   5   3   0  456.21    5.57
  -5  -3   0  451.37   12.59
   5   3   0  479.48   10.13
   5   3   0  465.56   13.18
  -5  -3   0  455.67   13.82
   5   3   1   52.78    4.13
   5   3   1   55.96    4.02
   5   3   1   58.94    5.18
   5   3   1   56.33    3.39
  -5  -3  -1   52.00    4.20
   5   3   1   57.25    4.45
  -5  -3  -1   58.73    4.97
   5   3   2   96.04    5.54
   5   3   2   89.44    5.22
   5   3   2   83.45    4.23
  -5  -3  -2   83.23    5.14
   5   3   2   92.88    5.54
  -5  -3  -2   92.81    6.23
   5   3   3   60.47    3.79
   5   3   3   59.65    4.18
  -5  -3  -3   63.88    5.31
   5   3   3   57.31    2.06
  -5  -3  -3   60.58    2.16
   5   3   3   63.12    4.47
  -5  -3  -3   56.56    4.86
   5   3   4   87.55    4.83
   5   3   4   93.54    5.50
  -5  -3  -4   92.31    6.38
  -5  -3  -4   92.24    3.55
   5   3   4   87.50    3.42
   5   3   4   92.90    5.32
  -5  -3  -4   87.24    6.05
   5   3   5   51.59    3.88
   5   3   5   56.37    4.56
  -5  -3  -5   54.94    4.96
  -5  -3  -5   55.06    3.26
   5   3   5   53.09    3.21
   5   3   5   54.00    4.14
  -5  -3  -5   62.91    5.19
   5   3   6  609.77   15.69
  -5  -3  -6  583.02   16.50
  -5  -3  -6  606.42   12.24
   5   3   6  567.24   11.92
   5   3   6  597.12   13.90
  -5  -3  -6  580.48   15.62
   5   3   7   44.16    4.36
  -5  -3  -7   44.36    3.65
   5   3   7   42.87    3.63
   5   3   7   39.88    3.67
  -5  -3  -7   42.06    4.22
   5   3   8  236.97   10.64
  -5  -3  -8  226.18    8.91
  -5  -3  -8  220.32    9.59
   5   3   9   31.85    4.05
  -5  -3  -9   31.62    3.59
  -5  -3  -9   34.96    3.82
   5   3  10    0.17    0.51
  -5  -3 -10    0.25    0.22
  -5  -3 -10   -0.23    0.84
   5   3  11  268.98   13.00
   5   3  11  262.38    9.95
  -5  -3 -11  265.94   11.98
  -5  -3 -11  258.51   10.34
   5   3  12  187.24   11.24
   5   3  12  175.44    8.11
  -5  -3 -12  169.14   10.11
   5   3  13   75.83    7.46
  -5  -3 -13   76.69    7.18
   5   3  14   32.76    5.03
  -5  -3 -14   27.39    4.51
   5   3  15  110.47    9.63
  -5  -3 -15  101.69    9.18
  -5  -3 -16    5.64    2.34
  -5  -4  11    5.15    2.00
   5   4 -11    7.08    2.41
  -5  -4  10    0.87    0.65
  -5  -4  10    2.94    1.69
   5   4 -10    0.30    1.18
  -5  -4   9    2.24    1.88
  -5  -4   9    1.57    1.00
   5   4  -9    3.47    1.62
  -5  -4   8   39.85    4.85
   5   4  -8   43.08    5.11
  -5  -4   8   38.57    5.29
  -5  -4   8   39.27    4.12
  -5  -4   7    5.30    1.82
   5   4  -7    2.38    1.28
  -5  -4   7    2.84    1.31
  -5  -4   7    4.48    1.91
   5   4  -7    2.68    1.29
   5   4  -6   50.83    4.18
  -5  -4   6   56.91    5.32
   5   4  -6   59.68    5.26
   5   4  -6   55.57    5.07
  -5  -4   6   55.18    5.65
  -5  -4   6   64.05    5.33
   5   4  -6   52.87    5.25
   5   4  -5   33.31    3.25
  -5  -4   5   28.76    3.70
  -5  -4   5   32.80    3.94
   5   4  -5   30.71    3.45
   5   4  -5   32.11    3.62
   5   4  -5   30.05    3.73
  -5  -4   5   31.38    4.15
  -5  -4   5   27.44    3.55
  -5  -4   4    8.66    1.94
   5   4  -4    5.97    1.52
  -5  -4   4    7.97    1.82
   5   4  -4    6.59    1.49
   5   4  -4    8.23    1.75
  -5  -4   4    7.76    1.87
  -5  -4   4    6.63    1.90
   5   4  -4    8.22    1.70
   5   4  -3  136.91    6.60
  -5  -4   3  137.73    7.42
   5   4  -3  154.64    6.90
   5   4  -3  138.44    6.53
   5   4  -3  138.37    7.30
  -5  -4   3  150.44    8.27
  -5  -4   3  137.12    8.14
   5   4  -2    0.57    0.53
  -5  -4   2    3.72    1.17
   5   4  -2    0.07    0.40
   5   4  -2    3.95    1.24
   5   4  -2    0.45    0.52
  -5  -4   2    2.69    1.26
  -5  -4   2    0.52    0.27
   5   4  -1    9.09    1.74
  -5  -4   1    7.46    1.57
   5   4  -1    7.85    1.75
   5   4  -1    8.66    1.66
   5   4  -1    8.01    1.42
  -5  -4   1    9.36    2.07
  -5  -4   1    9.82    1.92
   5   4   0    0.38    0.23
  -5  -4   0   -0.47    0.47
   5   4   0   -0.30    0.54
   5   4   0    1.34    0.74
   5   4   0   -0.14    0.17
  -5  -4   0    0.66    0.57
  -5  -4   0   -0.32    0.56
   5   4   1   83.56    5.08
  -5  -4  -1   84.57    5.08
   5   4   1   82.09    5.03
   5   4   1   84.49    5.60
   5   4   1   75.36    5.99
   5   4   1   83.42    3.74
  -5  -4  -1   72.68    4.87
  -5  -4  -1   75.64    6.04
   5   4   2   46.15    3.75
   5   4   2   43.67    3.70
   5   4   2   44.37    4.13
   5   4   2   44.52    2.67
  -5  -4  -2   45.46    2.78
  -5  -4  -2   46.55    3.76
   5   4   2   44.04    3.76
  -5  -4  -2   44.82    4.58
   5   4   3  127.85    6.36
   5   4   3  126.62    7.05
   5   4   3  131.30    4.85
  -5  -4  -3  131.04    4.94
   5   4   3  135.07    6.38
  -5  -4  -3  128.33    7.78
   5   4   4  150.04    7.10
  -5  -4  -4  152.90    8.36
   5   4   4  148.28    5.54
  -5  -4  -4  157.42    5.86
   5   4   4  157.19    6.80
  -5  -4  -4  142.94    8.16
   5   4   5    1.09    0.82
  -5  -4  -5    0.35    0.15
  -5  -4  -5    0.74    0.39
  -5  -4  -5   -0.48    0.73
   5   4   5    0.22    0.26
   5   4   5    0.68    0.61
   5   4   6  118.65    7.18
   5   4   6  109.00    6.51
  -5  -4  -6  114.70    7.33
   5   4   6  114.11    5.85
  -5  -4  -6  115.31    5.83
   5   4   6  115.47    5.79
  -5  -4  -6  109.32    7.25
   5   4   7   26.69    3.40
   5   4   7   26.18    3.48
  -5  -4  -7   28.51    3.72
   5   4   7   27.09    3.04
  -5  -4  -7   24.90    2.91
  -5  -4  -7   21.88    3.26
   5   4   7   28.42    2.99
   5   4   8  309.65   12.93
   5   4   8  263.43   10.22
  -5  -4  -8  278.87   10.45
   5   4   8  271.76    9.35
  -5  -4  -8  284.16   11.85
   5   4   9   31.08    4.20
  -5  -4  -9   33.28    3.91
   5   4   9   32.78    3.83
  -5  -4  -9   37.89    4.36
   5   4  10   40.74    4.91
  -5  -4 -10   37.70    4.34
   5   4  10   40.33    4.57
  -5  -4 -10   43.02    4.53
   5   4  11  135.51    9.38
  -5  -4 -11  125.38    8.47
  -5  -4 -11  137.33    7.97
   5   4  12   82.40    7.58
  -5  -4 -12   70.25    6.62
  -5  -4 -12   67.29    5.53
   5   4  13   42.74    5.76
  -5  -4 -13   43.08    5.59
  -5  -4 -13   39.13    4.31
   5   4  14  124.93   10.14
  -5  -4 -14  109.22    9.13
  -5  -4 -14  117.36    7.10
   5   4  15    3.03    1.59
  -5  -4 -15    1.38    1.32
  -5  -4 -16   40.56    6.02
  -5  -5  11   37.21    5.68
   5   5 -11   31.53    5.35
  -5  -5  10   11.07    3.00
   5   5 -10   77.47    8.19
  -5  -5   9   41.71    5.55
   5   5  -9   27.98    5.24
  -5  -5   9   34.61    5.55
   5   5  -9   35.50    5.44
  -5  -5   8    3.52    1.82
   5   5  -8    0.97    1.59
  -5  -5   8    2.72    1.46
  -5  -5   8    3.37    1.58
   5   5  -8    0.99    1.18
  -5  -5   7   50.65    5.79
   5   5  -7   52.93    5.58
  -5  -5   7   52.20    5.89
  -5  -5   7   47.29    4.90
   5   5  -7   50.10    5.81
  -5  -5   6   12.31    2.63
   5   5  -6    6.90    2.21
  -5  -5   6   12.29    2.48
  -5  -5   6   16.53    3.09
   5   5  -6   12.63    2.74
   5   5  -5    7.38    3.77
  -5  -5   5  140.33    9.86
   5   5  -5  100.92    8.99
   5   5  -5   24.20    5.33
   5   5  -5   41.86    8.93
  -5  -5   5  191.99   10.58
  -5  -5   5  177.76    9.86
   5   5  -4   23.50    3.74
  -5  -5   4   60.61    5.79
   5   5  -4    4.33    1.47
   5   5  -4   10.39    2.78
  -5  -5   4   80.30    6.29
  -5  -5   4   86.82    6.74
   5   5  -3    2.93    1.49
  -5  -5   3    5.85    3.34
   5   5  -3    2.05    1.12
   5   5  -3    3.54    1.96
  -5  -5   3   64.19    5.88
  -5  -5   3   83.79    6.81
   5   5  -2    5.64    1.53
  -5  -5   2    7.22    1.88
   5   5  -2    7.19    1.90
   5   5  -2   10.38    2.01
   5   5  -2    7.31    1.55
  -5  -5   2    8.89    2.34
  -5  -5   2    7.06    1.88
   5   5  -1   18.07    2.79
  -5  -5   1   13.92    3.04
   5   5  -1   19.76    3.08
   5   5  -1   29.17    3.66
   5   5  -1   17.02    2.37
  -5  -5   1   26.74    3.95
   5   5   0  260.27   10.27
  -5  -5   0  263.97   10.44
   5   5   0  267.32   11.04
   5   5   0  262.11    8.74
   5   5   0  259.01    8.65
  -5  -5   0  262.32    9.53
   5   5   1   72.52    5.41
  -5  -5  -1   57.78    4.85
   5   5   1   66.34    5.65
   5   5   1   76.72    4.69
   5   5   1   63.45    4.18
  -5  -5  -1   66.38    4.32
  -5  -5  -1   71.30    4.81
   5   5   2   25.63    3.16
   5   5   2   30.26    3.00
   5   5   2   24.97    3.40
   5   5   2   24.25    2.58
  -5  -5  -2   21.80    2.49
  -5  -5  -2   25.53    2.79
   5   5   3   -0.58    0.48
   5   5   3    2.42    1.09
  -5  -5  -3    1.08    0.68
   5   5   3    1.61    0.79
   5   5   3    0.50    0.66
   5   5   4   63.36    5.12
   5   5   4   66.39    4.43
  -5  -5  -4   66.12    4.51
   5   5   4   67.79    4.31
   5   5   5  161.27    8.45
  -5  -5  -5  168.33    8.86
  -5  -5  -5  161.71    7.38
   5   5   5  171.18    7.49
   5   5   5  174.96    6.70
   5   5   6    2.60    1.38
  -5  -5  -6   20.13    3.64
  -5  -5  -6    2.99    1.30
   5   5   6    6.08    2.39
   5   5   6    6.88    2.37
   5   5   7  129.65    8.26
   5   5   7  122.36    7.86
  -5  -5  -7  123.22    7.73
   5   5   7  115.13    6.82
  -5  -5  -7  120.35    6.96
   5   5   7  123.70    5.63
  -5  -5  -8    7.16    1.90
   5   5   8    4.60    1.79
   5   5   8    9.41    2.35
   5   5   8    8.72    1.51
  -5  -5  -8    9.32    2.31
  -5  -5  -8    7.68    1.97
   5   5   8    6.77    1.71
   5   5   9  239.42   12.10
  -5  -5  -9  216.60   10.66
   5   5   9  207.63   10.37
  -5  -5  -9  213.20   10.25
  -5  -5  -9  201.29   10.38
   5   5   9  216.73    8.02
   5   5  10  231.76   12.48
  -5  -5 -10  212.80   10.91
  -5  -5 -10  199.83   10.47
   5   5  11  483.11   18.37
  -5  -5 -11  465.22   17.01
  -5  -5 -11  488.94   16.43
   5   5  12   35.99    5.18
  -5  -5 -12   30.84    4.56
  -5  -5 -12   34.56    4.41
   5   5  13   24.55    4.77
  -5  -5 -13   20.95    3.57
  -5  -5 -13   18.29    3.94
   5   5  14    2.49    1.67
  -5  -5 -14    2.18    1.30
  -5  -5 -14    2.08    1.67
  -5  -5 -15   64.23    7.63
  -5  -5 -16    5.10    2.52
  -5  -6  10   26.61    5.03
   5   6 -10   23.99    4.88
   5   6 -10   21.01    4.54
  -5  -6   9   36.31    5.43
   5   6  -9   34.60    5.47
  -5  -6   9   31.64    5.22
   5   6  -9   39.09    5.53
  -5  -6   8    4.49    2.53
   5   6  -8    6.74    2.89
  -5  -6   8    3.43    1.68
  -5  -6   8   15.67    3.34
   5   6  -8    8.86    2.93
  -5  -6   7   12.26    3.02
   5   6  -7   10.66    2.84
  -5  -6   7   12.76    2.80
  -5  -6   7   13.46    3.01
   5   6  -7   13.48    3.07
  -5  -6   6    4.02    1.85
   5   6  -6    2.77    1.24
  -5  -6   6    2.00    1.13
  -5  -6   6    6.06    2.08
  -5  -6   5   57.23    6.22
  -5  -6   5   52.34    5.70
   5   6  -5   56.37    6.02
  -5  -6   5   59.61    5.83
   5   6  -4   37.64    6.08
  -5  -6   4   59.78    6.41
  -5  -6   4   67.07    6.16
   5   6  -4   35.91    4.95
   5   6  -3   83.34    6.22
   5   6  -3   77.15    6.73
  -5  -6   3   85.30    6.41
   5   6  -2   64.26    5.44
   5   6  -2   72.07    6.23
  -5  -6   2   69.62    5.51
   5   6  -1    7.73    2.11
   5   6  -1    7.86    1.52
   5   6  -1    5.02    1.47
  -5  -6   1    6.84    1.69
   5   6   0   47.44    4.96
  -5  -6   0   50.03    5.28
   5   6   0   52.44    3.87
   5   6   0   53.31    4.63
  -5  -6   0   46.01    4.46
  -5  -6   0   55.66    4.47
   5   6   1    2.72    1.85
  -5  -6  -1    3.61    1.84
   5   6   1    5.57    1.87
  -5  -6  -1    1.71    1.22
  -5  -6  -1    4.69    1.88
   5   6   1    3.78    1.69
   5   6   2   13.11    2.90
   5   6   2   13.31    2.02
  -5  -6  -2    9.76    2.02
  -5  -6  -2   10.16    2.29
   5   6   2    9.46    2.11
   5   6   3   94.42    6.90
   5   6   3  103.87    6.35
  -5  -6  -3   89.67    5.91
   5   6   3   98.92    5.20
   5   6   4   80.76    6.43
   5   6   4   76.69    5.44
  -5  -6  -4   69.54    5.34
   5   6   5   52.52    5.25
   5   6   5   49.98    4.54
  -5  -6  -5   58.74    5.02
   5   6   5   58.94    3.61
   5   6   6   79.64    6.71
  -5  -6  -6   86.70    6.73
  -5  -6  -6   89.00    6.43
   5   6   6   90.35    6.64
   5   6   6   90.88    4.65
   5   6   7    0.78    1.12
  -5  -6  -7    2.45    1.73
  -5  -6  -7    0.12    0.79
   5   6   7    1.23    0.88
   5   6   7    1.01    1.19
   5   6   8   24.28    4.63
  -5  -6  -8   36.34    4.78
  -5  -6  -8   24.04    4.34
   5   6   8   28.17    4.48
   5   6   8   28.21    3.23
   5   6   9   26.53    5.36
   5   6   9   24.33    5.09
  -5  -6  -9   46.06    5.28
  -5  -6  -9   27.94    4.61
   5   6   9   28.87    3.39
   5   6  10  149.47   10.28
   5   6  10  134.48    9.77
  -5  -6 -10  142.47    8.80
  -5  -6 -10  133.99    9.23
   5   6  11   20.61    4.25
  -5  -6 -11   35.03    5.13
   5   6  11   14.29    4.13
  -5  -6 -11   23.37    4.32
  -5  -6 -11   19.42    4.53
   5   6  12    5.78    2.49
  -5  -6 -12    8.39    2.49
  -5  -6 -12    5.32    2.07
   5   6  13    4.15    2.43
  -5  -6 -13    0.84    1.13
  -5  -6 -13    2.86    1.91
   5   6  14   25.94    4.97
  -5  -6 -14   24.60    3.88
  -5  -6 -14   20.26    4.22
  -5  -6 -15   20.06    4.92
   5   7  -9   -1.13    0.86
  -5  -7   8    5.67    2.29
   5   7  -8    6.52    3.09
  -5  -7   8    4.36    2.15
   5   7  -8    7.01    2.42
  -5  -7   7   11.45    2.96
   5   7  -7    9.48    2.76
  -5  -7   7    4.93    1.84
  -5  -7   7   10.00    2.64
  -5  -7   6   25.24    4.42
   5   7  -6   27.33    4.66
  -5  -7   6   30.61    4.53
  -5  -7   6   20.44    3.65
   5   7  -5   23.91    4.20
  -5  -7   5   18.10    3.28
   5   7  -4    9.06    2.47
  -5  -7   4    9.40    2.27
   5   7  -3   63.31    6.47
  -5  -7   3   63.11    5.54
   5   7  -2   -0.48    1.09
  -5  -7   2    0.54    0.92
   5   7  -1   35.26    4.23
  -5  -7   1   41.93    3.99
   5   7  -1   39.03    4.89
   5   7   0   54.37    5.93
   5   7   0   50.71    4.92
  -5  -7   0   45.75    4.81
  -5  -7   0   52.77    4.19
   5   7   1   18.73    3.28
   5   7   1   16.14    1.85
  -5  -7  -1   16.00    2.77
  -5  -7  -1   15.91    2.22
   5   7   1   18.24    2.87
   5   7   2   17.94    3.18
   5   7   2   18.31    2.01
  -5  -7  -2   17.65    3.02
  -5  -7  -2   16.53    2.17
   5   7   2   18.63    2.91
   5   7   3  164.22    9.85
   5   7   3  170.94    8.97
  -5  -7  -3  159.69    8.86
   5   7   3  157.32    6.08
   5   7   4   36.97    4.74
   5   7   4   43.63    4.57
  -5  -7  -4   40.18    4.47
   5   7   5   57.55    5.97
   5   7   5   46.95    4.84
  -5  -7  -5   49.07    5.08
   5   7   6   30.79    4.46
  -5  -7  -6   29.23    4.01
   5   7   7   18.55    3.58
  -5  -7  -7   20.62    3.45
   5   7   8   39.78    5.26
  -5  -7  -8   30.77    4.30
  -5  -7  -8   31.86    4.01
   5   7   9  131.79    9.87
  -5  -7  -9  128.44    9.17
  -5  -7  -9  133.71    8.27
   5   7  10   91.76    8.26
   5   7  10   76.90    7.84
  -5  -7 -10   85.81    7.70
  -5  -7 -10   84.13    6.71
   5   7  11   12.61    3.29
  -5  -7 -11    6.98    2.23
  -5  -7 -11    8.69    2.29
   5   7  11    9.63    2.76
   5   7  12   65.11    7.69
   5   7  12   58.39    7.12
  -5  -7 -12   60.29    5.92
  -5  -7 -12   56.83    6.79
   5   7  13    3.16    1.94
  -5  -7 -13   -0.41    0.85
   5   7  13    0.79    1.54
  -5  -7 -13    1.05    0.94
  -5  -7 -13    0.63    0.44
  -5  -7 -14   28.80    4.53
  -5  -7 -14   34.54    4.93
  -5  -7 -14   28.05    5.16
   5   8  -7    4.55    2.33
  -5  -8   7    2.65    3.15
  -5  -8   7    0.23    0.85
   5   8  -6   38.02    5.82
  -5  -8   6   28.12    4.28
   5   8  -5    5.76    2.39
  -5  -8   5    3.32    1.29
   5   8  -4    0.32    0.88
  -5  -8   4    2.80    1.24
   5   8  -3   -0.51    0.92
  -5  -8   3    0.31    0.78
   5   8  -2    8.29    2.53
  -5  -8   2    8.87    2.01
   5   8  -1   -0.01    0.32
  -5  -8   1    0.57    0.73
   5   8   0   77.07    7.44
  -5  -8   0   75.98    6.90
  -5  -8   0   69.58    4.75
   5   8   1  154.58   10.51
  -5  -8  -1  157.59    9.81
  -5  -8  -1  157.16    6.68
   5   8   2   51.71    6.01
  -5  -8  -2   52.67    5.65
   5   8   3   27.83    4.39
  -5  -8  -3   24.64    3.83
   5   8   4   15.43    3.37
  -5  -8  -4   13.65    2.93
   5   8   4   12.83    1.67
   5   8   5    7.80    2.40
  -5  -8  -5    7.93    2.27
   5   8   6   80.27    7.76
  -5  -8  -6   73.34    7.00
   5   8   7   62.29    7.03
  -5  -8  -7   63.99    6.64
   5   8   8    5.36    2.32
  -5  -8  -8    7.33    2.25
   5   8   9   16.27    3.70
  -5  -8  -9   13.35    3.07
   5   8  10   34.38    5.60
  -5  -8 -10   26.31    4.42
  -5  -8 -10   30.42    4.00
   5   8  11   42.93    6.33
   5   8  11   39.84    5.98
  -5  -8 -11   45.61    6.14
   5   8  12    1.53    1.62
  -5  -8 -12    1.24    0.75
  -5  -8 -13    1.41    1.75
   5   9  -4   34.33    5.71
   5   9  -3   90.15    9.16
   5   9  -2    6.21    2.16
   5   9  -1    7.64    4.23
  -5  -9   1    5.05    4.57
   5   9   0    2.56    1.70
  -5  -9   0    3.04    2.01
   5   9   1    9.64    4.75
  -5  -9  -1   15.21    4.19
   5   9   2   43.50    6.04
  -5  -9  -2   43.32    5.64
   5   9   3    2.19    1.60
  -5  -9  -3    1.46    1.28
   5   9   4   37.60    5.68
  -5  -9  -4   31.42    4.78
   5   9   5    8.77    3.31
  -5  -9  -5   18.54    3.65
   5   9   6  123.33   10.35
  -5  -9  -6  118.20    9.52
   5   9   7   26.29    4.87
  -5  -9  -7   26.78    4.69
   5   9   8  124.04   10.63
  -5  -9  -8  125.78   10.16
   5   9   9    4.12    2.61
  -5  -9  -9    4.19    1.69
   5   9  10   25.51    6.46
  -5  -9 -10   15.35    5.62
  -5  -9 -11    1.31    2.79
  -5  -9 -12   20.66    4.53
  -5 -10   1    2.04    1.56
   5  10   0   83.69    8.99
  -5 -10   0   75.79    8.12
   5  10   1   14.20    3.80
  -5 -10  -1   11.27    3.41
   5  10   2    2.43    3.27
  -5 -10  -2    4.91    3.27
   5  10   3   31.85    5.52
  -5 -10  -3   35.63    5.49
   5  10   4    3.39    3.43
  -5 -10  -4    1.41    2.40
   5  10   5   35.03    6.02
  -5 -10  -5   34.67    5.45
   5  10   6   13.45    4.26
  -5 -10  -6   11.60    3.53
  -5 -10  -7    5.83    5.12
  -5 -10  -8   15.55    3.93
  -5 -10  -9    6.74    2.69
  -5 -10 -10   19.25    5.06
  -5 -11  -1   32.60    5.78
  -5 -11  -2   15.60    3.83
  -5 -11  -3   18.36    4.26
  -5 -11  -4    5.56    2.49
  -5 -11  -5    2.96    1.41
   6  -7  -2    6.27    2.33
   6  -7  -1   17.05    3.83
   6  -7   0   11.50    2.97
   6  -7   0   11.73    3.09
   6  -7   1    1.48    1.93
   6  -7   1   -0.19    0.86
   6  -7   2   20.62    3.76
   6  -7   2   25.55    4.84
   6  -7   3   18.84    3.28
   6  -7   3   22.10    4.80
   6  -7   4   -0.56    1.06
   6  -6  -4   25.00    4.58
   6  -6  -3   15.02    3.49
   6  -6  -2   14.60    3.45
   6  -6  -1   86.56    7.90
   6  -6  -1   91.87    8.59
   6  -6   0    4.84    2.00
   6  -6   0    4.02    1.78
   6  -6   1   32.32    4.55
   6  -6   1   27.90    4.94
   6  -6   2   27.15    4.21
   6  -6   2   30.28    4.88
   6  -6   3   39.44    5.02
   6  -6   3   50.09    6.29
   6  -6   4    1.18    4.06
   6  -6   4    4.22    2.25
   6  -6   5   90.49    7.52
   6  -6   6   11.92    2.64
   6  -6   7   19.47    3.81
   6  -6   8   40.79    5.16
   6  -6   9    3.59    1.38
  -6   5   6    6.07    2.09
   6  -5  -5   13.80    3.12
  -6   5   5   10.34    2.64
  -6   5   4   31.35    4.86
   6  -5  -4   31.25    4.83
  -6   5   3    0.15    1.17
   6  -5  -3   -0.21    0.61
   6  -5  -2   13.35    2.98
   6  -5  -2   17.24    3.37
  -6   5   2   23.98    4.30
   6  -5  -1   13.22    3.06
   6  -5  -1    9.93    2.46
  -6   5   1   12.45    2.87
   6  -5   0   15.51    3.46
   6  -5   0   15.94    3.22
  -6   5   0   15.80    3.61
   6  -5   1   -0.31    0.36
   6  -5   1    1.56    0.99
  -6   5  -1   -0.56    1.04
  -6   5  -2    3.35    1.21
   6  -5   2    7.33    2.30
  -6   5  -2    2.89    1.29
   6  -5   2    4.63    1.52
  -6   5  -3   -0.44    0.26
   6  -5   3    0.22    0.60
  -6   5  -3    2.63    1.83
   6  -5   3   -0.44    0.49
   6  -5   4  138.35    9.20
  -6   5  -4  131.08    8.44
  -6   5  -4  137.64   10.09
   6  -5   4  140.38    9.81
   6  -5   5   79.56    7.02
  -6   5  -5   90.07    7.23
  -6   5  -5   83.86    7.89
   6  -5   6    3.74    1.76
  -6   5  -6    1.44    0.96
   6  -5   7   26.04    4.01
   6  -5   7   26.02    3.76
  -6   5  -7   24.83    4.27
   6  -5   8   14.18    3.23
   6  -5   8   17.03    3.17
  -6   5  -8   17.96    3.53
   6  -5   9   13.82    3.12
  -6   5  -9    9.45    2.70
   6  -5  10    3.97    1.59
  -6   5 -10    7.62    2.44
   6  -5  11   10.88    2.99
  -6   5 -11    9.06    2.50
  -6   4   7   59.98    6.62
   6  -4  -6   -0.13    0.28
   6  -4  -5    5.09    1.84
  -6   4   5    3.44    1.57
   6  -4  -4   18.53    3.28
  -6   4   4   19.94    3.57
  -6   4   3   10.10    2.65
   6  -4  -3    5.64    1.75
   6  -4  -3    5.18    2.03
  -6   4   2    8.85    2.48
   6  -4  -2    9.12    2.12
   6  -4  -2   10.46    2.83
  -6   4   1   91.18    7.72
   6  -4  -1   90.52    6.93
   6  -4  -1   93.24    7.75
  -6   4   0   35.89    4.86
   6  -4   0   33.84    4.17
   6  -4   0   32.95    4.52
  -6   4  -1   48.46    5.63
   6  -4   1   45.59    4.90
   6  -4   1   45.82    5.22
  -6   4  -2  300.37   14.06
   6  -4   2  336.67   13.34
   6  -4   2  308.60   13.58
  -6   4  -2  307.51   12.37
  -6   4  -3   41.16    5.23
   6  -4   3   48.52    5.12
   6  -4   3   44.10    5.14
  -6   4  -3   40.55    4.59
  -6   4  -4    1.45    0.77
  -6   4  -4    1.03    1.12
  -6   4  -4    0.64    0.62
   6  -4   4   -1.25    0.97
   6  -4   4    1.34    1.02
  -6   4  -5    6.47    1.58
   6  -4   5    4.19    1.44
   6  -4   5    3.25    1.17
  -6   4  -5    3.29    1.30
  -6   4  -5    5.49    2.00
   6  -4   6   35.94    3.88
   6  -4   6   28.03    4.12
  -6   4  -6   34.26    4.71
  -6   4  -6   37.53    3.94
  -6   4  -7    6.29    1.86
   6  -4   7    4.01    1.33
  -6   4  -7    1.32    0.52
   6  -4   8   95.57    7.25
  -6   4  -8   85.76    7.52
  -6   4  -8   93.93    6.96
   6  -4   9    2.44    1.37
   6  -4   9    2.25    1.30
  -6   4  -9    4.87    1.91
   6  -4  10    7.75    2.52
   6  -4  10    6.53    2.38
   6  -4  11   10.70    2.75
   6  -4  11    8.81    2.82
   6  -4  12    7.70    2.85
  -6   4 -12   11.08    3.52
  -6   3   8   27.01    4.61
   6  -3  -7   50.42    5.75
  -6   3   7   41.02    5.54
   6  -3  -6   14.08    2.90
  -6   3   6    9.37    2.58
   6  -3  -5   10.20    2.47
  -6   3   5   14.96    3.42
   6  -3  -4   10.76    2.45
   6  -3  -3   50.88    5.86
   6  -3  -3   48.11    4.85
   6  -3  -2   16.71    3.27
  -6   3   2   19.90    3.43
   6  -3  -2   16.73    2.74
   6  -3  -1  205.54   11.18
  -6   3   1  220.94   11.39
  -6   3   1  203.94    9.45
   6  -3  -1  214.51    9.54
   6  -3   0   27.19    4.02
  -6   3   0   51.84    5.57
   6  -3   0   31.81    3.64
  -6   3   0   25.34    3.23
   6  -3   1    7.42    2.21
   6  -3   1    8.49    1.94
  -6   3  -1   12.68    1.85
  -6   3  -1    7.62    1.68
  -6   3  -2   12.73    1.45
   6  -3   2   14.23    2.83
  -6   3  -2   12.24    2.51
  -6   3  -2   13.70    2.13
  -6   3  -2   13.86    2.87
   6  -3   2   10.58    2.05
  -6   3  -2    9.73    2.08
  -6   3  -3   14.59    1.65
  -6   3  -3   15.05    2.78
  -6   3  -3   13.11    2.25
   6  -3   3   12.87    2.54
   6  -3   3   14.64    1.65
  -6   3  -3   12.96    2.75
   6  -3   3   15.63    2.66
  -6   3  -3   10.67    2.20
  -6   3  -4  168.11    8.41
   6  -3   4  175.43    9.80
   6  -3   4  188.99    7.00
  -6   3  -4  173.67    9.62
  -6   3  -4  181.31    9.12
  -6   3  -4  164.27    9.81
  -6   3  -4  179.45    6.58
  -6   3  -5  134.61    7.98
   6  -3   5  138.67    8.81
   6  -3   5  153.31    7.03
  -6   3  -5  150.32    9.28
  -6   3  -5  145.99    8.39
  -6   3  -5  136.72    8.95
  -6   3  -5  150.32    6.66
   6  -3   6   94.13    7.14
   6  -3   6   86.94    5.80
  -6   3  -6   85.95    6.68
  -6   3  -6  100.76    7.73
   6  -3   7    6.11    1.69
   6  -3   7    6.05    1.80
  -6   3  -7    8.65    2.37
   6  -3   8   19.44    3.50
   6  -3   9    2.50    1.27
   6  -3  10   15.10    3.37
   6  -3  11    3.60    2.07
  -6   3 -11    1.14    1.27
   6  -3  12    6.64    2.81
  -6   3 -12    1.14    0.96
  -6   3 -13    9.04    2.89
  -6   3 -14   64.34    7.91
  -6   2   8   53.70    6.32
   6  -2  -7   36.07    4.57
  -6   2   7   39.59    5.23
   6  -2  -6   64.21    5.87
  -6   2   6   57.53    6.21
   6  -2  -5   58.72    5.28
  -6   2   5   54.85    5.89
   6  -2  -4  165.43   10.56
   6  -2  -4  177.20    8.69
  -6   2   4  166.17   10.00
   6  -2  -3  130.52    9.18
   6  -2  -3  129.69    7.07
  -6   2   3  123.14    8.36
   6  -2  -2   16.48    3.18
   6  -2  -2   20.71    2.74
  -6   2   2   19.16    2.58
   6  -2  -1   15.09    2.96
   6  -2  -1   14.27    2.17
  -6   2   1   15.22    2.24
  -6   2   0  156.68    6.96
   6  -2   0  153.73    6.92
   6  -2   0  155.03    9.27
  -6   2  -1   19.29    1.99
   6  -2   1   18.95    2.39
  -6   2  -1   21.17    2.53
  -6   2  -1   15.94    2.84
   6  -2   1   20.71    3.35
  -6   2  -2  287.85    8.55
  -6   2  -2  289.96    9.51
   6  -2   2  313.51    9.91
   6  -2   2  296.08   12.48
  -6   2  -2  289.49   11.99
  -6   2  -3  287.92    9.44
  -6   2  -3  288.85    9.69
   6  -2   3  290.42   12.31
   6  -2   3  283.11    6.43
  -6   2  -3  274.91   11.93
  -6   2  -4   35.98    3.59
   6  -2   4   37.68    3.75
   6  -2   4   39.66    2.43
  -6   2  -4   38.31    3.64
   6  -2   4   36.90    4.39
   6  -2   4   38.54    2.90
  -6   2  -4   38.45    4.54
  -6   2  -5  226.41    9.74
   6  -2   5  252.31    7.37
   6  -2   5  252.01   10.44
  -6   2  -5  264.60   10.12
  -6   2  -5  253.84   12.00
   6  -2   6   21.60    2.46
  -6   2  -6   20.97    3.01
  -6   2  -6   23.65    3.34
   6  -2   6   21.82    3.20
   6  -2   7   29.27    3.89
   6  -2   7   31.14    3.24
  -6   2  -7   28.83    3.65
   6  -2   8  167.81    8.21
   6  -2   8  187.26   10.29
  -6   2  -8  174.19    9.44
   6  -2   9   84.93    7.28
   6  -2  10   45.89    5.56
  -6   2 -10   40.70    5.20
   6  -2  11  111.89    9.04
  -6   2 -11  113.73    9.06
   6  -2  12   26.78    4.67
  -6   2 -12   27.40    4.76
   6  -2  13   47.38    6.50
  -6   2 -13   42.78    5.83
  -6   2 -14   34.03    5.60
  -6   2 -15   22.42    4.68
  -6   1   8   15.16    3.38
  -6   1   7    7.23    2.23
   6  -1  -7    5.44    1.59
   6  -1  -6    3.47    1.34
  -6   1   6    1.25    1.41
   6  -1  -5   10.43    2.05
  -6   1   5   13.51    2.97
  -6   1   4   25.28    2.00
   6  -1  -4   25.61    3.98
   6  -1  -4   30.45    3.37
  -6   1   4   25.42    3.89
   6  -1  -3   40.67    4.89
   6  -1  -3   39.92    3.47
  -6   1   3   41.44    3.52
  -6   1   3   41.18    4.91
   6  -1  -2    1.58    1.00
   6  -1  -2    1.44    0.68
  -6   1   2    3.81    1.04
  -6   1   2    0.28    0.69
   6  -1  -1  230.46   11.20
  -6   1   1  236.42    7.26
   6  -1  -1  232.91    7.24
   6  -1   0   31.08    3.96
   6  -1   0   28.14    2.38
  -6   1   0   31.34    2.46
   6  -1   1    1.17    0.91
   6  -1   1    1.05    0.52
  -6   1  -1    0.91    0.35
  -6   1  -2    3.44    1.28
   6  -1   2    2.32    1.03
  -6   1  -2    4.40    0.93
  -6   1  -3    5.48    1.83
  -6   1  -3    8.15    1.48
   6  -1   3    6.89    1.99
   6  -1   3    6.63    0.89
   6  -1   3    8.66    1.62
  -6   1  -3    8.22    1.35
   6  -1   4  283.97    9.54
  -6   1  -4  281.05    9.67
  -6   1  -4  285.25    8.47
   6  -1   4  276.52   11.80
  -6   1  -4  279.66   12.18
   6  -1   5   77.22    3.37
   6  -1   5   74.79    5.28
  -6   1  -5   80.15    5.64
  -6   1  -5   82.88    4.93
  -6   1  -5   76.76    6.49
   6  -1   6   21.81    2.20
   6  -1   6   24.88    3.29
  -6   1  -6   20.04    3.11
  -6   1  -6   21.60    2.76
   6  -1   7    7.45    1.50
   6  -1   7    8.40    2.00
  -6   1  -7    7.36    1.67
  -6   1  -7    6.81    1.63
   6  -1   8  426.28   14.78
   6  -1   8  413.20   12.08
  -6   1  -8  436.14   14.06
  -6   1  -8  463.32   14.21
   6  -1   9  263.46   12.29
  -6   1  -9  275.55   11.90
  -6   1  -9  290.37   11.98
   6  -1   9  272.38   10.71
   6  -1  10   73.35    6.79
  -6   1 -10   71.23    6.22
   6  -1  10   77.94    6.07
   6  -1  11   67.75    6.82
  -6   1 -11   63.60    6.26
   6  -1  12   25.05    4.38
  -6   1 -12   29.73    4.59
   6  -1  13   25.60    4.56
  -6   1 -13   27.56    4.61
   6  -1  14   28.82    5.02
  -6   1 -14   29.07    4.98
  -6   1 -15    0.42    0.94
  -6   0   9    4.99    1.93
  -6   0   8    0.00    1.07
  -6   0   7   10.73    2.73
   6   0  -7    6.01    1.78
  -6   0   6    4.47    1.59
   6   0  -6    9.59    2.09
  -6   0   5   20.66    3.56
   6   0  -5   21.54    2.70
   6   0  -4   41.58    5.08
   6   0  -4   33.78    3.07
  -6   0   4   36.41    4.64
   6   0  -3   63.60    6.05
   6   0  -3   56.43    3.60
  -6   0   3   53.76    5.47
   6   0  -2  107.16    7.65
   6   0  -2  110.77    4.33
  -6   0   2  107.20    7.50
   6   0  -1   12.00    2.48
   6   0  -1   15.12    1.27
  -6   0   1   13.32    2.52
   6   0   0   -0.45    0.35
   6   0   1    6.54    0.91
   6   0   1    7.68    1.87
  -6   0  -2    9.53    2.22
   6   0   2    8.28    0.80
   6   0   2    9.99    1.40
   6   0   2    7.41    1.89
  -6   0  -3    4.12    1.31
   6   0   3    6.39    1.93
   6   0   3    4.63    1.08
  -6   0  -3    5.50    0.63
  -6   0  -3    4.41    0.56
  -6   0  -4    7.77    1.98
   6   0   4    9.16    1.66
  -6   0  -4    8.94    1.14
  -6   0  -4   10.06    1.19
   6   0   5   64.69    4.71
   6   0   5   57.99    2.47
  -6   0  -5   63.53    4.69
  -6   0  -5   54.94    5.46
  -6   0  -5   55.09    3.26
  -6   0  -5   60.83    3.51
  -6   0  -6   22.31    2.96
   6   0   6   22.53    2.98
  -6   0  -6   22.90    2.39
  -6   0  -6   25.16    2.56
   6   0   6   22.66    2.08
  -6   0  -7   67.37    5.52
   6   0   7   65.27    5.31
  -6   0  -7   67.18    4.58
  -6   0  -7   71.35    4.76
   6   0   7   71.40    4.31
   6   0   8  106.53    7.20
  -6   0  -8   96.67    6.07
  -6   0  -8  111.30    6.46
   6   0   8  105.04    5.83
   6   0   9   38.40    4.55
  -6   0  -9   36.95    4.05
  -6   0  -9   40.83    4.21
   6   0   9   42.75    4.11
   6   0  10  232.28   11.72
  -6   0 -10  236.58   11.05
  -6   0 -10  260.93   11.40
   6   0  10  232.79   10.23
   6   0  11   47.86    5.62
  -6   0 -11   47.82    5.31
   6   0  12    0.91    0.78
  -6   0 -12    4.00    1.91
   6   0  13   18.57    3.90
  -6   0 -13   14.97    3.39
   6   0  14   65.10    7.43
  -6   0 -14   57.10    6.68
  -6   0 -15    3.40    1.71
  -6   0 -16  133.78   11.23
  -6  -1   9   12.22    3.73
  -6  -1   8   18.28    3.88
  -6  -1   7   17.38    4.07
   6   1  -7    6.41    1.82
   6   1  -6   32.07    3.46
  -6  -1   6   37.08    4.84
   6   1  -5   66.09    4.58
  -6  -1   5   66.55    6.37
  -6  -1   4  101.15    4.59
   6   1  -4  105.13    7.83
   6   1  -4  106.27    5.10
  -6  -1   4  104.41    7.71
  -6  -1   3    1.83    0.48
   6   1  -3    2.33    1.18
   6   1  -3    1.96    0.61
  -6  -1   3    3.98    1.48
   6   1  -2   37.69    4.43
   6   1  -2   31.79    1.58
   6   1  -2   32.56    1.63
  -6  -1   2   37.28    4.38
   6   1  -1    3.57    1.70
  -6  -1   1    3.31    1.25
   6   1   0   35.85    4.15
  -6  -1   0   40.27    4.26
   6   1   1    2.21    0.57
   6   1   1    2.10    0.42
   6   1   1    3.61    1.39
  -6  -1  -2   20.53    3.40
   6   1   2   17.91    1.67
   6   1   2   19.05    2.85
   6   1   2   20.77    1.97
  -6  -1  -3    0.55    0.69
   6   1   3    0.64    0.71
   6   1   3    1.47    0.76
  -6  -1  -4   81.28    6.55
   6   1   4   82.97    4.91
   6   1   5  167.80    7.51
   6   1   5  184.18    4.84
  -6  -1  -5  198.87   10.39
  -6  -1  -5  195.47    4.74
  -6  -1  -5  192.24    4.80
   6   1   5  182.23    4.68
   6   1   6   53.43    4.61
  -6  -1  -6   54.73    5.54
  -6  -1  -6   50.12    3.18
  -6  -1  -6   57.22    3.34
   6   1   6   53.63    3.23
   6   1   7   54.38    4.79
  -6  -1  -7   68.91    4.37
  -6  -1  -7   53.91    3.79
   6   1   7   55.01    3.79
   6   1   8   44.66    4.65
  -6  -1  -8   44.65    3.85
  -6  -1  -8   43.81    3.82
   6   1   8   43.73    3.71
   6   1   9   10.20    1.97
   6   1   9   14.58    2.74
  -6  -1  -9   14.66    2.45
  -6  -1  -9   12.80    2.29
   6   1  10   52.49    5.64
  -6  -1 -10   44.37    4.54
  -6  -1 -10   44.67    4.64
   6   1  10   43.82    4.48
   6   1  11    4.21    2.18
  -6  -1 -11    2.38    1.71
   6   1  12    2.17    1.58
  -6  -1 -12    3.44    1.62
   6   1  13  130.10    9.90
  -6  -1 -13  120.03    9.06
   6   1  14   33.97    5.36
  -6  -1 -14   29.89    4.89
  -6  -1 -15   62.92    7.16
  -6  -1 -16   12.06    3.69
  -6  -2   8    1.12    0.57
   6   2  -7   55.72    4.95
  -6  -2   7   56.74    6.33
  -6  -2   6    5.21    2.07
   6   2  -6    2.94    0.99
  -6  -2   5    2.82    1.25
   6   2  -5    4.15    1.20
  -6  -2   4  122.32    5.80
   6   2  -4  122.07    8.29
   6   2  -4  137.17    5.70
   6   2  -4  133.01    5.62
  -6  -2   4  120.79    8.20
  -6  -2   3   70.49    3.91
   6   2  -3   67.51    5.94
   6   2  -3   69.55    3.35
   6   2  -3   68.28    3.33
  -6  -2   3   63.10    5.76
   6   2  -2  236.95   10.89
  -6  -2   2  231.12    5.98
  -6  -2   2  252.44   11.23
   6   2  -1  406.35   13.80
   6   2  -1  370.66    5.37
   6   2  -1  380.82    5.55
  -6  -2   1  385.15   13.55
   6   2   0  161.40    5.59
   6   2   0  148.79    8.21
   6   2   0  152.60    4.52
  -6  -2   0  152.77    8.32
   6   2   1   70.24    3.91
   6   2   1   66.91    5.41
   6   2   1   68.51    3.52
  -6  -2  -1   68.69    5.44
   6   2   2   97.38    6.43
   6   2   2   89.64    4.60
   6   2   2   87.83    4.44
  -6  -2  -3    6.34    1.67
   6   2   3    6.95    1.65
   6   2   3    6.81    1.40
  -6  -2  -4   51.30    5.22
   6   2   4   48.96    4.01
   6   2   4   39.34    2.29
   6   2   4   48.36    2.39
   6   2   5   61.73    4.69
   6   2   5   64.91    3.47
  -6  -2  -5   69.79    6.22
  -6  -2  -5   54.09    1.86
  -6  -2  -5   56.75    1.87
   6   2   5   61.08    3.28
   6   2   6   97.91    6.30
   6   2   6  100.49    5.08
  -6  -2  -6  120.62    8.22
  -6  -2  -6  102.63    4.18
  -6  -2  -6  102.19    4.19
   6   2   6   94.56    4.73
   6   2   7  234.87   10.24
  -6  -2  -7  254.74   12.25
  -6  -2  -7  255.25    7.94
   6   2   7  235.50    8.30
   6   2   8  320.45   12.53
  -6  -2  -8  346.69   10.42
   6   2   8  322.22   10.59
   6   2   9  110.87    7.65
  -6  -2  -9  110.01    6.49
   6   2   9  109.51    6.62
   6   2  10  181.13   10.33
  -6  -2 -10  182.60    9.08
   6   2  10  177.07    9.08
   6   2  11    2.62    1.38
  -6  -2 -11    0.00    0.45
   6   2  12    7.47    2.40
  -6  -2 -12    6.01    1.89
   6   2  13   45.11    5.80
  -6  -2 -13   36.63    4.98
   6   2  14    2.37    1.59
  -6  -2 -14    0.23    0.66
   6   2  15   23.61    4.60
  -6  -2 -15   15.00    3.46
  -6  -2 -16   44.50    6.33
  -6  -3   8    1.17    0.80
  -6  -3   7    1.21    0.74
  -6  -3   7    2.48    1.38
   6   3  -7    2.19    1.05
  -6  -3   6   22.51    3.10
  -6  -3   6   19.29    3.52
   6   3  -6   18.40    2.68
  -6  -3   5    9.50    2.44
   6   3  -5   14.04    2.14
  -6  -3   4   70.07    4.96
   6   3  -4   64.64    4.08
   6   3  -4   68.56    4.26
  -6  -3   4   62.66    5.96
   6   3  -3   76.55    3.40
  -6  -3   3   70.08    4.58
   6   3  -3   72.02    6.00
   6   3  -3   73.26    3.71
   6   3  -3   75.59    3.84
  -6  -3   3   71.07    6.14
  -6  -3   3   66.39    5.78
   6   3  -2  176.10    5.67
  -6  -3   2  169.85    6.58
   6   3  -2  165.26    8.89
   6   3  -2  168.17    4.27
   6   3  -2  169.69    4.23
  -6  -3   2  160.45    8.90
   6   3  -2  166.14    6.41
  -6  -3   2  157.81    8.80
   6   3  -1  403.81   13.42
  -6  -3   1  409.78    9.45
  -6  -3   1  403.32   13.77
  -6  -3   1  397.81   14.01
   6   3  -1  424.33    9.40
   6   3   0    6.19    1.56
   6   3   0    6.44    1.32
   6   3   0    9.77    1.52
   6   3   0   10.21    1.32
  -6  -3   0   10.51    2.12
  -6  -3   0   15.73    3.00
   6   3   1   88.37    5.15
   6   3   1   88.01    6.14
   6   3   1   93.64    4.82
   6   3   1   93.44    3.89
  -6  -3  -1   91.51    6.28
  -6  -3  -1  122.78    8.04
   6   3   2    3.18    0.97
   6   3   2    5.49    1.52
   6   3   2    4.34    1.13
   6   3   2    4.25    0.85
  -6  -3  -2    4.07    1.57
   6   3   3   13.96    2.18
  -6  -3  -3   15.41    2.90
   6   3   3   13.14    2.41
   6   3   3   14.76    2.24
   6   3   3   15.50    1.69
  -6  -3  -3   13.71    2.64
   6   3   3   14.91    2.44
  -6  -3  -4   35.59    4.32
   6   3   4   42.24    3.05
   6   3   4   38.61    3.73
   6   3   4   40.40    4.04
  -6  -3  -4   35.36    4.14
   6   3   5  403.61   10.23
   6   3   5  392.56   12.37
  -6  -3  -5  412.66   15.01
  -6  -3  -5  423.38    6.42
   6   3   5  411.27   12.87
  -6  -3  -5  363.88   13.40
   6   3   6  113.01    6.91
   6   3   6  114.75    5.95
  -6  -3  -6  116.68    8.03
  -6  -3  -6  116.31    4.61
   6   3   6  112.59    6.70
  -6  -3  -6   92.94    6.75
   6   3   7   71.40    5.89
   6   3   7   75.56    5.23
  -6  -3  -7   79.77    6.80
  -6  -3  -7   80.33    4.55
  -6  -3  -7   88.67    7.11
   6   3   8   42.67    4.68
  -6  -3  -8   49.26    5.57
  -6  -3  -8   47.69    3.92
  -6  -3  -8   52.22    5.38
   6   3   9   52.64    5.49
  -6  -3  -9   53.58    4.55
  -6  -3  -9   53.04    5.25
   6   3  10  101.77    7.91
  -6  -3 -10  107.67    6.97
  -6  -3 -10   99.47    7.10
   6   3  11   25.82    4.11
  -6  -3 -11   21.29    3.43
   6   3  12    5.58    2.18
  -6  -3 -12    4.84    1.70
   6   3  13    6.70    2.11
  -6  -3 -13    1.64    1.12
   6   3  14   56.18    6.85
  -6  -3 -14   55.80    6.54
   6   3  15   34.19    5.53
  -6  -3 -15   31.69    4.97
  -6  -3 -16  136.38   11.12
  -6  -4   8    2.44    1.54
  -6  -4   7   38.66    4.67
  -6  -4   7   43.82    5.61
  -6  -4   6   44.83    4.76
   6   4  -6   44.72    4.36
  -6  -4   6   47.48    5.78
  -6  -4   6   39.66    4.59
   6   4  -5   29.18    3.24
  -6  -4   5   32.83    4.49
   6   4  -5   38.14    4.16
  -6  -4   5   31.30    4.07
  -6  -4   4   81.96    5.98
   6   4  -4   73.53    4.81
  -6  -4   4   76.01    6.55
  -6  -4   4   70.75    6.16
   6   4  -4   85.09    5.96
  -6  -4   3    6.50    1.51
   6   4  -3    6.76    1.68
   6   4  -3    6.05    1.68
   6   4  -3    6.82    1.41
   6   4  -3    8.38    1.46
  -6  -4   3    4.19    1.43
  -6  -4   3    2.69    1.14
   6   4  -3    6.67    1.29
   6   4  -2   43.25    3.64
  -6  -4   2   41.72    3.82
   6   4  -2   45.62    4.54
   6   4  -2   44.79    2.96
   6   4  -2   44.24    2.95
   6   4  -2   47.84    4.08
  -6  -4   2   38.95    4.42
  -6  -4   2   40.80    4.65
  -6  -4   1  258.74    9.12
   6   4  -1  258.22    9.99
   6   4  -1  240.49   10.16
   6   4  -1  243.10    5.74
   6   4  -1  249.03    5.81
  -6  -4   1  254.93   10.84
   6   4  -1  265.01    9.06
  -6  -4   1  250.02   11.58
   6   4   0    4.28    1.17
   6   4   0    2.02    0.80
   6   4   0    3.98    0.95
  -6  -4   0    4.17    1.08
  -6  -4   0    6.93    1.74
  -6  -4   0    4.91    1.69
   6   4   0    4.15    0.54
   6   4   0    4.46    0.54
   6   4   1   10.86    2.01
   6   4   1   14.18    2.34
   6   4   1   11.87    1.80
  -6  -4  -1   13.98    2.72
  -6  -4  -1   11.26    2.15
   6   4   2   93.25    6.06
   6   4   2   94.53    6.15
   6   4   2   93.12    5.13
   6   4   2   96.25    6.40
  -6  -4  -2   95.23    7.18
   6   4   3   19.94    2.89
   6   4   3   16.53    2.50
   6   4   3   20.82    2.49
  -6  -4  -3   21.83    3.49
   6   4   3   23.92    3.14
   6   4   4   55.60    4.17
   6   4   4   53.03    4.60
  -6  -4  -4   49.54    5.22
   6   4   4   52.30    2.42
  -6  -4  -4   54.87    2.51
   6   4   4   49.24    4.33
  -6  -4  -4   47.14    5.07
   6   4   5  201.48    8.29
   6   4   5  192.33    9.14
  -6  -4  -5  195.37   10.46
   6   4   5  187.48    5.75
  -6  -4  -5  208.00    6.11
   6   4   5  195.48    8.64
  -6  -4  -5  173.43    9.67
   6   4   6   40.22    3.89
   6   4   6   47.32    4.83
  -6  -4  -6   43.36    4.99
  -6  -4  -6   50.42    3.48
   6   4   6   42.52    3.17
   6   4   6   45.59    4.16
  -6  -4  -6   41.34    4.78
   6   4   7   42.21    4.16
   6   4   7   47.85    5.02
  -6  -4  -7   45.76    5.18
  -6  -4  -7   44.31    3.62
   6   4   7   45.35    3.65
   6   4   7   39.37    3.93
  -6  -4  -7   38.76    4.53
   6   4   8   71.52    5.74
   6   4   8   73.43    6.38
  -6  -4  -8   66.80    6.39
  -6  -4  -8   67.79    4.88
   6   4   8   74.91    5.17
   6   4   8   65.84    5.15
  -6  -4  -8   71.70    6.20
   6   4   9   14.23    2.85
  -6  -4  -9   17.00    3.36
  -6  -4  -9   15.70    2.88
  -6  -4  -9   16.82    2.74
   6   4  10    6.53    2.13
  -6  -4 -10    3.82    1.45
  -6  -4 -10    6.18    1.89
   6   4  11  148.49   10.15
  -6  -4 -11  148.18    9.01
  -6  -4 -11  141.21    8.74
   6   4  12   18.16    3.68
  -6  -4 -12   19.73    3.21
  -6  -4 -12   20.86    3.53
   6   4  13  108.57    9.36
  -6  -4 -13  100.92    8.29
  -6  -4 -13  106.00    7.49
   6   4  14    7.95    2.43
  -6  -4 -14   10.32    2.78
  -6  -4 -15   16.70    3.74
  -6  -4 -16    8.55    2.82
  -6  -5   8   11.02    2.76
  -6  -5   8    5.85    2.11
  -6  -5   7   22.20    4.04
   6   5  -7   21.04    3.76
  -6  -5   7   16.98    3.19
  -6  -5   7   18.64    3.97
   6   5  -6    8.05    2.50
  -6  -5   6   10.78    2.42
  -6  -5   6   10.67    3.38
   6   5  -5    2.97    1.12
  -6  -5   5    2.29    1.24
  -6  -5   5    7.66    2.35
   6   5  -5    5.84    1.82
   6   5  -4    0.03    0.19
  -6  -5   4    1.20    0.92
  -6  -5   4    2.64    1.38
   6   5  -4    0.79    0.94
  -6  -5   3   14.53    2.63
   6   5  -3   13.85    2.59
   6   5  -3   10.55    2.08
   6   5  -3   18.33    3.63
  -6  -5   3   36.96    4.85
  -6  -5   3   36.90    4.70
   6   5  -2    5.57    1.60
  -6  -5   2    5.65    1.65
   6   5  -2    6.57    1.80
   6   5  -2    6.07    1.73
   6   5  -2    7.94    1.57
  -6  -5   2    9.43    2.53
  -6  -5   2    6.26    1.63
   6   5  -2    9.08    2.01
  -6  -5   1   66.46    5.35
   6   5  -1   65.48    5.66
   6   5  -1   65.18    5.11
   6   5  -1   68.03    4.12
   6   5  -1   69.49    5.32
  -6  -5   1   63.43    5.45
  -6  -5   1   85.06    7.39
  -6  -5   0   45.00    4.21
   6   5   0   39.07    4.28
   6   5   0   40.46    3.94
   6   5   0   38.22    2.87
  -6  -5   0   39.52    4.17
   6   5   0   42.60    4.12
  -6  -5   0   44.69    5.24
   6   5   1   28.92    3.37
   6   5   1   30.20    3.80
   6   5   1   33.39    3.55
   6   5   1   29.23    2.39
  -6  -5  -1   32.24    4.45
  -6  -5  -1   29.48    3.46
   6   5   2   23.77    3.04
   6   5   2   28.17    3.30
   6   5   2   25.57    3.55
   6   5   2   25.77    2.17
  -6  -5  -2   31.40    4.38
  -6  -5  -2   24.61    3.04
   6   5   3   26.20    3.23
   6   5   3   29.41    3.35
   6   5   3   22.50    3.32
  -6  -5  -3   26.00    2.32
   6   5   3   27.01    2.37
   6   5   3   26.67    3.28
  -6  -5  -3   46.90    5.65
   6   5   4  156.94    8.07
  -6  -5  -4  168.64    6.25
   6   5   4  166.32    6.11
   6   5   4  149.52    7.43
  -6  -5  -4  148.93    9.64
   6   5   5   16.01    2.60
  -6  -5  -5   14.82    2.91
   6   5   5   17.91    2.14
  -6  -5  -5   17.34    2.24
  -6  -5  -5   16.88    3.38
   6   5   5   18.26    2.58
   6   5   6    0.58    0.36
   6   5   6    1.09    0.49
  -6  -5  -6    0.03    0.59
  -6  -5  -6    0.82    0.81
  -6  -5  -6    3.13    1.73
   6   5   6   -0.36    0.43
   6   5   6    0.89    0.82
   6   5   7   14.78    2.65
  -6  -5  -7   15.26    3.01
   6   5   7   15.01    2.77
  -6  -5  -7   16.29    2.47
  -6  -5  -7   19.67    3.69
   6   5   7   13.83    2.19
   6   5   7   12.72    2.14
   6   5   8  138.39    8.54
   6   5   8  144.16    9.39
  -6  -5  -8  134.85    9.02
  -6  -5  -8  144.35    7.70
   6   5   8  140.30    7.53
   6   5   8  132.35    6.84
  -6  -5  -8  145.82    9.60
   6   5   9   48.17    5.23
   6   5   9   50.37    5.73
  -6  -5  -9   43.44    5.15
  -6  -5  -9   50.16    4.86
   6   5   9   40.79    4.24
   6   5   9   51.70    4.39
  -6  -5  -9   44.53    5.29
   6   5  10  176.21   10.44
   6   5  10  194.96   11.55
  -6  -5 -10  187.36   11.04
  -6  -5 -10  178.31    9.63
   6   5  10  179.23    9.60
   6   5  10  186.55    8.60
  -6  -5 -10  176.72   10.34
   6   5  11   13.73    3.17
  -6  -5 -11   18.04    3.66
  -6  -5 -11   12.18    2.65
  -6  -5 -11   12.70    2.89
   6   5  12   20.08    4.00
  -6  -5 -12   15.81    3.02
  -6  -5 -12   20.33    3.71
   6   5  13   65.32    7.43
  -6  -5 -13   62.77    6.77
  -6  -5 -13   71.22    6.50
   6   5  14   20.20    4.35
  -6  -5 -14   15.81    3.15
  -6  -5 -14   18.72    3.85
  -6  -5 -15    1.84    0.86
  -6  -5 -16   33.60    5.62
  -6  -6   8    5.65    1.97
   6   6  -8    8.18    2.37
  -6  -6   7    6.85    2.25
   6   6  -7    5.50    1.90
  -6  -6   7    7.83    2.16
  -6  -6   7    9.12    2.84
   6   6  -6    8.69    2.38
  -6  -6   6    9.78    2.65
  -6  -6   6    8.54    2.52
   6   6  -5   11.45    2.65
  -6  -6   5   10.93    2.67
  -6  -6   5   11.38    2.66
   6   6  -5   15.66    2.87
   6   6  -4   47.88    4.75
   6   6  -4   53.51    5.74
  -6  -6   4   47.41    5.35
  -6  -6   4   44.46    5.73
   6   6  -3   16.50    3.01
  -6  -6   3   16.85    3.42
  -6  -6   3   14.21    2.87
   6   6  -2   58.36    5.60
  -6  -6   2   56.15    5.28
  -6  -6   2   58.89    6.35
   6   6  -1   67.40    5.03
  -6  -6   1   65.78    5.52
   6   6  -1   72.62    6.11
  -6  -6   1   62.07    6.41
  -6  -6   0  129.28    8.28
   6   6   0  132.88    7.07
   6   6   0  136.67    6.82
  -6  -6   0  133.92    9.51
   6   6   0  135.40    8.43
  -6  -6   0  130.37    7.50
   6   6   1   40.97    4.62
   6   6   1   47.44    4.07
   6   6   1   45.55    3.84
  -6  -6  -1   47.05    5.60
  -6  -6  -1   45.33    4.30
   6   6   2   16.86    2.93
   6   6   2   13.75    2.20
   6   6   2   21.53    2.75
  -6  -6  -2   13.29    2.09
  -6  -6  -2   12.08    2.71
  -6  -6  -2   10.72    2.04
   6   6   3   39.64    4.41
   6   6   3   37.90    3.63
   6   6   3   37.29    3.39
  -6  -6  -3   37.39    3.54
  -6  -6  -3   34.16    4.74
   6   6   4   33.63    4.13
   6   6   4   29.66    3.34
   6   6   4   31.55    3.20
  -6  -6  -4   30.26    3.34
  -6  -6  -4   31.91    4.68
   6   6   5   15.81    2.90
  -6  -6  -5   12.18    2.27
  -6  -6  -5   13.60    3.11
   6   6   5   12.52    2.03
   6   6   5   12.29    2.16
   6   6   6   74.69    6.36
   6   6   6   70.00    5.16
  -6  -6  -6   72.62    5.46
  -6  -6  -6   73.40    6.95
   6   6   6   71.72    4.69
   6   6   7  226.65   11.34
  -6  -6  -7  231.39   11.74
   6   6   7  246.63   10.26
  -6  -6  -7  237.67   10.28
  -6  -6  -7  230.97   12.39
   6   6   7  235.50    8.47
   6   6   8   52.87    5.98
   6   6   8   52.50    5.73
  -6  -6  -8   46.73    5.41
  -6  -6  -8   50.90    5.20
   6   6   8   62.81    5.48
  -6  -6  -8   62.17    6.46
   6   6   8   48.85    3.92
   6   6   9   28.21    4.50
  -6  -6  -9   28.21    4.32
   6   6   9   27.73    4.58
  -6  -6  -9   21.92    3.74
  -6  -6  -9   27.89    4.48
   6   6  10   12.34    2.98
  -6  -6 -10   12.97    2.97
   6   6  10   15.48    3.54
  -6  -6 -10    9.67    2.45
  -6  -6 -10   15.75    3.39
   6   6  11   51.73    6.32
   6   6  11   60.82    7.01
  -6  -6 -11   63.96    6.57
  -6  -6 -11   59.77    6.30
  -6  -6 -11   56.95    6.30
   6   6  12    4.74    2.13
  -6  -6 -12    6.70    2.21
   6   6  12    5.27    2.13
  -6  -6 -12    5.41    2.11
  -6  -6 -12    5.77    2.24
   6   6  13    7.35    2.73
  -6  -6 -13    7.38    2.56
  -6  -6 -13    4.83    2.22
  -6  -6 -13    7.71    2.61
  -6  -6 -14    7.63    2.41
  -6  -6 -14    7.08    2.49
  -6  -6 -15    5.92    2.60
   6   7  -8   16.33    4.14
   6   7  -7   11.24    3.27
  -6  -7   7    6.57    2.23
   6   7  -6   -0.24    0.48
  -6  -7   6    3.42    1.69
  -6  -7   6    0.48    1.65
   6   7  -5    1.75    1.83
  -6  -7   5   -0.71    0.98
  -6  -7   5    0.97    1.13
   6   7  -4   39.38    5.24
  -6  -7   4   39.80    4.90
  -6  -7   4   40.12    5.58
   6   7  -3    9.49    2.55
  -6  -7   3   11.88    2.85
  -6  -7   3    8.84    2.22
   6   7  -2    0.88    0.94
  -6  -7   2    0.97    0.67
  -6  -7   2    1.78    1.60
   6   7  -1   17.93    3.32
  -6  -7   1   19.56    2.98
   6   7   0   11.57    1.91
   6   7   0   10.41    2.61
  -6  -7   0   11.62    2.29
   6   7   1    6.24    1.83
   6   7   1    9.30    1.72
  -6  -7  -1    7.32    1.79
  -6  -7  -1    9.11    1.93
   6   7   2   31.62    4.33
  -6  -7  -2   31.74    3.75
   6   7   2   28.58    3.02
   6   7   3   33.63    4.46
  -6  -7  -3   30.22    3.64
   6   7   3   36.31    3.38
   6   7   4  103.07    7.87
   6   7   4   94.54    6.35
  -6  -7  -4  111.25    7.08
   6   7   4  100.45    5.76
   6   7   5   64.26    6.30
   6   7   5   71.05    5.65
  -6  -7  -5   57.67    5.17
   6   7   6    1.26    1.14
  -6  -7  -6   -0.51    0.44
   6   7   6    0.21    0.75
   6   7   7   30.63    4.47
  -6  -7  -7   29.45    4.02
   6   7   8   -1.10    0.76
  -6  -7  -8   -0.13    0.30
  -6  -7  -8   -0.66    0.76
   6   7   9   -2.68    1.72
   6   7   9    0.36    1.00
  -6  -7  -9   -0.06    0.12
  -6  -7  -9   -0.57    0.31
   6   7  10   71.90    7.50
   6   7  10   76.91    7.82
  -6  -7 -10   76.29    6.96
  -6  -7 -10   79.26    7.35
  -6  -7 -10   69.79    7.28
   6   7  11   21.21    4.28
  -6  -7 -11   25.97    4.04
   6   7  11   31.74    5.32
  -6  -7 -11   24.62    4.17
  -6  -7 -11   21.60    4.07
   6   7  12   55.19    7.02
   6   7  12   55.21    7.07
  -6  -7 -12   54.09    6.02
  -6  -7 -12   51.47    6.33
  -6  -7 -12   50.94    6.17
   6   7  13   56.49    7.30
  -6  -7 -13   64.33    6.65
  -6  -7 -13   53.65    6.73
  -6  -7 -13   64.15    7.03
  -6  -7 -14    2.74    1.66
  -6  -7 -14    0.60    1.07
  -6  -7 -14    1.38    0.17
  -6  -7 -15    5.62    1.88
   6   8  -6   -2.19    1.50
  -6  -8   6   -0.08    0.62
  -6  -8   6    0.12    0.54
   6   8  -5    1.91    1.63
  -6  -8   5    1.35    0.89
  -6  -8   5    1.35    1.06
   6   8  -4    5.76    2.36
  -6  -8   4   -0.14    0.51
  -6  -8   4    1.56    1.25
   6   8  -3    1.47    0.77
  -6  -8   3   -0.04    0.28
   6   8  -2    0.14    0.69
  -6  -8   2    0.67    1.06
  -6  -8   1  111.59    7.18
   6   8  -1  121.83    9.53
   6   8   0   22.60    3.98
  -6  -8   0   24.50    3.26
   6   8   1   58.83    6.54
  -6  -8  -1   56.99    5.79
  -6  -8  -1   57.69    4.64
   6   8   2   13.67    3.11
  -6  -8  -2   12.77    2.63
   6   8   3    1.96    1.41
  -6  -8  -3    2.40    1.28
   6   8   4   15.53    3.23
  -6  -8  -4   14.53    2.91
   6   8   5    1.02    1.26
  -6  -8  -5    0.60    1.14
   6   8   6    0.62    0.25
  -6  -8  -6    0.78    1.11
   6   8   7    3.32    1.52
  -6  -8  -7    5.45    1.80
   6   8   8   19.99    3.95
  -6  -8  -8   23.33    4.05
   6   8   9    5.26    2.29
  -6  -8  -9    7.16    2.38
   6   8  10   41.15    6.03
   6   8  10   39.09    5.86
  -6  -8 -10   42.45    5.73
  -6  -8 -10   39.66    5.06
   6   8  11   17.70    4.05
  -6  -8 -11   16.60    3.24
  -6  -8 -11   17.12    3.58
   6   8  12   24.75    4.82
  -6  -8 -12   20.76    4.42
  -6  -8 -12   27.47    4.86
  -6  -8 -13    5.14    2.53
  -6  -8 -13    7.88    2.74
  -6  -8 -14    6.22    3.21
  -6  -8 -14    1.95    1.56
   6   9  -4   14.85    3.73
   6   9  -3    7.44    2.61
   6   9  -2   15.81    3.71
   6   9  -1   40.09    5.89
   6   9   0    3.88    1.96
   6   9   1   -0.22    0.31
  -6  -9  -1    0.62    0.82
   6   9   2   26.29    4.67
  -6  -9  -2   24.26    4.09
   6   9   3   23.35    4.57
  -6  -9  -3   23.39    4.06
   6   9   4    8.90    2.83
  -6  -9  -4   10.12    2.66
   6   9   5  136.30   10.78
  -6  -9  -5  150.78   10.28
   6   9   6   20.31    4.45
  -6  -9  -6   10.87    2.65
   6   9   7   67.98    7.75
  -6  -9  -7   57.48    6.50
   6   9   8   14.45    3.66
  -6  -9  -8   18.71    3.84
   6   9   9    8.34    2.98
  -6  -9  -9    9.81    2.97
   6   9  10    6.22    2.65
  -6  -9 -10    5.17    2.01
  -6  -9 -11    1.40    0.96
  -6  -9 -12    2.44    1.49
   6  10   1   24.29    4.95
   6  10   2   55.47    7.42
   6  10   3   24.46    4.76
   6  10   4   23.04    4.76
   6  10   5   16.46    4.26
  -6 -10  -5   17.86    4.03
   6  10   6   51.25    7.26
  -6 -10  -6   61.07    7.28
  -6 -10  -7   11.30    3.36
  -6 -10  -8   10.08    3.17
  -6 -10  -9    7.56    2.83
   7  -5   0   23.40    4.97
   7  -5   1   20.47    4.40
   7  -5   2    3.67    2.72
   7  -5   3   35.99    5.73
   7  -5   4   19.75    4.08
   7  -5   5   13.59    3.49
  -7   5  -5   10.44    2.87
  -7   5  -6   48.76    5.76
   7  -5   6   40.34    5.43
   7  -5   7   24.16    4.26
  -7   5  -7   25.90    4.25
   7  -4  -2   13.64    3.38
  -7   4   1   58.52    6.67
   7  -4  -1   67.05    7.20
  -7   4   0    0.33    0.86
   7  -4   0    0.48    0.44
  -7   4  -1   25.61    4.39
   7  -4   1   24.29    4.25
  -7   4  -2    7.24    2.49
   7  -4   2    8.18    2.45
  -7   4  -3    9.24    2.68
  -7   4  -3   14.02    2.92
   7  -4   3   20.39    3.82
  -7   4  -4    0.84    0.94
  -7   4  -4    0.03    0.43
   7  -4   4    0.80    0.68
  -7   4  -5    7.79    2.38
  -7   4  -5   11.24    2.55
   7  -4   5    7.34    2.25
  -7   4  -6   12.16    3.17
   7  -4   6   10.18    2.89
  -7   4  -6   10.21    2.65
   7  -4   7    5.37    1.99
  -7   4  -7    6.67    1.95
   7  -4   8   11.15    2.94
   7  -3  -3    3.39    1.88
   7  -3  -2   68.11    7.23
   7  -3  -1   22.14    4.21
   7  -3   0   82.12    7.67
   7  -3   1    0.13    0.54
   7  -3   2    8.83    2.48
   7  -3   3  126.11    9.22
  -7   3  -3  135.52    9.16
  -7   3  -4   25.66    4.08
   7  -3   4   22.15    3.71
  -7   3  -5   22.19    3.73
   7  -3   5   27.88    4.40
   7  -3   6    6.20    2.16
  -7   3  -6    7.51    2.37
   7  -3   7    4.50    1.80
   7  -3   7    3.07    1.41
  -7   3  -7    5.04    1.85
   7  -3   8    2.14    1.49
   7  -3   9   43.98    4.94
   7  -3   9   47.21    5.89
   7  -3  10    5.40    1.92
  -7   3 -10    5.61    2.12
   7  -3  11   16.49    3.73
  -7   3 -11   16.88    3.54
  -7   2   5   37.32    5.29
   7  -2  -4   18.49    3.75
  -7   2   4   18.00    3.91
   7  -2  -3    4.91    2.05
   7  -2  -2   47.63    5.84
   7  -2  -1    9.36    2.78
   7  -2   0   21.62    3.78
   7  -2   1   75.63    7.06
   7  -2   2  230.25   12.31
  -7   2  -2  228.10   11.99
  -7   2  -3   27.98    4.18
   7  -2   3   24.63    3.97
   7  -2   4  333.37   14.59
  -7   2  -4  322.30   14.35
   7  -2   5   57.45    5.16
   7  -2   5   53.73    5.96
  -7   2  -5   53.11    6.07
   7  -2   6   35.88    4.27
   7  -2   6   39.54    3.61
   7  -2   6   32.50    4.62
  -7   2  -6   29.84    4.56
   7  -2   7    5.08    1.65
  -7   2  -7    8.10    2.72
   7  -2   8   51.58    5.56
  -7   2  -8   54.57    5.42
   7  -2   9    3.00    1.50
  -7   2  -9    3.79    1.61
   7  -2  10   34.52    5.00
  -7   2 -10   35.53    4.80
   7  -2  11   32.61    5.01
  -7   2 -11   29.26    4.54
   7  -2  12   58.37    7.14
  -7   2 -12   59.23    6.66
  -7   1   6    5.45    2.70
  -7   1   5   10.18    3.83
   7  -1  -4    6.68    3.13
  -7   1   4   11.51    3.85
   7  -1  -3   24.62    4.98
  -7   1   3   34.27    5.64
   7  -1  -2    4.21    1.84
   7  -1  -1    5.03    2.10
   7  -1   0   30.14    4.35
   7  -1   1   92.67    7.68
  -7   1  -2   21.51    3.64
   7  -1   2   20.72    3.58
   7  -1   3  128.65    9.05
  -7   1  -3  121.52    8.75
  -7   1  -4   13.54    3.02
   7  -1   4   16.48    1.59
   7  -1   4   15.21    3.10
   7  -1   4   15.69    2.36
  -7   1  -5   10.47    2.31
  -7   1  -5    9.06    2.54
   7  -1   5   11.31    3.01
   7  -1   5   11.21    2.21
  -7   1  -5   13.39    2.84
   7  -1   6    2.10    1.16
  -7   1  -6    3.05    1.91
  -7   1  -6    0.86    1.26
  -7   1  -6    6.34    1.84
   7  -1   7   17.99    3.02
  -7   1  -7   18.14    3.62
  -7   1  -7   17.95    2.63
   7  -1   8    2.28    1.10
  -7   1  -8    1.27    1.07
   7  -1   9  217.29   11.50
  -7   1  -9  230.96   10.57
   7  -1  10  113.09    8.68
  -7   1 -10  113.35    7.93
   7  -1  11   76.28    7.48
  -7   1 -11   73.95    6.82
   7  -1  12   28.41    4.79
  -7   1 -12   37.76    5.18
   7  -1  13    9.56    2.84
  -7   1 -13   12.24    3.24
  -7   1 -14   22.34    4.37
  -7   0   6    7.72    2.35
  -7   0   5   32.14    4.85
   7   0  -4   31.62    4.90
  -7   0   4   25.90    4.29
   7   0  -3    1.76    1.00
  -7   0   3    1.61    1.30
   7   0  -2   86.71    7.57
  -7   0   2   73.84    6.85
   7   0  -1   -0.16    0.98
   7   0   0   81.47    7.15
   7   0   1    3.61    1.39
   7   0   2    4.04    0.88
   7   0   2    3.71    1.39
  -7   0  -3    0.96    0.96
   7   0   3   -0.05    0.37
   7   0   3    0.36    0.35
   7   0   3    0.95    0.33
   7   0   4   50.80    3.91
   7   0   4   39.85    4.77
  -7   0  -4   39.76    5.06
   7   0   5   60.23    4.66
  -7   0  -5   64.63    2.82
  -7   0  -5   59.53    6.20
   7   0   6  227.22    9.70
  -7   0  -6  237.33    7.06
  -7   0  -6  240.69   12.68
   7   0   7   45.34    4.60
  -7   0  -7   50.07    5.91
  -7   0  -7   46.89    3.61
   7   0   8    2.13    1.34
  -7   0  -8    1.39    0.88
   7   0   9   24.91    3.81
  -7   0  -9   29.61    3.51
   7   0  10    8.17    2.24
  -7   0 -10    9.33    2.18
   7   0  11    4.41    1.55
  -7   0 -11    7.71    2.07
   7   0  12    2.98    1.91
  -7   0 -12    4.87    1.72
   7   0  13   12.03    3.14
  -7   0 -13   19.95    3.63
  -7   0 -14   24.99    4.48
  -7  -1   6    5.01    2.04
  -7  -1   5   32.09    4.86
   7   1  -4   15.86    3.40
  -7  -1   4    9.22    2.45
   7   1  -3   29.54    4.54
  -7  -1   3   22.19    3.82
   7   1  -2    2.09    1.33
  -7  -1   2    2.36    1.45
   7   1  -1    2.22    1.33
  -7  -1   1    3.26    1.53
   7   1   0    1.60    1.04
   7   1   1   23.06    1.35
   7   1   1   28.42    3.99
   7   1   2   14.57    1.62
   7   1   2   13.76    1.19
   7   1   2   15.34    2.85
   7   1   3  232.60    7.51
   7   1   3  230.89   11.34
   7   1   3  227.50    6.53
  -7  -1  -3  241.54   12.46
  -7  -1  -4   12.83    2.83
   7   1   4   11.00    2.40
   7   1   4   13.00    1.99
  -7  -1  -5   20.98    3.71
   7   1   5   19.06    2.62
   7   1   6   65.54    2.38
   7   1   6   77.42    2.68
   7   1   6   65.00    5.13
  -7  -1  -6   69.38    6.86
  -7  -1  -6   73.03    2.68
  -7  -1  -6   67.71    2.55
   7   1   7    3.91    1.32
  -7  -1  -7    3.75    1.82
  -7  -1  -7    4.80    1.01
   7   1   8    5.93    1.78
  -7  -1  -8    9.36    2.63
  -7  -1  -8    9.02    1.62
  -7  -1  -9   24.81    2.97
   7   1   9   20.37    3.39
   7   1  10   56.51    5.89
  -7  -1 -10   64.40    5.30
   7   1  11   45.59    5.54
  -7  -1 -11   33.39    4.12
   7   1  12  111.27    9.12
  -7  -1 -12  111.62    8.08
   7   1  13   11.62    2.92
  -7  -1 -13   15.16    3.18
   7   1  14    0.13    0.73
  -7  -1 -14    1.02    1.10
  -7  -1 -15   81.28    8.20
  -7  -2   6   28.17    4.65
  -7  -2   5    8.30    2.44
   7   2  -4   33.58    4.72
  -7  -2   4   33.31    4.78
   7   2  -3   20.64    3.64
  -7  -2   3   19.65    3.68
   7   2  -2   64.51    6.30
  -7  -2   2   60.93    6.36
   7   2  -1   49.63    5.37
  -7  -2   1   42.49    5.01
   7   2   0   67.52    6.18
   7   2   0   52.74    1.76
   7   2   0   56.74    1.77
  -7  -2   0   69.30    6.24
   7   2   1   75.51    3.72
   7   2   1   70.94    6.18
   7   2   1   74.03    3.33
   7   2   2   64.97    3.95
   7   2   2   68.44    6.28
   7   2   2   73.93    4.08
  -7  -2  -3   10.18    2.72
   7   2   3   11.46    1.75
   7   2   3    8.72    2.25
   7   2   3   11.06    1.79
  -7  -2  -4   18.65    3.47
   7   2   4   23.88    3.54
   7   2   4   21.45    2.60
  -7  -2  -5  106.79    8.37
   7   2   5   95.10    5.94
  -7  -2  -6   28.10    4.74
   7   2   6   36.95    4.04
   7   2   6   24.38    2.15
   7   2   6   35.38    2.43
   7   2   7   50.08    4.88
   7   2   7   49.06    3.60
  -7  -2  -7   55.43    6.25
  -7  -2  -7   53.91    2.95
   7   2   7   55.74    3.64
   7   2   8   20.87    3.35
  -7  -2  -8   23.13    4.37
  -7  -2  -8   22.21    2.44
   7   2   8   21.35    2.58
   7   2   9   94.64    7.32
  -7  -2  -9  110.66    6.02
  -7  -2  -9  105.47    8.82
  -7  -2 -10   39.21    3.99
   7   2  10   33.51    4.57
   7   2  11   44.84    5.53
  -7  -2 -11   32.12    3.96
   7   2  12    6.19    2.05
  -7  -2 -12    6.94    2.11
   7   2  13   16.71    3.86
  -7  -2 -13   17.81    3.56
   7   2  14    7.63    2.48
  -7  -2 -14   12.01    2.96
  -7  -2 -15   61.09    6.96
  -7  -3   6   17.04    3.72
  -7  -3   5    4.59    2.06
  -7  -3   4   20.20    3.70
   7   3  -3   54.42    5.73
  -7  -3   3   52.25    5.80
   7   3  -2   32.43    4.29
  -7  -3   2   31.15    4.32
   7   3  -1    2.68    0.81
   7   3  -1    0.15    0.76
  -7  -3   1   -0.37    0.59
   7   3   0   17.44    2.01
  -7  -3   0   17.62    3.19
   7   3   1    7.50    2.06
   7   3   1    5.01    1.16
   7   3   1   15.32    2.35
   7   3   2    4.97    1.19
   7   3   2    2.74    0.85
   7   3   2    5.02    1.81
  -7  -3  -2    4.60    1.61
   7   3   3    3.12    1.48
   7   3   3    0.18    0.65
   7   3   3    2.57    1.06
   7   3   3    1.08    0.45
  -7  -3  -3    5.62    2.10
  -7  -3  -4   12.96    2.95
   7   3   4   21.72    3.38
   7   3   4   19.04    2.68
   7   3   4   21.19    1.70
  -7  -3  -4   19.46    3.54
  -7  -3  -5    7.78    2.34
   7   3   5    4.82    1.56
   7   3   5    5.44    1.02
  -7  -3  -5    4.75    1.92
  -7  -3  -6   85.81    7.58
   7   3   6   85.80    6.28
   7   3   6   85.62    4.73
  -7  -3  -6   84.34    7.07
   7   3   7   41.23    4.69
   7   3   7   41.78    3.66
  -7  -3  -7   41.04    2.52
  -7  -3  -7   48.63    5.79
   7   3   8   20.38    2.81
   7   3   8   20.26    2.67
  -7  -3  -8   22.39    2.37
  -7  -3  -8   20.09    3.80
   7   3   8   23.21    3.59
  -7  -3  -9   24.16    2.88
   7   3   9   23.37    3.99
  -7  -3  -9   20.44    4.05
   7   3  10   72.01    7.12
  -7  -3 -10   78.81    7.99
  -7  -3 -10   83.68    5.83
   7   3  11   10.88    2.86
  -7  -3 -11   13.51    2.71
   7   3  12   41.92    5.68
  -7  -3 -12   46.94    5.15
   7   3  13  105.99    9.23
  -7  -3 -13  104.35    8.12
   7   3  14   37.33    5.79
  -7  -3 -14   34.89    4.96
  -7  -3 -15   44.76    5.96
  -7  -4   6   35.91    5.22
  -7  -4   5   49.96    6.04
  -7  -4   4    4.62    1.72
   7   4  -3    3.50    1.25
  -7  -4   3    7.00    2.20
  -7  -4   3    8.89    2.35
   7   4  -2    3.32    1.47
   7   4  -2    4.80    1.22
  -7  -4   2    5.09    1.83
  -7  -4   2    5.32    1.70
   7   4  -1   48.62    5.12
  -7  -4   1   44.30    4.99
  -7  -4   1   35.84    4.66
   7   4  -1   46.52    3.51
   7   4   0   12.03    2.14
   7   4   0   13.31    2.57
   7   4   0   15.33    2.12
   7   4   0   15.97    1.95
  -7  -4   0   10.09    2.41
  -7  -4   0   15.96    2.93
   7   4   1   48.59    4.36
   7   4   1   46.46    4.90
   7   4   1   47.72    3.91
  -7  -4  -1   43.86    4.79
   7   4   1   49.00    3.30
  -7  -4  -1   48.69    5.47
   7   4   2   10.05    1.90
   7   4   2   14.97    2.48
   7   4   2    7.99    1.93
   7   4   2   13.82    1.76
  -7  -4  -2    6.86    1.90
   7   4   3   53.18    5.16
   7   4   3   49.21    4.65
   7   4   3   48.37    4.41
  -7  -4  -3   49.40    5.55
   7   4   3   49.42    3.51
   7   4   4   15.34    2.75
   7   4   4   15.49    2.68
   7   4   4   12.88    2.49
   7   4   4   17.34    2.21
  -7  -4  -4   18.02    3.35
  -7  -4  -5    7.28    2.33
   7   4   5    5.58    1.65
   7   4   5    7.11    1.59
  -7  -4  -5    5.63    1.90
   7   4   6   49.81    4.16
   7   4   6   38.57    4.46
  -7  -4  -6   48.25    5.74
  -7  -4  -6   45.02    1.95
  -7  -4  -6   37.90    4.89
   7   4   7    0.94    0.57
  -7  -4  -7   -0.41    0.50
   7   4   7   -0.46    0.34
  -7  -4  -7    1.35    0.65
  -7  -4  -7   -0.47    0.66
   7   4   8   13.59    2.51
  -7  -4  -8   10.66    2.59
   7   4   8   10.92    2.60
  -7  -4  -8   12.36    1.88
  -7  -4  -8   14.54    3.12
  -7  -4  -9    8.38    2.47
   7   4   9    8.92    2.36
   7   4   9    8.06    1.84
  -7  -4  -9    8.15    2.32
  -7  -4  -9    8.32    1.87
   7   4  10  158.79   10.37
   7   4  10  162.12    9.37
  -7  -4 -10  164.18   11.18
  -7  -4 -10  158.35    8.31
  -7  -4 -10  152.28    9.72
   7   4  11    9.48    3.05
  -7  -4 -11   12.05    3.41
  -7  -4 -11   11.75    2.71
  -7  -4 -11   11.58    2.56
   7   4  12   69.80    7.45
  -7  -4 -12   65.76    6.18
   7   4  13   45.98    6.15
  -7  -4 -13   42.89    5.29
  -7  -4 -14    6.96    2.23
  -7  -5   6   11.49    2.69
  -7  -5   6   16.20    3.49
  -7  -5   5    3.73    1.56
  -7  -5   5    2.82    1.52
  -7  -5   4   16.70    3.38
  -7  -5   4   14.45    3.17
   7   5  -3    2.00    0.99
  -7  -5   3    0.94    0.77
  -7  -5   3    2.62    1.46
   7   5  -2   29.35    4.08
  -7  -5   2   27.90    3.98
  -7  -5   2   27.12    4.28
   7   5  -2   28.95    3.39
   7   5  -1   33.73    4.13
  -7  -5   1   30.21    4.06
   7   5  -1   29.65    3.35
  -7  -5   1   35.18    4.90
   7   5   0   39.84    4.45
  -7  -5   0   38.70    4.53
  -7  -5   0   42.20    5.35
   7   5   0   39.17    3.77
   7   5   1   51.48    5.10
   7   5   1   51.77    5.05
  -7  -5  -1   53.77    5.12
   7   5   1   61.28    4.68
  -7  -5  -1   61.65    6.45
   7   5   2   21.74    3.26
   7   5   2   19.25    2.63
  -7  -5  -2   19.00    3.60
   7   5   3   12.95    2.41
   7   5   3    8.31    1.80
  -7  -5  -3    8.97    2.50
   7   5   4    9.83    2.23
   7   5   4   10.67    2.07
   7   5   4   11.34    2.38
  -7  -5  -4   11.14    2.70
   7   5   5   33.19    3.72
   7   5   5   33.40    4.16
  -7  -5  -5   28.32    4.26
  -7  -5  -6   36.15    4.99
   7   5   6   35.66    3.95
   7   5   6   35.12    4.53
  -7  -5  -6   30.79    4.68
   7   5   7   90.01    6.54
   7   5   7   90.57    7.45
  -7  -5  -7   74.46    7.17
  -7  -5  -7   86.29    4.89
  -7  -5  -7   86.16    7.62
   7   5   8    1.97    1.22
  -7  -5  -8    0.10    1.16
   7   5   8    1.44    1.18
  -7  -5  -8    1.27    0.75
  -7  -5  -8    0.80    1.05
   7   5   9   56.28    5.63
   7   5   9   57.08    6.18
  -7  -5  -9   58.61    6.67
  -7  -5  -9   54.36    4.72
  -7  -5  -9   63.92    6.61
   7   5  10   34.69    4.58
  -7  -5 -10   37.53    5.24
   7   5  10   27.81    4.56
  -7  -5 -10   27.33    3.61
  -7  -5 -10   32.03    4.67
   7   5  11   77.70    7.82
   7   5  11   77.51    7.18
  -7  -5 -11   84.36    8.18
  -7  -5 -11   74.31    6.39
  -7  -5 -11   72.93    7.04
   7   5  12    1.07    0.99
  -7  -5 -12    3.82    2.15
   7   5  12    2.17    0.75
  -7  -5 -12    2.98    1.36
  -7  -5 -12    2.92    1.08
   7   5  13    8.98    2.83
  -7  -5 -13    6.95    2.47
  -7  -5 -13    7.54    2.10
  -7  -5 -13    8.94    2.50
  -7  -5 -14    1.45    0.60
  -7  -6   6    6.78    2.32
  -7  -6   5    9.76    2.51
  -7  -6   5   10.33    2.83
  -7  -6   4   33.28    4.90
  -7  -6   4   38.52    5.12
  -7  -6   3   29.73    4.66
   7   6  -3   35.19    4.40
  -7  -6   3   35.26    4.76
   7   6  -2   14.08    2.73
  -7  -6   2   12.35    2.90
  -7  -6   2   12.31    2.94
   7   6  -1    3.45    1.22
   7   6  -1    4.59    1.44
  -7  -6   1    4.57    1.99
  -7  -6   1   10.78    3.19
   7   6   0   39.57    4.28
  -7  -6   0   45.69    4.96
   7   6   0   42.12    4.43
  -7  -6   0   51.04    6.26
   7   6   1   38.77    4.23
  -7  -6  -1   42.68    5.74
  -7  -6  -1   36.84    4.25
   7   6   1   43.27    4.49
   7   6   2  164.65    8.85
   7   6   2  156.33    8.68
  -7  -6  -2  160.62   11.30
   7   6   3   40.68    4.44
   7   6   3   42.83    4.55
  -7  -6  -3   51.30    6.35
   7   6   4  369.44   13.00
   7   6   4  371.56   13.40
  -7  -6  -4  344.79   16.52
   7   6   5   82.24    6.26
   7   6   5   86.79    6.56
  -7  -6  -5   74.48    7.65
   7   6   6  295.12   12.55
   7   6   6  282.36   13.22
  -7  -6  -6  279.68   14.85
  -7  -6  -7   38.95    5.33
   7   6   7   32.22    4.22
   7   6   7   39.98    5.20
  -7  -6  -7   32.46    5.11
  -7  -6  -8   33.52    4.98
   7   6   8   24.72    4.29
   7   6   8   27.91    4.25
  -7  -6  -8   28.63    4.80
  -7  -6  -9    8.39    2.74
   7   6   9    8.29    2.54
   7   6   9    7.41    2.00
  -7  -6  -9    8.79    2.64
  -7  -6 -10   17.77    3.66
   7   6  10   21.71    4.12
   7   6  10   20.17    3.76
  -7  -6 -10   25.03    4.19
  -7  -6 -11   24.99    4.47
   7   6  11   28.99    5.06
   7   6  11   23.57    4.27
  -7  -6 -11   24.22    4.28
  -7  -6 -12   23.86    4.48
   7   6  12   28.71    5.18
   7   6  12   25.75    4.65
  -7  -6 -12   29.36    4.74
  -7  -6 -13   12.85    3.40
   7   6  13    6.85    2.41
  -7  -6 -13   11.69    2.89
  -7  -6 -14   11.54    3.32
   7   6  14    9.06    3.17
  -7  -6 -14    8.55    2.49
  -7  -7   6    0.14    0.74
  -7  -7   5   13.80    3.54
  -7  -7   5   11.53    2.93
  -7  -7   4    1.79    0.46
  -7  -7   4    4.39    1.88
   7   7  -3    4.56    2.09
  -7  -7   3    3.93    1.71
  -7  -7   3    5.38    2.00
   7   7  -2    6.66    2.50
  -7  -7   2    1.79    0.32
  -7  -7   2    7.74    2.61
   7   7  -1    1.38    1.28
  -7  -7   1    4.06    2.51
  -7  -7   1    8.40    3.22
   7   7   0    0.97    1.09
   7   7   0    0.19    0.36
  -7  -7   0    1.01    1.97
  -7  -7   0    1.67    1.21
   7   7   1    8.20    1.70
   7   7   1    5.67    1.85
  -7  -7  -1   12.05    3.41
  -7  -7  -1    6.38    1.94
   7   7   2    5.17    1.32
   7   7   2    2.18    1.15
  -7  -7  -2    7.32    2.86
   7   7   3   70.97    5.41
   7   7   3   69.12    6.43
  -7  -7  -3   75.22    7.92
   7   7   4   75.67    5.65
   7   7   4   69.46    6.44
  -7  -7  -4   73.72    7.99
   7   7   5   67.93    5.48
   7   7   5   66.69    6.36
  -7  -7  -5   68.04    7.59
   7   7   6   50.32    5.65
  -7  -7  -6   44.71    6.12
   7   7   7    2.46    1.68
   7   7   7    3.10    1.83
  -7  -7  -7    3.36    1.94
   7   7   8    2.18    1.72
   7   7   8    0.30    0.73
  -7  -7  -8    0.70    1.39
  -7  -7  -9  156.09   11.11
   7   7   9  153.89   10.53
   7   7   9  156.48   11.31
  -7  -7  -9  171.25   12.07
  -7  -7 -10   17.52    3.60
   7   7  10   16.00    4.19
   7   7  10   15.84    3.58
  -7  -7 -10   23.15    4.41
  -7  -7 -11   23.82    4.28
   7   7  11   28.54    5.28
   7   7  11   30.44    5.10
  -7  -7 -11   23.20    4.57
  -7  -7 -12   45.96    6.01
   7   7  12   38.44    5.73
  -7  -7 -12   39.26    5.68
  -7  -7 -13   22.30    4.36
   7   7  13   25.70    4.96
  -7  -7 -13   22.10    4.06
  -7  -7 -14   29.04    5.05
  -7  -7 -14   24.19    4.62
  -7  -8   4    9.41    2.48
   7   8  -3   -0.20    0.59
  -7  -8   3    2.97    2.20
   7   8  -2   12.33    2.87
  -7  -8   2   15.91    3.67
   7   8  -1    1.79    1.08
  -7  -8   1    1.30    1.00
   7   8   0   22.69    3.94
  -7  -8   0   25.97    5.07
   7   8   1   24.32    4.04
  -7  -8  -1   21.20    4.34
   7   8   2    5.53    1.70
  -7  -8  -2    9.24    3.22
   7   8   3   24.12    4.10
  -7  -8  -3   25.04    4.76
   7   8   4    0.07    1.11
  -7  -8  -4    0.55    0.58
   7   8   5    3.39    0.97
  -7  -8  -5    8.98    2.83
   7   8   6   38.75    5.48
  -7  -8  -6   31.51    5.32
   7   8   7   10.49    2.84
  -7  -8  -7   12.94    3.40
   7   8   8    8.16    2.77
  -7  -8  -8    8.91    2.99
   7   8   9    7.95    2.60
   7   8   9   13.06    3.52
  -7  -8  -9    6.79    2.45
   7   8  10   66.93    7.70
  -7  -8 -10   64.47    7.70
  -7  -8 -11   25.12    4.47
   7   8  11   24.59    4.72
  -7  -8 -12   59.90    6.83
   7   8  12   44.38    6.60
   7   9  -2   12.04    3.40
   7   9  -1    1.20    0.61
   7   9   0   -0.12    0.43
   7   9   1    2.13    0.82
   7   9   2    1.59    0.70
   7   9   3   12.53    3.25
   7   9   4    3.13    1.58
   7   9   5    5.66    2.18
   7   9   6   17.38    4.07
   7   9   7   22.93    4.49
   7   9   8   13.03    3.40
   7   9   9    5.90    2.68
   7   9  10    4.60    2.20
   7  10   2    5.63    2.37
   7  10   3    8.88    3.04
   7  10   4   23.66    4.83
   7  10   5   14.08    3.82
  -8   4  -4    6.50    2.19
  -8   4  -5    4.45    1.77
  -8   4  -6   15.41    3.48
  -8   4  -7    3.63    1.75
   8  -3   4   13.54    3.25
  -8   3  -4   10.96    2.71
  -8   3  -5   21.99    3.95
  -8   3  -6   46.68    6.14
  -8   3  -7   11.36    3.18
  -8   3  -8   42.21    5.98
   8  -3  10    2.20    1.18
   8  -2   0    9.33    2.81
   8  -2   1   12.92    3.66
   8  -2   2   66.66    7.20
   8  -2   3   25.42    4.70
  -8   2  -4   23.06    4.13
   8  -2   4   27.45    4.80
   8  -2   5   51.99    6.41
  -8   2  -5   51.54    6.51
  -8   2  -6   37.26    5.47
   8  -2   6   29.38    4.62
  -8   2  -7    2.92    1.61
   8  -2   7    2.49    1.74
   8  -2   8    4.49    1.61
   8  -2   8    3.06    1.51
  -8   2  -8    5.61    2.47
   8  -2   9   28.16    4.59
  -8   2  -9   29.77    5.17
   8  -2  10   12.19    3.07
   8  -2  11   39.93    5.76
   8  -1  -2   38.82    5.90
   8  -1  -1   86.20    9.33
   8  -1   0   36.14    5.31
   8  -1   1    3.88    2.14
   8  -1   2    2.38    1.68
   8  -1   3   14.53    3.30
  -8   1  -4    5.05    2.32
   8  -1   4   10.26    3.14
  -8   1  -5   19.91    3.89
   8  -1   5    8.97    1.84
  -8   1  -6    5.35    1.86
   8  -1   6    3.89    1.86
  -8   1  -7    9.53    3.34
   8  -1   7   15.23    3.86
   8  -1   7    7.27    2.28
  -8   1  -8  191.98   12.75
   8  -1   8  180.53   10.28
  -8   1  -9   46.42    6.58
   8  -1   9   37.07    4.99
   8  -1  10   15.23    3.40
   8  -1  11   27.59    4.63
   8  -1  12    3.18    1.68
   8   0  -3   37.65    5.49
  -8   0   3   40.37    5.70
   8   0  -2    0.36    0.92
   8   0  -1   43.99    5.76
   8   0   0   22.93    4.19
   8   0   1    1.77    0.91
   8   0   2   16.72    3.18
   8   0   3  113.93    8.95
  -8   0  -4   30.36    4.91
   8   0   4   36.53    5.05
   8   0   5   79.06    7.45
  -8   0  -5   71.68    7.42
   8   0   5   75.73    5.30
  -8   0  -6   41.73    5.70
   8   0   6   39.75    5.33
   8   0   6   38.05    4.05
  -8   0  -7   14.83    3.54
   8   0   7    9.01    2.08
  -8   0  -8    5.20    2.14
   8   0   8    3.10    0.99
   8   0   9   20.82    3.60
  -8   0  -9   23.48    4.48
   8   0  10    2.64    1.54
  -8   0 -10    3.18    2.09
   8   0  11    7.07    2.24
   8   0  12    5.56    2.27
   8   1  -3    3.63    2.08
  -8  -1   3    2.88    1.69
   8   1  -2   11.01    2.74
  -8  -1   2   18.10    3.76
   8   1  -1    1.23    1.01
   8   1   0    9.84    2.58
   8   1   1   13.67    3.17
   8   1   2   58.79    6.25
   8   1   3  112.47    8.75
   8   1   4   47.43    5.65
  -8  -1  -4   54.39    6.45
   8   1   5   59.64    6.38
  -8  -1  -5   67.76    7.21
   8   1   5   62.11    4.75
  -8  -1  -6    1.15    1.24
   8   1   6   -0.05    0.54
   8   1   6    2.67    1.06
  -8  -1  -7    5.61    2.27
   8   1   7    4.14    1.08
  -8  -1  -8   47.61    6.26
   8   1   8   50.48    5.21
  -8  -1  -9  131.16   10.57
   8   1   9  108.80    8.06
   8   1  10    5.73    1.87
  -8  -1 -10    8.02    2.72
   8   1  11   40.02    5.40
   8   1  12   12.15    3.12
   8   1  13   16.80    3.97
   8   2  -3    4.44    2.11
  -8  -2   3    7.03    2.52
   8   2  -2   58.50    6.79
  -8  -2   2   50.62    6.82
   8   2  -1   35.88    5.11
  -8  -2   1   32.65    4.78
   8   2   0   93.68    8.04
   8   2   1   48.36    5.63
   8   2   2   47.13    5.64
   8   2   3    3.01    1.82
  -8  -2  -4    3.89    1.85
   8   2   4    3.83    1.28
   8   2   4    1.83    1.16
  -8  -2  -5    3.50    1.40
   8   2   5    3.80    1.37
   8   2   5    2.97    1.05
  -8  -2  -6   38.43    5.70
   8   2   6   37.69    4.15
  -8  -2  -7   20.18    4.54
   8   2   7   25.14    3.76
  -8  -2  -8   82.07    8.56
   8   2   8   86.59    6.92
  -8  -2  -9   37.38    5.80
   8   2   9   27.90    4.09
  -8  -2 -10  120.77   10.30
   8   2  10  105.19    8.29
   8   2  11   13.12    3.17
  -8  -2 -11   20.81    4.30
   8   2  12    5.19    2.17
   8   2  13    4.57    1.74
  -8  -3   4   23.71    4.38
   8   3  -3    3.30    1.75
  -8  -3   3    5.44    2.05
   8   3  -2    6.33    2.45
  -8  -3   2   10.30    2.92
   8   3  -1   32.63    4.62
  -8  -3   1   27.53    4.38
   8   3   0   94.88    8.62
  -8  -3   0   82.26    8.10
   8   3   1    5.92    2.12
   8   3   2    3.61    1.89
   8   3   3   15.36    2.29
   8   3   3    7.08    2.11
   8   3   4    7.14    1.69
   8   3   4    8.04    2.26
  -8  -3  -5   32.00    5.07
   8   3   5   30.93    4.36
   8   3   5   27.61    3.39
  -8  -3  -6   16.21    3.72
   8   3   6   13.64    2.52
  -8  -3  -7   30.53    4.96
   8   3   7   26.94    3.67
  -8  -3  -8  245.70   14.38
   8   3   8  243.56   11.76
  -8  -3  -9   16.69    4.03
   8   3   9   17.19    3.46
  -8  -3 -10   28.69    5.05
   8   3  10   25.64    4.16
   8   3  11    6.62    2.08
  -8  -3 -11    7.96    2.63
   8   3  12   23.79    4.37
   8   3  13   31.85    5.13
  -8  -4   3   59.50    6.67
   8   4  -2   91.24    7.79
  -8  -4   2   90.53    8.13
   8   4  -1   -0.48    0.84
  -8  -4   1    2.00    1.50
   8   4   0   60.83    6.18
  -8  -4   0   56.45    5.99
   8   4   1   12.99    2.79
  -8  -4  -1   10.15    3.01
   8   4   2    4.56    1.28
  -8  -4  -2    8.73    2.56
   8   4   3    0.60    0.44
   8   4   3    0.14    0.53
  -8  -4  -3    1.86    1.47
   8   4   4    5.89    1.68
   8   4   4    5.11    1.62
  -8  -4  -4    1.84    1.00
   8   4   5   30.54    4.27
   8   4   5   29.73    3.76
  -8  -4  -5   18.37    3.60
  -8  -4  -6   19.70    3.99
   8   4   6   20.48    3.27
  -8  -4  -6   20.08    3.83
  -8  -4  -7   12.08    3.10
   8   4   7   14.29    2.84
  -8  -4  -7   12.83    2.97
  -8  -4  -8    1.58    1.54
   8   4   8    1.19    0.18
  -8  -4  -8    1.68    1.80
  -8  -4  -9   18.48    4.02
   8   4   9   19.26    3.68
  -8  -4 -10  161.00   11.89
   8   4  10  163.26   10.75
  -8  -4 -11   40.43    6.10
   8   4  11   32.58    5.08
   8   4  12   39.29    5.65
  -8  -5   3   14.98    3.38
  -8  -5   3   15.00    3.28
   8   5  -2    5.39    1.90
  -8  -5   2    6.44    2.31
  -8  -5   2    5.72    2.17
   8   5  -1  160.81   10.12
  -8  -5   1  152.45   10.18
  -8  -5   1  153.15   10.83
   8   5   0   15.79    3.03
  -8  -5   0   23.56    4.25
  -8  -5   0   23.40    3.99
   8   5   1    7.94    2.13
  -8  -5  -1    7.21    2.45
   8   5   2    7.80    2.30
   8   5   2    9.18    1.96
  -8  -5  -2    8.11    2.40
   8   5   3    3.43    1.50
   8   5   3    1.20    0.98
  -8  -5  -3   -0.12    0.09
   8   5   4   11.03    2.37
   8   5   4   10.19    2.46
  -8  -5  -4    7.21    2.33
   8   5   5    0.78    0.63
   8   5   5   -0.19    0.33
  -8  -5  -5   -0.98    0.65
   8   5   6    4.12    1.40
  -8  -5  -6    4.06    1.86
  -8  -5  -7    0.74    0.89
   8   5   7    0.33    0.75
  -8  -5  -7    3.08    1.69
  -8  -5  -8   70.34    7.64
   8   5   8   70.21    6.77
  -8  -5  -8   68.10    7.31
  -8  -5  -9   72.46    7.95
   8   5   9   71.06    7.15
  -8  -5  -9   63.80    6.96
  -8  -5 -10    3.27    1.90
   8   5  10    2.01    1.56
  -8  -5 -10    1.98    1.57
  -8  -5 -11   31.19    5.33
   8   5  11   21.63    4.22
  -8  -5 -11   23.71    4.39
   8   5  12    5.42    2.27
  -8  -5 -12    4.07    1.61
  -8  -6   4    6.54    2.48
  -8  -6   3   21.73    4.26
  -8  -6   3   21.21    4.45
  -8  -6   2   29.07    5.19
  -8  -6   2   23.93    4.69
   8   6  -1   12.60    2.76
  -8  -6   1   15.63    3.52
  -8  -6   1   13.30    3.00
   8   6   0   11.80    2.70
  -8  -6   0   13.19    3.19
  -8  -6   0   13.52    2.99
   8   6   1    5.78    2.27
  -8  -6  -1   10.76    3.23
   8   6   2   26.48    4.14
  -8  -6  -2   30.82    5.17
   8   6   3   53.41    5.50
   8   6   3   63.49    5.93
  -8  -6  -3   66.35    7.38
   8   6   4   17.32    3.69
   8   6   4   11.15    3.18
  -8  -6  -4   18.98    4.20
   8   6   5   49.51    5.35
   8   6   5   42.16    5.07
  -8  -6  -5   51.64    6.50
   8   6   6   38.06    5.20
   8   6   6   40.50    5.57
  -8  -6  -6   37.34    5.67
   8   6   7   27.51    4.56
  -8  -6  -7   23.50    4.51
  -8  -6  -8   17.14    3.51
   8   6   8   13.83    3.14
  -8  -6  -8   15.82    3.70
  -8  -6  -9    4.00    2.13
   8   6   9    5.83    2.28
  -8  -6  -9    5.65    2.68
  -8  -6 -10    2.42    2.12
   8   6  10    3.46    2.10
  -8  -6 -10    1.43    1.74
  -8  -6 -11   32.22    5.50
   8   6  11   37.70    5.85
  -8  -6 -11   41.53    5.83
  -8  -6 -12   36.19    5.53
  -8  -6 -13    1.30    1.78
  -8  -7   3    4.63    2.31
  -8  -7   2   15.23    3.59
  -8  -7   1    2.31    1.79
  -8  -7   0    7.04    2.37
   8   7   2   21.20    3.36
  -8  -7  -2   23.18    4.66
   8   7   3   38.84    4.46
  -8  -7  -3   41.40    6.27
   8   7   4   49.75    5.08
  -8  -7  -4   52.30    6.96
   8   7   5    2.89    2.57
   8   7   5   10.91    3.74
  -8  -7  -5   11.45    3.90
   8   7   6    2.42    2.27
   8   7   6    8.94    3.56
  -8  -7  -6   15.24    4.20
   8   7   7   15.15    4.19
  -8  -7  -7   12.43    3.62
   8   7   8    2.94    2.21
   8   7   9   29.02    5.09
  -8  -7 -10   17.16    3.86
   8   7  10   17.00    3.97
   8   8   7   12.91    3.48
   8   8   8   28.01    4.96
  -9   1  -5   23.24    4.60
  -9   0  -5   41.73    6.17
  -9   0  -6   49.59    6.68
   9   1   3   30.50    4.94
   9   1   4   16.18    3.53
  -9  -1  -5    1.76    1.26
   9   1   5    0.89    1.12
  -9  -1  -6    9.13    3.10
   9   1  10   44.24    5.51
   9   1  11   10.94    3.01
   9   1  12   10.35    2.97
   9   2   1   29.68    4.86
   9   2   2    2.29    1.93
   9   2   3   33.57    5.05
   9   2   4    7.19    2.52
   9   2   5   39.14    5.37
  -9  -2  -6   37.31    6.11
   9   2   6   30.20    4.81
   9   2   7   26.51    4.55
   9   2   9   13.89    2.95
   9   2  10   14.82    3.40
   9   2  11    6.05    2.21
   9   2  12   25.15    4.50
   9   3   0    6.78    2.36
   9   3   1    1.33    1.15
   9   3   2    8.24    2.34
   9   3   3   40.45    5.44
   9   3   4   45.52    5.84
   9   3   5   89.97    8.09
  -9  -3  -6   37.44    5.93
   9   3   6   38.16    5.25
   9   3   7   21.44    3.90
   9   3   8    0.53    0.35
   9   3   9   11.16    2.67
   9   3  10    3.49    1.47
   9   3  11    2.38    1.47
   9   3  12   32.54    5.18
   9   4  -1    8.37    2.41
   9   4   0    1.47    0.95
   9   4   1    8.60    2.25
   9   4   2   32.55    4.82
   9   4   3   23.69    4.09
   9   4   4   31.12    4.62
   9   4   5    1.11    1.13
   9   4   6   10.77    2.75
   9   4   7    1.05    0.64
   9   4   8    4.24    1.54
   9   4   9   44.48    5.51
   9   4  10    7.57    2.37
   9   4  11   -0.65    0.63
   9   5  -2    1.54    0.93
   9   5  -1    9.37    2.62
   9   5   0   13.00    3.12
   9   5   1   26.69    4.51
   9   5   2    2.00    1.30
   9   5   3   15.46    3.27
   9   5   4    3.46    1.39
   9   5   5   30.22    4.56
   9   5   6   20.53    3.69
   9   5   7   48.12    5.84
   9   5   7   42.06    5.12
   9   5   8    4.85    1.58
   9   5   9    1.99    0.70
   9   5  10   83.30    8.05
   9   5  11    1.28    0.48
   9   6   0    0.78    1.35
   9   6   1   -0.22    0.47
   9   6   2   -1.90    0.31
   9   6   3   11.42    3.14
   9   6   4    7.04    2.43
   9   6   5   27.90    4.36
   9   6   6   34.55    4.91
   9   6   7   23.35    4.07
   9   6   7   26.96    4.53
   9   6   8    0.10    0.58
   9   6   9    5.55    2.36
   9   6  10   10.41    3.07
   9   7   6   24.01    4.02
   9   7   7    6.95    2.34
   9   7   7    9.93    2.67
   9   7   8    3.75    1.82
   9   7   8    4.04    1.92
   0   0   0    0.00    0.00


TITL Er-973_auto in P-1
REM P-1 (#2 in standard setting)
CELL 0.71073   7.460966   8.496337  13.522654  81.8225  74.1016  75.5411
ZERR    9.00   0.000232   0.000465   0.000752   0.0046   0.0040   0.0039
LATT  1
SFAC C H N O S Mn
UNIT 9.00 9.00 9.00 9.00 9.00 9.00
REM  CrysAlisPro recorded range (K): Min=290.3; max=290.9; aver:290.6
TEMP 17
TREF
HKLF 4
END
_computing_structure_solution     'SHELXT 2018/2 (Sheldrick, 2018)'
;
_shelx_hkl_checksum   36437

