 
data_1_a
 
_audit_creation_method            'SHELXL-2018/3'
_shelx_SHELXL_version_number      '2018/3'
_chemical_name_systematic         ?
_chemical_name_common             ?
_chemical_melting_point           ?
_chemical_formula_moiety          ?
_chemical_formula_sum
 'C2.80 H2 Cd0.20 N1.20 O1.20 S0.20' 
_chemical_formula_weight          100.55

loop_
 _atom_type_symbol
 _atom_type_description
 _atom_type_scat_dispersion_real
 _atom_type_scat_dispersion_imag
 _atom_type_scat_source
 'C'  'C'   0.0033   0.0016
 'International Tables Vol C Tables 4.2.6.8 and 6.1.1.4'
 'N'  'N'   0.0061   0.0033
 'International Tables Vol C Tables 4.2.6.8 and 6.1.1.4'
 'S'  'S'   0.1246   0.1234
 'International Tables Vol C Tables 4.2.6.8 and 6.1.1.4'
 'Cd'  'Cd'  -0.8075   1.2024
 'International Tables Vol C Tables 4.2.6.8 and 6.1.1.4'
 'O'  'O'   0.0106   0.0060
 'International Tables Vol C Tables 4.2.6.8 and 6.1.1.4'
 'H'  'H'   0.0000   0.0000
 'International Tables Vol C Tables 4.2.6.8 and 6.1.1.4'
 
_space_group_crystal_system       triclinic
_space_group_IT_number            2
_space_group_name_H-M_alt         'P -1'
_space_group_name_Hall            '-P 1'
 
_shelx_space_group_comment
;
The symmetry employed for this shelxl refinement is uniquely defined
by the following loop, which should always be used as a source of
symmetry information in preference to the above space-group names.
They are only intended as comments.
;
 
loop_
 _space_group_symop_operation_xyz
 'x, y, z'
 '-x, -y, -z'
 
_cell_length_a                    8.5129(17)
_cell_length_b                    13.795(3)
_cell_length_c                    15.424(3)
_cell_angle_alpha                 114.60(3)
_cell_angle_beta                  92.23(3)
_cell_angle_gamma                 103.60(3)
_cell_volume                      1581.4(7)
_cell_formula_units_Z             20
_cell_measurement_temperature     293(2)
_cell_measurement_reflns_used     ?
_cell_measurement_theta_min       ?
_cell_measurement_theta_max       ?
 
_exptl_crystal_description        ?
_exptl_crystal_colour             ?
_exptl_crystal_density_meas       ?
_exptl_crystal_density_method     ?
_exptl_crystal_density_diffrn     2.112          
_exptl_crystal_F_000              992
_exptl_transmission_factor_min    ?
_exptl_transmission_factor_max    ?
_exptl_crystal_size_max           ?
_exptl_crystal_size_mid           ?
_exptl_crystal_size_min           ?
_exptl_absorpt_coefficient_mu     1.566
_shelx_estimated_absorpt_T_min    ?
_shelx_estimated_absorpt_T_max    ?
_exptl_absorpt_correction_type    ?
_exptl_absorpt_correction_T_min   ?
_exptl_absorpt_correction_T_max   ?
_exptl_absorpt_process_details    ?
_exptl_absorpt_special_details    ?
_diffrn_ambient_temperature       293(2)
_diffrn_radiation_wavelength      0.71073
_diffrn_radiation_type            MoK\a
_diffrn_source                    ?
_diffrn_measurement_device_type   ?
_diffrn_measurement_method        ?
_diffrn_detector_area_resol_mean  ?
_diffrn_reflns_number             7012
_diffrn_reflns_av_unetI/netI      0.0948
_diffrn_reflns_av_R_equivalents   ?
_diffrn_reflns_limit_h_min        ?
_diffrn_reflns_limit_h_max        ?
_diffrn_reflns_limit_k_min        ?
_diffrn_reflns_limit_k_max        ?
_diffrn_reflns_limit_l_min        ?
_diffrn_reflns_limit_l_max        ?
_diffrn_reflns_theta_min          1.685
_diffrn_reflns_theta_max          27.174
_diffrn_reflns_theta_full         25.242
_diffrn_measured_fraction_theta_max   0.998
_diffrn_measured_fraction_theta_full  0.999
_diffrn_reflns_Laue_measured_fraction_max    0.998
_diffrn_reflns_Laue_measured_fraction_full   0.999
_diffrn_reflns_point_group_measured_fraction_max   0.998
_diffrn_reflns_point_group_measured_fraction_full  0.999
_reflns_number_total              7012
_reflns_number_gt                 5004
_reflns_threshold_expression      'I > 2\s(I)'
_reflns_Friedel_coverage          0.000
_reflns_Friedel_fraction_max      .
_reflns_Friedel_fraction_full     .
 
_reflns_special_details
;
 Reflections were merged by SHELXL according to the crystal
 class for the calculation of statistics and refinement.
 
 _reflns_Friedel_fraction is defined as the number of unique
 Friedel pairs measured divided by the number that would be
 possible theoretically, ignoring centric projections and
 systematic absences.
;
 
_computing_data_collection        ?
_computing_cell_refinement        ?
_computing_data_reduction         ?
_computing_structure_solution     'SHELXT 2018/2 (Sheldrick, 2018)'
_computing_structure_refinement 'SHELXL-2018/3 (Sheldrick, 2018)'
_computing_molecular_graphics     ?
_computing_publication_material   ?
_refine_special_details           ?
_refine_ls_structure_factor_coef  Fsqd
_refine_ls_matrix_type            full
_refine_ls_weighting_scheme       calc
_refine_ls_weighting_details
'w=1/[\s^2^(Fo^2^)+(0.0198P)^2^+15.2587P] where P=(Fo^2^+2Fc^2^)/3'
_atom_sites_solution_primary      ?
_atom_sites_solution_secondary    ?
_atom_sites_solution_hydrogens    mixed
_refine_ls_hydrogen_treatment     mixed
_refine_ls_extinction_method      none
_refine_ls_extinction_coef        .
_refine_ls_number_reflns          7012
_refine_ls_number_parameters      525
_refine_ls_number_restraints      0
_refine_ls_R_factor_all           0.1143
_refine_ls_R_factor_gt            0.0678
_refine_ls_wR_factor_ref          0.1400
_refine_ls_wR_factor_gt           0.1229
_refine_ls_goodness_of_fit_ref    1.054
_refine_ls_restrained_S_all       1.054
_refine_ls_shift/su_max           0.001
_refine_ls_shift/su_mean          0.000
 
loop_
 _atom_site_label
 _atom_site_type_symbol
 _atom_site_fract_x
 _atom_site_fract_y
 _atom_site_fract_z
 _atom_site_U_iso_or_equiv
 _atom_site_adp_type
 _atom_site_occupancy
 _atom_site_site_symmetry_order  
 _atom_site_calc_flag
 _atom_site_refinement_flags_posn
 _atom_site_refinement_flags_adp
 _atom_site_refinement_flags_occupancy
 _atom_site_disorder_assembly
 _atom_site_disorder_group
Cd1 Cd 1.76443(7) 0.17400(4) -0.40348(4) 0.02481(15) Uani 1 1 d . . . . .
S1 S 0.3452(2) 1.01358(17) 1.10626(15) 0.0291(4) Uani 1 1 d . . . . .
O1 O 0.5136(7) 0.7594(5) 0.6708(4) 0.0408(15) Uani 1 1 d . . . . .
N1 N 1.1227(7) 0.2625(5) -0.2209(4) 0.0215(13) Uani 1 1 d . . . . .
C1 C -0.1194(9) 0.9855(6) 1.2403(5) 0.0236(16) Uani 1 1 d . . . . .
H1 H -0.008002 1.008844 1.263311 0.028 Uiso 1 1 calc R U . . .
Cd2 Cd 0.60266(7) 0.68601(4) 0.50984(4) 0.02530(15) Uani 1 1 d . . . . .
S2 S 1.3257(2) 0.51059(17) 0.08916(15) 0.0308(4) Uani 1 1 d . . . . .
O2 O 1.6872(7) 0.0221(4) -0.3695(4) 0.0297(13) Uani 1 1 d . . . . .
H2 H 1.595(12) -0.017(6) -0.400(6) 0.045 Uiso 1 1 calc R U . . .
H1E H 1.743(11) -0.027(8) -0.394(7) 0.045 Uiso 1 1 d . U . . .
N2 N 1.1458(8) 0.4836(5) 0.1164(5) 0.0250(14) Uani 1 1 d . . . . .
C2 C -0.2421(9) 1.0020(6) 1.2952(5) 0.0239(16) Uani 1 1 d . . . . .
O3 O 0.3341(6) 0.6490(4) 0.5383(4) 0.0306(13) Uani 1 1 d . . . . .
N3 N 0.2911(8) 0.9345(5) 0.9925(5) 0.0263(14) Uani 1 1 d . . . . .
C3 C -0.3868(9) 0.9506(6) 1.2268(5) 0.0249(16) Uani 1 1 d . . . . .
H3 H -0.491240 0.948208 1.243035 0.030 Uiso 1 1 calc R U . . .
O4 O 0.5450(6) 0.5415(4) 0.3599(4) 0.0283(12) Uani 1 1 d . . . . .
N4 N -0.0231(9) 0.7372(6) 0.7159(5) 0.0356(16) Uani 1 1 d . . . . .
C4 C -0.1146(9) 0.8925(6) 1.0623(5) 0.0227(15) Uani 1 1 d . . . . .
O5 O 1.4701(6) 0.2093(4) -0.4403(4) 0.0266(12) Uani 1 1 d . . . . .
N5 N 1.0374(7) 0.2100(5) -0.3136(4) 0.0237(13) Uani 1 1 d . . . . .
C5 C -0.2083(9) 0.8221(6) 0.9752(5) 0.0239(16) Uani 1 1 d . . . . .
H5 H -0.320593 0.796827 0.972516 0.029 Uiso 1 1 calc R U . . .
O6 O 1.8641(7) 0.3448(4) -0.3938(4) 0.0286(12) Uani 1 1 d . . . . .
H6A H 1.955(12) 0.354(3) -0.401(7) 0.043 Uiso 1 1 calc R U . . .
H1D H 1.809(11) 0.358(7) -0.440(7) 0.043 Uiso 1 1 d . U . . .
N6 N -0.1893(7) 0.9295(5) 1.1470(4) 0.0215(13) Uani 1 1 d . . . . .
C6 C -0.1416(9) 0.7860(6) 0.8889(5) 0.0241(16) Uani 1 1 d . . . . .
H6 H -0.210516 0.737825 0.830980 0.029 Uiso 1 1 calc R U . . .
O7 O -0.0926(6) 1.1104(4) 1.4528(4) 0.0302(12) Uani 1 1 d . . . . .
N7 N -0.3568(7) 0.9061(5) 1.1363(5) 0.0285(14) Uani 1 1 d . . . . .
C7 C 0.0239(9) 0.8207(6) 0.8885(5) 0.0233(16) Uani 1 1 d . . . . .
O8 O 1.5853(6) 0.2285(4) -0.3006(4) 0.0284(12) Uani 1 1 d . . . . .
N8 N 0.0860(7) 0.7849(5) 0.7998(5) 0.0271(14) Uani 1 1 d . . . . .
C8 C 0.1253(9) 0.8936(6) 0.9781(6) 0.0251(16) Uani 1 1 d . . . . .
O9 O 0.8128(7) 0.8351(4) 0.6075(4) 0.0280(13) Uani 1 1 d . . . . .
H9 H 0.836(8) 0.829(4) 0.650(7) 0.042 Uiso 1 1 calc R U . . .
H1B H 0.897(12) 0.843(7) 0.578(7) 0.042 Uiso 1 1 d . U . . .
N9 N 0.1703(8) 0.9997(5) 1.1432(5) 0.0281(14) Uani 1 1 d . . . . .
C9 C 0.0572(9) 0.9304(6) 1.0657(5) 0.0228(15) Uani 1 1 d . . . . .
O10 O 0.8128(7) 0.6097(4) 0.4042(4) 0.0314(12) Uani 1 1 d . . . . .
C10 C -0.2315(10) 1.0575(6) 1.4003(5) 0.0249(16) Uani 1 1 d . . . . .
O11 O 0.6834(7) 0.5767(5) 0.5711(5) 0.0317(13) Uani 1 1 d . . . . .
H11A H 0.623(10) 0.566(7) 0.605(7) 0.048 Uiso 1 1 calc R U . . .
H1C H 0.680(12) 0.522(8) 0.533(7) 0.048 Uiso 1 1 d . U . . .
N11 N 0.7875(7) 0.3900(5) 0.1044(4) 0.0232(13) Uani 1 1 d . . . . .
C11 C 1.2868(9) 0.2742(6) -0.2216(6) 0.0236(16) Uani 1 1 d . . . . .
H11 H 1.368064 0.306580 -0.167980 0.028 Uiso 1 1 calc R U . . .
O12 O -0.3586(6) 1.0558(4) 1.4378(4) 0.0293(12) Uani 1 1 d . . . . .
N12 N 0.6217(8) 0.3418(5) 0.0882(5) 0.0314(15) Uani 1 1 d . . . . .
C12 C 1.3084(8) 0.2296(6) -0.3154(5) 0.0221(15) Uani 1 1 d . . . . .
N13 N 1.2912(8) 0.4308(5) -0.0248(5) 0.0278(14) Uani 1 1 d . . . . .
C13 C 1.1528(9) 0.1917(6) -0.3692(6) 0.0254(16) Uani 1 1 d . . . . .
H13 H 1.132069 0.157593 -0.436283 0.031 Uiso 1 1 calc R U . . .
C14 C 0.0675(10) 0.7036(7) 0.6475(6) 0.0321(18) Uani 1 1 d . . . . .
H14 H 0.025613 0.665193 0.582065 0.039 Uiso 1 1 calc R U . . .
C15 C 0.2318(9) 0.7319(6) 0.6840(6) 0.0256(16) Uani 1 1 d . . . . .
C16 C 0.2407(9) 0.7847(6) 0.7818(6) 0.0244(16) Uani 1 1 d . . . . .
H16 H 0.334740 0.814845 0.827440 0.029 Uiso 1 1 calc R U . . .
C17 C 1.4652(9) 0.2230(6) -0.3540(6) 0.0248(16) Uani 1 1 d . . . . .
C18 C 0.6892(10) 0.5456(6) 0.3427(6) 0.0283(17) Uani 1 1 d . . . . .
C19 C 0.7072(10) 0.4713(6) 0.2428(6) 0.0264(17) Uani 1 1 d . . . . .
C20 C 0.8409(9) 0.4682(6) 0.1970(5) 0.0223(15) Uani 1 1 d . . . . .
H20 H 0.947851 0.511119 0.223921 0.027 Uiso 1 1 calc R U . . .
C21 C 0.5772(10) 0.3923(7) 0.1719(6) 0.0327(18) Uani 1 1 d . . . . .
H21 H 0.469688 0.377063 0.183125 0.039 Uiso 1 1 calc R U . . .
C22 C 1.0428(9) 0.2964(6) -0.1392(5) 0.0219(15) Uani 1 1 d . . . . .
C23 C 0.8781(9) 0.2507(6) -0.1458(6) 0.0262(16) Uani 1 1 d . . . . .
H23 H 0.819555 0.196900 -0.205267 0.031 Uiso 1 1 calc R U . . .
C24 C 0.7946(9) 0.2825(6) -0.0652(5) 0.0235(16) Uani 1 1 d . . . . .
H24 H 0.682800 0.250220 -0.073357 0.028 Uiso 1 1 calc R U . . .
C25 C 0.8749(9) 0.3598(6) 0.0243(5) 0.0229(16) Uani 1 1 d . . . . .
C26 C 1.0463(9) 0.4075(6) 0.0349(5) 0.0220(15) Uani 1 1 d . . . . .
C27 C 1.1287(9) 0.3758(6) -0.0480(5) 0.0247(16) Uani 1 1 d . . . . .
C28 C 0.3695(10) 0.7134(7) 0.6293(6) 0.0306(18) Uani 1 1 d . . . . .
 
loop_
 _atom_site_aniso_label
 _atom_site_aniso_U_11
 _atom_site_aniso_U_22
 _atom_site_aniso_U_33
 _atom_site_aniso_U_23
 _atom_site_aniso_U_13
 _atom_site_aniso_U_12
Cd1 0.0232(3) 0.0267(3) 0.0264(3) 0.0120(2) 0.0084(2) 0.0088(2)
S1 0.0241(10) 0.0344(10) 0.0301(11) 0.0143(9) 0.0053(8) 0.0099(8)
O1 0.031(3) 0.046(4) 0.034(3) 0.007(3) 0.015(3) 0.009(3)
N1 0.022(3) 0.025(3) 0.021(3) 0.011(3) 0.010(3) 0.010(3)
C1 0.016(4) 0.021(4) 0.031(4) 0.011(3) 0.000(3) 0.002(3)
Cd2 0.0245(3) 0.0241(3) 0.0286(3) 0.0118(2) 0.0073(2) 0.0081(2)
S2 0.0242(10) 0.0339(11) 0.0288(11) 0.0089(9) 0.0063(8) 0.0068(8)
O2 0.024(3) 0.023(3) 0.039(3) 0.011(3) 0.006(3) 0.006(2)
N2 0.024(3) 0.026(3) 0.027(4) 0.010(3) 0.008(3) 0.011(3)
C2 0.029(4) 0.019(3) 0.029(4) 0.013(3) 0.006(3) 0.010(3)
O3 0.028(3) 0.033(3) 0.037(3) 0.017(3) 0.010(3) 0.014(2)
N3 0.029(3) 0.028(3) 0.027(3) 0.013(3) 0.009(3) 0.014(3)
C3 0.024(4) 0.028(4) 0.025(4) 0.013(3) 0.008(3) 0.008(3)
O4 0.028(3) 0.025(3) 0.035(3) 0.013(2) 0.014(2) 0.009(2)
N4 0.035(4) 0.048(4) 0.024(4) 0.011(3) 0.007(3) 0.019(3)
C4 0.028(4) 0.019(3) 0.023(4) 0.012(3) 0.005(3) 0.007(3)
O5 0.030(3) 0.030(3) 0.029(3) 0.017(2) 0.013(2) 0.014(2)
N5 0.019(3) 0.025(3) 0.028(4) 0.013(3) 0.009(3) 0.006(3)
C5 0.024(4) 0.024(4) 0.023(4) 0.011(3) 0.004(3) 0.006(3)
O6 0.018(3) 0.030(3) 0.042(4) 0.019(3) 0.006(3) 0.009(2)
N6 0.022(3) 0.024(3) 0.020(3) 0.011(3) 0.004(3) 0.006(3)
C6 0.021(4) 0.029(4) 0.020(4) 0.007(3) 0.003(3) 0.009(3)
O7 0.027(3) 0.039(3) 0.024(3) 0.012(2) 0.007(2) 0.009(2)
N7 0.020(3) 0.037(4) 0.032(4) 0.017(3) 0.008(3) 0.011(3)
C7 0.031(4) 0.025(4) 0.021(4) 0.012(3) 0.012(3) 0.016(3)
O8 0.022(3) 0.036(3) 0.034(3) 0.018(3) 0.009(2) 0.013(2)
N8 0.021(3) 0.036(4) 0.031(4) 0.018(3) 0.010(3) 0.014(3)
C8 0.021(4) 0.026(4) 0.033(4) 0.015(3) 0.006(3) 0.011(3)
O9 0.026(3) 0.029(3) 0.036(3) 0.019(3) 0.008(3) 0.011(2)
N9 0.030(4) 0.028(3) 0.032(4) 0.016(3) 0.005(3) 0.012(3)
C9 0.027(4) 0.020(3) 0.024(4) 0.010(3) 0.005(3) 0.012(3)
O10 0.031(3) 0.032(3) 0.029(3) 0.011(3) 0.010(3) 0.008(3)
C10 0.034(4) 0.022(4) 0.023(4) 0.012(3) 0.005(3) 0.012(3)
O11 0.031(3) 0.025(3) 0.036(4) 0.013(3) 0.004(3) 0.005(3)
N11 0.020(3) 0.026(3) 0.026(3) 0.013(3) 0.004(3) 0.006(3)
C11 0.022(4) 0.024(4) 0.034(4) 0.020(3) 0.009(3) 0.011(3)
O12 0.025(3) 0.038(3) 0.027(3) 0.013(2) 0.013(2) 0.013(2)
N12 0.026(4) 0.036(4) 0.026(4) 0.010(3) 0.004(3) 0.006(3)
C12 0.018(4) 0.023(4) 0.027(4) 0.012(3) 0.004(3) 0.007(3)
N13 0.026(3) 0.027(3) 0.030(4) 0.010(3) 0.005(3) 0.011(3)
C13 0.028(4) 0.024(4) 0.026(4) 0.012(3) 0.006(3) 0.009(3)
C14 0.028(4) 0.038(5) 0.023(4) 0.007(4) 0.006(3) 0.007(4)
C15 0.024(4) 0.022(4) 0.031(4) 0.012(3) 0.007(3) 0.007(3)
C16 0.021(4) 0.023(4) 0.033(4) 0.016(3) 0.006(3) 0.005(3)
C17 0.023(4) 0.025(4) 0.032(4) 0.017(3) 0.004(3) 0.006(3)
C18 0.037(5) 0.023(4) 0.036(5) 0.020(4) 0.018(4) 0.014(4)
C19 0.031(4) 0.025(4) 0.030(4) 0.015(3) 0.011(4) 0.013(3)
C20 0.019(4) 0.020(3) 0.026(4) 0.009(3) 0.005(3) 0.006(3)
C21 0.028(4) 0.038(5) 0.038(5) 0.020(4) 0.017(4) 0.013(4)
C22 0.026(4) 0.024(4) 0.025(4) 0.015(3) 0.011(3) 0.016(3)
C23 0.027(4) 0.027(4) 0.030(4) 0.014(3) 0.007(3) 0.013(3)
C24 0.027(4) 0.027(4) 0.028(4) 0.018(3) 0.009(3) 0.016(3)
C25 0.026(4) 0.025(4) 0.027(4) 0.014(3) 0.013(3) 0.018(3)
C26 0.028(4) 0.017(3) 0.027(4) 0.013(3) 0.006(3) 0.012(3)
C27 0.026(4) 0.027(4) 0.027(4) 0.015(3) 0.010(3) 0.011(3)
C28 0.034(5) 0.034(4) 0.035(5) 0.021(4) 0.013(4) 0.017(4)
 
_geom_special_details
;
 All esds (except the esd in the dihedral angle between two l.s. planes)
 are estimated using the full covariance matrix.  The cell esds are taken
 into account individually in the estimation of esds in distances, angles
 and torsion angles; correlations between esds in cell parameters are only
 used when they are defined by crystal symmetry.  An approximate (isotropic)
 treatment of cell esds is used for estimating esds involving l.s. planes.
;
 
loop_
 _geom_bond_atom_site_label_1
 _geom_bond_atom_site_label_2
 _geom_bond_distance
 _geom_bond_site_symmetry_2
 _geom_bond_publ_flag
Cd1 O6 2.248(5) . ?
Cd1 O8 2.267(5) . ?
Cd1 O2 2.322(5) . ?
Cd1 O12 2.328(6) 1_743 ?
Cd1 N5 2.490(6) 1_655 ?
Cd1 O7 2.501(5) 1_743 ?
S1 N3 1.608(7) . ?
S1 N9 1.613(7) . ?
O1 C28 1.245(10) . ?
O1 Cd2 2.485(6) . ?
N1 C11 1.369(9) . ?
N1 N5 1.380(9) . ?
N1 C22 1.413(9) . ?
C1 N6 1.346(9) . ?
C1 C2 1.371(10) . ?
Cd2 O4 2.276(5) . ?
Cd2 O9 2.276(6) . ?
Cd2 O11 2.295(6) . ?
Cd2 O5 2.298(5) 2_765 ?
Cd2 O3 2.323(5) . ?
Cd2 O10 2.578(5) . ?
Cd2 C28 2.745(8) . ?
Cd2 C18 2.757(8) . ?
S2 N2 1.604(6) . ?
S2 N13 1.608(7) . ?
N2 C26 1.342(10) . ?
C2 C3 1.414(11) . ?
C2 C10 1.465(10) . ?
O3 C28 1.286(10) . ?
N3 C8 1.362(9) . ?
C3 N7 1.332(9) . ?
O4 C18 1.259(9) . ?
N4 C14 1.321(10) . ?
N4 N8 1.371(9) . ?
C4 C5 1.361(10) . ?
C4 C9 1.424(10) . ?
C4 N6 1.425(9) . ?
O5 C17 1.268(9) . ?
N5 C13 1.329(9) . ?
C5 C6 1.408(10) . ?
N6 N7 1.374(8) . ?
C6 C7 1.378(10) . ?
O7 C10 1.271(9) . ?
C7 C8 1.416(11) . ?
C7 N8 1.419(9) . ?
O8 C17 1.255(9) . ?
N8 C16 1.356(9) . ?
C8 C9 1.431(10) . ?
N9 C9 1.340(10) . ?
O10 C18 1.255(10) . ?
C10 O12 1.247(9) . ?
N11 C20 1.359(9) . ?
N11 N12 1.375(8) . ?
N11 C25 1.428(9) . ?
C11 C12 1.356(10) . ?
N12 C21 1.307(10) . ?
C12 C13 1.395(10) . ?
C12 C17 1.489(10) . ?
N13 C27 1.363(10) . ?
C14 C15 1.388(11) . ?
C15 C16 1.366(11) . ?
C15 C28 1.479(11) . ?
C18 C19 1.491(11) . ?
C19 C20 1.363(10) . ?
C19 C21 1.399(11) . ?
C22 C23 1.376(10) . ?
C22 C27 1.405(11) . ?
C23 C24 1.415(10) . ?
C24 C25 1.367(11) . ?
C25 C26 1.425(10) . ?
C26 C27 1.437(10) . ?
 
loop_
 _geom_angle_atom_site_label_1
 _geom_angle_atom_site_label_2
 _geom_angle_atom_site_label_3
 _geom_angle
 _geom_angle_site_symmetry_1
 _geom_angle_site_symmetry_3
 _geom_angle_publ_flag
O6 Cd1 O8 92.68(19) . . ?
O6 Cd1 O2 164.7(2) . . ?
O8 Cd1 O2 79.99(19) . . ?
O6 Cd1 O12 107.8(2) . 1_743 ?
O8 Cd1 O12 114.01(18) . 1_743 ?
O2 Cd1 O12 87.5(2) . 1_743 ?
O6 Cd1 N5 84.8(2) . 1_655 ?
O8 Cd1 N5 111.03(19) . 1_655 ?
O2 Cd1 N5 85.3(2) . 1_655 ?
O12 Cd1 N5 132.25(19) 1_743 1_655 ?
O6 Cd1 O7 85.60(19) . 1_743 ?
O8 Cd1 O7 165.65(18) . 1_743 ?
O2 Cd1 O7 104.79(19) . 1_743 ?
O12 Cd1 O7 53.58(18) 1_743 1_743 ?
N5 Cd1 O7 83.03(19) 1_655 1_743 ?
N3 S1 N9 100.7(3) . . ?
C28 O1 Cd2 88.2(5) . . ?
C11 N1 N5 111.1(6) . . ?
C11 N1 C22 127.2(6) . . ?
N5 N1 C22 121.7(6) . . ?
N6 C1 C2 107.7(6) . . ?
O4 Cd2 O9 140.0(2) . . ?
O4 Cd2 O11 89.5(2) . . ?
O9 Cd2 O11 91.3(2) . . ?
O4 Cd2 O5 87.74(18) . 2_765 ?
O9 Cd2 O5 89.28(19) . 2_765 ?
O11 Cd2 O5 176.4(2) . 2_765 ?
O4 Cd2 O3 93.6(2) . . ?
O9 Cd2 O3 126.0(2) . . ?
O11 Cd2 O3 96.1(2) . . ?
O5 Cd2 O3 86.43(18) 2_765 . ?
O4 Cd2 O1 144.63(19) . . ?
O9 Cd2 O1 74.5(2) . . ?
O11 Cd2 O1 80.0(2) . . ?
O5 Cd2 O1 103.6(2) 2_765 . ?
O3 Cd2 O1 54.7(2) . . ?
O4 Cd2 O10 53.74(18) . . ?
O9 Cd2 O10 87.8(2) . . ?
O11 Cd2 O10 75.8(2) . . ?
O5 Cd2 O10 100.69(17) 2_765 . ?
O3 Cd2 O10 145.70(19) . . ?
O1 Cd2 O10 149.6(2) . . ?
O4 Cd2 C28 120.6(2) . . ?
O9 Cd2 C28 99.4(2) . . ?
O11 Cd2 C28 89.3(2) . . ?
O5 Cd2 C28 94.1(2) 2_765 . ?
O3 Cd2 C28 27.8(2) . . ?
O1 Cd2 C28 27.0(2) . . ?
O10 Cd2 C28 163.6(2) . . ?
O4 Cd2 C18 26.9(2) . . ?
O9 Cd2 C18 113.8(2) . . ?
O11 Cd2 C18 83.2(2) . . ?
O5 Cd2 C18 93.3(2) 2_765 . ?
O3 Cd2 C18 120.1(2) . . ?
O1 Cd2 C18 161.5(2) . . ?
O10 Cd2 C18 27.0(2) . . ?
C28 Cd2 C18 146.0(2) . . ?
N2 S2 N13 100.7(3) . . ?
C26 N2 S2 107.2(5) . . ?
C1 C2 C3 104.1(7) . . ?
C1 C2 C10 129.5(7) . . ?
C3 C2 C10 126.5(7) . . ?
C28 O3 Cd2 94.7(5) . . ?
C8 N3 S1 106.4(5) . . ?
N7 C3 C2 112.4(7) . . ?
C18 O4 Cd2 98.4(5) . . ?
C14 N4 N8 103.9(6) . . ?
C5 C4 C9 118.4(7) . . ?
C5 C4 N6 120.1(7) . . ?
C9 C4 N6 121.5(6) . . ?
C17 O5 Cd2 127.5(4) . 2_765 ?
C13 N5 N1 103.9(6) . . ?
C13 N5 Cd1 113.9(5) . 1_455 ?
N1 N5 Cd1 140.9(4) . 1_455 ?
C4 C5 C6 122.4(7) . . ?
C1 N6 N7 112.2(6) . . ?
C1 N6 C4 129.5(6) . . ?
N7 N6 C4 118.3(6) . . ?
C7 C6 C5 121.3(7) . . ?
C10 O7 Cd1 88.7(4) . 1_367 ?
C3 N7 N6 103.5(6) . . ?
C6 C7 C8 117.8(7) . . ?
C6 C7 N8 119.6(7) . . ?
C8 C7 N8 122.5(7) . . ?
C17 O8 Cd1 103.7(5) . . ?
C16 N8 N4 111.5(6) . . ?
C16 N8 C7 130.4(7) . . ?
N4 N8 C7 118.1(6) . . ?
N3 C8 C7 126.4(7) . . ?
N3 C8 C9 112.8(7) . . ?
C7 C8 C9 120.8(7) . . ?
C9 N9 S1 107.2(5) . . ?
N9 C9 C4 127.9(7) . . ?
N9 C9 C8 112.8(7) . . ?
C4 C9 C8 119.3(7) . . ?
C18 O10 Cd2 84.5(4) . . ?
O12 C10 O7 120.1(7) . . ?
O12 C10 C2 120.1(7) . . ?
O7 C10 C2 119.7(7) . . ?
C20 N11 N12 111.8(6) . . ?
C20 N11 C25 129.6(6) . . ?
N12 N11 C25 118.3(6) . . ?
C12 C11 N1 107.0(7) . . ?
C10 O12 Cd1 97.5(5) . 1_367 ?
C21 N12 N11 103.5(6) . . ?
C11 C12 C13 105.7(6) . . ?
C11 C12 C17 127.6(7) . . ?
C13 C12 C17 126.7(7) . . ?
C27 N13 S2 107.0(5) . . ?
N5 C13 C12 112.3(7) . . ?
N4 C14 C15 112.7(7) . . ?
C16 C15 C14 105.0(7) . . ?
C16 C15 C28 127.0(7) . . ?
C14 C15 C28 127.9(7) . . ?
N8 C16 C15 106.9(7) . . ?
O8 C17 O5 122.9(7) . . ?
O8 C17 C12 118.7(7) . . ?
O5 C17 C12 118.4(6) . . ?
O10 C18 O4 123.0(7) . . ?
O10 C18 C19 120.7(7) . . ?
O4 C18 C19 116.2(7) . . ?
O10 C18 Cd2 68.5(4) . . ?
O4 C18 Cd2 54.7(4) . . ?
C19 C18 Cd2 168.8(6) . . ?
C20 C19 C21 104.6(7) . . ?
C20 C19 C18 130.8(7) . . ?
C21 C19 C18 124.5(7) . . ?
N11 C20 C19 106.7(7) . . ?
N12 C21 C19 113.4(7) . . ?
C23 C22 C27 117.5(7) . . ?
C23 C22 N1 121.0(7) . . ?
C27 C22 N1 121.5(6) . . ?
C22 C23 C24 122.4(7) . . ?
C25 C24 C23 121.4(7) . . ?
C24 C25 C26 118.1(7) . . ?
C24 C25 N11 120.1(7) . . ?
C26 C25 N11 121.7(7) . . ?
N2 C26 C25 126.9(7) . . ?
N2 C26 C27 113.3(7) . . ?
C25 C26 C27 119.8(7) . . ?
N13 C27 C22 127.5(7) . . ?
N13 C27 C26 111.8(7) . . ?
C22 C27 C26 120.7(7) . . ?
O1 C28 O3 122.0(7) . . ?
O1 C28 C15 120.6(7) . . ?
O3 C28 C15 117.4(7) . . ?
O1 C28 Cd2 64.8(4) . . ?
O3 C28 Cd2 57.5(4) . . ?
C15 C28 Cd2 171.9(6) . . ?
 
_refine_diff_density_max    0.942
_refine_diff_density_min   -1.174
_refine_diff_density_rms    0.189

_shelx_res_file
;
TITL 1_a.res in P-1
    1_a.res
    created by SHELXL-2018/3 at 09:15:50 on 04-Nov-2022
REM Old TITL 1 in P-1
REM SHELXT solution in P-1: R1 0.149, Rweak 0.035, Alpha 0.090
REM <I/s>   0.000 for    0 systematic absences,  Orientation as input
REM Formula found by SHELXT:  C40 N4 O10 Zn2
CELL  0.71073   8.5129  13.7950  15.4235  114.600   92.230  103.600
ZERR   20.000   0.0017   0.0028   0.0031    0.030    0.030    0.030
LATT  1
SFAC C N S Cd O H
UNIT 56 24 4 4 24 40
LIST 4
ACTA
REM LIST 4
L.S. 10
BOND
REM LIST 6
FMAP 2
PLAN 20
WGHT    0.019800   15.258700
FVAR       0.25593
CD1   4    1.764433    0.174001   -0.403475    11.00000    0.02321    0.02665 =
         0.02644    0.01201    0.00835    0.00880
S1    3    0.345177    1.013580    1.106264    11.00000    0.02411    0.03435 =
         0.03014    0.01431    0.00528    0.00986
O1    5    0.513596    0.759350    0.670777    11.00000    0.03076    0.04642 =
         0.03413    0.00718    0.01455    0.00943
N1    2    1.122749    0.262462   -0.220915    11.00000    0.02185    0.02459 =
         0.02116    0.01070    0.01038    0.00964
C1    1   -0.119444    0.985519    1.240262    11.00000    0.01600    0.02150 =
         0.03092    0.01109    0.00037    0.00214
AFIX  43
H1    6   -0.008002    1.008844    1.263311    11.00000   -1.20000
AFIX   0
CD2   4    0.602656    0.686010    0.509841    11.00000    0.02453    0.02408 =
         0.02862    0.01177    0.00734    0.00814
S2    3    1.325688    0.510595    0.089159    11.00000    0.02421    0.03385 =
         0.02883    0.00895    0.00629    0.00679
O2    5    1.687246    0.022077   -0.369493    11.00000    0.02410    0.02306 =
         0.03921    0.01092    0.00591    0.00643
AFIX 148
H2    6    1.595002   -0.016907   -0.399783    11.00000   -1.50000
AFIX   0
H1E   6    1.742607   -0.026676   -0.394192    11.00000   -1.50000
N2    2    1.145768    0.483579    0.116352    11.00000    0.02375    0.02553 =
         0.02732    0.01024    0.00808    0.01149
C2    1   -0.242053    1.002044    1.295173    11.00000    0.02888    0.01891 =
         0.02892    0.01326    0.00643    0.01016
O3    5    0.334103    0.648977    0.538294    11.00000    0.02774    0.03271 =
         0.03680    0.01698    0.01009    0.01377
N3    2    0.291059    0.934455    0.992533    11.00000    0.02864    0.02825 =
         0.02701    0.01317    0.00867    0.01412
C3    1   -0.386809    0.950644    1.226752    11.00000    0.02432    0.02767 =
         0.02524    0.01304    0.00817    0.00847
AFIX  43
H3    6   -0.491240    0.948208    1.243035    11.00000   -1.20000
AFIX   0
O4    5    0.544954    0.541469    0.359863    11.00000    0.02753    0.02478 =
         0.03452    0.01295    0.01428    0.00934
N4    2   -0.023050    0.737215    0.715909    11.00000    0.03451    0.04763 =
         0.02389    0.01085    0.00659    0.01879
C4    1   -0.114636    0.892484    1.062338    11.00000    0.02834    0.01948 =
         0.02302    0.01173    0.00547    0.00689
O5    5    1.470119    0.209265   -0.440289    11.00000    0.02952    0.03010 =
         0.02857    0.01683    0.01344    0.01448
N5    2    1.037365    0.209991   -0.313585    11.00000    0.01926    0.02486 =
         0.02829    0.01275    0.00868    0.00560
C5    1   -0.208323    0.822063    0.975176    11.00000    0.02443    0.02448 =
         0.02298    0.01097    0.00353    0.00593
AFIX  43
H5    6   -0.320593    0.796827    0.972516    11.00000   -1.20000
AFIX   0
O6    5    1.864083    0.344841   -0.393840    11.00000    0.01848    0.02973 =
         0.04229    0.01881    0.00640    0.00896
AFIX 148
H6A   6    1.955194    0.353969   -0.400839    11.00000   -1.50000
AFIX   0
H1D   6    1.809184    0.357946   -0.440143    11.00000   -1.50000
N6    2   -0.189262    0.929476    1.146993    11.00000    0.02192    0.02391 =
         0.01995    0.01095    0.00421    0.00578
C6    1   -0.141588    0.785988    0.888868    11.00000    0.02118    0.02888 =
         0.01953    0.00709    0.00300    0.00858
AFIX  43
H6    6   -0.210516    0.737825    0.830980    11.00000   -1.20000
AFIX   0
O7    5   -0.092598    1.110446    1.452844    11.00000    0.02664    0.03859 =
         0.02400    0.01230    0.00748    0.00879
N7    2   -0.356815    0.906095    1.136341    11.00000    0.02048    0.03683 =
         0.03237    0.01720    0.00826    0.01092
C7    1    0.023910    0.820675    0.888518    11.00000    0.03118    0.02499 =
         0.02124    0.01221    0.01221    0.01592
O8    5    1.585307    0.228460   -0.300641    11.00000    0.02160    0.03599 =
         0.03410    0.01847    0.00896    0.01289
N8    2    0.086047    0.784941    0.799808    11.00000    0.02150    0.03598 =
         0.03089    0.01757    0.00964    0.01389
C8    1    0.125257    0.893649    0.978057    11.00000    0.02149    0.02601 =
         0.03315    0.01544    0.00632    0.01089
O9    5    0.812767    0.835144    0.607457    11.00000    0.02648    0.02860 =
         0.03596    0.01863    0.00762    0.01143
AFIX 148
H9    6    0.835618    0.829457    0.649666    11.00000   -1.50000
AFIX   0
H1B   6    0.897385    0.842813    0.578342    11.00000   -1.50000
N9    2    0.170312    0.999657    1.143243    11.00000    0.02965    0.02771 =
         0.03215    0.01569    0.00485    0.01233
C9    1    0.057191    0.930450    1.065690    11.00000    0.02680    0.02040 =
         0.02409    0.00968    0.00455    0.01179
O10   5    0.812790    0.609673    0.404238    11.00000    0.03137    0.03160 =
         0.02937    0.01125    0.01012    0.00833
C10   1   -0.231472    1.057533    1.400272    11.00000    0.03400    0.02203 =
         0.02324    0.01198    0.00505    0.01183
O11   5    0.683436    0.576664    0.571113    11.00000    0.03108    0.02533 =
         0.03630    0.01290    0.00360    0.00493
AFIX 148
H11A  6    0.622657    0.565834    0.605183    11.00000   -1.50000
AFIX   0
H1C   6    0.680280    0.522035    0.532947    11.00000   -1.50000
N11   2    0.787521    0.390035    0.104360    11.00000    0.02001    0.02556 =
         0.02634    0.01339    0.00426    0.00625
C11   1    1.286835    0.274174   -0.221634    11.00000    0.02211    0.02423 =
         0.03448    0.01985    0.00908    0.01056
AFIX  43
H11   6    1.368064    0.306580   -0.167980    11.00000   -1.20000
AFIX   0
O12   5   -0.358609    1.055778    1.437830    11.00000    0.02490    0.03776 =
         0.02704    0.01266    0.01280    0.01316
N12   2    0.621708    0.341818    0.088189    11.00000    0.02649    0.03574 =
         0.02646    0.00972    0.00439    0.00618
C12   1    1.308406    0.229557   -0.315419    11.00000    0.01798    0.02291 =
         0.02688    0.01190    0.00437    0.00651
N13   2    1.291214    0.430772   -0.024815    11.00000    0.02648    0.02677 =
         0.03013    0.01045    0.00467    0.01133
C13   1    1.152754    0.191718   -0.369183    11.00000    0.02836    0.02446 =
         0.02564    0.01172    0.00626    0.00937
AFIX  43
H13   6    1.132069    0.157593   -0.436283    11.00000   -1.20000
AFIX   0
C14   1    0.067493    0.703616    0.647522    11.00000    0.02771    0.03819 =
         0.02291    0.00717    0.00597    0.00700
AFIX  43
H14   6    0.025613    0.665193    0.582065    11.00000   -1.20000
AFIX   0
C15   1    0.231849    0.731879    0.683967    11.00000    0.02428    0.02231 =
         0.03135    0.01250    0.00720    0.00673
C16   1    0.240681    0.784742    0.781839    11.00000    0.02065    0.02302 =
         0.03340    0.01640    0.00644    0.00475
AFIX  43
H16   6    0.334740    0.814845    0.827440    11.00000   -1.20000
AFIX   0
C17   1    1.465169    0.222984   -0.353994    11.00000    0.02273    0.02451 =
         0.03185    0.01710    0.00373    0.00610
C18   1    0.689184    0.545558    0.342694    11.00000    0.03665    0.02332 =
         0.03609    0.01954    0.01754    0.01409
C19   1    0.707183    0.471330    0.242831    11.00000    0.03081    0.02465 =
         0.03033    0.01501    0.01093    0.01296
C20   1    0.840867    0.468159    0.197011    11.00000    0.01919    0.02046 =
         0.02621    0.00877    0.00515    0.00605
AFIX  43
H20   6    0.947851    0.511119    0.223921    11.00000   -1.20000
AFIX   0
C21   1    0.577244    0.392259    0.171862    11.00000    0.02818    0.03841 =
         0.03843    0.02018    0.01699    0.01327
AFIX  43
H21   6    0.469688    0.377063    0.183125    11.00000   -1.20000
AFIX   0
C22   1    1.042829    0.296437   -0.139186    11.00000    0.02633    0.02424 =
         0.02521    0.01523    0.01135    0.01572
C23   1    0.878096    0.250681   -0.145752    11.00000    0.02653    0.02748 =
         0.02973    0.01426    0.00707    0.01308
AFIX  43
H23   6    0.819555    0.196900   -0.205267    11.00000   -1.20000
AFIX   0
C24   1    0.794607    0.282525   -0.065206    11.00000    0.02684    0.02715 =
         0.02793    0.01771    0.00925    0.01613
AFIX  43
H24   6    0.682800    0.250220   -0.073357    11.00000   -1.20000
AFIX   0
C25   1    0.874883    0.359779    0.024324    11.00000    0.02618    0.02543 =
         0.02683    0.01434    0.01253    0.01790
C26   1    1.046291    0.407465    0.034859    11.00000    0.02797    0.01715 =
         0.02724    0.01252    0.00606    0.01213
C27   1    1.128750    0.375809   -0.047969    11.00000    0.02600    0.02688 =
         0.02700    0.01455    0.00952    0.01145
C28   1    0.369527    0.713362    0.629332    11.00000    0.03361    0.03412 =
         0.03536    0.02133    0.01297    0.01663
HKLF 4




REM  1_a.res in P-1
REM wR2 = 0.1400, GooF = S = 1.054, Restrained GooF = 1.054 for all data
REM R1 = 0.0678 for 5004 Fo > 4sig(Fo) and 0.1143 for all 7012 data
REM 525 parameters refined using 0 restraints

END

WGHT      0.0198     15.2577

REM Highest difference peak  0.942,  deepest hole -1.174,  1-sigma level  0.189
Q1    1   1.7126  0.4299 -0.4123  11.00000  0.05    0.94
Q2    1   0.4409  0.6372  0.5000  11.00000  0.05    0.92
Q3    1   0.3316  0.5761  0.4844  11.00000  0.05    0.88
Q4    1   0.7998  0.5560  0.6118  11.00000  0.05    0.83
Q5    1  -0.4616  1.0003  1.4867  11.00000  0.05    0.78
Q6    1   0.9844  0.4448  0.2665  11.00000  0.05    0.77
Q7    1  -0.4220  1.0750  1.4785  11.00000  0.05    0.77
Q8    1   0.7075  0.7042  0.5027  11.00000  0.05    0.77
Q9    1   1.7256  0.3645 -0.4111  11.00000  0.05    0.72
Q10   1   0.9474  0.9244  0.6517  11.00000  0.05    0.72
Q11   1   0.5708  0.7991  0.5684  11.00000  0.05    0.71
Q12   1   0.9644  0.2066 -0.3552  11.00000  0.05    0.70
Q13   1   0.8008  0.4939  0.6031  11.00000  0.05    0.70
Q14   1   0.1001  0.6386  0.5223  11.00000  0.05    0.70
Q15   1   1.2607  0.3987 -0.1957  11.00000  0.05    0.69
Q16   1   0.7347  0.6476  0.5706  11.00000  0.05    0.68
Q17   1   0.6510  0.7314  0.5679  11.00000  0.05    0.68
Q18   1   1.9273 -0.0191 -0.3698  11.00000  0.05    0.68
Q19   1   0.6617  0.4937  0.6023  11.00000  0.05    0.68
Q20   1   0.6669  0.3506  0.2072  11.00000  0.05    0.68
;
_shelx_res_checksum   12868

_shelx_hkl_file
;
   1   0   0   29.20    2.90
   2   0   0 1251.47   69.09
   3   0   0   22.20    2.60
   4   0   0  185.48   13.10
   5   0   0  124.49    9.10
   6   0   0   37.90    4.60
   7   0   0   25.40    5.50
   8   0   0   55.29    9.70
   9   0   0   20.50   10.80
  10   0   0   10.90   11.10
 -10   1   0  127.29   11.80
  -9   1   0   11.30    5.80
  -8   1   0  428.26   18.90
  -7   1   0    5.30    2.90
  -6   1   0   34.90    2.60
  -5   1   0  114.79    4.90
  -4   1   0   11.80    1.70
  -3   1   0  568.74   16.90
  -2   1   0  832.92   25.50
  -1   1   0   13.90    1.00
   0   1   0   55.19    4.60
   1   1   0  446.76   12.70
   2   1   0   34.40    1.90
   3   1   0 1080.59   30.50
   4   1   0  191.98    6.40
   5   1   0  132.49    5.50
   6   1   0    2.50    2.50
   7   1   0  268.37   14.10
   8   1   0   43.90    5.50
   9   1   0   83.49    7.50
  10   1   0   10.90    9.00
 -10   2   0   42.30    6.80
  -9   2   0    9.70    5.10
  -8   2   0  194.78    8.90
  -7   2   0  263.37    9.60
  -6   2   0  186.38    6.70
  -5   2   0 1436.56   41.00
  -4   2   0  123.29    4.30
  -3   2   0  406.26   11.70
  -2   2   0   70.29    2.90
  -1   2   0  533.45   15.90
   0   2   0  715.83   21.00
   1   2   0  250.47    7.50
   2   2   0  614.24   17.30
   3   2   0   99.39    3.80
   4   2   0   37.90    2.40
   5   2   0    3.60    1.90
   6   2   0  592.34   19.00
   7   2   0  120.49    6.10
   8   2   0   39.50    4.50
   9   2   0   13.50    4.90
  10   2   0    4.50    6.80
 -10   3   0   53.49   16.30
  -9   3   0  141.59   14.10
  -8   3   0    7.00    8.80
  -7   3   0    0.00    7.90
  -6   3   0    0.00   29.00
  -5   3   0   94.99   21.80
  -4   3   0 1462.95   58.39
  -3   3   0   98.49    5.90
  -2   3   0  434.56   14.50
  -1   3   0  300.47   10.60
   0   3   0   21.20    1.80
   1   3   0  334.77   11.80
   2   3   0  160.68   16.40
   3   3   0  638.14   21.50
   4   3   0  793.82   31.30
   5   3   0   29.70   17.20
   6   3   0   21.00   13.40
   7   3   0    3.60   10.40
   8   3   0   59.99   38.00
   9   3   0   55.09   37.40
 -10   4   0   24.20   16.40
  -9   4   0   66.79   15.40
  -8   4   0    9.20    7.30
  -7   4   0  435.36   17.80
  -6   4   0  850.91   35.10
  -5   4   0    5.80    5.30
  -4   4   0  172.08   15.90
  -3   4   0  125.99    6.60
  -2   4   0  174.48    8.20
  -1   4   0    8.40    1.90
   0   4   0  457.05   14.70
   1   4   0  469.75   19.40
   2   4   0  293.57   18.20
   3   4   0   75.19    5.70
   4   4   0  134.19    8.50
   5   4   0  210.68   11.40
   6   4   0   33.60    7.60
   7   4   0  381.66   24.40
   8   4   0   27.80   15.10
   9   4   0   23.30   21.60
 -10   5   0   22.60    5.30
  -9   5   0  369.86   16.90
  -8   5   0   43.40    4.10
  -7   5   0   15.10    2.80
  -6   5   0    3.50    2.20
  -5   5   0   11.80    2.10
  -4   5   0  919.41   27.70
  -3   5   0  587.54   18.00
  -2   5   0  172.78    6.10
  -1   5   0  453.55   13.60
   0   5   0   86.39    3.50
   1   5   0    3.00    1.60
   2   5   0  367.46   11.60
   3   5   0   15.30    1.90
   4   5   0  319.77   10.70
   5   5   0   55.39    4.20
   6   5   0   21.30    3.50
   7   5   0   19.00    4.10
   8   5   0   33.80    5.40
   9   5   0   11.30    7.30
 -10   6   0   22.60    6.50
  -9   6   0   29.00    6.00
  -8   6   0    5.60    3.80
  -7   6   0   40.70    4.10
  -6   6   0  133.49    5.80
  -5   6   0   88.49    4.40
  -4   6   0    4.50    1.70
  -3   6   0    2.90    1.60
  -2   6   0    6.40    1.80
  -1   6   0  419.96   12.40
   0   6   0  622.84   18.60
   1   6   0   16.20    1.90
   2   6   0  835.42   24.80
   3   6   0   30.00    2.50
   4   6   0   21.70    2.70
   5   6   0  237.78   10.10
   6   6   0    6.00    3.70
   7   6   0  124.59    8.10
   8   6   0   79.39    8.70
 -10   7   0   39.00   22.20
  -9   7   0   95.29   18.10
  -8   7   0  104.19   21.00
  -7   7   0   63.99   12.80
  -6   7   0   13.30    8.00
  -5   7   0    7.40    4.60
  -4   7   0   65.19    6.40
  -3   7   0 1140.09   42.70
  -2   7   0  380.36   14.00
  -1   7   0   46.90    2.90
   0   7   0    7.40    2.30
   1   7   0   28.40    3.50
   2   7   0   45.50    5.10
   3   7   0  314.87   14.00
   4   7   0   77.79    7.40
   5   7   0  104.59   11.20
   6   7   0   30.40    9.10
   7   7   0   10.00   11.10
   8   7   0    0.60   28.20
 -10   8   0   22.90    6.00
  -9   8   0   18.10    4.60
  -8   8   0    5.40    4.20
  -7   8   0   50.09    4.80
  -6   8   0  188.78    8.20
  -5   8   0 1054.69   35.40
  -4   8   0   12.50    2.30
  -3   8   0   12.40    2.20
  -2   8   0   52.49    3.30
  -1   8   0   82.19    3.70
   0   8   0  273.57    9.50
   1   8   0  104.99    4.70
   2   8   0    4.00    2.30
   3   8   0   93.09    5.10
   4   8   0   97.99    6.40
   5   8   0   32.20    4.80
   6   8   0  155.18   10.00
   7   8   0    6.80    5.90
 -10   9   0   16.60    6.10
  -9   9   0    3.90    4.40
  -8   9   0  102.19    7.00
  -7   9   0   71.39    5.60
  -6   9   0    1.70    2.50
  -5   9   0    5.00    2.80
  -4   9   0  258.27    9.80
  -3   9   0   53.99    3.50
  -2   9   0  924.81   29.60
  -1   9   0  289.77   10.00
   0   9   0   12.20    2.40
   1   9   0    6.60    2.50
   2   9   0   14.80    3.20
   3   9   0  130.99    6.50
   4   9   0  173.88    9.10
   5   9   0   60.99    6.20
   6   9   0   15.90    5.90
   7   9   0    3.90   11.30
 -10  10   0   27.10   13.50
  -9  10   0    0.00  578.84
  -8  10   0    4.40    6.80
  -7  10   0  152.68   22.60
  -6  10   0   34.00   11.60
  -5  10   0  184.28   13.20
  -4  10   0   58.19    6.30
  -3  10   0    4.00    3.80
  -2  10   0   90.29    6.60
  -1  10   0  306.77   15.70
   0  10   0  126.59    7.40
   1  10   0  325.17   14.80
   2  10   0  127.59   10.30
   3  10   0   23.50    7.40
   4  10   0   40.40    8.20
   5  10   0    8.50   10.50
   6  10   0   41.80   17.40
  -9  11   0  361.06   22.60
  -8  11   0   27.30   12.40
  -7  11   0   91.69   15.60
  -6  11   0   28.80    9.70
  -5  11   0   26.90    5.10
  -4  11   0   94.79    9.30
  -3  11   0   30.00    6.60
  -2  11   0  210.88   13.70
  -1  11   0  288.47   12.70
   0  11   0    7.80    4.60
   1  11   0   21.40    6.10
   2  11   0  108.29    8.40
   3  11   0   65.09    9.70
   4  11   0  102.39   12.90
   5  11   0   22.00   20.20
  -9  12   0    5.70    7.00
  -8  12   0    2.20    6.00
  -7  12   0   22.70    5.70
  -6  12   0   64.69    6.70
  -5  12   0    8.40    4.20
  -4  12   0  179.98    9.70
  -3  12   0   14.40    3.80
  -2  12   0   44.60    4.90
  -1  12   0   23.50    3.20
   0  12   0   60.39    4.90
   1  12   0   21.40    3.90
   2  12   0   91.09    6.20
   3  12   0   23.70    4.90
   4  12   0   11.20    5.00
  -8  13   0    5.80    7.70
  -7  13   0    4.80    7.10
  -6  13   0    4.70    6.90
  -5  13   0    5.30    4.80
  -4  13   0    4.30    6.70
  -3  13   0   73.89   10.10
  -2  13   0    6.00    7.60
  -1  13   0   83.29    7.40
   0  13   0   35.70    7.60
   1  13   0   18.70    7.40
   2  13   0   28.50    8.20
   3  13   0   66.49   12.00
  -7  14   0    4.20   15.90
  -6  14   0  127.89   15.30
  -5  14   0  265.17   19.60
  -4  14   0   20.50   11.90
  -3  14   0   74.59   12.50
  -2  14   0   15.30   13.50
  -1  14   0   43.80   12.00
   0  14   0   14.40   10.80
   1  14   0    0.00   13.30
   2  14   0   56.99   13.10
  -6  15   0    3.00    7.20
  -5  15   0   24.90    6.60
  -4  15   0    9.30    6.50
  -3  15   0   64.79    9.00
  -2  15   0   54.29    9.30
  -1  15   0    2.40    6.40
   0  15   0    5.70    4.90
   1  15   0    7.90    9.20
  -4  16   0   17.80    8.20
  -3  16   0    7.80    9.30
  -2  16   0    7.40    7.50
   1 -16   1    0.80    7.10
   2 -16   1   14.60    8.50
   3 -16   1    2.50    7.10
   4 -16   1   45.90    7.80
   5 -16   1  123.99   11.60
  -1 -15   1   43.20    7.30
   0 -15   1   34.00    5.40
   1 -15   1   26.10    7.90
   2 -15   1  152.08   12.50
   3 -15   1   25.60    6.50
   4 -15   1   22.90    6.50
   5 -15   1    4.40    6.20
   6 -15   1   10.40    6.80
   7 -15   1   57.49    8.70
  -3 -14   1   19.30   29.20
  -2 -14   1   32.30   11.30
  -1 -14   1    1.10   13.30
   0 -14   1   44.70   10.30
   1 -14   1    0.00   11.50
   2 -14   1   20.20    9.80
   3 -14   1   81.39   13.10
   4 -14   1   13.70   10.30
   5 -14   1  131.89   14.60
   6 -14   1   19.10   12.40
   7 -14   1   35.60   14.60
   8 -14   1   21.10   14.10
  -4 -13   1    7.60    5.60
  -3 -13   1   58.99   10.10
  -2 -13   1   15.20    7.50
  -1 -13   1    8.20    6.60
   0 -13   1   72.59    7.60
   1 -13   1  102.29    9.20
   2 -13   1   62.49    9.40
   3 -13   1  106.99   11.10
   4 -13   1   17.80    6.50
   5 -13   1    9.70    4.80
   6 -13   1   67.89    8.90
   7 -13   1   18.60    8.80
   8 -13   1  183.48   16.80
  -5 -12   1   10.20    6.30
  -4 -12   1    6.70    4.80
  -3 -12   1   12.00    4.40
  -2 -12   1  267.57   11.80
  -1 -12   1   54.09    4.60
   0 -12   1   28.10    3.80
   1 -12   1    3.00    2.50
   2 -12   1    7.00    3.70
   3 -12   1  183.98    9.30
   4 -12   1   48.20    4.60
   5 -12   1   26.90    4.30
   6 -12   1  150.18    9.70
   7 -12   1   66.19    7.40
   8 -12   1   30.30    6.90
   9 -12   1   61.29    7.60
  -5 -11   1  127.89   14.30
  -4 -11   1  273.37   19.40
  -3 -11   1   51.19    8.80
  -2 -11   1    7.20    5.90
  -1 -11   1    0.50    6.00
   0 -11   1   62.49    6.10
   1 -11   1  179.08    8.90
   2 -11   1   26.90    4.80
   3 -11   1  116.19    9.90
   4 -11   1   37.80    7.50
   5 -11   1    1.40    5.00
   6 -11   1  134.49   12.10
   7 -11   1   76.99   11.80
   8 -11   1   86.29    8.10
   9 -11   1   56.09    7.40
  -6 -10   1   56.59   15.00
  -5 -10   1   18.50    9.10
  -4 -10   1   15.90    7.90
  -3 -10   1    5.20    5.80
  -2 -10   1  437.56   19.00
  -1 -10   1  195.28   11.00
   0 -10   1   39.60    5.00
   1 -10   1   31.00    4.40
   2 -10   1    1.50    3.20
   3 -10   1    7.70    3.50
   4 -10   1  309.47   16.80
   5 -10   1   66.19   11.20
   6 -10   1   10.00    9.70
   7 -10   1   10.50    5.80
   8 -10   1    4.00    7.00
  10 -10   1   70.99   17.40
  -7  -9   1    1.60    5.40
  -6  -9   1   12.50    4.50
  -5  -9   1    6.70    3.70
  -4  -9   1   76.59    5.40
  -3  -9   1   91.49    5.20
  -2  -9   1   23.90    3.10
  -1  -9   1    4.40    2.20
   0  -9   1    3.90    2.00
   1  -9   1  253.77    8.80
   2  -9   1  704.73   22.50
   3  -9   1    3.70    2.40
   4  -9   1  134.39    5.80
   5  -9   1   68.79    4.90
   6  -9   1    4.70    2.50
   7  -9   1  236.68   11.40
   8  -9   1  104.99    6.50
   9  -9   1   13.10    4.50
  10  -9   1   79.99    8.00
  -7  -8   1   19.60    5.30
  -6  -8   1   12.40    4.40
  -5  -8   1    4.10    3.50
  -4  -8   1   82.29    5.20
  -3  -8   1  202.28    8.10
  -2  -8   1    6.60    2.20
  -1  -8   1  748.13   22.70
   0  -8   1  778.52   23.40
   1  -8   1   47.30    2.70
   2  -8   1    3.20    1.90
   3  -8   1   26.50    2.60
   4  -8   1  267.07    9.90
   5  -8   1  903.01   29.80
   6  -8   1    3.90    2.90
   7  -8   1  169.48    8.20
   8  -8   1    7.10    3.60
   9  -8   1   49.10    5.30
  10  -8   1   16.60    5.70
  -8  -7   1   16.30   10.40
  -7  -7   1    5.10    6.50
  -6  -7   1   77.69   10.30
  -5  -7   1   77.39    9.30
  -4  -7   1   45.40    8.00
  -3  -7   1  391.56   15.60
  -2  -7   1   50.39    4.90
  -1  -7   1    3.80    2.30
   0  -7   1  239.88    9.90
   1  -7   1    8.60    2.10
   2  -7   1  648.24   21.40
   3  -7   1  614.44   23.70
   4  -7   1   28.80    4.10
   5  -7   1   24.90    4.90
   6  -7   1   20.00    7.20
   7  -7   1   11.70    8.40
   8  -7   1  169.98   17.50
   9  -7   1   50.29   17.40
  10  -7   1   32.90   16.40
  -8  -6   1  109.09    9.00
  -7  -6   1    7.30    4.50
  -6  -6   1  129.29    6.90
  -5  -6   1   77.09    5.00
  -4  -6   1    4.10    2.00
  -3  -6   1   24.00    2.20
  -2  -6   1  502.85   16.10
  -1  -6   1   42.00    2.60
   0  -6   1  821.92   24.20
   1  -6   1  143.19    5.00
   2  -6   1   47.00    2.80
   3  -6   1  463.45   14.50
   4  -6   1   21.80    2.20
   5  -6   1  447.26   15.80
   6  -6   1  480.65   17.00
   7  -6   1   51.69    4.40
   8  -6   1    2.80    3.40
   9  -6   1   16.30    5.60
  10  -6   1    9.70    8.00
  -9  -5   1   10.70    7.00
  -8  -5   1    7.20    4.40
  -7  -5   1    5.50    3.80
  -6  -5   1   88.49    5.00
  -5  -5   1  371.56   13.00
  -4  -5   1   29.40    2.50
  -3  -5   1  149.69    5.30
  -2  -5   1  170.08    5.90
  -1  -5   1  146.39    5.50
   0  -5   1    2.00    1.50
   1  -5   1  303.37    9.80
   2  -5   1    9.90    1.80
   3  -5   1  654.33   19.90
   4  -5   1  266.37    8.90
   5  -5   1   14.70    2.10
   6  -5   1   39.90    3.10
   7  -5   1    4.20    2.70
   8  -5   1  348.07   14.40
   9  -5   1  134.59    8.50
  10  -5   1    9.80    5.70
  -9  -4   1    4.30   19.70
  -8  -4   1    2.30   13.60
  -7  -4   1  321.97   21.70
  -6  -4   1   57.39    9.50
  -5  -4   1   13.10    9.30
  -4  -4   1   35.00    8.00
  -3  -4   1   86.29    6.30
  -2  -4   1 1130.59   38.80
  -1  -4   1   66.79    3.70
   0  -4   1  225.08    7.90
   1  -4   1  237.38    8.40
   2  -4   1    8.10    2.30
   3  -4   1    3.30    2.60
   4  -4   1  386.26   30.80
   5  -4   1    0.00    7.00
   6  -4   1  200.18   16.70
   7  -4   1   69.79    9.20
   8  -4   1   22.70   10.50
   9  -4   1   96.09   19.10
  10  -4   1   72.59   14.20
  -9  -3   1   49.99   28.30
  -8  -3   1   12.40   16.60
  -7  -3   1    0.00   12.50
  -6  -3   1    6.40   22.00
  -5  -3   1    0.00   20.40
  -4  -3   1  775.72   30.40
  -3  -3   1  249.38   11.80
  -2  -3   1  138.99   11.90
  -1  -3   1   29.80    2.50
   0  -3   1    1.80    1.40
   1  -3   1  849.22   26.20
   2  -3   1  363.86   11.40
   3  -3   1  225.18   14.20
   4  -3   1  258.57   12.00
   5  -3   1    0.00   30.90
   6  -3   1   34.70   21.20
   7  -3   1  205.98   24.20
   8  -3   1    0.00   10.40
   9  -3   1   83.09   17.60
  10  -3   1    9.00   15.50
 -10  -2   1    7.20    6.90
  -9  -2   1   12.30    5.50
  -8  -2   1    2.20    3.80
  -7  -2   1  413.26   15.40
  -6  -2   1  173.98    6.80
  -5  -2   1   45.50    2.80
  -4  -2   1  450.75   13.10
  -3  -2   1   55.39    2.50
  -2  -2   1  269.97    8.00
  -1  -2   1 1579.44   45.50
   0  -2   1  705.03   21.40
   1  -2   1  508.85   14.80
   2  -2   1  182.08    5.70
   3  -2   1   27.50    1.80
   4  -2   1 1804.02   50.89
   5  -2   1  188.58    6.30
   6  -2   1  301.27   10.00
   7  -2   1  459.65   15.40
   8  -2   1    8.80    3.30
   9  -2   1   14.10    4.30
  10  -2   1   24.10    6.50
 -10  -1   1    0.00    7.10
  -9  -1   1  164.38   11.00
  -8  -1   1   43.30    5.80
  -7  -1   1    5.50    3.10
  -6  -1   1   62.39    3.40
  -5  -1   1    4.40    1.90
  -4  -1   1  807.32   24.70
  -3  -1   1  873.71   25.00
  -2  -1   1    8.60    1.30
  -1  -1   1   20.80    1.10
   0  -1   1  155.28   13.00
   1  -1   1  172.08    5.00
   2  -1   1 1988.60   55.69
   3  -1   1  112.29    4.20
   4  -1   1    2.40    1.60
   5  -1   1   52.19    3.50
   6  -1   1   17.70    2.70
   7  -1   1    6.90    3.70
   8  -1   1  155.78    8.50
   9  -1   1   10.20    5.20
  10  -1   1   71.79    9.90
 -10   0   1    6.50    9.30
  -9   0   1   19.20    6.50
  -8   0   1  105.19   11.50
  -7   0   1    7.60    4.10
  -6   0   1  492.55   33.50
  -5   0   1  414.36   27.80
  -4   0   1  152.78    9.80
  -3   0   1  102.99    7.10
  -2   0   1    1.20    1.90
  -1   0   1  598.14   45.50
   1   0   1 1804.02  111.19
   2   0   1   15.40    2.30
   3   0   1  179.18   11.20
   4   0   1    2.70    2.70
   5   0   1  276.67   17.40
   6   0   1  226.98   16.60
   7   0   1   14.20    5.70
   8   0   1   29.90    7.40
   9   0   1    6.50    8.10
  10   0   1   65.39   11.90
 -10   1   1   31.60    7.10
  -9   1   1   11.80    5.70
  -8   1   1  122.59    7.40
  -7   1   1   28.70    3.50
  -6   1   1    4.00    2.00
  -5   1   1  229.28    7.70
  -4   1   1    6.90    1.60
  -3   1   1 1163.48   35.80
  -2   1   1  275.77    8.90
  -1   1   1    4.00    0.80
   0   1   1  116.69    4.00
   1   1   1  363.26   11.20
   2   1   1  260.27    8.10
   3   1   1 1019.30   29.70
   4   1   1  232.08    7.80
   5   1   1   46.00    3.10
   6   1   1    2.00    2.30
   7   1   1    6.70    3.60
   8   1   1  119.19    7.70
   9   1   1   41.10    7.60
  10   1   1   12.10    9.70
 -10   2   1    1.10    5.20
  -9   2   1   10.70    4.40
  -8   2   1   12.20    3.20
  -7   2   1  202.78    7.50
  -6   2   1    6.90    2.00
  -5   2   1  172.28    6.30
  -4   2   1    3.20    1.40
  -3   2   1  100.59    3.70
  -2   2   1  971.40   29.10
  -1   2   1   19.60    1.40
   0   2   1 3409.36   97.79
   1   2   1 2305.87   67.19
   2   2   1   91.79    3.80
   3   2   1   11.60    1.60
   4   2   1    4.60    1.70
   5   2   1  204.68    7.40
   6   2   1  328.17   11.80
   7   2   1    6.20    3.40
   8   2   1   62.79    5.30
   9   2   1    7.40    5.10
 -10   3   1  180.68   23.50
  -9   3   1   44.20   10.10
  -8   3   1   59.89    8.80
  -7   3   1   43.30    9.00
  -6   3   1    0.00   28.20
  -5   3   1  176.78    8.20
  -4   3   1 1195.18   49.60
  -3   3   1   24.40    4.60
  -2   3   1  282.87   10.40
  -1   3   1   35.60    2.60
   0   3   1   12.30    2.40
   1   3   1  439.86   14.90
   2   3   1   14.60    3.90
   3   3   1 1241.58   44.40
   4   3   1  286.37   19.20
   5   3   1    0.00   18.00
   6   3   1    0.00   11.50
   7   3   1  188.38   17.50
   8   3   1    0.00   13.90
   9   3   1   47.30  309.07
 -10   4   1   33.20   17.70
  -9   4   1   16.20   10.20
  -8   4   1  154.68    9.90
  -7   4   1  782.62   34.50
  -6   4   1   26.20    6.60
  -5   4   1  712.93   29.60
  -4   4   1    4.20    4.50
  -3   4   1  106.49    7.10
  -2   4   1   94.39    4.40
  -1   4   1    2.00    2.10
   0   4   1    4.00    2.10
   1   4   1  646.24   29.80
   2   4   1  114.59   11.00
   3   4   1   42.10    4.70
   4   4   1  359.76   23.70
   5   4   1  182.58   10.70
   6   4   1  202.68   13.80
   7   4   1  276.67   23.40
   8   4   1    5.30   10.90
   9   4   1   22.90   21.50
 -10   5   1   37.90    6.30
  -9   5   1  134.49    7.90
  -8   5   1    8.10    3.30
  -7   5   1    6.20    2.80
  -6   5   1   20.60    2.60
  -5   5   1    3.60    2.00
  -4   5   1 1128.49   35.10
  -3   5   1  525.55   16.20
  -2   5   1  159.48    5.70
  -1   5   1  103.19    4.20
   0   5   1    1.90    1.60
   1   5   1  306.87    9.80
   2   5   1  976.70   28.90
   3   5   1    9.90    1.90
   4   5   1  363.36   12.20
   5   5   1  193.88    8.30
   6   5   1   69.49    4.80
   7   5   1   57.19    5.40
   8   5   1   39.40    6.00
 -10   6   1   30.80    8.00
  -9   6   1    9.60    5.80
  -8   6   1  113.69    7.70
  -7   6   1   30.50    4.30
  -6   6   1  779.52   27.00
  -5   6   1  224.58    8.90
  -4   6   1  170.58    7.00
  -3   6   1   43.00    2.60
  -2   6   1   60.09    3.10
  -1   6   1 1238.78   35.30
   0   6   1  308.27   10.10
   1   6   1  650.53   19.80
   2   6   1  405.06   13.00
   3   6   1   35.80    2.80
   4   6   1   10.70    2.60
   5   6   1    8.60    3.70
   6   6   1   28.30    4.50
   7   6   1   31.30    5.20
   8   6   1   19.80   11.30
 -10   7   1    0.00  220.68
  -9   7   1  115.59   25.30
  -8   7   1  206.68   30.20
  -7   7   1    0.40   11.00
  -6   7   1   11.70    5.90
  -5   7   1   35.10    6.00
  -4   7   1  277.47   13.50
  -3   7   1 1158.28   38.00
  -2   7   1  187.18    8.00
  -1   7   1   82.99    4.60
   0   7   1    6.30    2.40
   1   7   1   95.59    6.80
   2   7   1   79.99    6.80
   3   7   1  342.27   17.60
   4   7   1  117.39    9.40
   5   7   1   36.80    8.90
   6   7   1   11.10    4.90
   7   7   1   13.00   12.20
 -10   8   1    1.00    5.50
  -9   8   1   33.40    5.00
  -8   8   1  147.49   10.00
  -7   8   1   18.30    3.60
  -6   8   1  116.69    6.10
  -5   8   1  115.99    5.90
  -4   8   1    4.10    2.10
  -3   8   1    8.80    2.30
  -2   8   1  653.73   21.00
  -1   8   1    4.40    1.70
   0   8   1  696.33   21.80
   1   8   1  128.19    5.60
   2   8   1    9.10    2.70
   3   8   1   15.60    3.40
   4   8   1   94.29    6.20
   5   8   1   39.20    5.60
   6   8   1   66.29    7.80
   7   8   1    5.20    7.00
 -10   9   1   52.79    6.90
  -9   9   1    4.00    4.50
  -8   9   1  315.67   14.00
  -7   9   1   29.10    4.10
  -6   9   1    4.50    3.70
  -5   9   1  222.08   10.80
  -4   9   1   16.30    2.70
  -3   9   1  255.77    9.20
  -2   9   1  583.44   18.60
  -1   9   1   12.50    2.20
   0   9   1    7.80    2.40
   1   9   1   25.70    3.00
   2   9   1   12.30    3.20
   3   9   1  236.18   10.50
   4   9   1   23.90    4.20
   5   9   1   30.80    4.70
   6   9   1   13.80    6.80
  -9  10   1  151.38   85.39
  -8  10   1   30.60    8.60
  -7  10   1  337.87   34.20
  -6  10   1    9.90    9.80
  -5  10   1  323.07   17.20
  -4  10   1  122.99    8.60
  -3  10   1    5.10    4.00
  -2  10   1   13.90    4.80
  -1  10   1   13.90    5.30
   0  10   1   11.80    5.00
   1  10   1  122.59    9.40
   2  10   1    0.20    5.60
   3  10   1   11.60    7.30
   4  10   1   54.59   10.40
   5  10   1   28.40   12.70
   6  10   1  123.89   18.50
  -9  11   1   30.10    7.10
  -8  11   1   23.30   12.00
  -7  11   1   22.90    8.90
  -6  11   1   36.20   11.80
  -5  11   1   49.40    7.50
  -4  11   1   34.70    6.50
  -3  11   1   34.20    7.30
  -2  11   1  247.38   17.50
  -1  11   1  128.09    7.70
   0  11   1    3.50    4.40
   1  11   1   13.90    5.00
   2  11   1   44.60    7.60
   3  11   1   35.50    9.50
   4  11   1  114.29   13.90
   5  11   1   13.00   11.20
  -9  12   1    9.70    7.60
  -8  12   1    7.00    6.00
  -7  12   1   17.60    5.70
  -6  12   1   92.79    8.20
  -5  12   1   10.20    4.10
  -4  12   1   22.70    4.50
  -3  12   1    9.80    4.30
  -2  12   1   54.89    5.70
  -1  12   1  380.46   16.60
   0  12   1    1.80    3.60
   1  12   1  294.37   14.10
   2  12   1   83.49    6.70
   3  12   1    4.60    4.80
   4  12   1    5.10    5.40
  -8  13   1   17.90   12.60
  -7  13   1   49.10   12.30
  -6  13   1    5.70    7.40
  -5  13   1    8.80    5.10
  -4  13   1   51.39   12.70
  -3  13   1   84.69   10.80
  -2  13   1   18.60    9.70
  -1  13   1   68.49    7.20
   0  13   1    3.40    8.20
   1  13   1   31.10    7.60
   2  13   1   90.19   12.80
   3  13   1    0.90   10.60
  -7  14   1    0.00   14.20
  -6  14   1  125.49   20.00
  -5  14   1   19.00   11.90
  -4  14   1   10.30   11.20
  -3  14   1    0.00   11.80
  -2  14   1    0.10   12.20
  -1  14   1   46.50   15.40
   0  14   1    1.10   19.60
   1  14   1    0.00   11.00
   2  14   1   27.80   28.70
  -5  15   1   13.00    6.90
  -4  15   1   20.50    8.20
  -3  15   1  169.08   15.10
  -2  15   1   13.60    7.90
  -1  15   1   14.00    8.00
   0  15   1    2.90    6.00
   0 -16   2   41.60    6.10
   1 -16   2   36.20    9.50
   2 -16   2    3.10    7.30
   3 -16   2   41.10    7.60
   4 -16   2  121.09   10.80
   5 -16   2   14.10    6.90
   6 -16   2    8.30   14.80
  -2 -15   2   12.00    6.50
  -1 -15   2   31.30    5.80
   0 -15   2   37.60    5.50
   1 -15   2   80.39    9.20
   2 -15   2  126.09   10.50
   3 -15   2    5.90    5.30
   4 -15   2    7.50    5.50
   5 -15   2   20.10    5.80
   6 -15   2    3.50    7.00
   7 -15   2   43.30    8.40
  -3 -14   2    0.10   14.50
  -2 -14   2    6.30   10.40
  -1 -14   2    0.00   10.50
   0 -14   2    0.00    7.60
   1 -14   2   32.80    8.50
   2 -14   2  176.28   13.70
   3 -14   2  233.58   14.90
   4 -14   2  100.99   14.70
   5 -14   2  335.57   26.10
   6 -14   2   17.10   13.40
   7 -14   2   57.59   15.50
   8 -14   2   34.50   18.20
  -4 -13   2   16.10   10.50
  -3 -13   2   11.30    8.60
  -2 -13   2    7.20    6.40
  -1 -13   2    8.10    5.60
   0 -13   2  110.09    9.10
   1 -13   2   12.50    4.30
   2 -13   2  110.69   12.00
   3 -13   2   61.99    6.70
   4 -13   2    9.00    4.90
   5 -13   2  123.89   10.10
   6 -13   2   24.80    7.00
   7 -13   2   33.40    9.10
   8 -13   2  122.49   13.60
  -5 -12   2    2.50    5.20
  -4 -12   2   12.10    5.30
  -3 -12   2  297.17   13.40
  -2 -12   2   86.79    6.20
  -1 -12   2    6.20    3.40
   0 -12   2  133.19    6.60
   1 -12   2    4.30    2.50
   2 -12   2   14.40    4.00
   3 -12   2   67.99    5.30
   4 -12   2   24.40    3.80
   5 -12   2  112.69    6.80
   6 -12   2   10.60    4.60
   7 -12   2    9.90    5.30
   8 -12   2   57.69    8.20
   9 -12   2   24.90    5.00
  -6 -11   2   17.00   12.50
  -5 -11   2   82.19   11.40
  -4 -11   2   23.70    8.90
  -3 -11   2    5.90    7.90
  -2 -11   2    7.40    5.40
  -1 -11   2   23.60    5.40
   0 -11   2    9.40    4.30
   1 -11   2  399.26   14.90
   2 -11   2    8.60    4.30
   3 -11   2  209.98   10.30
   4 -11   2   10.30    5.10
   5 -11   2    5.50    4.40
   6 -11   2  169.08   14.20
   7 -11   2   78.89   13.30
   8 -11   2   34.50    5.80
   9 -11   2  148.79   12.20
  -6 -10   2   20.70   10.90
  -5 -10   2   62.29    9.80
  -4 -10   2  115.09   12.20
  -3 -10   2   10.50    5.90
  -2 -10   2  454.55   19.00
  -1 -10   2  202.08   10.70
   0 -10   2   41.30    4.70
   1 -10   2    3.20    2.80
   2 -10   2    6.20    2.90
   3 -10   2  138.89    7.60
   4 -10   2  335.87   15.70
   5 -10   2   64.69    8.40
   6 -10   2  172.58   12.70
   7 -10   2   75.79    9.40
   8 -10   2    3.60    6.90
   9 -10   2   37.30   19.50
  10 -10   2   40.20   14.90
  -7  -9   2   11.10    6.90
  -6  -9   2   14.70    6.20
  -5  -9   2   35.30    4.00
  -4  -9   2  399.06   17.00
  -3  -9   2   80.19    4.90
  -2  -9   2    8.60    2.30
  -1  -9   2   40.60    2.90
   0  -9   2    2.90    2.00
   1  -9   2  706.63   21.10
   2  -9   2  374.46   13.40
   3  -9   2   33.10    2.90
   4  -9   2  129.59    6.00
   5  -9   2   66.89    4.70
   6  -9   2    2.20    2.60
   7  -9   2  128.99    7.30
   8  -9   2    8.40    3.90
   9  -9   2   68.69    6.30
  10  -9   2    8.10    6.40
  -7  -8   2  102.19    9.00
  -6  -8   2   86.49    6.70
  -5  -8   2   17.60    3.60
  -4  -8   2    5.20    2.90
  -3  -8   2   89.69    4.50
  -2  -8   2   72.79    3.90
  -1  -8   2  819.12   24.40
   0  -8   2  573.14   18.90
   1  -8   2   74.39    3.70
   2  -8   2   85.09    4.20
   3  -8   2  230.98    8.40
   4  -8   2  210.98    7.90
   5  -8   2  270.67   10.00
   6  -8   2    5.00    2.90
   7  -8   2    1.70    2.80
   8  -8   2    4.20    3.50
   9  -8   2   70.79    6.30
  10  -8   2   91.09   10.10
  -8  -7   2    3.60   25.60
  -7  -7   2   17.60   15.70
  -6  -7   2   34.40    5.90
  -5  -7   2   23.60    5.20
  -4  -7   2   38.70    5.60
  -3  -7   2   96.69    6.40
  -2  -7   2    7.20    2.70
  -1  -7   2   84.19    4.60
   0  -7   2  503.85   17.40
   1  -7   2   35.90    2.40
   2  -7   2  442.56   13.90
   3  -7   2   83.09    4.80
   4  -7   2   58.89    6.20
   5  -7   2    8.70    4.90
   6  -7   2   98.29   10.10
   7  -7   2    9.00   10.20
   8  -7   2  254.27   24.30
   9  -7   2   37.70   13.10
  10  -7   2   31.60   21.70
  -8  -6   2   62.59   10.40
  -7  -6   2    6.70    4.50
  -6  -6   2   39.30    4.00
  -5  -6   2    4.40    2.50
  -4  -6   2    3.70    1.90
  -3  -6   2  366.96   12.00
  -2  -6   2  649.93   19.10
  -1  -6   2  163.08    5.60
   0  -6   2 2445.16   72.19
   1  -6   2  153.98    5.10
   2  -6   2  495.85   14.70
   3  -6   2  110.19    4.40
   4  -6   2  166.98    6.50
   5  -6   2 1278.67   39.00
   6  -6   2   57.69    3.40
   7  -6   2   97.29    5.60
   8  -6   2    6.00    4.10
   9  -6   2   43.30    6.60
  10  -6   2   35.40    9.40
  -9  -5   2    3.30    6.00
  -8  -5   2    5.10    5.20
  -7  -5   2   35.60    4.70
  -6  -5   2  194.18    8.40
  -5  -5   2  559.04   18.10
  -4  -5   2   11.70    2.00
  -3  -5   2  375.76   11.20
  -2  -5   2    4.80    1.50
  -1  -5   2   49.70    2.40
   0  -5   2 1199.48   34.90
   1  -5   2  260.17    8.40
   2  -5   2  132.59    4.70
   3  -5   2  723.53   21.40
   4  -5   2  200.28    7.40
   5  -5   2    2.50    1.80
   6  -5   2  220.68    7.30
   7  -5   2    8.60    2.70
   8  -5   2  425.36   17.80
   9  -5   2    7.90    4.30
  10  -5   2    7.90    5.30
  -9  -4   2   18.30   20.50
  -8  -4   2  279.07   25.70
  -7  -4   2  165.78   13.00
  -6  -4   2   54.99    8.70
  -5  -4   2  180.78   24.10
  -4  -4   2    2.30    3.50
  -3  -4   2    0.50    3.00
  -2  -4   2  558.34   22.50
  -1  -4   2  212.28    7.60
   0  -4   2 8567.34  258.07
   1  -4   2 3975.10  122.89
   2  -4   2    9.30    2.10
   3  -4   2  492.65   19.10
   4  -4   2  447.96   16.00
   5  -4   2   11.00    4.10
   6  -4   2  688.13   35.50
   7  -4   2   37.00    8.60
   8  -4   2   18.20   10.90
   9  -4   2   72.59   23.50
  10  -4   2    7.50   17.40
  -9  -3   2   23.90   16.70
  -8  -3   2   56.09   17.90
  -7  -3   2   67.49   10.90
  -6  -3   2  255.27   24.70
  -5  -3   2  420.16   22.60
  -4  -3   2  809.32   31.20
  -3  -3   2   29.50    9.00
  -2  -3   2  131.79   12.90
  -1  -3   2   19.00    1.80
   0  -3   2  168.78    5.70
   1  -3   2 1579.64   46.20
   2  -3   2  332.77   10.60
   3  -3   2  349.57   16.20
   4  -3   2   28.40   10.40
   5  -3   2    0.00    9.40
   6  -3   2  498.55   22.50
   7  -3   2  470.65   22.50
   8  -3   2  115.19   12.90
   9  -3   2  136.19   19.00
  10  -3   2    0.00   23.20
 -10  -2   2   14.40    6.30
  -9  -2   2   93.49    7.20
  -8  -2   2    8.30    4.60
  -7  -2   2  161.08    7.10
  -6  -2   2  153.68    5.70
  -5  -2   2   65.69    3.10
  -4  -2   2  356.66   10.60
  -3  -2   2  503.65   14.60
  -2  -2   2  576.64   16.90
  -1  -2   2 2667.13   80.69
   0  -2   2   31.00    1.50
   1  -2   2  650.73   18.90
   2  -2   2  110.29    3.90
   3  -2   2  167.38    5.40
   4  -2   2  614.84   17.90
   5  -2   2  604.54   18.00
   6  -2   2  162.08    6.10
   7  -2   2   67.19    4.40
   8  -2   2    1.70    3.70
   9  -2   2   26.00    4.60
  10  -2   2   88.99    7.70
 -10  -1   2   47.90    7.90
  -9  -1   2  200.68   11.50
  -8  -1   2    7.60    3.90
  -7  -1   2   24.70    3.50
  -6  -1   2  159.58    6.50
  -5  -1   2   17.80    2.10
  -4  -1   2 1334.87   38.60
  -3  -1   2  523.85   16.60
  -2  -1   2   21.70    1.80
  -1  -1   2   12.90    1.00
   0  -1   2   71.89    2.60
   1  -1   2  298.17    9.20
   2  -1   2 1099.69   33.60
   3  -1   2   40.60    2.40
   4  -1   2   43.30    2.80
   5  -1   2   10.50    2.30
   6  -1   2    9.60    2.50
   7  -1   2   69.19    5.10
   8  -1   2   64.29    5.60
   9  -1   2   11.20    5.60
  10  -1   2   55.89    9.60
 -10   0   2   12.20   12.50
  -9   0   2   14.10    7.10
  -8   0   2    5.70    5.50
  -7   0   2  142.19   11.30
  -6   0   2  197.68   16.40
  -5   0   2   12.90    3.60
  -4   0   2   36.00    3.50
  -3   0   2  521.65   39.00
  -2   0   2  227.78   14.20
  -1   0   2  626.74   37.00
   0   0   2 1151.98   78.29
   1   0   2   18.20    2.20
   2   0   2   27.40    3.20
   3   0   2   30.70    3.40
   4   0   2  566.84   34.00
   5   0   2  548.25   34.40
   6   0   2    2.40    3.60
   7   0   2  283.77   22.20
   8   0   2   30.20   10.70
   9   0   2    8.20    9.90
  10   0   2   57.49   14.80
 -10   1   2   24.90    7.20
  -9   1   2   53.79    5.30
  -8   1   2   33.20    3.80
  -7   1   2  123.99    5.80
  -6   1   2  234.68    8.00
  -5   1   2  344.37   11.00
  -4   1   2  341.57   11.80
  -3   1   2 1138.59   34.60
  -2   1   2   50.39    2.30
  -1   1   2    4.30    1.30
   0   1   2  673.83   19.60
   1   1   2  182.18    6.40
   2   1   2  743.03   23.20
   3   1   2  477.55   15.20
   4   1   2   22.60    2.10
   5   1   2    7.10    2.20
   6   1   2    3.10    2.80
   7   1   2   40.70    4.90
   8   1   2  150.48    9.10
   9   1   2   10.10    6.30
  10   1   2   18.30   15.50
 -10   2   2   23.50    5.00
  -9   2   2   27.20    4.20
  -8   2   2  496.35   16.40
  -7   2   2   74.69    3.90
  -6   2   2  235.78    8.00
  -5   2   2  248.68    8.00
  -4   2   2   38.10    2.10
  -3   2   2  214.08    7.00
  -2   2   2  279.27    8.90
  -1   2   2  211.08    6.80
   0   2   2   78.29    3.00
   1   2   2  186.68    6.00
   2   2   2   21.20    2.00
   3   2   2  116.69    4.30
   4   2   2   64.39    3.00
   5   2   2  147.79    5.50
   6   2   2  151.58    6.60
   7   2   2   12.40    3.80
   8   2   2    4.60    3.80
   9   2   2   11.40    5.20
 -10   3   2   82.49   16.70
  -9   3   2   71.09   12.70
  -8   3   2   44.60    8.90
  -7   3   2    0.00   12.40
  -6   3   2   58.09   24.00
  -5   3   2  451.15   20.70
  -4   3   2  482.55   19.70
  -3   3   2  307.27   19.10
  -2   3   2  399.36   13.80
  -1   3   2   61.39    4.90
   0   3   2  246.98   15.70
   1   3   2  571.64   20.40
   2   3   2   24.40    3.50
   3   3   2 1559.64   60.29
   4   3   2  148.59   27.80
   5   3   2    0.00   23.40
   6   3   2   97.29   13.40
   7   3   2   69.39   19.00
   8   3   2   57.09   21.30
   9   3   2   50.49   36.50
 -10   4   2   30.40   21.60
  -9   4   2   32.70   11.40
  -8   4   2   14.60    8.50
  -7   4   2  549.05   27.20
  -6   4   2    2.30    7.30
  -5   4   2  137.09   14.60
  -4   4   2    5.70    2.90
  -3   4   2   11.50    2.60
  -2   4   2  472.15   14.50
  -1   4   2  256.17    8.90
   0   4   2   82.69    7.00
   1   4   2  754.72   31.90
   2   4   2   81.29    7.80
   3   4   2   54.79    6.60
   4   4   2  394.16   21.00
   5   4   2   98.99    9.70
   6   4   2  158.88   11.60
   7   4   2   58.39   13.80
   8   4   2   27.30   14.00
   9   4   2   30.10   36.10
 -10   5   2  144.59   10.50
  -9   5   2  169.98    8.90
  -8   5   2   45.60    4.20
  -7   5   2   11.70    3.00
  -6   5   2    5.30    2.20
  -5   5   2  129.29    5.50
  -4   5   2  765.52   25.70
  -3   5   2   36.20    2.20
  -2   5   2  250.47    8.00
  -1   5   2   24.40    2.00
   0   5   2    4.00    1.60
   1   5   2  595.64   18.00
   2   5   2  591.44   18.40
   3   5   2   71.39    3.50
   4   5   2  378.46   12.40
   5   5   2   12.40    3.70
   6   5   2   17.10    4.30
   7   5   2  105.69    7.40
   8   5   2    9.80    6.20
 -10   6   2    4.40    7.70
  -9   6   2   35.60    6.80
  -8   6   2   15.30    6.10
  -7   6   2  385.16   19.30
  -6   6   2  316.17   14.60
  -5   6   2    4.30    2.90
  -4   6   2    7.10    1.70
  -3   6   2   14.50    1.90
  -2   6   2   39.20    2.40
  -1   6   2 1060.79   32.10
   0   6   2   12.30    2.00
   1   6   2    3.00    1.90
   2   6   2    2.50    1.90
   3   6   2    9.70    2.30
   4   6   2  144.19    6.90
   5   6   2  252.17   13.60
   6   6   2   15.70    5.30
   7   6   2   88.79   10.10
   8   6   2   31.90   10.90
 -10   7   2    0.00   53.19
  -9   7   2  218.38   31.90
  -8   7   2    2.60   16.60
  -7   7   2   50.59   14.70
  -6   7   2   20.80    9.20
  -5   7   2    7.60    5.40
  -4   7   2  285.47   14.80
  -3   7   2  443.86   16.00
  -2   7   2   18.20    2.50
  -1   7   2   32.80    3.20
   0   7   2  232.48    9.90
   1   7   2   41.50    4.20
   2   7   2  232.98   11.70
   3   7   2   77.69    7.20
   4   7   2    7.50    4.20
   5   7   2   88.69   11.90
   6   7   2   23.00   11.30
   7   7   2   15.50   13.00
 -10   8   2    3.40    5.50
  -9   8   2    6.00    4.80
  -8   8   2  111.19    7.50
  -7   8   2   63.99    5.10
  -6   8   2  357.56   14.10
  -5   8   2  263.47   11.40
  -4   8   2    4.30    2.30
  -3   8   2  275.17    9.80
  -2   8   2   60.69    3.70
  -1   8   2  614.14   18.70
   0   8   2  326.77   11.20
   1   8   2    4.00    2.40
   2   8   2   90.69    5.40
   3   8   2    5.70    3.30
   4   8   2   17.20    4.50
   5   8   2   51.09    6.90
   6   8   2   31.30    6.50
   7   8   2    5.80    7.80
 -10   9   2   50.79    7.70
  -9   9   2   37.40    5.30
  -8   9   2    6.00    3.80
  -7   9   2   63.29    5.20
  -6   9   2   22.90    4.30
  -5   9   2  172.08    8.70
  -4   9   2   17.90    3.00
  -3   9   2  513.35   17.00
  -2   9   2  353.96   12.50
  -1   9   2    3.60    2.10
   0   9   2    5.40    2.60
   1   9   2    7.10    2.90
   2   9   2   31.00    3.80
   3   9   2  169.58    8.60
   4   9   2    4.80    3.90
   5   9   2   36.70    7.40
   6   9   2    8.40    7.00
  -9  10   2   24.40   17.40
  -8  10   2   93.19   12.70
  -7  10   2    7.60   11.60
  -6  10   2   41.60   14.20
  -5  10   2   54.39    7.30
  -4  10   2    7.60    5.40
  -3  10   2    2.60    5.40
  -2  10   2   64.79    7.10
  -1  10   2  100.79    7.40
   0  10   2   87.19    6.90
   1  10   2  228.18   12.40
   2  10   2   22.00    6.90
   3  10   2   46.80    9.60
   4  10   2   16.70    9.70
   5  10   2   41.20   11.60
  -9  11   2   20.80   10.80
  -8  11   2   47.90   15.60
  -7  11   2   29.50    9.40
  -6  11   2   17.20   11.60
  -5  11   2   70.49   13.40
  -4  11   2   48.70    7.20
  -3  11   2   21.60    7.70
  -2  11   2  108.09   13.00
  -1  11   2   27.50    5.30
   0  11   2   69.79    7.00
   1  11   2   39.20    6.90
   2  11   2    3.90    7.90
   3  11   2   71.09   12.20
   4  11   2   56.79   11.00
  -8  12   2   36.90    7.40
  -7  12   2  170.98   11.40
  -6  12   2   45.70    6.10
  -5  12   2   26.60    4.70
  -4  12   2   87.19    6.80
  -3  12   2   12.80    4.60
  -2  12   2   10.80    4.80
  -1  12   2  141.89    8.40
   0  12   2    7.00    3.60
   1  12   2   73.29    5.90
   2  12   2    9.10    4.80
   3  12   2    7.70    5.10
  -7  13   2   30.80   10.40
  -6  13   2    8.30    7.80
  -5  13   2    8.90    7.20
  -4  13   2   61.79   11.70
  -3  13   2   29.90    7.90
  -2  13   2   30.10    9.80
  -1  13   2   14.00    8.30
   0  13   2   32.40    9.90
   1  13   2   33.70    9.30
   2  13   2  152.08   15.30
  -6  14   2  162.38   16.40
  -5  14   2    0.10   11.50
  -4  14   2    0.00   10.80
  -3  14   2    0.00   12.20
  -2  14   2   28.80   14.60
  -1  14   2  135.19   17.30
   0  14   2    0.00   17.60
   1  14   2    0.00   11.90
  -4  15   2   22.90    8.70
  -3  15   2   34.80    9.00
  -2  15   2   26.20    8.80
   3 -17   3    3.20    6.40
   0 -16   3    5.80    5.00
   1 -16   3    8.40    6.10
   2 -16   3    9.80    7.00
   3 -16   3    9.10    6.20
   4 -16   3   58.99    8.10
   5 -16   3   11.10    6.20
   6 -16   3    6.90    7.30
  -2 -15   3   22.00    6.30
  -1 -15   3    8.90    4.80
   0 -15   3    2.80    4.40
   1 -15   3   34.50    4.40
   2 -15   3   49.60    6.30
   3 -15   3    3.10    6.10
   4 -15   3   24.30    5.90
   5 -15   3   43.10    6.60
   6 -15   3   39.90    9.00
   7 -15   3   75.29    9.70
  -3 -14   3  142.69   17.70
  -2 -14   3    0.00   10.70
  -1 -14   3    0.00   12.00
   0 -14   3   12.00    7.30
   1 -14   3    7.10    7.40
   2 -14   3   70.19   10.80
   3 -14   3   28.90    9.00
   4 -14   3  209.78   21.30
   5 -14   3  129.19   11.80
   6 -14   3   48.20   13.30
   7 -14   3   10.10   13.90
   8 -14   3   15.30   18.40
  -4 -13   3    5.70    6.00
  -3 -13   3   15.70    7.10
  -2 -13   3    3.80    5.90
  -1 -13   3   22.20    6.90
   0 -13   3  133.19   12.60
   1 -13   3    1.50    4.50
   2 -13   3  257.67   13.20
   3 -13   3   26.60    5.50
   4 -13   3    4.10    4.60
   5 -13   3   87.19    8.10
   6 -13   3   11.70    6.40
   7 -13   3   64.09   11.20
   8 -13   3   74.29    8.40
   9 -13   3    2.00    5.90
  -5 -12   3    6.40    6.00
  -4 -12   3    5.80    4.70
  -3 -12   3   75.59    5.40
  -2 -12   3   65.79    5.20
  -1 -12   3  103.79    5.70
   0 -12   3    9.70    2.70
   1 -12   3   72.89    4.50
   2 -12   3   69.69    5.00
   3 -12   3  302.97   13.90
   4 -12   3    6.50    3.50
   5 -12   3  106.39    6.70
   6 -12   3   46.50    7.30
   7 -12   3   26.30    5.60
   8 -12   3  120.49    9.80
   9 -12   3   65.29    7.60
  -6 -11   3   33.30   12.10
  -5 -11   3  120.29   17.40
  -4 -11   3   19.00    8.10
  -3 -11   3   55.69    7.10
  -2 -11   3   20.50    4.70
  -1 -11   3   23.80    4.20
   0 -11   3  172.48    9.30
   1 -11   3  118.19    6.70
   2 -11   3    2.50    3.80
   3 -11   3   51.79    5.40
   4 -11   3    4.60    6.70
   5 -11   3   65.39    6.40
   6 -11   3  381.46   21.60
   7 -11   3    9.30    3.90
   8 -11   3  219.28   15.00
   9 -11   3   19.60    8.20
  -7 -10   3   36.60   16.90
  -6 -10   3   14.90   13.10
  -5 -10   3   39.50   12.50
  -4 -10   3   16.20    5.70
  -3 -10   3   82.89    9.10
  -2 -10   3  757.82   32.60
  -1 -10   3  154.38    7.50
   0 -10   3   27.90    3.70
   1 -10   3   10.50    2.70
   2 -10   3   49.40    3.90
   3 -10   3  133.19    7.20
   4 -10   3   92.39    7.00
   5 -10   3   70.99    9.30
   6 -10   3   65.09    8.00
   7 -10   3   33.10    7.40
   8 -10   3    9.60    8.30
   9 -10   3   89.79   17.60
  10 -10   3   74.09   15.20
  -7  -9   3   52.39    7.30
  -6  -9   3   13.40    5.80
  -5  -9   3  119.09    7.40
  -4  -9   3  110.59    6.60
  -3  -9   3   21.10    3.40
  -2  -9   3  117.79    5.20
  -1  -9   3  251.17    9.10
   0  -9   3   12.50    2.00
   1  -9   3  364.06   11.80
   2  -9   3  181.18    6.20
   3  -9   3   15.80    2.40
   4  -9   3    8.10    2.20
   5  -9   3   17.80    2.60
   6  -9   3   55.39    4.10
   7  -9   3  103.79    5.80
   8  -9   3    4.50    3.60
   9  -9   3   12.90    5.00
  10  -9   3    7.00    5.90
  -8  -8   3    8.50    8.10
  -7  -8   3   94.89    8.70
  -6  -8   3   20.60    5.20
  -5  -8   3   10.60    4.20
  -4  -8   3   10.60    3.40
  -3  -8   3   64.39    3.90
  -2  -8   3   45.10    2.90
  -1  -8   3  215.58    7.30
   0  -8   3  135.39    5.10
   1  -8   3  325.17   10.00
   2  -8   3  684.03   20.60
   3  -8   3   32.60    2.20
   4  -8   3 1176.38   34.80
   5  -8   3  160.48    6.70
   6  -8   3   89.19    5.20
   7  -8   3   68.99    5.10
   8  -8   3   29.60    4.40
   9  -8   3   60.89    7.30
  10  -8   3   79.59    9.30
  -8  -7   3   19.80   27.60
  -7  -7   3  122.29   27.60
  -6  -7   3  153.98   17.50
  -5  -7   3    6.50   11.10
  -4  -7   3  252.67   16.30
  -3  -7   3  102.59    7.40
  -2  -7   3   56.99    4.50
  -1  -7   3  442.06   15.50
   0  -7   3  122.49    5.20
   1  -7   3  524.05   16.30
   2  -7   3  704.53   20.40
   3  -7   3   14.80    2.20
   4  -7   3    1.60    3.10
   5  -7   3    0.00    6.70
   6  -7   3    5.10    6.20
   7  -7   3   79.59   12.10
   8  -7   3   92.89   22.50
   9  -7   3   54.39   25.80
  10  -7   3   50.89   26.70
  -9  -6   3  110.09   12.90
  -8  -6   3  115.29   12.50
  -7  -6   3    5.30    4.90
  -6  -6   3   12.80    4.50
  -5  -6   3    5.70    2.90
  -4  -6   3    4.20    2.20
  -3  -6   3  577.94   18.30
  -2  -6   3   11.20    1.80
  -1  -6   3 1059.49   30.40
   0  -6   3  227.18    7.20
   1  -6   3  202.58    6.90
   2  -6   3  338.07   10.40
   3  -6   3  674.23   20.10
   4  -6   3  111.89    4.50
   5  -6   3   47.60    2.70
   6  -6   3  109.39    4.50
   7  -6   3   14.90    2.90
   8  -6   3   98.69    6.60
   9  -6   3   16.90    5.30
  10  -6   3   99.89   10.30
  -9  -5   3    5.30    6.60
  -8  -5   3    5.40    3.90
  -7  -5   3    8.10    4.20
  -6  -5   3   42.40    3.70
  -5  -5   3  191.78    7.30
  -4  -5   3    7.70    2.10
  -3  -5   3  148.89    5.80
  -2  -5   3   18.10    2.10
  -1  -5   3    4.60    1.40
   0  -5   3 1187.98   35.10
   1  -5   3  538.15   15.80
   2  -5   3  560.84   16.70
   3  -5   3  287.27    8.80
   4  -5   3  182.78    6.10
   5  -5   3  130.99    5.00
   6  -5   3  456.25   14.10
   7  -5   3    9.20    2.80
   8  -5   3  405.66   17.00
   9  -5   3   37.10    4.60
  10  -5   3   10.60    5.20
  -9  -4   3    0.30   13.30
  -8  -4   3  121.89   19.70
  -7  -4   3   72.09   11.70
  -6  -4   3   73.09    8.80
  -5  -4   3   86.19   14.30
  -4  -4   3  359.76   16.30
  -3  -4   3  899.01   43.90
  -2  -4   3  452.15   16.50
  -1  -4   3  422.46   14.50
   0  -4   3  928.31   30.80
   1  -4   3 9999.00  295.07
   2  -4   3    3.20    2.10
   3  -4   3  189.88   10.40
   4  -4   3   83.29    6.30
   5  -4   3  517.95   22.50
   6  -4   3  238.58   13.10
   7  -4   3   88.89   10.20
   8  -4   3   28.50   16.10
   9  -4   3  124.69   14.30
  10  -4   3   23.00   17.50
 -10  -3   3   97.29   13.90
  -9  -3   3   24.80   16.40
  -8  -3   3    0.00   13.80
  -7  -3   3    9.80    8.00
  -6  -3   3   30.00    8.30
  -5  -3   3  715.83   31.60
  -4  -3   3  467.05   21.50
  -3  -3   3  132.89   25.00
  -2  -3   3    0.00    5.30
  -1  -3   3   46.80    2.70
   0  -3   3  473.55   15.70
   1  -3   3 2877.61   84.09
   2  -3   3   63.19    4.70
   3  -3   3  442.86   21.00
   4  -3   3   44.60    9.60
   5  -3   3    2.30   12.70
   6  -3   3  354.46   19.00
   7  -3   3  179.28   13.00
   8  -3   3   10.90   10.10
   9  -3   3    2.10   32.80
  10  -3   3    0.00   29.40
 -10  -2   3   71.89    7.90
  -9  -2   3   30.00    5.20
  -8  -2   3   51.09    5.20
  -7  -2   3  922.41   28.80
  -6  -2   3   83.89    4.10
  -5  -2   3  159.28    6.00
  -4  -2   3    2.30    1.50
  -3  -2   3   20.10    1.70
  -2  -2   3    3.10    1.30
  -1  -2   3   14.80    1.50
   0  -2   3  191.48    5.90
   1  -2   3   10.20    1.60
   2  -2   3  912.01   26.40
   3  -2   3   61.79    2.80
   4  -2   3 1205.08   34.40
   5  -2   3   33.20    2.30
   6  -2   3   87.39    4.20
   7  -2   3   48.70    4.00
   8  -2   3    5.60    3.60
   9  -2   3   57.89    5.50
  10  -2   3   34.40    6.70
 -10  -1   3   60.59    7.10
  -9  -1   3   53.99    5.80
  -8  -1   3    4.90    3.60
  -7  -1   3   98.59    5.10
  -6  -1   3  301.57   10.00
  -5  -1   3  120.19    4.70
  -4  -1   3 1489.65   45.50
  -3  -1   3  343.27   10.80
  -2  -1   3   70.89    2.90
  -1  -1   3   54.79    2.50
   0  -1   3   15.80    1.40
   1  -1   3 1129.69   32.60
   2  -1   3  583.24   18.30
   3  -1   3  204.58    7.20
   4  -1   3    5.90    1.80
   5  -1   3    4.60    2.30
   6  -1   3  176.88    6.80
   7  -1   3  575.54   22.10
   8  -1   3   23.70    4.90
   9  -1   3   64.19    9.10
  10  -1   3   21.10    6.90
 -10   0   3    7.70   12.90
  -9   0   3   77.79   11.20
  -8   0   3   52.99    7.90
  -7   0   3   36.60    5.10
  -6   0   3   48.40    4.70
  -5   0   3  141.39    9.80
  -4   0   3 1187.88   73.99
  -3   0   3 1007.30   72.79
  -2   0   3   38.70    3.60
  -1   0   3 2884.61  186.78
   0   0   3   17.00    2.60
   1   0   3  631.74   42.10
   2   0   3   93.19    7.90
   3   0   3  173.18   11.00
   4   0   3  501.05   28.60
   5   0   3  293.37   19.90
   6   0   3    1.70    4.60
   7   0   3   12.30    5.10
   8   0   3    4.70   10.00
   9   0   3   13.70   10.80
  10   0   3  135.19   21.90
 -10   1   3   10.20    5.90
  -9   1   3   77.89    6.00
  -8   1   3   15.90    3.80
  -7   1   3   65.29    4.20
  -6   1   3  238.98    8.20
  -5   1   3  210.78    7.10
  -4   1   3  652.53   21.40
  -3   1   3 1050.69   33.80
  -2   1   3    6.60    1.50
  -1   1   3    9.70    1.40
   0   1   3  261.17    8.60
   1   1   3   31.10    1.90
   2   1   3 1234.98   38.70
   3   1   3   37.30    2.40
   4   1   3  234.68    7.90
   5   1   3    5.30    2.30
   6   1   3   70.09    5.60
   7   1   3   87.49    6.80
   8   1   3  192.58   12.30
   9   1   3    5.20    7.10
 -10   2   3    6.20    4.60
  -9   2   3   15.70    4.00
  -8   2   3  240.58    9.30
  -7   2   3   18.20    2.70
  -6   2   3  384.56   12.10
  -5   2   3  110.39    4.20
  -4   2   3  197.58    6.70
  -3   2   3 2144.59   62.79
  -2   2   3  643.84   20.70
  -1   2   3  404.46   12.20
   0   2   3  148.89    5.00
   1   2   3   78.59    3.10
   2   2   3   78.29    3.60
   3   2   3  251.27    8.80
   4   2   3   25.00    2.60
   5   2   3  241.98    8.10
   6   2   3  284.07   10.80
   7   2   3   19.00    3.80
   8   2   3    6.60    4.40
   9   2   3    9.50    5.80
 -10   3   3   61.49   17.50
  -9   3   3   45.40   12.40
  -8   3   3   33.40    8.00
  -7   3   3  103.19   17.80
  -6   3   3   33.70    8.30
  -5   3   3  663.83   24.10
  -4   3   3    8.30    3.80
  -3   3   3  626.24   27.70
  -2   3   3  181.38    7.50
  -1   3   3   27.00    5.50
   0   3   3  883.61   29.10
   1   3   3 1174.98   43.50
   2   3   3  126.59    7.10
   3   3   3  850.71   39.70
   4   3   3    0.00   17.90
   5   3   3   72.69   10.70
   6   3   3   65.39   12.80
   7   3   3   27.60   17.00
   8   3   3   42.30   31.50
   9   3   3   34.90   11.90
 -10   4   3  216.88   43.50
  -9   4   3   12.20   15.00
  -8   4   3  650.53   35.40
  -7   4   3   92.79   10.30
  -6   4   3   13.40    8.40
  -5   4   3  257.87   16.20
  -4   4   3  220.48   14.50
  -3   4   3   32.70    4.90
  -2   4   3 1306.37   41.30
  -1   4   3   43.10    4.30
   0   4   3  497.65   17.30
   1   4   3   19.00    4.80
   2   4   3   33.70    5.40
   3   4   3  239.38   14.20
   4   4   3   71.49    7.90
   5   4   3   34.30    9.50
   6   4   3  205.88   30.30
   7   4   3   15.10   12.70
   8   4   3   22.30   15.60
 -10   5   3  157.18    9.90
  -9   5   3   11.00    4.20
  -8   5   3   97.49    6.20
  -7   5   3   44.90    3.90
  -6   5   3   19.10    2.80
  -5   5   3  385.56   13.20
  -4   5   3   48.30    2.60
  -3   5   3  105.59    4.00
  -2   5   3  132.49    5.10
  -1   5   3    5.80    1.70
   0   5   3  163.58    5.80
   1   5   3  433.46   13.90
   2   5   3   98.89    4.20
   3   5   3   42.80    3.10
   4   5   3   55.59    4.30
   5   5   3    5.30    3.60
   6   5   3    8.80    5.00
   7   5   3   88.59    7.30
   8   5   3    8.00    6.60
 -10   6   3   11.50    7.20
  -9   6   3   64.09    8.20
  -8   6   3    6.00    6.10
  -7   6   3  162.18   11.00
  -6   6   3   99.79    7.00
  -5   6   3    8.10    2.60
  -4   6   3    3.10    1.70
  -3   6   3  360.06   11.60
  -2   6   3  214.48    7.40
  -1   6   3 2084.69   61.09
   0   6   3  116.19    4.60
   1   6   3  242.28    8.50
   2   6   3    6.80    2.30
   3   6   3  116.19    5.70
   4   6   3  165.28    9.50
   5   6   3   22.50    6.00
   6   6   3  111.49    9.90
   7   6   3   33.80    8.80
 -10   7   3   55.49   53.99
  -9   7   3  119.89   26.40
  -8   7   3   46.10   16.70
  -7   7   3    0.90   10.70
  -6   7   3  147.59   16.10
  -5   7   3   65.19    9.20
  -4   7   3  297.67   12.10
  -3   7   3  333.27   12.00
  -2   7   3  155.08    6.20
  -1   7   3    9.00    2.50
   0   7   3   17.70    3.80
   1   7   3   23.10    4.20
   2   7   3  388.66   14.90
   3   7   3   40.60    5.00
   4   7   3  146.49   13.80
   5   7   3   15.30    9.40
   6   7   3    1.80   12.60
   7   7   3   32.10   24.30
 -10   8   3   19.90    6.40
  -9   8   3   31.30    5.90
  -8   8   3  166.88    9.70
  -7   8   3   50.79    4.70
  -6   8   3  315.67   13.00
  -5   8   3   15.70    3.00
  -4   8   3    5.00    2.50
  -3   8   3   63.49    3.90
  -2   8   3    2.50    2.20
  -1   8   3  254.77    9.50
   0   8   3   19.60    2.60
   1   8   3    5.80    2.70
   2   8   3   16.90    3.40
   3   8   3   34.00    4.40
   4   8   3    8.80    5.00
   5   8   3  279.27   17.30
   6   8   3   22.40    7.60
  -9   9   3   11.40    4.70
  -8   9   3    9.20    3.90
  -7   9   3   58.89    4.80
  -6   9   3  120.89    7.60
  -5   9   3  254.87   11.10
  -4   9   3    4.70    3.00
  -3   9   3  337.97   12.80
  -2   9   3    7.50    2.40
  -1   9   3    6.10    2.40
   0   9   3   43.70    3.60
   1   9   3    8.00    3.20
   2   9   3  150.48    7.60
   3   9   3   56.09    4.90
   4   9   3    8.50    5.80
   5   9   3    6.80    6.50
   6   9   3   11.40    7.30
  -9  10   3    0.00   14.00
  -8  10   3   86.59    9.10
  -7  10   3   61.49   12.10
  -6  10   3   18.70   10.20
  -5  10   3   27.00    9.30
  -4  10   3   55.99    8.90
  -3  10   3  172.98   12.80
  -2  10   3   67.09    5.70
  -1  10   3   79.59    7.40
   0  10   3  421.16   20.20
   1  10   3   39.60    8.00
   2  10   3   22.40    6.80
   3  10   3   21.80    8.70
   4  10   3   26.20   11.50
   5  10   3   37.30   13.60
  -9  11   3    8.90    6.50
  -8  11   3   36.00   11.50
  -7  11   3    3.80   10.60
  -6  11   3   16.20   11.30
  -5  11   3  220.78   14.90
  -4  11   3  167.08   13.60
  -3  11   3  151.98   13.80
  -2  11   3   69.39   10.10
  -1  11   3    9.40    4.40
   0  11   3   55.49    6.50
   1  11   3  114.49    9.40
   2  11   3   45.50   10.40
   3  11   3   97.19   13.50
   4  11   3    8.80   11.00
  -8  12   3   34.70    7.30
  -7  12   3   70.09    7.60
  -6  12   3    7.90    5.70
  -5  12   3   55.99    5.90
  -4  12   3   10.80    4.60
  -3  12   3    4.50    4.40
  -2  12   3   69.39    7.50
  -1  12   3  121.59    7.20
   0  12   3    4.70    4.30
   1  12   3   50.99    5.50
   2  12   3    4.00    5.00
   3  12   3   27.80    6.10
  -7  13   3    0.00   11.80
  -6  13   3    7.50   10.20
  -5  13   3   39.10    9.80
  -4  13   3  150.88   14.50
  -3  13   3   10.30    9.80
  -2  13   3   13.50   10.20
  -1  13   3    0.00    9.20
   0  13   3    7.50    9.40
   1  13   3   20.80   10.90
   2  13   3   75.19    8.10
  -6  14   3  117.39   16.60
  -5  14   3    2.80   10.90
  -4  14   3    7.20   12.70
  -3  14   3    0.00   13.70
  -2  14   3   31.20   14.90
  -1  14   3    0.40   14.00
   0  14   3    0.00   14.90
   1 -17   4   19.60   12.00
   2 -17   4    0.00   10.50
   3 -17   4    0.00   10.50
   4 -17   4   43.80   11.90
  -1 -16   4   20.30    5.30
   0 -16   4   16.00    4.90
   1 -16   4   59.19    7.70
   2 -16   4   27.00    6.80
   3 -16   4   82.79    7.50
   4 -16   4  126.19   10.20
   5 -16   4    6.70    5.80
   6 -16   4    4.50    6.50
  -2 -15   4    3.30    5.20
  -1 -15   4  106.59    7.80
   0 -15   4    6.30    4.30
   1 -15   4  142.99    9.70
   2 -15   4   10.10    4.30
   3 -15   4    6.30    5.10
   4 -15   4   47.00    6.40
   5 -15   4   28.40    6.10
   6 -15   4   79.19    9.50
   7 -15   4   89.69   11.40
  -4 -14   4  125.69   29.10
  -3 -14   4    0.00    9.70
  -2 -14   4   80.09   13.70
  -1 -14   4   33.10    9.60
   0 -14   4   13.20    6.90
   1 -14   4   15.70    7.20
   2 -14   4  121.09   15.80
   3 -14   4    3.60    9.10
   4 -14   4  138.89   17.10
   5 -14   4   68.39   11.60
   6 -14   4    0.00   12.70
   7 -14   4   60.49   16.50
   8 -14   4   88.29   18.20
  -4 -13   4    6.00    7.80
  -3 -13   4   10.50    6.40
  -2 -13   4   15.90    5.70
  -1 -13   4  113.09    9.10
   0 -13   4  115.59    8.00
   1 -13   4   58.89    5.40
   2 -13   4   46.70    5.70
   3 -13   4    3.80    4.10
   4 -13   4    3.60    4.50
   5 -13   4  205.48   11.50
   6 -13   4   58.69    7.80
   7 -13   4   63.99    9.70
   8 -13   4   49.10    9.70
   9 -13   4    5.10    6.70
  -5 -12   4   21.90    6.40
  -4 -12   4    4.40    4.80
  -3 -12   4  320.17   14.00
  -2 -12   4   39.30    4.00
  -1 -12   4   80.39    5.00
   0 -12   4   11.40    2.70
   1 -12   4    5.00    2.50
   2 -12   4  441.66   17.30
   3 -12   4  278.77   12.60
   4 -12   4   34.10    4.10
   5 -12   4  173.28    9.50
   6 -12   4   47.60    7.40
   7 -12   4    8.60    4.90
   8 -12   4   25.70    4.50
   9 -12   4   12.10    7.70
  -6 -11   4   57.19   13.30
  -5 -11   4  176.88   22.60
  -4 -11   4   21.60    8.90
  -3 -11   4    2.10    4.60
  -2 -11   4   32.00    5.10
  -1 -11   4   10.10    4.20
   0 -11   4  545.15   20.20
   1 -11   4   93.79    5.00
   2 -11   4    1.70    2.70
   3 -11   4    5.10    4.10
   4 -11   4    5.30    4.70
   5 -11   4  128.09    8.60
   6 -11   4  258.67   14.20
   7 -11   4    3.10    4.10
   8 -11   4  100.79   10.10
   9 -11   4    8.90    7.60
  -7 -10   4   26.20   15.00
  -6 -10   4    9.20   13.10
  -5 -10   4   41.40    9.30
  -4 -10   4   23.90   12.00
  -3 -10   4  221.58   12.80
  -2 -10   4  287.17   15.60
  -1 -10   4    3.70    3.30
   0 -10   4  100.99    7.10
   1 -10   4  134.19    6.70
   2 -10   4   25.90    2.90
   3 -10   4  136.79    8.80
   4 -10   4  188.08    9.50
   5 -10   4   69.19    6.90
   6 -10   4    5.30    3.30
   7 -10   4    5.70    5.20
   8 -10   4  236.28   23.70
   9 -10   4   95.39   13.50
  10 -10   4   27.90   12.80
  -7  -9   4  142.39   11.20
  -6  -9   4    5.10    4.60
  -5  -9   4  290.27   14.70
  -4  -9   4   64.79    5.30
  -3  -9   4    8.40    3.20
  -2  -9   4  154.88    6.00
  -1  -9   4  101.89    4.50
   0  -9   4  273.87    8.80
   1  -9   4   61.59    2.90
   2  -9   4   17.10    2.00
   3  -9   4    1.80    1.60
   4  -9   4  118.59    4.80
   5  -9   4    7.80    2.30
   6  -9   4  497.65   18.40
   7  -9   4   96.19    6.80
   8  -9   4   75.29    6.80
   9  -9   4    9.60    5.40
  10  -9   4   10.00    6.30
  -8  -8   4   14.00    7.70
  -7  -8   4    6.00    6.00
  -6  -8   4    4.70    4.50
  -5  -8   4   66.49    5.40
  -4  -8   4  392.76   15.00
  -3  -8   4   10.00    2.30
  -2  -8   4  400.86   12.50
  -1  -8   4  353.16   11.10
   0  -8   4  120.59    4.50
   1  -8   4 1008.50   29.00
   2  -8   4    4.50    1.60
   3  -8   4   53.99    2.90
   4  -8   4  409.76   12.80
   5  -8   4    4.80    1.70
   6  -8   4  119.69    6.60
   7  -8   4   61.29    5.00
   8  -8   4    7.60    5.00
   9  -8   4  224.48   12.90
  10  -8   4   99.69   11.60
  -8  -7   4    0.00   37.90
  -7  -7   4  142.59   26.20
  -6  -7   4  186.48   26.30
  -5  -7   4    8.80    9.70
  -4  -7   4   48.20    7.50
  -3  -7   4   41.70    7.90
  -2  -7   4  218.98    9.10
  -1  -7   4  681.43   20.80
   0  -7   4   28.50    2.10
   1  -7   4 1103.49   33.30
   2  -7   4  612.04   20.30
   3  -7   4   64.99    4.40
   4  -7   4   44.00    4.40
   5  -7   4  116.19    7.10
   6  -7   4   15.90    3.90
   7  -7   4  203.78   15.10
   8  -7   4   53.99   13.70
   9  -7   4   29.60   20.80
  10  -7   4    9.30   23.70
  -9  -6   4   99.69    9.80
  -8  -6   4   11.50    8.10
  -7  -6   4   45.00    6.40
  -6  -6   4   34.40    5.10
  -5  -6   4   53.49    4.30
  -4  -6   4   10.30    2.20
  -3  -6   4    8.60    2.00
  -2  -6   4   43.20    2.60
  -1  -6   4  608.44   18.10
   0  -6   4   38.70    2.40
   1  -6   4  185.48    6.10
   2  -6   4  892.81   26.20
   3  -6   4  332.57   10.50
   4  -6   4  530.85   16.20
   5  -6   4  750.22   23.70
   6  -6   4   15.00    2.50
   7  -6   4   22.70    3.30
   8  -6   4   11.40    3.80
   9  -6   4    7.80    4.90
  10  -6   4  128.29   11.80
  -9  -5   4    6.40    6.60
  -8  -5   4    6.40    6.00
  -7  -5   4   19.50    4.70
  -6  -5   4  192.18    8.70
  -5  -5   4   95.69    4.80
  -4  -5   4  226.88    8.40
  -3  -5   4  135.99    5.20
  -2  -5   4   37.50    2.40
  -1  -5   4  242.88    8.10
   0  -5   4 1858.91   56.59
   1  -5   4  149.39    5.20
   2  -5   4 1546.65   44.90
   3  -5   4  287.87    9.10
   4  -5   4  187.08    6.30
   5  -5   4  422.46   13.20
   6  -5   4   50.99    3.30
   7  -5   4   88.59    5.00
   8  -5   4   47.80    4.40
   9  -5   4    2.40    4.20
  10  -5   4    4.80    5.20
  -9  -4   4   23.70   16.30
  -8  -4   4  185.48   16.70
  -7  -4   4   69.39    7.40
  -6  -4   4    5.50   10.90
  -5  -4   4   16.40   15.50
  -4  -4   4   92.89    6.90
  -3  -4   4  662.93   28.90
  -2  -4   4  183.98    8.30
  -1  -4   4  254.77   10.60
   0  -4   4  111.39    4.40
   1  -4   4    5.30    2.10
   2  -4   4  233.98   12.20
   3  -4   4  873.71   34.50
   4  -4   4   66.79    5.60
   5  -4   4   35.70    6.80
   6  -4   4   21.00    9.80
   7  -4   4    1.00    7.50
   8  -4   4   85.79   21.40
   9  -4   4   85.49   17.20
  10  -4   4   23.50   21.40
 -10  -3   4   55.99    8.90
  -9  -3   4    0.00   18.10
  -8  -3   4    0.00   10.40
  -7  -3   4    6.40    9.20
  -6  -3   4   58.89    8.10
  -5  -3   4  677.13   29.40
  -4  -3   4    0.00    6.50
  -3  -3   4  123.19   21.30
  -2  -3   4   91.49    5.70
  -1  -3   4  106.69    4.70
   0  -3   4  262.17    8.90
   1  -3   4  913.21   27.60
   2  -3   4    4.30    4.20
   3  -3   4   22.80    3.70
   4  -3   4   33.90   10.30
   5  -3   4  346.77   20.20
   6  -3   4  449.36   19.70
   7  -3   4   30.70   11.30
   8  -3   4   65.49   16.00
   9  -3   4   29.90   13.00
  10  -3   4    0.00  246.48
 -10  -2   4   42.20    6.90
  -9  -2   4    7.70    4.80
  -8  -2   4  169.88    7.80
  -7  -2   4   22.90    3.10
  -6  -2   4   11.60    2.40
  -5  -2   4  308.27    9.90
  -4  -2   4  596.74   17.40
  -3  -2   4  116.59    4.10
  -2  -2   4  768.02   24.10
  -1  -2   4  529.95   15.60
   0  -2   4    5.60    1.40
   1  -2   4  294.07    9.00
   2  -2   4    5.10    1.70
   3  -2   4 1055.69   32.30
   4  -2   4  528.85   16.10
   5  -2   4  111.59    4.40
   6  -2   4  192.68    7.00
   7  -2   4    8.10    3.30
   8  -2   4    5.40    3.50
   9  -2   4   39.40    5.30
  10  -2   4    9.80    7.50
 -10  -1   4   91.49    8.80
  -9  -1   4   14.90    4.60
  -8  -1   4    7.50    3.40
  -7  -1   4  211.68    8.50
  -6  -1   4  123.79    5.30
  -5  -1   4  392.86   12.90
  -4  -1   4  637.74   20.10
  -3  -1   4  182.28    6.60
  -2  -1   4   68.39    3.10
  -1  -1   4   94.99    3.80
   0  -1   4   78.09    3.20
   1  -1   4 1009.00   29.10
   2  -1   4   13.90    2.00
   3  -1   4  673.13   20.60
   4  -1   4   12.50    2.10
   5  -1   4   25.40    2.90
   6  -1   4  144.79    6.60
   7  -1   4  186.18    9.20
   8  -1   4   53.09    7.30
   9  -1   4   26.00    6.70
  10  -1   4   24.30    7.50
 -10   0   4  111.69   15.10
  -9   0   4  280.17   23.90
  -8   0   4    6.90    6.10
  -7   0   4  574.94   38.90
  -6   0   4  207.78   14.90
  -5   0   4   50.19    5.70
  -4   0   4   97.59    8.30
  -3   0   4  947.01   57.89
  -2   0   4  254.97   17.30
  -1   0   4  256.27   18.90
   0   0   4  576.74   37.10
   1   0   4   19.90    2.80
   2   0   4  637.64   39.70
   3   0   4    6.80    2.60
   4   0   4  439.56   28.10
   5   0   4   97.29    7.20
   6   0   4   95.69    9.70
   7   0   4    9.20    6.20
   8   0   4   15.70    6.80
   9   0   4   35.30   12.40
 -10   1   4   31.40    7.20
  -9   1   4   11.10    4.40
  -8   1   4   48.50    4.40
  -7   1   4  107.09    5.10
  -6   1   4  277.97    9.60
  -5   1   4   22.00    2.20
  -4   1   4  356.16   12.70
  -3   1   4  400.96   12.80
  -2   1   4   19.00    1.80
  -1   1   4  398.26   12.70
   0   1   4  328.77   10.50
   1   1   4  365.06   11.50
   2   1   4 1273.47   38.50
   3   1   4   77.69    3.80
   4   1   4   96.89    4.70
   5   1   4  123.69    5.30
   6   1   4   57.49    5.20
   7   1   4  430.06   19.90
   8   1   4  111.29    8.00
   9   1   4    4.90    7.00
 -10   2   4   16.30    5.10
  -9   2   4   34.20    4.40
  -8   2   4  101.89    5.50
  -7   2   4    3.00    2.50
  -6   2   4   25.60    2.40
  -5   2   4    6.20    1.70
  -4   2   4  228.98    7.30
  -3   2   4 1350.56   41.00
  -2   2   4  270.77    9.30
  -1   2   4 1441.36   44.40
   0   2   4  345.97   10.60
   1   2   4  568.44   17.00
   2   2   4   11.90    2.00
   3   2   4  112.69    5.40
   4   2   4   11.40    2.30
   5   2   4  203.38    8.10
   6   2   4   24.50    4.20
   7   2   4    6.90    5.30
   8   2   4   74.29    7.40
   9   2   4   33.00    7.90
 -10   3   4   30.90   13.10
  -9   3   4   96.89   16.80
  -8   3   4   10.90    8.10
  -7   3   4   61.89   17.90
  -6   3   4   35.60    5.80
  -5   3   4  289.67   14.00
  -4   3   4    0.00    5.30
  -3   3   4  483.35   24.00
  -2   3   4   10.70    8.60
  -1   3   4  292.07   16.80
   0   3   4 1414.46   46.40
   1   3   4   21.70    3.80
   2   3   4   40.90    5.30
   3   3   4  210.98   10.90
   4   3   4    0.00   21.30
   5   3   4    0.00   11.10
   6   3   4   54.39   15.50
   7   3   4   35.00   21.20
   8   3   4  159.08   31.50
 -10   4   4   14.30   16.40
  -9   4   4    0.00   19.10
  -8   4   4  391.16   23.00
  -7   4   4  132.59   29.50
  -6   4   4  416.46   23.30
  -5   4   4    6.20    4.00
  -4   4   4   52.39    4.80
  -3   4   4  377.06   16.10
  -2   4   4  551.64   18.00
  -1   4   4  288.57   10.30
   0   4   4    2.60    3.60
   1   4   4   65.99    9.90
   2   4   4    9.70    4.90
   3   4   4  943.61   48.40
   4   4   4  321.47   16.80
   5   4   4  349.07   24.50
   6   4   4   40.30   13.20
   7   4   4    8.90   11.60
   8   4   4   23.90   19.30
 -10   5   4  120.79    8.20
  -9   5   4   10.80    4.30
  -8   5   4    5.40    3.70
  -7   5   4    3.90    3.10
  -6   5   4    9.40    2.60
  -5   5   4  447.26   14.40
  -4   5   4  134.99    5.20
  -3   5   4  314.97   10.30
  -2   5   4    5.60    1.70
  -1   5   4  105.99    4.30
   0   5   4  133.49    5.10
   1   5   4  747.23   23.20
   2   5   4   19.80    2.70
   3   5   4   74.89    4.20
   4   5   4   14.90    4.10
   5   5   4    1.90    3.50
   6   5   4   53.99    6.50
   7   5   4   22.80    5.90
   8   5   4   40.90    8.10
 -10   6   4   81.09   10.70
  -9   6   4   69.89    8.10
  -8   6   4   44.90    5.90
  -7   6   4  266.27   15.00
  -6   6   4  293.17   14.00
  -5   6   4    1.70    2.20
  -4   6   4    4.70    2.10
  -3   6   4   14.20    2.10
  -2   6   4  479.45   15.50
  -1   6   4  339.97   11.30
   0   6   4  167.48    6.10
   1   6   4   14.40    2.30
   2   6   4   99.09    4.70
   3   6   4   62.89    5.20
   4   6   4  233.08   10.90
   5   6   4   28.70    6.30
   6   6   4   23.20    8.30
   7   6   4   37.20   11.00
 -10   7   4   85.99   30.80
  -9   7   4   25.10   22.50
  -8   7   4   16.60   15.10
  -7   7   4   11.50   14.60
  -6   7   4  296.57   17.70
  -5   7   4   30.30    4.10
  -4   7   4  251.17   10.30
  -3   7   4   12.40    2.30
  -2   7   4   12.80    2.50
  -1   7   4    3.50    2.70
   0   7   4    3.80    3.00
   1   7   4   55.29    5.30
   2   7   4  115.29    9.50
   3   7   4   11.40    6.60
   4   7   4    7.00    9.30
   5   7   4   15.60   15.90
   6   7   4   13.40   17.60
 -10   8   4    4.70    5.80
  -9   8   4   63.79    6.60
  -8   8   4    4.00    4.30
  -7   8   4   19.90    3.70
  -6   8   4   12.20    3.40
  -5   8   4    9.20    2.60
  -4   8   4  116.09    5.40
  -3   8   4  290.47   10.40
  -2   8   4   14.00    2.40
  -1   8   4  789.02   25.50
   0   8   4  248.28    9.50
   1   8   4   22.90    3.60
   2   8   4    7.90    3.60
   3   8   4   18.20    6.20
   4   8   4   48.50    6.90
   5   8   4   82.49    9.00
   6   8   4    9.90    7.70
  -9   9   4   39.70    5.40
  -8   9   4   24.40    4.40
  -7   9   4   10.70    3.60
  -6   9   4  164.88   10.20
  -5   9   4   90.09    6.10
  -4   9   4   87.59    5.40
  -3   9   4  164.48    7.70
  -2   9   4    4.60    3.10
  -1   9   4   25.20    3.60
   0   9   4  102.59    6.10
   1   9   4   34.40    4.20
   2   9   4  294.67   16.60
   3   9   4   29.00    5.60
   4   9   4    9.60    6.20
   5   9   4   21.20    7.60
  -9  10   4   69.69   14.70
  -8  10   4  188.58   23.90
  -7  10   4    5.30   12.10
  -6  10   4  345.47   33.10
  -5  10   4    9.60    8.70
  -4  10   4    9.60    6.10
  -3  10   4   39.80    6.70
  -2  10   4   64.29    6.00
  -1  10   4   12.80    5.20
   0  10   4   81.89    8.90
   1  10   4   18.50    7.00
   2  10   4   12.10    8.70
   3  10   4   55.99   10.60
   4  10   4   20.10   12.30
  -8  11   4    5.40    9.20
  -7  11   4   70.89   12.70
  -6  11   4   11.00    8.20
  -5  11   4  244.18   19.40
  -4  11   4   26.60    7.70
  -3  11   4    4.40    8.00
  -2  11   4   37.80    5.50
  -1  11   4    6.40    4.70
   0  11   4   34.00    6.20
   1  11   4  147.39   11.20
   2  11   4   28.40   11.40
   3  11   4   76.49   18.70
  -7  12   4  119.09    9.90
  -6  12   4   12.30    5.70
  -5  12   4    9.00    4.90
  -4  12   4   12.90    5.00
  -3  12   4   19.50    5.10
  -2  12   4  223.88   13.30
  -1  12   4    9.40    4.10
   0  12   4  104.89    7.10
   1  12   4   31.50    5.90
   2  12   4    1.20    5.30
  -6  13   4   10.90   14.40
  -5  13   4   35.20   12.80
  -4  13   4  135.59   14.40
  -3  13   4   21.50   11.10
  -2  13   4   23.80   10.60
  -1  13   4    5.90    8.70
   0  13   4    1.70    9.50
   1  13   4  135.19   14.90
  -4  14   4   17.20   13.50
  -3  14   4   28.50   13.60
  -2  14   4    8.70   15.20
  -1  14   4   50.99   22.50
   1 -17   5   55.69   16.40
   2 -17   5    0.00   10.70
   3 -17   5   21.30   12.80
   4 -17   5    0.00   12.60
   5 -17   5   39.20   13.10
  -1 -16   5    2.50    5.50
   0 -16   5   28.70    5.10
   1 -16   5   25.70    4.40
   2 -16   5   19.80    6.10
   3 -16   5   57.19    6.60
   4 -16   5    5.90    4.50
   5 -16   5    8.60    4.50
   6 -16   5   13.60    6.60
  -3 -15   5    6.90    7.20
  -2 -15   5  168.28   11.70
  -1 -15   5   42.00    5.10
   0 -15   5   18.70    4.40
   1 -15   5   31.30    4.70
   2 -15   5   24.90    4.50
   3 -15   5    7.30    4.00
   4 -15   5   49.30    5.30
   5 -15   5    6.60    5.40
   6 -15   5   66.19    7.90
   7 -15   5   11.60    8.10
  -4 -14   5   16.30   16.80
  -3 -14   5    5.70   10.60
  -2 -14   5    0.00   10.00
  -1 -14   5    7.80    6.90
   0 -14   5    2.00    7.40
   1 -14   5  201.98   17.40
   2 -14   5  191.88   14.00
   3 -14   5    1.10   17.40
   4 -14   5  201.78   26.30
   5 -14   5   17.90   10.10
   6 -14   5    0.10   12.80
   7 -14   5   80.79   16.10
   8 -14   5    0.00   14.30
  -5 -13   5    7.80    6.40
  -4 -13   5    6.60    6.90
  -3 -13   5   10.60    4.30
  -2 -13   5   37.30    6.00
  -1 -13   5  181.48   13.50
   0 -13   5   78.39    7.20
   1 -13   5   27.40    4.40
   2 -13   5   87.29    7.00
   3 -13   5   17.50    4.60
   4 -13   5  104.79    7.20
   5 -13   5   76.39    7.80
   6 -13   5   11.30    5.80
   7 -13   5   47.40    8.40
   8 -13   5   12.80    5.80
   9 -13   5    3.70    6.70
  -5 -12   5    6.30    5.70
  -4 -12   5   86.79    7.90
  -3 -12   5  173.08    9.80
  -2 -12   5    7.10    3.40
  -1 -12   5   40.10    3.50
   0 -12   5    4.20    2.50
   1 -12   5   55.69    3.80
   2 -12   5  184.68    7.20
   3 -12   5   26.90    3.30
   4 -12   5   12.90    3.40
   5 -12   5    6.10    3.50
   6 -12   5   10.00    3.20
   7 -12   5   31.10    4.50
   8 -12   5  126.09    9.00
   9 -12   5    8.10    5.80
  -6 -11   5   37.10   10.30
  -5 -11   5   27.70    9.10
  -4 -11   5    3.50    6.70
  -3 -11   5   25.60    7.00
  -2 -11   5   46.10    7.10
  -1 -11   5   68.09    4.90
   0 -11   5  291.47   11.20
   1 -11   5   26.30    2.90
   2 -11   5    2.10    2.10
   3 -11   5   65.29    4.80
   4 -11   5    0.50    2.50
   5 -11   5  184.18   10.70
   6 -11   5  269.27   16.20
   7 -11   5   10.50    5.50
   8 -11   5    4.20    6.30
   9 -11   5   41.40    8.60
  -7 -10   5    9.80   13.60
  -6 -10   5   10.90   10.90
  -5 -10   5  134.79   17.50
  -4 -10   5   44.30    7.80
  -3 -10   5  223.48   14.60
  -2 -10   5   92.59    7.30
  -1 -10   5   56.09    5.00
   0 -10   5   58.89    4.40
   1 -10   5    0.90    2.20
   2 -10   5  291.57   12.20
   3 -10   5  514.55   19.10
   4 -10   5    5.70    3.00
   5 -10   5  124.09   11.50
   6 -10   5   94.39   10.40
   7 -10   5    2.00    6.20
   8 -10   5   78.69   12.00
   9 -10   5   46.00   13.90
  10 -10   5    0.00   10.60
  -7  -9   5  159.38   11.50
  -6  -9   5    4.50    4.80
  -5  -9   5  332.97   15.50
  -4  -9   5   32.00    3.60
  -3  -9   5    7.00    2.80
  -2  -9   5  175.48    6.60
  -1  -9   5   42.70    2.80
   0  -9   5  678.53   19.60
   1  -9   5  596.44   17.80
   2  -9   5   97.29    4.00
   3  -9   5   24.40    2.30
   4  -9   5   23.00    2.40
   5  -9   5  100.29    4.70
   6  -9   5  412.66   16.00
   7  -9   5   40.00    4.50
   8  -9   5   71.99    6.10
   9  -9   5    5.20    5.60
  10  -9   5    7.30    7.30
  -8  -8   5   45.30   11.00
  -7  -8   5   46.70    7.00
  -6  -8   5    6.70    4.40
  -5  -8   5  128.99    6.70
  -4  -8   5  121.49    6.30
  -3  -8   5   87.69    4.30
  -2  -8   5   38.60    2.40
  -1  -8   5  220.28    7.90
   0  -8   5  557.84   17.80
   1  -8   5  198.98    7.00
   2  -8   5 2895.61   85.69
   3  -8   5  294.17    9.80
   4  -8   5  361.16   12.10
   5  -8   5    3.50    2.10
   6  -8   5   44.70    3.40
   7  -8   5   80.59    4.90
   8  -8   5   33.10    4.90
   9  -8   5  214.08   14.30
  10  -8   5   28.60    8.20
  -8  -7   5   43.10   23.90
  -7  -7   5   84.29   15.40
  -6  -7   5  183.78   21.90
  -5  -7   5   34.00   10.70
  -4  -7   5   45.80    9.30
  -3  -7   5    3.20    4.60
  -2  -7   5  211.18    9.90
  -1  -7   5  426.46   15.00
   0  -7   5   65.99    3.40
   1  -7   5 1653.73   52.09
   2  -7   5   83.19    4.50
   3  -7   5   11.10    2.50
   4  -7   5  138.19    6.40
   5  -7   5  121.29    7.60
   6  -7   5   89.29    7.90
   7  -7   5  444.16   24.40
   8  -7   5   17.00    6.90
   9  -7   5   27.60    8.80
  10  -7   5    0.00   23.00
  -9  -6   5   84.29    9.20
  -8  -6   5    6.50    7.40
  -7  -6   5   50.19    7.00
  -6  -6   5   59.69    5.30
  -5  -6   5   30.50    3.70
  -4  -6   5  823.02   27.10
  -3  -6   5  863.21   26.40
  -2  -6   5  175.08    6.30
  -1  -6   5  513.55   16.40
   0  -6   5   48.70    2.80
   1  -6   5  437.56   13.20
   2  -6   5  870.31   26.30
   3  -6   5   25.90    2.20
   4  -6   5  207.38    7.10
   5  -6   5   28.50    2.50
   6  -6   5   19.90    2.80
   7  -6   5   10.30    3.10
   8  -6   5   85.39    6.20
   9  -6   5   11.70    4.70
  10  -6   5   75.59   13.00
  -9  -5   5    7.60    6.40
  -8  -5   5    6.70    5.10
  -7  -5   5   77.39    6.40
  -6  -5   5  231.08   10.50
  -5  -5   5   14.20    2.60
  -4  -5   5  137.59    5.70
  -3  -5   5    3.90    1.80
  -2  -5   5    6.30    1.60
  -1  -5   5  706.03   21.60
   0  -5   5 1002.50   30.00
   1  -5   5  108.49    4.20
   2  -5   5  587.74   17.50
   3  -5   5   14.40    1.90
   4  -5   5   54.99    3.00
   5  -5   5  309.67   10.30
   6  -5   5   18.30    2.50
   7  -5   5  148.59    7.30
   8  -5   5    2.90    3.50
   9  -5   5    4.50    4.00
  10  -5   5   34.30    6.40
  -9  -4   5  106.89   18.10
  -8  -4   5   72.79   10.60
  -7  -4   5    3.70    7.30
  -6  -4   5   14.80    8.30
  -5  -4   5   42.60    7.00
  -4  -4   5   37.60    6.00
  -3  -4   5  856.91   32.90
  -2  -4   5  133.29    7.80
  -1  -4   5   34.70    2.50
   0  -4   5  381.46   12.80
   1  -4   5   89.69    4.50
   2  -4   5  812.22   34.70
   3  -4   5  763.42   28.60
   4  -4   5   64.59    5.30
   5  -4   5  282.97   23.10
   6  -4   5   48.70    9.90
   7  -4   5   22.00   12.30
   8  -4   5   95.79   20.70
   9  -4   5    0.00   10.50
  10  -4   5   22.70   23.40
 -10  -3   5   12.30    7.80
  -9  -3   5    0.00   12.80
  -8  -3   5    9.00   13.00
  -7  -3   5    1.90    9.00
  -6  -3   5  347.57   16.30
  -5  -3   5  554.54   23.70
  -4  -3   5   67.09   13.50
  -3  -3   5    7.10   17.60
  -2  -3   5  313.27   19.10
  -1  -3   5   32.80    3.20
   0  -3   5  498.95   16.00
   1  -3   5  453.65   20.50
   2  -3   5   58.09    7.70
   3  -3   5    3.60    3.20
   4  -3   5    0.00   58.49
   5  -3   5  837.22   40.50
   6  -3   5  560.34   23.80
   7  -3   5   81.99   12.30
   8  -3   5   94.99   18.60
   9  -3   5    0.00   19.00
  10  -3   5    0.40   28.70
 -10  -2   5  160.68   10.30
  -9  -2   5   18.50    4.50
  -8  -2   5  270.47   11.40
  -7  -2   5  138.29    6.10
  -6  -2   5   54.09    3.40
  -5  -2   5  404.26   12.40
  -4  -2   5   20.60    1.90
  -3  -2   5  847.02   25.30
  -2  -2   5  642.04   20.20
  -1  -2   5    2.50    1.10
   0  -2   5    3.60    1.40
   1  -2   5  205.18    6.70
   2  -2   5   55.89    2.90
   3  -2   5  969.80   29.90
   4  -2   5  211.38    8.10
   5  -2   5    6.90    1.80
   6  -2   5    6.80    2.30
   7  -2   5   18.40    3.10
   8  -2   5  121.19    6.90
   9  -2   5  167.78    9.70
  10  -2   5   14.20    6.60
 -10  -1   5   52.89    8.80
  -9  -1   5   23.20    5.60
  -8  -1   5   28.60    4.00
  -7  -1   5  297.77   11.00
  -6  -1   5    8.00    2.30
  -5  -1   5  407.36   13.10
  -4  -1   5  112.89    4.80
  -3  -1   5   42.70    2.30
  -2  -1   5  134.09    5.10
  -1  -1   5   24.70    1.80
   0  -1   5  477.85   15.00
   1  -1   5  409.06   12.80
   2  -1   5   90.59    4.20
   3  -1   5  191.18    7.20
   4  -1   5    3.70    2.20
   5  -1   5    5.10    2.30
   6  -1   5  231.38   11.00
   7  -1   5  154.18    9.00
   8  -1   5    7.40    4.80
   9  -1   5   27.20    6.80
 -10   0   5   43.10   10.10
  -9   0   5   23.50    7.20
  -8   0   5   35.40    6.20
  -7   0   5    6.50    4.90
  -6   0   5   39.80    4.70
  -5   0   5    4.70    3.80
  -4   0   5  439.96   27.40
  -3   0   5  735.33   56.09
  -2   0   5 1690.53  117.49
  -1   0   5  323.47   22.30
   0   0   5    5.00    3.00
   1   0   5  569.24   38.40
   2   0   5  236.28   14.60
   3   0   5  514.45   32.70
   4   0   5  564.84   36.20
   5   0   5  266.47   17.20
   6   0   5  281.27   19.50
   7   0   5   30.00    7.70
   8   0   5    3.30    7.60
   9   0   5   60.79   13.80
 -10   1   5    8.20    6.30
  -9   1   5    6.20    4.50
  -8   1   5   15.60    4.00
  -7   1   5  139.69    6.30
  -6   1   5  266.97    9.60
  -5   1   5   26.90    2.30
  -4   1   5  144.29    5.70
  -3   1   5  476.45   16.30
  -2   1   5    4.70    1.90
  -1   1   5 1270.57   40.50
   0   1   5   42.10    2.60
   1   1   5  414.46   13.40
   2   1   5  565.54   18.40
   3   1   5   10.60    2.30
   4   1   5   39.10    3.10
   5   1   5   61.49    4.40
   6   1   5    5.20    4.00
   7   1   5  176.98   12.40
   8   1   5   24.10    6.50
   9   1   5   21.00    9.40
 -10   2   5   21.20    5.30
  -9   2   5  307.27   13.80
  -8   2   5   79.79    5.00
  -7   2   5  153.48    6.70
  -6   2   5  137.39    5.60
  -5   2   5    7.10    2.00
  -4   2   5  195.28    7.20
  -3   2   5 1434.86   43.80
  -2   2   5  387.36   13.40
  -1   2   5 1548.45   45.50
   0   2   5   11.60    1.80
   1   2   5   76.79    3.40
   2   2   5  730.73   23.10
   3   2   5  130.69    5.40
   4   2   5    4.80    2.30
   5   2   5  212.38    9.50
   6   2   5    3.50    3.70
   7   2   5   30.00    5.10
   8   2   5   38.40    6.20
   9   2   5   32.50   16.70
 -10   3   5   15.50   15.50
  -9   3   5   17.40   11.80
  -8   3   5   17.50    9.10
  -7   3   5  151.18   20.30
  -6   3   5  746.93   33.10
  -5   3   5    8.60    6.30
  -4   3   5  104.29   14.90
  -3   3   5   97.09   10.10
  -2   3   5  292.07   44.50
  -1   3   5  229.08   18.20
   0   3   5 1298.27   42.90
   1   3   5  251.57   12.90
   2   3   5  254.47   12.10
   3   3   5    0.00   18.60
   4   3   5    0.00   14.40
   5   3   5  386.66   21.80
   6   3   5    0.00   13.80
   7   3   5  200.58   24.40
   8   3   5   15.90   29.10
 -10   4   5   89.29   24.30
  -9   4   5   21.10   15.40
  -8   4   5  295.67   22.10
  -7   4   5   10.50   12.10
  -6   4   5   28.20    7.60
  -5   4   5   45.10    6.20
  -4   4   5   39.30    4.30
  -3   4   5  516.35   20.20
  -2   4   5  794.02   31.10
  -1   4   5    7.00    4.90
   0   4   5  448.96   34.20
   1   4   5   25.90    5.40
   2   4   5   74.99    6.00
   3   4   5  141.39   10.90
   4   4   5   26.90    8.80
   5   4   5  115.49   12.40
   6   4   5   35.40   17.20
   7   4   5    5.60   13.60
   8   4   5    6.50   27.60
 -10   5   5  116.49    9.60
  -9   5   5   10.10    5.50
  -8   5   5   20.40    4.30
  -7   5   5  311.67   12.70
  -6   5   5  238.38   10.50
  -5   5   5  504.35   17.40
  -4   5   5   84.79    4.20
  -3   5   5   26.80    2.10
  -2   5   5    8.10    2.00
  -1   5   5   14.30    2.20
   0   5   5  486.05   15.70
   1   5   5  105.59    5.00
   2   5   5   33.60    3.30
   3   5   5   12.80    3.30
   4   5   5    7.50    3.80
   5   5   5    3.60    4.40
   6   5   5   49.40    6.30
   7   5   5   31.50    6.80
 -10   6   5   53.29   11.10
  -9   6   5    9.90    7.30
  -8   6   5  154.98   11.80
  -7   6   5  151.08   11.10
  -6   6   5   13.10    4.10
  -5   6   5    2.80    3.30
  -4   6   5   62.79    3.70
  -3   6   5    7.70    2.10
  -2   6   5   91.79    4.90
  -1   6   5   23.00    2.40
   0   6   5    2.70    2.30
   1   6   5  101.59    4.70
   2   6   5    7.50    2.90
   3   6   5  453.75   18.90
   4   6   5  358.26   16.40
   5   6   5    5.50    5.70
   6   6   5   59.49    9.60
   7   6   5   18.00   11.60
 -10   7   5   31.00   11.50
  -9   7   5    7.00   13.20
  -8   7   5   22.60   25.60
  -7   7   5   96.59   23.50
  -6   7   5   18.60    8.30
  -5   7   5  110.79   10.00
  -4   7   5  168.48    8.70
  -3   7   5   58.49    4.40
  -2   7   5    3.10    2.60
  -1   7   5  105.49    5.70
   0   7   5   13.00    3.20
   1   7   5  522.25   19.70
   2   7   5   17.30    5.50
   3   7   5   10.80    8.40
   4   7   5   24.70   16.80
   5   7   5   18.80   15.10
   6   7   5   45.60   45.70
  -9   8   5  132.79   11.10
  -8   8   5   30.40    6.40
  -7   8   5  129.39    9.90
  -6   8   5   69.09    5.40
  -5   8   5    8.90    2.50
  -4   8   5  237.98    9.50
  -3   8   5    3.40    2.50
  -2   8   5  274.07   10.60
  -1   8   5  165.18    8.00
   0   8   5    3.10    3.40
   1   8   5   12.40    4.70
   2   8   5   57.29    5.40
   3   8   5    4.10    4.70
   4   8   5   81.49    9.10
   5   8   5   22.70    7.40
  -9   9   5   11.90    6.10
  -8   9   5    4.90    4.50
  -7   9   5   63.79    6.30
  -6   9   5  172.58    9.10
  -5   9   5    9.70    3.50
  -4   9   5  110.19    6.30
  -3   9   5   16.90    2.90
  -2   9   5   20.20    3.40
  -1   9   5   63.89    5.10
   0   9   5  130.09    7.30
   1   9   5    5.10    3.90
   2   9   5  247.48   12.70
   3   9   5    8.30    5.80
   4   9   5    3.90    6.40
   5   9   5   20.80    8.50
  -8  10   5   38.30   14.10
  -7  10   5   29.10   18.60
  -6  10   5   29.30   11.10
  -5  10   5   10.90    8.00
  -4  10   5   42.80    8.50
  -3  10   5  179.48   13.20
  -2  10   5   30.60    5.60
  -1  10   5   39.00    6.40
   0  10   5  164.48   13.40
   1  10   5   19.30    9.10
   2  10   5   11.40    9.70
   3  10   5   20.70   12.80
   4  10   5    0.20   13.60
  -8  11   5   18.30   10.70
  -7  11   5   23.50   11.60
  -6  11   5    8.90    6.30
  -5  11   5  135.59   13.40
  -4  11   5   77.09   10.20
  -3  11   5  163.98   15.50
  -2  11   5    9.20    5.10
  -1  11   5   27.30    5.80
   0  11   5  135.09   12.10
   1  11   5   11.40   12.40
   2  11   5   44.30   14.70
   3  11   5   41.90   10.30
  -7  12   5   40.50    8.40
  -6  12   5   16.50    5.10
  -5  12   5   13.00    5.10
  -4  12   5   14.60    5.00
  -3  12   5   14.90    5.20
  -2  12   5   90.29    6.30
  -1  12   5    8.70    4.40
   0  12   5    8.80    4.90
   1  12   5   11.20    6.10
  -5  13   5   42.80   14.00
  -4  13   5   75.29   12.40
  -3  13   5    0.00   11.00
  -2  13   5   17.00   10.80
  -1  13   5   16.80   11.70
   0  13   5   55.79   10.10
   0 -17   6   56.19    7.90
   1 -17   6    0.00    9.20
   2 -17   6    7.00   14.50
   3 -17   6   38.70   15.40
   4 -17   6   13.70   11.70
   5 -17   6   96.09   13.50
  -1 -16   6    5.60    6.60
   0 -16   6   10.60    4.30
   1 -16   6   60.79    5.40
   2 -16   6    3.20    4.20
   3 -16   6   53.59    5.90
   4 -16   6    3.80    4.30
   5 -16   6    3.90    5.60
   6 -16   6   38.70    6.90
  -3 -15   6   11.70    6.40
  -2 -15   6   67.79    9.30
  -1 -15   6   28.70    5.60
   0 -15   6   51.89    4.80
   1 -15   6   11.20    3.70
   2 -15   6    6.60    2.70
   3 -15   6   38.80    5.40
   4 -15   6   90.99    7.00
   5 -15   6    5.20    5.10
   6 -15   6  105.89    8.60
   7 -15   6   17.00    9.50
  -4 -14   6   35.00   19.50
  -3 -14   6    0.00   14.70
  -2 -14   6    0.00    8.20
  -1 -14   6   21.70    7.80
   0 -14   6    0.00    7.80
   1 -14   6  191.08   18.80
   2 -14   6   89.29   11.80
   3 -14   6  122.49   13.70
   4 -14   6   36.60    8.40
   5 -14   6   35.40    9.10
   6 -14   6   21.60   12.70
   7 -14   6   62.89   19.00
   8 -14   6   47.60   17.20
  -5 -13   6    3.30    7.20
  -4 -13   6    3.00    6.40
  -3 -13   6    9.10    5.20
  -2 -13   6  131.29   10.50
  -1 -13   6  257.17   14.80
   0 -13   6   16.20    3.80
   1 -13   6   10.10    2.80
   2 -13   6   22.00    3.20
   3 -13   6    9.80    2.70
   4 -13   6  231.88   12.10
   5 -13   6   77.39    7.90
   6 -13   6   36.10    8.40
   7 -13   6    9.50    5.40
   8 -13   6   13.00    6.10
   9 -13   6   29.40    9.90
  -6 -12   6   23.80   10.20
  -5 -12   6    5.80    5.20
  -4 -12   6   73.89    6.60
  -3 -12   6    6.80    4.20
  -2 -12   6    7.80    2.70
  -1 -12   6   23.40    3.40
   0 -12   6  280.97   11.40
   1 -12   6  356.66   12.10
   2 -12   6  413.36   14.60
   3 -12   6  229.38    8.50
   4 -12   6   57.89    4.10
   5 -12   6   56.49    4.50
   6 -12   6    2.90    3.60
   7 -12   6   71.89    6.20
   8 -12   6    5.40    4.70
   9 -12   6   56.49    7.50
  -6 -11   6  100.29   13.80
  -5 -11   6   11.10    7.70
  -4 -11   6   11.70    6.60
  -3 -11   6   15.10    6.00
  -2 -11   6   11.50    3.20
  -1 -11   6  231.18   11.60
   0 -11   6  183.38    8.70
   1 -11   6   22.80    2.80
   2 -11   6    8.00    2.60
   3 -11   6   75.59    5.90
   4 -11   6  188.58    8.60
   5 -11   6  388.36   18.40
   6 -11   6    5.70    4.60
   7 -11   6   60.79   11.70
   8 -11   6   13.40    8.20
   9 -11   6   13.30    7.80
  -7 -10   6    7.80   11.20
  -6 -10   6   90.49   17.50
  -5 -10   6  235.88   23.30
  -4 -10   6   45.60    8.80
  -3 -10   6  266.57   16.10
  -2 -10   6  127.59    9.20
  -1 -10   6   49.60    5.10
   0 -10   6   45.10    5.10
   1 -10   6    4.70    2.20
   2 -10   6   54.79    4.00
   3 -10   6  282.67   12.40
   4 -10   6    2.50    2.90
   5 -10   6   10.70    5.10
   6 -10   6  199.88   12.30
   7 -10   6    3.80    6.60
   8 -10   6  362.76   30.00
   9 -10   6   78.49   15.10
  -7  -9   6   45.50    7.90
  -6  -9   6   16.30    5.20
  -5  -9   6   60.69    5.20
  -4  -9   6    7.10    3.30
  -3  -9   6   36.90    3.50
  -2  -9   6  262.87    9.90
  -1  -9   6    7.60    2.00
   0  -9   6  389.96   13.50
   1  -9   6   73.69    3.80
   2  -9   6  108.99    4.90
   3  -9   6  232.58    8.80
   4  -9   6   47.40    3.30
   5  -9   6  262.37    9.50
   6  -9   6  243.98   10.00
   7  -9   6   66.89    5.00
   8  -9   6    6.00    4.10
   9  -9   6    5.70    5.20
  10  -9   6   18.10    6.60
  -8  -8   6   23.30    8.60
  -7  -8   6    8.20    5.50
  -6  -8   6   12.20    4.80
  -5  -8   6   84.89    5.50
  -4  -8   6  282.77   11.90
  -3  -8   6   14.40    2.70
  -2  -8   6  248.28   10.30
  -1  -8   6   59.99    3.30
   0  -8   6  345.37   12.40
   1  -8   6  241.38    7.80
   2  -8   6  522.35   15.80
   3  -8   6  658.93   19.80
   4  -8   6   39.20    3.00
   5  -8   6    6.70    2.30
   6  -8   6    6.70    3.00
   7  -8   6   28.30    4.40
   8  -8   6   19.30    4.60
   9  -8   6  102.59    8.40
  10  -8   6   14.40    6.60
  -8  -7   6   61.89   16.40
  -7  -7   6   29.20   15.90
  -6  -7   6   30.40   13.80
  -5  -7   6   15.00    8.30
  -4  -7   6    9.00    5.80
  -3  -7   6   49.30    5.40
  -2  -7   6  582.44   21.30
  -1  -7   6  379.06   16.60
   0  -7   6  121.89    5.60
   1  -7   6 1201.98   36.60
   2  -7   6  220.28    9.10
   3  -7   6    2.20    2.40
   4  -7   6   26.30    4.10
   5  -7   6    6.60    4.20
   6  -7   6  111.19    8.90
   7  -7   6   49.30    9.10
   8  -7   6   10.80    9.00
   9  -7   6    3.30   10.60
  10  -7   6   44.70   22.30
  -9  -6   6  124.69   10.20
  -8  -6   6   11.90    6.70
  -7  -6   6   15.90    5.70
  -6  -6   6  114.29    7.00
  -5  -6   6   85.89    5.40
  -4  -6   6  200.58    8.40
  -3  -6   6    5.00    2.00
  -2  -6   6  117.49    5.10
  -1  -6   6   42.60    2.60
   0  -6   6  194.78    6.90
   1  -6   6  396.26   11.90
   2  -6   6 1158.58   34.70
   3  -6   6    2.70    1.70
   4  -6   6   62.49    3.30
   5  -6   6   13.90    2.20
   6  -6   6   26.60    3.10
   7  -6   6  132.29    7.60
   8  -6   6   43.00    4.70
   9  -6   6   48.70    6.10
  10  -6   6   57.99    9.10
  -9  -5   6   33.30    6.70
  -8  -5   6    8.70    5.40
  -7  -5   6  134.09    7.70
  -6  -5   6  198.78    8.30
  -5  -5   6    5.60    2.60
  -4  -5   6   23.70    2.50
  -3  -5   6   20.40    2.40
  -2  -5   6   17.60    1.80
  -1  -5   6  870.71   26.30
   0  -5   6  327.47   10.40
   1  -5   6  104.09    4.20
   2  -5   6  110.99    4.40
   3  -5   6   14.30    2.00
   4  -5   6  123.19    4.80
   5  -5   6  491.25   15.30
   6  -5   6   16.60    2.70
   7  -5   6  307.47   12.90
   8  -5   6   76.19    5.60
   9  -5   6    6.30    4.20
  10  -5   6   45.70    6.60
  -9  -4   6    5.00   20.90
  -8  -4   6   11.90   10.90
  -7  -4   6    0.10    8.30
  -6  -4   6   89.49   21.00
  -5  -4   6  302.47   15.20
  -4  -4   6  784.72   36.60
  -3  -4   6 2535.85   90.39
  -2  -4   6    9.20    2.50
  -1  -4   6    5.00    2.40
   0  -4   6    0.90    2.70
   1  -4   6  468.95   16.90
   2  -4   6  511.15   24.20
   3  -4   6  301.07   12.40
   4  -4   6  100.89    7.30
   5  -4   6  212.28   19.20
   6  -4   6   50.59    9.50
   7  -4   6   42.70   10.80
   8  -4   6   75.19   13.40
   9  -4   6    0.00   13.00
  10  -4   6   80.69   21.40
  -9  -3   6   12.70   15.00
  -8  -3   6   89.89   13.40
  -7  -3   6    4.90    8.30
  -6  -3   6  381.16   22.10
  -5  -3   6  118.59    8.00
  -4  -3   6   25.90   22.80
  -3  -3   6    5.90    3.40
  -2  -3   6  273.57   20.30
  -1  -3   6   55.89    4.10
   0  -3   6  342.97   12.60
   1  -3   6    4.40    5.90
   2  -3   6  181.18   22.50
   3  -3   6   25.00    5.90
   4  -3   6   53.59   38.90
   5  -3   6  427.36   21.10
   6  -3   6    0.00   10.20
   7  -3   6    2.60   12.80
   8  -3   6   12.20   19.30
   9  -3   6   61.29   32.70
  10  -3   6   57.69   39.60
 -10  -2   6   55.59    7.90
  -9  -2   6   23.40    5.20
  -8  -2   6  124.79    6.30
  -7  -2   6   15.90    3.10
  -6  -2   6    3.60    2.30
  -5  -2   6   60.69    3.10
  -4  -2   6  151.38    5.60
  -3  -2   6  242.88    8.50
  -2  -2   6 1078.39   33.50
  -1  -2   6   27.20    1.80
   0  -2   6   93.29    3.60
   1  -2   6  188.18    6.40
   2  -2   6    1.70    1.20
   3  -2   6 2095.39   63.79
   4  -2   6   97.59    4.50
   5  -2   6  104.99    4.90
   6  -2   6   13.60    3.30
   7  -2   6   85.39    6.00
   8  -2   6  131.09    8.40
   9  -2   6   48.40    7.50
 -10  -1   6    6.20    7.00
  -9  -1   6   22.00    5.20
  -8  -1   6  160.98    7.70
  -7  -1   6  151.58    7.00
  -6  -1   6    4.80    2.50
  -5  -1   6  321.97   10.70
  -4  -1   6   52.29    2.90
  -3  -1   6    4.70    1.80
  -2  -1   6  347.77   12.30
  -1  -1   6   11.50    1.80
   0  -1   6  732.23   22.70
   1  -1   6  186.28    7.00
   2  -1   6  101.59    4.40
   3  -1   6    5.50    2.20
   4  -1   6   37.30    3.10
   5  -1   6   12.60    2.70
   6  -1   6  614.44   25.30
   7  -1   6   44.30    7.50
   8  -1   6  101.29    9.30
   9  -1   6    4.20    9.10
 -10   0   6  126.39   14.50
  -9   0   6  171.78   15.70
  -8   0   6  141.99   11.00
  -7   0   6  197.78   15.30
  -6   0   6   37.00    4.70
  -5   0   6  345.37   25.70
  -4   0   6  145.49   10.20
  -3   0   6  370.56   24.40
  -2   0   6  934.01   60.49
  -1   0   6  357.36   23.90
   0   0   6   67.89    5.60
   1   0   6  126.69    9.10
   2   0   6  400.76   26.50
   3   0   6  389.56   28.70
   4   0   6  226.28   18.90
   5   0   6   20.50    4.80
   6   0   6  116.39   11.90
   7   0   6   31.10   10.30
   8   0   6    8.60   10.70
   9   0   6  145.29   22.20
 -10   1   6   17.80    6.70
  -9   1   6    4.50    4.20
  -8   1   6    6.50    3.60
  -7   1   6   48.20    4.00
  -6   1   6  513.85   17.50
  -5   1   6   90.19    4.10
  -4   1   6   84.19    4.00
  -3   1   6   18.60    2.10
  -2   1   6  917.51   32.90
  -1   1   6 1407.46   43.10
   0   1   6   13.60    2.20
   1   1   6  740.43   24.40
   2   1   6    7.60    1.80
   3   1   6    9.00    2.30
   4   1   6   67.99    4.30
   5   1   6  172.18    9.10
   6   1   6   14.00    4.10
   7   1   6  153.58   10.50
   8   1   6   13.70    6.90
   9   1   6   32.10   15.00
 -10   2   6   45.60    5.80
  -9   2   6   51.29    4.70
  -8   2   6    4.00    3.30
  -7   2   6   37.80    3.40
  -6   2   6   16.10    2.50
  -5   2   6   40.10    2.90
  -4   2   6  610.34   20.00
  -3   2   6  456.35   15.10
  -2   2   6    6.80    1.90
  -1   2   6  357.66   11.40
   0   2   6  362.46   11.30
   1   2   6  342.07   11.10
   2   2   6  278.27    9.60
   3   2   6    6.80    2.40
   4   2   6  255.37    9.60
   5   2   6   81.19    5.30
   6   2   6   21.30    4.80
   7   2   6    7.40    4.60
   8   2   6   32.60    6.70
 -10   3   6   46.10   14.40
  -9   3   6   17.10   11.00
  -8   3   6    0.00   13.70
  -7   3   6   48.00    8.00
  -6   3   6  726.23   35.20
  -5   3   6    0.00    5.50
  -4   3   6  174.18   13.50
  -3   3   6   24.10    9.80
  -2   3   6    0.00   50.79
  -1   3   6  396.56   20.30
   0   3   6  812.42   29.50
   1   3   6    0.00    4.00
   2   3   6  175.38   10.90
   3   3   6   16.30   14.10
   4   3   6    0.10   11.10
   5   3   6   24.40   11.60
   6   3   6    0.00   13.40
   7   3   6    1.50   21.20
   8   3   6    6.50   22.80
 -10   4   6    0.00   29.30
  -9   4   6  204.88   29.90
  -8   4   6  147.49   18.60
  -7   4   6   21.90    8.30
  -6   4   6    3.80    7.10
  -5   4   6    7.50    4.30
  -4   4   6  138.29    8.30
  -3   4   6  219.38   13.70
  -2   4   6   47.50    8.20
  -1   4   6  279.47   11.90
   0   4   6   20.70   10.90
   1   4   6  126.99   12.20
   2   4   6  242.88   12.60
   3   4   6  306.17   13.90
   4   4   6   26.30    8.70
   5   4   6  100.89   13.70
   6   4   6   10.20   11.30
   7   4   6    0.00   20.20
 -10   5   6    7.90    5.20
  -9   5   6    6.30    5.00
  -8   5   6  101.99    7.10
  -7   5   6  189.68    8.60
  -6   5   6  145.59    7.20
  -5   5   6  237.48    9.60
  -4   5   6   14.50    2.50
  -3   5   6    4.80    2.00
  -2   5   6   50.19    2.90
  -1   5   6    3.20    2.00
   0   5   6  394.56   12.80
   1   5   6   67.59    3.70
   2   5   6   39.90    4.10
   3   5   6    9.00    4.00
   4   5   6    8.60    4.30
   5   5   6  160.08    8.90
   6   5   6  107.49    8.00
   7   5   6    8.20    7.10
 -10   6   6   59.99   12.70
  -9   6   6   22.60   12.20
  -8   6   6   67.19    9.20
  -7   6   6    3.30    6.40
  -6   6   6   11.10    4.80
  -5   6   6  348.97   16.50
  -4   6   6  189.98    9.30
  -3   6   6  210.98    8.00
  -2   6   6  564.14   18.50
  -1   6   6    1.70    2.30
   0   6   6   80.19    4.40
   1   6   6    5.70    2.70
   2   6   6   23.70    4.40
   3   6   6  202.68   11.50
   4   6   6   75.69    8.80
   5   6   6   16.50    6.60
   6   6   6   25.90    9.50
  -9   7   6   12.90   26.40
  -8   7   6   69.59   15.80
  -7   7   6  210.48   19.40
  -6   7   6    0.10    7.50
  -5   7   6  298.37   15.00
  -4   7   6  269.37   12.00
  -3   7   6   24.00    3.60
  -2   7   6    5.30    3.00
  -1   7   6   54.09    5.00
   0   7   6  101.89    7.80
   1   7   6  560.14   23.00
   2   7   6    4.40    6.40
   3   7   6   35.90   10.40
   4   7   6    0.80   15.20
   5   7   6   20.80   36.40
   6   7   6   26.20   11.10
  -9   8   6   39.50    7.80
  -8   8   6   43.30    7.20
  -7   8   6  174.98   11.50
  -6   8   6    4.90    3.60
  -5   8   6    8.50    3.70
  -4   8   6  150.28    7.20
  -3   8   6   78.29    4.60
  -2   8   6  124.19    6.40
  -1   8   6    1.40    3.20
   0   8   6    3.80    3.90
   1   8   6   59.49    5.70
   2   8   6   58.09    7.30
   3   8   6    6.10    6.20
   4   8   6  177.88   13.80
   5   8   6   20.80    9.10
  -9   9   6    5.60    6.20
  -8   9   6    1.80    4.70
  -7   9   6   28.60    5.40
  -6   9   6  169.28    9.30
  -5   9   6    4.60    3.30
  -4   9   6  196.48    9.10
  -3   9   6    5.80    3.10
  -2   9   6   13.10    3.50
  -1   9   6  172.88    8.50
   0   9   6  162.28    9.00
   1   9   6   89.69    7.00
   2   9   6   36.90    6.30
   3   9   6   13.80    6.90
   4   9   6    9.00    7.60
  -8  10   6  106.59   18.10
  -7  10   6   23.90   14.10
  -6  10   6   27.60   10.20
  -5  10   6   70.09   12.10
  -4  10   6  136.49   10.50
  -3  10   6  176.88   11.10
  -2  10   6   10.10    6.20
  -1  10   6  130.49   12.70
   0  10   6   23.60   10.00
   1  10   6    2.50   10.00
   2  10   6   19.00   12.20
   3  10   6   23.80   11.40
  -7  11   6   11.20   10.80
  -6  11   6  216.78   17.50
  -5  11   6   21.30    8.70
  -4  11   6   40.10    9.60
  -3  11   6   11.20    9.10
  -2  11   6   30.40    5.40
  -1  11   6   22.30    7.50
   0  11   6   62.99    8.00
   1  11   6   10.30    8.90
   2  11   6   11.80    9.90
  -6  12   6   10.90    8.00
  -5  12   6    9.30    5.30
  -4  12   6   17.20    5.40
  -3  12   6   76.49    7.20
  -2  12   6   49.20    5.60
  -1  12   6    6.20    5.10
   0  12   6    5.30    5.30
  -4  13   6    4.50   10.50
  -3  13   6    6.90   12.10
  -2  13   6   15.70   14.00
   0 -17   7    0.00   10.90
   1 -17   7    6.70   11.60
   2 -17   7    0.00   13.70
   3 -17   7   40.50   15.40
   4 -17   7   12.10   11.50
   5 -17   7   31.90   13.10
  -2 -16   7    5.10    5.80
  -1 -16   7   10.30    7.60
   0 -16   7   43.60    6.40
   1 -16   7   21.90    6.00
   2 -16   7   14.00    5.00
   3 -16   7   64.29    8.50
   4 -16   7    9.80    7.10
   5 -16   7    9.80    6.10
   6 -16   7   25.40    7.70
  -3 -15   7   58.69   10.20
  -2 -15   7   91.99    8.00
  -1 -15   7    4.80    7.50
   0 -15   7   57.69    6.80
   1 -15   7   34.20    5.30
   2 -15   7   21.10    3.70
   3 -15   7  138.59   10.50
   4 -15   7   13.90    6.00
   5 -15   7   60.59    7.40
   6 -15   7   87.49    8.40
   7 -15   7    5.80    7.80
  -4 -14   7    0.00   16.00
  -3 -14   7    0.00   18.50
  -2 -14   7    0.00   11.80
  -1 -14   7    0.00    8.40
   0 -14   7   12.10    7.60
   1 -14   7   77.69   12.40
   2 -14   7    4.90   10.30
   3 -14   7   71.59   20.00
   4 -14   7   30.30    7.30
   5 -14   7    5.30    7.20
   6 -14   7   72.79    8.60
   7 -14   7  159.88   14.80
   8 -14   7   68.69   20.30
  -5 -13   7   23.30    8.60
  -4 -13   7   20.70    7.00
  -3 -13   7    3.50    6.60
  -2 -13   7   58.49    5.80
  -1 -13   7  162.88   11.20
   0 -13   7   24.60    4.70
   1 -13   7    9.20    3.50
   2 -13   7  167.98    9.80
   3 -13   7  110.79    7.50
   4 -13   7  245.68   13.30
   5 -13   7   31.70    5.10
   6 -13   7   62.29    7.10
   7 -13   7   46.20    7.10
   8 -13   7    2.60    6.40
  -6 -12   7   91.29    9.20
  -5 -12   7   17.10    5.60
  -4 -12   7  170.28   11.70
  -3 -12   7   52.89    6.80
  -2 -12   7    5.80    3.30
  -1 -12   7    6.30    3.00
   0 -12   7  116.29    6.30
   1 -12   7  410.06   16.10
   2 -12   7 1214.38   40.40
   3 -12   7  219.68    9.20
   4 -12   7    5.60    2.70
   5 -12   7    3.10    3.10
   6 -12   7   17.60    3.90
   7 -12   7   59.99    7.10
   8 -12   7   20.10    6.50
   9 -12   7   35.10    7.00
  -6 -11   7   90.69   13.90
  -5 -11   7    5.10    7.40
  -4 -11   7   14.30    5.60
  -3 -11   7   86.59   12.40
  -2 -11   7    4.70    4.50
  -1 -11   7  403.66   16.60
   0 -11   7   47.40    5.20
   1 -11   7  123.79    7.10
   2 -11   7   10.10    3.30
   3 -11   7   20.40    4.20
   4 -11   7   91.19    6.00
   5 -11   7  319.77   14.90
   6 -11   7    2.70    4.80
   7 -11   7   47.60    6.90
   8 -11   7   24.60   10.00
   9 -11   7   15.30    8.50
  -7 -10   7    0.00   15.20
  -6 -10   7   72.79   18.70
  -5 -10   7   69.19   10.90
  -4 -10   7   90.69   10.20
  -3 -10   7   55.89    7.20
  -2 -10   7   70.99    8.10
  -1 -10   7   46.10    7.00
   0 -10   7  245.58   11.10
   1 -10   7   17.60    3.10
   2 -10   7  423.26   15.50
   3 -10   7  347.07   13.90
   4 -10   7   37.00    6.00
   5 -10   7    6.90    5.20
   6 -10   7   10.80    5.80
   7 -10   7   35.10    8.80
   8 -10   7  134.99   16.60
   9 -10   7    5.80   10.10
  -7  -9   7   10.10    6.10
  -6  -9   7   68.99    6.20
  -5  -9   7   15.50    4.10
  -4  -9   7   14.80    3.50
  -3  -9   7   91.19    5.20
  -2  -9   7  133.49    6.60
  -1  -9   7   46.40    3.10
   0  -9   7  245.38    9.70
   1  -9   7   53.79    3.50
   2  -9   7    1.40    2.00
   3  -9   7   71.29    3.70
   4  -9   7    8.50    2.40
   5  -9   7  472.05   17.00
   6  -9   7  162.28    7.50
   7  -9   7   22.50    4.00
   8  -9   7    3.90    3.70
   9  -9   7   10.90    5.10
  -8  -8   7    2.90    6.70
  -7  -8   7    3.50    5.20
  -6  -8   7  103.99    7.00
  -5  -8   7  484.25   20.70
  -4  -8   7   37.40    4.00
  -3  -8   7  407.56   13.50
  -2  -8   7  230.18    9.20
  -1  -8   7    4.10    2.10
   0  -8   7  160.28    6.30
   1  -8   7   98.49    4.10
   2  -8   7    5.50    1.90
   3  -8   7  372.16   12.00
   4  -8   7    2.20    2.10
   5  -8   7   21.60    3.00
   6  -8   7  243.78   10.10
   7  -8   7   65.69    5.20
   8  -8   7   58.09    5.70
   9  -8   7  132.59   10.60
  10  -8   7   15.50    6.80
  -8  -7   7   23.30   41.00
  -7  -7   7   56.29   24.50
  -6  -7   7   18.10   15.10
  -5  -7   7    0.70   13.20
  -4  -7   7    4.10    8.50
  -3  -7   7   77.29    7.10
  -2  -7   7  622.54   24.90
  -1  -7   7  200.18    9.60
   0  -7   7   81.69    4.80
   1  -7   7   72.59    3.60
   2  -7   7   10.00    2.50
   3  -7   7  164.08    7.40
   4  -7   7  231.88   11.20
   5  -7   7   22.60    5.10
   6  -7   7  194.28   13.10
   7  -7   7   23.40    9.10
   8  -7   7   15.90    9.50
   9  -7   7   12.20   13.90
  10  -7   7   44.10   26.80
  -9  -6   7    2.80    6.80
  -8  -6   7   61.39   11.00
  -7  -6   7    5.50    5.40
  -6  -6   7   23.30    5.50
  -5  -6   7  113.49    7.10
  -4  -6   7  550.44   20.50
  -3  -6   7   47.00    3.50
  -2  -6   7  104.39    4.40
  -1  -6   7   28.10    2.20
   0  -6   7  211.68    7.60
   1  -6   7 1199.88   36.80
   2  -6   7  133.79    5.10
   3  -6   7  535.15   16.40
   4  -6   7  200.48    7.60
   5  -6   7    5.50    2.20
   6  -6   7    6.40    3.10
   7  -6   7   42.40    4.80
   8  -6   7   19.00    3.60
   9  -6   7   46.20    8.90
  10  -6   7   10.40    9.60
  -9  -5   7   53.79    7.20
  -8  -5   7    7.90    4.80
  -7  -5   7   97.19    6.40
  -6  -5   7  126.19    6.80
  -5  -5   7    5.10    2.70
  -4  -5   7   20.10    2.70
  -3  -5   7   59.39    3.20
  -2  -5   7  438.36   13.40
  -1  -5   7 1164.98   34.00
   0  -5   7   48.90    2.70
   1  -5   7   73.59    3.30
   2  -5   7    4.30    1.70
   3  -5   7    8.70    1.90
   4  -5   7   74.49    3.50
   5  -5   7  193.78    7.50
   6  -5   7   85.09    5.60
   7  -5   7   33.20    4.80
   8  -5   7    4.30    4.70
   9  -5   7   12.30    6.50
  10  -5   7   21.70   18.00
  -9  -4   7   36.30   42.20
  -8  -4   7   37.70   17.20
  -7  -4   7   14.50   21.20
  -6  -4   7   12.70   10.30
  -5  -4   7    3.40    8.50
  -4  -4   7  434.96   21.10
  -3  -4   7  381.06   19.50
  -2  -4   7  189.88    7.90
  -1  -4   7   28.70    3.90
   0  -4   7   80.19    5.10
   1  -4   7   41.30    6.30
   2  -4   7  775.12   24.50
   3  -4   7  105.29    6.70
   4  -4   7  100.99   10.80
   5  -4   7   45.40    7.70
   6  -4   7   73.19   10.80
   7  -4   7  692.53   43.00
   8  -4   7   69.19   16.00
   9  -4   7    3.80   17.10
  -9  -3   7    4.10   13.50
  -8  -3   7  117.09   17.40
  -7  -3   7    3.10    8.50
  -6  -3   7  526.95   28.30
  -5  -3   7   19.00    6.00
  -4  -3   7    5.60   13.10
  -3  -3   7   85.79    5.80
  -2  -3   7  244.68   21.60
  -1  -3   7  822.62   27.30
   0  -3   7  227.28   16.50
   1  -3   7    0.00   44.30
   2  -3   7    5.20    3.90
   3  -3   7   19.20    5.30
   4  -3   7    7.10   11.10
   5  -3   7  592.04   23.20
   6  -3   7   78.29   12.20
   7  -3   7  169.28   17.10
   8  -3   7    0.00   21.50
   9  -3   7    0.00   29.00
 -10  -2   7   42.00    6.80
  -9  -2   7   12.80    4.30
  -8  -2   7    3.70    3.80
  -7  -2   7   41.50    3.90
  -6  -2   7  152.38    6.40
  -5  -2   7  385.46   12.70
  -4  -2   7    4.00    1.60
  -3  -2   7  923.81   28.50
  -2  -2   7   52.89    2.90
  -1  -2   7    3.80    1.60
   0  -2   7   74.19    3.10
   1  -2   7   48.90    2.70
   2  -2   7 1735.13   52.29
   3  -2   7  300.97   10.50
   4  -2   7    3.80    2.50
   5  -2   7   70.99    4.40
   6  -2   7   61.89    4.90
   7  -2   7    5.00    4.80
   8  -2   7  146.29    9.40
   9  -2   7   28.80    6.70
 -10  -1   7    7.60    7.10
  -9  -1   7    5.80    4.50
  -8  -1   7  308.27   12.30
  -7  -1   7  331.97   12.40
  -6  -1   7  463.35   16.30
  -5  -1   7   28.30    2.80
  -4  -1   7   44.20    2.90
  -3  -1   7   57.09    3.40
  -2  -1   7  602.34   22.40
  -1  -1   7   71.29    4.00
   0  -1   7 1623.54   49.10
   1  -1   7  223.38    9.40
   2  -1   7   67.89    3.60
   3  -1   7  183.18    7.40
   4  -1   7   80.59    4.60
   5  -1   7  149.19    8.00
   6  -1   7   10.00    4.90
   7  -1   7   13.60    5.10
   8  -1   7    7.50    6.80
   9  -1   7   11.70   13.10
 -10   0   7  220.38   22.00
  -9   0   7    5.00    7.40
  -8   0   7  104.49   12.60
  -7   0   7   13.20    5.10
  -6   0   7   87.89    8.80
  -5   0   7    6.70    3.20
  -4   0   7   88.69    6.90
  -3   0   7   54.29    5.50
  -2   0   7  367.16   24.40
  -1   0   7   99.99    7.10
   0   0   7   37.80    5.20
   1   0   7 1378.16   88.69
   2   0   7    9.30    4.00
   3   0   7  274.37   20.50
   4   0   7  450.95   32.20
   5   0   7   10.30    7.10
   6   0   7    5.90    7.70
   7   0   7    4.00    8.80
   8   0   7   49.60   13.90
 -10   1   7    2.20    5.80
  -9   1   7   20.00    4.90
  -8   1   7   41.40    4.80
  -7   1   7  447.56   16.90
  -6   1   7    6.20    2.60
  -5   1   7   13.30    2.50
  -4   1   7   45.90    3.10
  -3   1   7    7.10    2.40
  -2   1   7  283.67   10.80
  -1   1   7  658.73   20.50
   0   1   7    5.80    2.90
   1   1   7  183.18    7.50
   2   1   7   42.30    3.60
   3   1   7   44.70    3.80
   4   1   7  177.08    8.10
   5   1   7   14.40    3.40
   6   1   7  144.69   12.80
   7   1   7   98.29   12.00
   8   1   7    1.30   11.50
 -10   2   7   36.40    5.90
  -9   2   7  174.98    8.60
  -8   2   7    7.40    3.60
  -7   2   7    6.50    2.90
  -6   2   7   23.80    3.50
  -5   2   7  355.96   12.10
  -4   2   7  966.30   32.90
  -3   2   7   11.30    2.10
  -2   2   7  296.87   10.40
  -1   2   7  117.59    4.50
   0   2   7   11.10    2.00
   1   2   7    8.30    1.90
   2   2   7   29.70    2.50
   3   2   7    2.90    2.40
   4   2   7   79.49    5.40
   5   2   7    5.30    3.40
   6   2   7    6.20    4.60
   7   2   7   66.19    6.60
   8   2   7   18.80    8.90
 -10   3   7   10.80   11.70
  -9   3   7   20.90    9.60
  -8   3   7    0.00   13.30
  -7   3   7  126.29   10.50
  -6   3   7  381.56   19.90
  -5   3   7   30.60    7.30
  -4   3   7   37.40    6.90
  -3   3   7  131.09   14.00
  -2   3   7   51.89   10.70
  -1   3   7  761.12   26.80
   0   3   7  154.88   10.60
   1   3   7   97.19   11.40
   2   3   7    0.00    8.70
   3   3   7    0.00   21.70
   4   3   7  223.38   15.10
   5   3   7   51.89   28.30
   6   3   7   23.80   15.60
   7   3   7    0.00   26.60
 -10   4   7    6.00    6.50
  -9   4   7   47.90   22.20
  -8   4   7   19.80   18.70
  -7   4   7   72.29   12.30
  -6   4   7  104.39    9.20
  -5   4   7  395.86   20.60
  -4   4   7   82.49    8.10
  -3   4   7  341.77   27.40
  -2   4   7  152.68   12.00
  -1   4   7   10.20    8.40
   0   4   7   44.30   14.90
   1   4   7   98.19    7.20
   2   4   7  426.06   17.20
   3   4   7   24.70    7.90
   4   4   7   94.79   10.20
   5   4   7   38.10   10.80
   6   4   7    0.00   16.60
   7   4   7    0.00   17.70
 -10   5   7   24.10    6.80
  -9   5   7   11.90    6.10
  -8   5   7   49.40    4.80
  -7   5   7   18.10    4.20
  -6   5   7  147.99    7.70
  -5   5   7   70.69    5.00
  -4   5   7    4.50    2.80
  -3   5   7   15.30    2.80
  -2   5   7    9.10    2.30
  -1   5   7  125.09    5.20
   0   5   7  747.93   23.70
   1   5   7   38.70    3.40
   2   5   7  256.77   11.10
   3   5   7    7.20    4.10
   4   5   7    3.90    4.60
   5   5   7   74.49    6.70
   6   5   7   43.80    6.60
  -9   6   7   52.29   13.00
  -8   6   7  203.28   16.70
  -7   6   7   45.00    7.40
  -6   6   7   48.70    6.90
  -5   6   7   18.30    5.90
  -4   6   7   31.70    4.20
  -3   6   7   83.09    4.80
  -2   6   7   37.50    3.60
  -1   6   7    8.50    2.80
   0   6   7   21.30    3.30
   1   6   7  204.68    8.70
   2   6   7   26.60    5.30
   3   6   7  251.87   14.60
   4   6   7   49.10    8.40
   5   6   7    7.00    7.90
   6   6   7    6.50    9.20
  -9   7   7   12.70   16.00
  -8   7   7   64.59   18.40
  -7   7   7   94.69   25.00
  -6   7   7    6.20    7.00
  -5   7   7  255.77   15.40
  -4   7   7   89.29    6.70
  -3   7   7   39.10    4.60
  -2   7   7  383.26   15.50
  -1   7   7    5.80    5.40
   0   7   7   80.69    7.30
   1   7   7  117.79    8.90
   2   7   7   12.90    7.40
   3   7   7   10.70   12.30
   4   7   7   58.69   19.40
   5   7   7    0.00   26.30
  -9   8   7   59.09    7.70
  -8   8   7    5.10    6.50
  -7   8   7   13.80    4.50
  -6   8   7    8.20    4.10
  -5   8   7  155.88    8.90
  -4   8   7  350.56   13.60
  -3   8   7    8.40    3.20
  -2   8   7  236.18   10.30
  -1   8   7   48.60    4.70
   0   8   7    4.70    3.90
   1   8   7   13.80    5.90
   2   8   7   14.30    6.20
   3   8   7   24.80    8.40
   4   8   7   61.59    8.60
  -8   9   7    8.60    8.00
  -7   9   7  117.09   10.40
  -6   9   7   38.90    4.90
  -5   9   7   11.70    4.30
  -4   9   7   84.49    5.40
  -3   9   7    8.00    3.60
  -2   9   7   83.69    6.00
  -1   9   7   31.60    6.00
   0   9   7    8.80    5.30
   1   9   7   30.30    5.50
   2   9   7   32.20    6.80
   3   9   7    7.90    6.90
  -7  10   7   30.60   19.70
  -6  10   7   23.60   12.70
  -5  10   7    9.10   12.50
  -4  10   7  131.49   10.40
  -3  10   7  136.79   11.30
  -2  10   7   10.90    6.60
  -1  10   7   20.10    7.20
   0  10   7   25.60   10.50
   1  10   7    2.60   10.50
   2  10   7   92.69   14.60
  -6  11   7  112.19   17.30
  -5  11   7   19.60   10.50
  -4  11   7   61.09   10.60
  -3  11   7    0.60    5.10
  -2  11   7    1.20    6.10
  -1  11   7   55.99    8.80
   0  11   7   75.29   10.20
   1  11   7    0.00    9.60
  -5  12   7    6.30    6.60
  -4  12   7   13.00    6.40
  -3  12   7  175.28   10.80
  -2  12   7   30.90    5.60
  -1  12   7   40.20    6.20
   0 -17   8   18.60   11.00
   1 -17   8    0.00   12.20
   2 -17   8   27.20    9.30
   3 -17   8    0.00   10.10
   4 -17   8   48.00   12.70
   5 -17   8   18.90   11.70
  -2 -16   8    6.40    7.20
  -1 -16   8   43.60    9.30
   0 -16   8   73.79    7.90
   1 -16   8   18.60    7.40
   2 -16   8   25.50    5.40
   3 -16   8   11.40    4.80
   4 -16   8    4.70    6.70
   5 -16   8   32.00    6.40
   6 -16   8   66.89   10.60
  -3 -15   8   74.59   10.70
  -2 -15   8   79.29    7.60
  -1 -15   8    2.80    4.80
   0 -15   8    2.60    4.60
   1 -15   8    2.60    3.70
   2 -15   8   32.20    4.60
   3 -15   8  194.28    9.70
   4 -15   8    4.00    3.20
   5 -15   8   18.30    5.90
   6 -15   8    9.00    6.80
   7 -15   8   18.90    8.60
  -4 -14   8   11.90   14.40
  -3 -14   8    0.00   17.10
  -2 -14   8   22.90   11.80
  -1 -14   8    0.00    9.00
   0 -14   8  260.07   23.80
   1 -14   8  234.88   16.50
   2 -14   8    0.00   12.00
   3 -14   8  157.38   17.50
   4 -14   8   13.00    7.20
   5 -14   8   10.80    7.10
   6 -14   8  131.49   11.00
   7 -14   8   26.80   11.70
   8 -14   8   20.30   16.50
  -5 -13   8   14.90    7.20
  -4 -13   8   18.80    8.50
  -3 -13   8    7.10    7.10
  -2 -13   8  136.99    8.60
  -1 -13   8   45.40    5.70
   0 -13   8    8.40    4.40
   1 -13   8   20.50    5.10
   2 -13   8    0.10    2.70
   3 -13   8  182.08    9.60
   4 -13   8  134.49    8.60
   5 -13   8   11.30    4.60
   6 -13   8   72.89    7.60
   7 -13   8   12.40    6.60
   8 -13   8    7.70    7.00
  -6 -12   8   21.50    8.00
  -5 -12   8   39.50    6.10
  -4 -12   8  194.18   11.60
  -3 -12   8    3.60    4.60
  -2 -12   8   22.90    5.30
  -1 -12   8  119.29    6.70
   0 -12   8   11.00    3.40
   1 -12   8   61.39    4.70
   2 -12   8    7.40    2.50
   3 -12   8  195.18    9.00
   4 -12   8    7.40    3.10
   5 -12   8    5.60    3.30
   6 -12   8   62.99    5.30
   7 -12   8  222.78   10.80
   8 -12   8   10.10    5.20
   9 -12   8   45.10    7.60
  -6 -11   8   36.50    9.90
  -5 -11   8    6.90    5.90
  -4 -11   8   32.00    5.40
  -3 -11   8   46.30    8.40
  -2 -11   8   27.80    5.50
  -1 -11   8  145.49    8.90
   0 -11   8    0.00    5.00
   1 -11   8   71.69    5.90
   2 -11   8   18.40    4.10
   3 -11   8   64.99    5.10
   4 -11   8  151.18    8.30
   5 -11   8  258.47   13.50
   6 -11   8   15.40    7.30
   7 -11   8    5.20    6.40
   8 -11   8   11.10    8.20
   9 -11   8   52.29   11.80
  -7 -10   8    0.40   16.10
  -6 -10   8  130.99   70.19
  -5 -10   8  107.49   13.10
  -4 -10   8   42.80    8.30
  -3 -10   8  127.59   14.00
  -2 -10   8   37.40   10.00
  -1 -10   8  107.19    8.50
   0 -10   8   57.69    4.90
   1 -10   8  193.18    8.90
   2 -10   8  706.03   24.50
   3 -10   8  105.09    6.40
   4 -10   8   18.80    5.50
   5 -10   8   25.30    6.20
   6 -10   8   12.90    5.60
   7 -10   8  204.18   14.00
   8 -10   8   77.29   10.90
   9 -10   8   12.60   11.00
  -7  -9   8    7.60    5.60
  -6  -9   8   76.19    6.20
  -5  -9   8    4.80    4.40
  -4  -9   8   22.00    3.70
  -3  -9   8  297.97   16.60
  -2  -9   8   45.70    3.90
  -1  -9   8  132.99    5.90
   0  -9   8  137.39    6.00
   1  -9   8    8.60    2.40
   2  -9   8   25.90    2.50
   3  -9   8  181.78    6.90
   4  -9   8   25.30    3.00
   5  -9   8  294.37   12.10
   6  -9   8    6.90    3.20
   7  -9   8    2.70    3.60
   8  -9   8   20.80    5.00
   9  -9   8   48.90    6.00
  -8  -8   8   14.50    7.60
  -7  -8   8    3.90    5.40
  -6  -8   8   61.99    6.00
  -5  -8   8  172.48    9.20
  -4  -8   8   26.20    3.90
  -3  -8   8  188.68    7.80
  -2  -8   8    4.70    2.20
  -1  -8   8    5.20    2.10
   0  -8   8  298.17   10.20
   1  -8   8  348.87   11.10
   2  -8   8   84.19    4.10
   3  -8   8  272.07    9.60
   4  -8   8   14.10    2.70
   5  -8   8   28.40    3.40
   6  -8   8  102.69    6.50
   7  -8   8   15.60    5.00
   8  -8   8  142.39    8.90
   9  -8   8   26.30    6.50
  -8  -7   8  138.09  282.07
  -7  -7   8   60.89   25.10
  -6  -7   8   40.20   24.40
  -5  -7   8    0.40   13.10
  -4  -7   8    3.60    5.90
  -3  -7   8  195.68   10.70
  -2  -7   8  769.52   32.60
  -1  -7   8   89.59    5.30
   0  -7   8   10.60    2.70
   1  -7   8    2.30    2.30
   2  -7   8    8.90    2.60
   3  -7   8  458.95   18.70
   4  -7   8  246.78   12.20
   5  -7   8  152.48   12.70
   6  -7   8  184.18   11.80
   7  -7   8   43.50    9.70
   8  -7   8   12.40   10.30
   9  -7   8   51.59   15.80
  -9  -6   8    0.80   18.70
  -8  -6   8    6.50    6.60
  -7  -6   8    4.30    5.20
  -6  -6   8    3.30    4.70
  -5  -6   8  432.36   21.10
  -4  -6   8  633.44   24.10
  -3  -6   8   92.09    5.00
  -2  -6   8  335.77   10.90
  -1  -6   8   69.19    3.20
   0  -6   8  327.87   10.70
   1  -6   8  546.05   17.00
   2  -6   8    7.50    2.00
   3  -6   8  405.16   13.20
   4  -6   8    6.40    1.90
   5  -6   8   18.20    2.50
   6  -6   8  157.28    8.90
   7  -6   8   43.30    6.10
   8  -6   8   19.70    6.80
   9  -6   8   78.99   10.80
  -9  -5   8   49.90    7.00
  -8  -5   8   25.20    5.60
  -7  -5   8   97.89    6.70
  -6  -5   8   61.69    4.70
  -5  -5   8   10.20    2.90
  -4  -5   8   46.50    3.10
  -3  -5   8   42.00    2.50
  -2  -5   8  927.91   29.00
  -1  -5   8  747.23   23.60
   0  -5   8   86.49    3.60
   1  -5   8   18.30    2.10
   2  -5   8   37.10    2.50
   3  -5   8   12.80    2.10
   4  -5   8  262.57   10.10
   5  -5   8   74.39    4.30
   6  -5   8   38.10    4.20
   7  -5   8    4.40    4.30
   8  -5   8    4.60    4.80
   9  -5   8  137.89   10.30
  -9  -4   8   40.00   25.00
  -8  -4   8   88.29   21.50
  -7  -4   8    4.70    1.60
  -6  -4   8  554.54   38.00
  -5  -4   8   33.00   14.70
  -4  -4   8   40.90    4.30
  -3  -4   8   35.80    4.40
  -2  -4   8   55.99   10.80
  -1  -4   8    7.50    3.00
   0  -4   8   13.20    7.60
   1  -4   8  779.62   24.00
   2  -4   8 1548.55   48.70
   3  -4   8   13.50    5.00
   4  -4   8  260.87   28.60
   5  -4   8   41.00   13.80
   6  -4   8  169.78   22.20
   7  -4   8   70.69   14.90
   8  -4   8    6.50   13.20
   9  -4   8    9.60   21.70
  -9  -3   8  107.49   16.70
  -8  -3   8   66.79   12.20
  -7  -3   8    1.70   10.70
  -6  -3   8  361.76   26.30
  -5  -3   8   35.40   32.20
  -4  -3   8   50.89    6.80
  -3  -3   8  295.27   15.00
  -2  -3   8  174.88   10.80
  -1  -3   8  989.90   44.00
   0  -3   8  391.46   22.00
   1  -3   8   28.30   19.00
   2  -3   8  110.69   11.20
   3  -3   8   31.10   11.00
   4  -3   8  411.26   21.60
   5  -3   8  276.37   16.50
   6  -3   8    0.00   22.60
   7  -3   8   20.30   16.30
   8  -3   8    0.00   24.30
   9  -3   8   68.89   27.60
  -9  -2   8   49.70    5.30
  -8  -2   8   40.90    4.30
  -7  -2   8    5.40    3.00
  -6  -2   8  156.18    6.60
  -5  -2   8   28.10    2.50
  -4  -2   8  246.98    9.50
  -3  -2   8  234.78    8.10
  -2  -2   8   97.39    4.20
  -1  -2   8  528.85   16.40
   0  -2   8    3.50    1.70
   1  -2   8  184.18    6.40
   2  -2   8  251.47    8.60
   3  -2   8  255.17    9.30
   4  -2   8   15.00    2.80
   5  -2   8   43.00    4.30
   6  -2   8   55.99    5.30
   7  -2   8   40.80    5.70
   8  -2   8  254.97   14.60
   9  -2   8    4.60    6.60
 -10  -1   8   17.10    6.90
  -9  -1   8   35.60    5.30
  -8  -1   8  184.28    8.90
  -7  -1   8   65.39    4.80
  -6  -1   8  158.58    7.20
  -5  -1   8   25.80    2.60
  -4  -1   8   12.40    2.80
  -3  -1   8  125.09    5.70
  -2  -1   8  226.38    9.80
  -1  -1   8    3.30    2.50
   0  -1   8  560.14   18.90
   1  -1   8   47.70    4.00
   2  -1   8   79.39    4.50
   3  -1   8  221.98    9.30
   4  -1   8   15.50    3.10
   5  -1   8  218.38   11.40
   6  -1   8  389.16   22.80
   7  -1   8   15.30    8.90
   8  -1   8   40.80   13.70
 -10   0   8   31.10   11.10
  -9   0   8    5.90    7.40
  -8   0   8    4.30    6.00
  -7   0   8    4.10    4.90
  -6   0   8    4.30    4.70
  -5   0   8  856.61   55.49
  -4   0   8  214.08   17.90
  -3   0   8   92.09    8.10
  -2   0   8   96.09    6.60
  -1   0   8   22.20    3.50
   0   0   8  231.98   17.80
   1   0   8  325.67   23.50
   2   0   8  307.67   23.30
   3   0   8  127.09   10.70
   4   0   8   25.30    7.50
   5   0   8   19.70    8.20
   6   0   8   31.20   17.60
   7   0   8   40.70   13.60
   8   0   8   48.00   14.10
 -10   1   8   13.70    5.60
  -9   1   8    8.60    4.80
  -8   1   8  122.79    7.10
  -7   1   8  382.76   16.70
  -6   1   8   22.60    4.10
  -5   1   8   48.20    3.80
  -4   1   8   72.79    4.10
  -3   1   8   89.59    7.00
  -2   1   8  715.23   25.80
  -1   1   8  115.79    6.00
   0   1   8  490.55   19.30
   1   1   8  215.48    9.40
   2   1   8   63.49    4.90
   3   1   8   40.00    4.20
   4   1   8  153.78   10.30
   5   1   8   12.50    6.50
   6   1   8   77.69   11.80
   7   1   8    0.10   11.40
   8   1   8    9.10   15.20
 -10   2   8  161.88    9.80
  -9   2   8   61.49    5.30
  -8   2   8    4.40    3.50
  -7   2   8    4.90    3.50
  -6   2   8   21.10    3.20
  -5   2   8  368.36   13.30
  -4   2   8  480.65   16.30
  -3   2   8   15.60    2.40
  -2   2   8    4.60    1.80
  -1   2   8  209.78    7.20
   0   2   8    4.20    2.00
   1   2   8  546.55   17.30
   2   2   8  163.08    6.20
   3   2   8   56.29    4.60
   4   2   8  210.88   10.60
   5   2   8    7.20    3.50
   6   2   8   16.70    4.70
   7   2   8   30.30    7.90
 -10   3   8   22.80   11.70
  -9   3   8    1.80   13.90
  -8   3   8    0.00   12.60
  -7   3   8  233.48   17.60
  -6   3   8   50.19   11.20
  -5   3   8  133.19   24.80
  -4   3   8   22.70    6.70
  -3   3   8  248.58   24.80
  -2   3   8   19.70    8.70
  -1   3   8  592.64   24.10
   0   3   8   55.09    6.00
   1   3   8  150.58    9.70
   2   3   8    0.00    9.80
   3   3   8    0.00   10.70
   4   3   8  343.87   19.90
   5   3   8  138.39   19.10
   6   3   8    0.00   27.60
   7   3   8  126.69   24.90
  -9   4   8   88.89   25.00
  -8   4   8   37.10   15.80
  -7   4   8   28.30   14.80
  -6   4   8  234.48   22.20
  -5   4   8    4.00    6.10
  -4   4   8  786.42   34.30
  -3   4   8  655.93   33.30
  -2   4   8   45.00    6.30
  -1   4   8    0.00    7.30
   0   4   8    8.40    6.10
   1   4   8   38.80    7.20
   2   4   8  257.17   15.90
   3   4   8   31.90   14.00
   4   4   8  107.49   15.80
   5   4   8   45.80   12.50
   6   4   8    0.00   14.50
  -9   5   8   68.19    7.60
  -8   5   8   92.99    6.60
  -7   5   8   21.00    4.50
  -6   5   8  375.66   17.30
  -5   5   8   11.70    3.90
  -4   5   8   31.20    4.00
  -3   5   8  135.29    6.80
  -2   5   8   13.60    2.80
  -1   5   8  495.45   17.00
   0   5   8  318.37   12.90
   1   5   8    7.80    3.00
   2   5   8   12.30    4.60
   3   5   8    7.50    4.80
   4   5   8   11.90    5.10
   5   5   8  100.49    8.10
   6   5   8    7.20    7.10
  -9   6   8   51.59   10.20
  -8   6   8   26.30    5.90
  -7   6   8   14.50    6.80
  -6   6   8    4.90    6.30
  -5   6   8   61.19    6.90
  -4   6   8   16.50    4.20
  -3   6   8  210.08    9.00
  -2   6   8   41.80    3.80
  -1   6   8    7.50    3.20
   0   6   8  240.98   10.20
   1   6   8    7.30    3.40
   2   6   8  150.18   12.00
   3   6   8  129.99   10.20
   4   6   8    6.80    7.40
   5   6   8   11.90    9.30
  -9   7   8   31.00   15.10
  -8   7   8   90.79   29.70
  -7   7   8   23.00   15.50
  -6   7   8   70.39   10.40
  -5   7   8    7.90    5.10
  -4   7   8   17.30    5.00
  -3   7   8  141.59    8.10
  -2   7   8   14.10    5.10
  -1   7   8   16.60    5.10
   0   7   8  240.88   12.60
   1   7   8   63.79    9.20
   2   7   8    3.40    9.40
   3   7   8   17.70   15.20
   4   7   8   15.70   13.40
   5   7   8   54.79   19.50
  -8   8   8   35.70    8.20
  -7   8   8   20.30    5.50
  -6   8   8   10.00    4.90
  -5   8   8   67.99    6.10
  -4   8   8   52.59    5.30
  -3   8   8   25.90    4.00
  -2   8   8   23.60    4.30
  -1   8   8   10.70    4.80
   0   8   8   34.60    5.20
   1   8   8   75.39    7.70
   2   8   8   16.50    6.70
   3   8   8   25.20    8.30
   4   8   8   36.30   11.50
  -8   9   8   10.30   17.00
  -7   9   8  140.89    9.40
  -6   9   8    3.80    4.40
  -5   9   8   30.80    5.20
  -4   9   8    6.60    4.30
  -3   9   8    4.00    4.20
  -2   9   8   31.80    4.90
  -1   9   8   92.99    6.60
   0   9   8   17.70    6.00
   1   9   8   16.30    5.90
   2   9   8    6.40    7.80
   3   9   8    5.60    8.20
  -7  10   8   42.80   19.80
  -6  10   8   27.40   17.50
  -5  10   8   47.00    9.50
  -4  10   8  201.88   15.50
  -3  10   8   67.59    7.90
  -2  10   8   26.90    7.60
  -1  10   8   77.89   10.30
   0  10   8   17.40   10.80
   1  10   8    5.70   11.90
  -5  11   8   23.70   12.90
  -4  11   8   20.50    8.30
  -3  11   8    5.50    6.20
  -2  11   8   10.70    7.50
  -1  11   8  141.79   11.10
   0  11   8    6.80    8.80
   0 -17   9   13.90   12.80
   1 -17   9    0.00   11.60
   2 -17   9  109.59   15.60
   3 -17   9   19.40   13.10
   4 -17   9   23.60   12.30
   5 -17   9   55.39   12.20
  -2 -16   9    3.80    7.20
  -1 -16   9   23.40    6.00
   0 -16   9  179.78   11.20
   1 -16   9    5.40    4.80
   2 -16   9   71.99    6.90
   3 -16   9    4.10    4.60
   4 -16   9   87.79    6.60
   5 -16   9   44.40    7.00
   6 -16   9    5.00    7.30
  -3 -15   9   90.89   11.90
  -2 -15   9   23.50    8.20
  -1 -15   9    9.30    4.10
   0 -15   9    3.40    4.20
   1 -15   9    8.20    4.20
   2 -15   9   82.99    7.50
   3 -15   9  149.69    9.30
   4 -15   9    3.90    3.50
   5 -15   9  109.69    7.30
   6 -15   9    4.10    5.10
   7 -15   9    4.80    5.70
  -4 -14   9    0.00   18.60
  -3 -14   9   17.70   17.90
  -2 -14   9    1.00   13.20
  -1 -14   9   28.00   10.60
   0 -14   9  135.39   15.70
   1 -14   9   38.70    8.20
   2 -14   9   77.39   14.40
   3 -14   9    0.00    7.10
   4 -14   9   17.70    6.90
   5 -14   9   44.00    9.80
   6 -14   9   72.69   14.40
   7 -14   9   38.20   11.40
   8 -14   9   51.29    8.80
  -5 -13   9   28.40   11.10
  -4 -13   9   53.89   10.60
  -3 -13   9   20.80    7.60
  -2 -13   9  144.59   11.90
  -1 -13   9   16.50    4.80
   0 -13   9    1.90    4.30
   1 -13   9    6.50    5.00
   2 -13   9    7.40    5.90
   3 -13   9  134.59    8.90
   4 -13   9  194.58   14.60
   5 -13   9    8.10    6.20
   6 -13   9   18.30    6.30
   7 -13   9   20.30    7.50
   8 -13   9   53.69   10.50
  -6 -12   9    3.60    7.50
  -5 -12   9   12.00    6.00
  -4 -12   9    9.60    6.50
  -3 -12   9    3.10    4.80
  -2 -12   9   99.99    8.00
  -1 -12   9  111.69    6.30
   0 -12   9  142.79    7.50
   1 -12   9  509.05   20.40
   2 -12   9   69.59    5.40
   3 -12   9  177.38    7.80
   4 -12   9    4.30    3.30
   5 -12   9    8.70    3.40
   6 -12   9  134.19    7.70
   7 -12   9   68.09    6.00
   8 -12   9    3.50    4.80
  -6 -11   9   10.50    7.70
  -5 -11   9   13.00    8.00
  -4 -11   9  132.39   15.50
  -3 -11   9   29.80    7.10
  -2 -11   9  192.28   11.40
  -1 -11   9  180.58   10.70
   0 -11   9    2.50    7.20
   1 -11   9   10.10    4.30
   2 -11   9    9.10    3.70
   3 -11   9  143.29    8.90
   4 -11   9  222.48   12.50
   5 -11   9    3.50    4.70
   6 -11   9   15.00    7.30
   7 -11   9   26.50    8.80
   8 -11   9    4.00    8.00
   9 -11   9   15.90    8.50
  -7 -10   9   76.89   21.20
  -5 -10   9   73.09   11.90
  -4 -10   9  100.79   18.20
  -3 -10   9    6.60    9.80
  -2 -10   9   28.10    4.80
  -1 -10   9  200.38   11.30
   0 -10   9   91.29    6.30
   1 -10   9   18.60    3.70
   2 -10   9  212.78   13.60
   3 -10   9   32.30    5.20
   4 -10   9   39.50    6.10
   5 -10   9  108.59    9.70
   6 -10   9   12.10    6.10
   7 -10   9  228.58   15.00
   8 -10   9   25.90    9.50
   9 -10   9   16.30   13.20
  -7  -9   9   15.30    5.80
  -6  -9   9   73.59    6.30
  -5  -9   9    5.10    4.10
  -4  -9   9  110.69    6.80
  -3  -9   9  287.57   13.80
  -2  -9   9    4.50    2.10
  -1  -9   9   94.29    4.50
   0  -9   9    3.60    2.20
   1  -9   9    2.60    2.30
   2  -9   9  283.87   10.00
   3  -9   9  195.48    7.30
   4  -9   9   46.10    3.70
   5  -9   9  269.37   11.30
   6  -9   9    8.30    3.60
   7  -9   9   19.00    4.00
   8  -9   9    4.40    4.10
   9  -9   9    7.60    7.20
  -8  -8   9   60.09    8.90
  -7  -8   9    5.70    5.70
  -6  -8   9  140.09    8.70
  -5  -8   9  323.07   15.00
  -4  -8   9    5.00    3.00
  -3  -8   9  216.48    9.20
  -2  -8   9   37.70    2.90
  -1  -8   9   87.19    4.40
   0  -8   9  325.17   11.00
   1  -8   9   18.40    2.20
   2  -8   9  555.54   18.80
   3  -8   9    8.50    2.40
   4  -8   9   22.50    3.10
   5  -8   9   54.69    4.40
   6  -8   9   91.19    6.00
   7  -8   9  245.18   12.50
   8  -8   9   37.80    7.20
   9  -8   9   16.00    6.80
  -8  -7   9  169.58   66.99
  -7  -7   9   23.50   25.10
  -6  -7   9   34.90   19.30
  -5  -7   9   25.80   15.90
  -4  -7   9    9.30    9.70
  -3  -7   9  352.96   16.10
  -2  -7   9  634.74   26.30
  -1  -7   9    7.90    2.60
   0  -7   9    4.90    2.20
   1  -7   9   15.40    3.20
   2  -7   9   73.79    5.80
   3  -7   9  204.28    9.10
   4  -7   9   79.49    7.90
   5  -7   9  108.59    8.00
   6  -7   9   24.80    7.20
   7  -7   9   18.00   11.20
   8  -7   9   31.60   14.70
   9  -7   9   84.99   22.40
  -8  -6   9   10.90    8.30
  -7  -6   9   38.40    6.90
  -6  -6   9   84.89    7.60
  -5  -6   9  170.28   11.10
  -4  -6   9   22.80    4.10
  -3  -6   9   17.30    2.20
  -2  -6   9   48.60    3.00
  -1  -6   9    4.20    1.90
   0  -6   9  412.96   12.90
   1  -6   9  518.65   17.30
   2  -6   9   81.89    4.20
   3  -6   9    7.40    2.10
   4  -6   9   49.00    3.20
   5  -6   9    5.40    2.90
   6  -6   9  152.38    9.70
   7  -6   9   23.60    6.30
   8  -6   9  135.99   11.90
   9  -6   9   50.69   10.60
  -9  -5   9   59.89    8.20
  -8  -5   9   57.79    6.70
  -7  -5   9  109.39    7.20
  -6  -5   9   21.20    3.80
  -5  -5   9   49.20    3.90
  -4  -5   9   13.20    2.00
  -3  -5   9    3.30    1.80
  -2  -5   9  954.70   29.60
  -1  -5   9  224.98    7.50
   0  -5   9  152.18    5.70
   1  -5   9   14.90    2.20
   2  -5   9   58.99    3.10
   3  -5   9  518.45   17.30
   4  -5   9  486.95   16.50
   5  -5   9    5.80    3.30
   6  -5   9    5.70    3.60
   7  -5   9   42.80    5.30
   8  -5   9   12.50    5.70
   9  -5   9   48.80    7.70
  -9  -4   9   19.20   28.10
  -8  -4   9    0.00   17.20
  -7  -4   9   12.00   19.80
  -6  -4   9   48.00   11.50
  -5  -4   9    9.80    6.80
  -4  -4   9  482.45   21.00
  -3  -4   9   10.70    4.10
  -2  -4   9   31.50    6.80
  -1  -4   9  122.79   15.80
   0  -4   9  174.08    7.30
   1  -4   9  888.31   43.00
   2  -4   9  137.09    7.40
   3  -4   9    6.60    5.30
   4  -4   9  115.69   10.90
   5  -4   9   98.49   10.20
   6  -4   9   52.69   12.70
   7  -4   9  270.27   27.40
   8  -4   9   12.80   15.00
   9  -4   9   41.40   25.50
  -9  -3   9   21.10   16.90
  -8  -3   9    0.00   11.70
  -7  -3   9  153.78   13.70
  -6  -3   9    0.00    7.50
  -5  -3   9   21.30   34.90
  -4  -3   9   29.60    5.60
  -3  -3   9  180.38   13.70
  -2  -3   9  191.58   10.30
  -1  -3   9 1557.14   52.29
   0  -3   9  206.58   19.30
   1  -3   9    0.00   28.90
   2  -3   9   33.00    4.50
   3  -3   9   43.30   11.00
   4  -3   9  322.47   15.50
   5  -3   9  186.98   12.50
   6  -3   9   38.00   12.60
   7  -3   9   23.20   16.60
   8  -3   9   94.99   22.10
   9  -3   9   30.40   23.50
  -9  -2   9   46.80    5.80
  -8  -2   9   17.20    3.80
  -7  -2   9    8.20    3.10
  -6  -2   9  191.68    8.80
  -5  -2   9   48.80    3.80
  -4  -2   9   10.50    2.40
  -3  -2   9    4.50    2.10
  -2  -2   9   12.80    2.20
  -1  -2   9  256.27    8.90
   0  -2   9  306.67    9.80
   1  -2   9   55.79    3.00
   2  -2   9  944.41   29.20
   3  -2   9  130.89    5.90
   4  -2   9    8.40    3.10
   5  -2   9   35.30    4.50
   6  -2   9    5.20    3.70
   7  -2   9   39.60    5.70
   8  -2   9   32.80    5.40
  -9  -1   9  103.99    7.60
  -8  -1   9  134.49    7.50
  -7  -1   9   10.90    3.70
  -6  -1   9   78.29    7.00
  -5  -1   9    8.20    3.20
  -4  -1   9    6.90    2.70
  -3  -1   9  338.97   13.90
  -2  -1   9   76.29    4.90
  -1  -1   9  147.39    6.80
   0  -1   9  310.87   13.80
   1  -1   9   41.90    4.70
   2  -1   9  164.88    8.20
   3  -1   9   18.50    3.80
   4  -1   9  196.48   12.30
   5  -1   9  190.58   10.80
   6  -1   9   36.60   10.00
   7  -1   9   17.90   10.50
   8  -1   9    7.00   13.10
  -9   0   9    6.60    7.90
  -8   0   9   19.60    6.90
  -7   0   9    4.80    6.60
  -6   0   9  453.15   36.00
  -5   0   9  681.83   51.09
  -4   0   9   51.59    8.00
  -3   0   9  268.77   21.10
  -2   0   9   15.30    3.60
  -1   0   9  124.49   10.80
   0   0   9   36.20    4.60
   1   0   9  126.79   11.60
   2   0   9   15.10    4.40
   3   0   9    7.00    5.10
   4   0   9   18.90    7.80
   5   0   9  133.39   15.30
   6   0   9   58.39   14.00
   7   0   9   18.90   11.80
   8   0   9  108.79   19.70
  -9   1   9    3.80    5.20
  -8   1   9   95.39    6.80
  -7   1   9  129.39   10.40
  -6   1   9   15.80    3.70
  -5   1   9    7.60    3.00
  -4   1   9   15.80    4.10
  -3   1   9  132.79   10.00
  -2   1   9  336.67   12.40
  -1   1   9    5.20    3.20
   0   1   9  142.49    7.40
   1   1   9    9.50    4.20
   2   1   9   96.09    6.90
   3   1   9  235.88   13.10
   4   1   9  247.18   14.40
   5   1   9   35.20   11.20
   6   1   9  216.18   21.20
   7   1   9   35.60   14.40
  -9   2   9   10.50    5.60
  -8   2   9    5.60    4.40
  -7   2   9   81.09    6.10
  -6   2   9  186.08    8.90
  -5   2   9  500.35   19.20
  -4   2   9 1151.98   37.30
  -3   2   9    8.20    2.70
  -2   2   9    3.70    2.20
  -1   2   9    7.70    2.20
   0   2   9   97.69    4.30
   1   2   9  270.67    9.20
   2   2   9    3.50    2.40
   3   2   9  181.48    9.90
   4   2   9   23.10    4.70
   5   2   9    3.80    3.50
   6   2   9   42.80    7.80
   7   2   9   22.90    8.40
  -9   3   9   37.70   23.20
  -8   3   9    0.00   11.30
  -7   3   9  276.77   19.30
  -6   3   9  167.78   19.60
  -5   3   9  207.58   24.10
  -4   3   9    0.00   10.60
  -3   3   9   15.70    8.20
  -2   3   9 1072.89   43.60
  -1   3   9   69.49    8.40
   0   3   9    0.00   10.30
   1   3   9  140.79   13.40
   2   3   9    0.80    7.80
   3   3   9    3.10   11.00
   4   3   9   88.99   15.60
   5   3   9   27.10   16.30
   6   3   9   72.99   22.50
   7   3   9    0.00   24.60
  -9   4   9  106.09   25.50
  -8   4   9    6.90   12.60
  -7   4   9   10.90   19.00
  -6   4   9   19.40   13.20
  -5   4   9    7.50    7.40
  -4   4   9  216.98   16.30
  -3   4   9   91.99   22.90
  -2   4   9   11.40    5.70
  -1   4   9   17.60   12.60
   0   4   9  166.98    9.80
   1   4   9   66.69    9.40
   2   4   9  532.65   26.50
   3   4   9    2.40   12.50
   4   4   9    6.30   14.90
   5   4   9   17.10   13.60
   6   4   9   13.20   13.70
  -9   5   9   28.50    6.20
  -8   5   9   50.99    6.10
  -7   5   9   75.89    6.20
  -6   5   9   40.70    5.30
  -5   5   9    4.20    3.50
  -4   5   9    9.10    3.60
  -3   5   9  113.29    6.20
  -2   5   9    5.40    3.40
  -1   5   9   54.99    4.60
   0   5   9  196.78    9.10
   1   5   9   33.70    4.10
   2   5   9    6.40    4.80
   3   5   9   33.60    5.80
   4   5   9   80.99    7.50
   5   5   9   94.59    9.10
  -9   6   9    9.00   10.30
  -8   6   9   22.20    7.40
  -7   6   9   11.90    8.00
  -6   6   9  108.09   11.10
  -5   6   9   33.30    5.80
  -4   6   9  179.38   10.10
  -3   6   9  381.96   16.70
  -2   6   9   11.80    4.00
  -1   6   9    2.90    3.70
   0   6   9   49.70    4.90
   1   6   9    6.70    4.30
   2   6   9  147.59   12.50
   3   6   9   35.80    7.80
   4   6   9    1.90    7.60
   5   6   9   10.20    9.90
  -8   7   9  167.68   25.60
  -7   7   9   47.90   14.50
  -6   7   9   23.50    7.20
  -5   7   9   56.79    7.10
  -4   7   9   17.50    5.80
  -3   7   9   91.69    7.40
  -2   7   9  146.39   11.10
  -1   7   9  100.29    8.90
   0   7   9  123.29    9.90
   1   7   9    6.50    7.40
   2   7   9    6.10    9.40
   3   7   9   21.10   12.10
   4   7   9   12.60   16.00
  -8   8   9    8.80    8.40
  -7   8   9    6.60    5.40
  -6   8   9    4.70    5.40
  -5   8   9   69.29    6.90
  -4   8   9   44.30    6.50
  -3   8   9   44.00    5.00
  -2   8   9    9.30    4.50
  -1   8   9    9.90    4.40
   0   8   9   75.39    7.70
   1   8   9   98.49    8.60
   2   8   9   16.70    8.10
   3   8   9  127.39   12.20
  -7   9   9  122.69   10.20
  -6   9   9    5.30    5.00
  -5   9   9    4.80    5.60
  -4   9   9   20.10    5.60
  -3   9   9    6.10    4.70
  -2   9   9   56.29    5.90
  -1   9   9   67.79    6.20
   0   9   9   55.29    7.60
   1   9   9   32.00    6.60
   2   9   9   19.00    9.20
  -6  10   9    0.00   16.70
  -5  10   9   57.79   15.00
  -4  10   9   92.89    9.90
  -3  10   9    5.90    6.40
  -2  10   9   44.80    8.80
  -1  10   9    6.80    8.20
   0  10   9    0.00   11.80
  -3  11   9   18.10   42.00
   0 -17  10    0.00   13.00
   1 -17  10    0.00   11.70
   2 -17  10  103.19   15.80
   3 -17  10   14.70   14.10
   4 -17  10   23.40   10.50
  -2 -16  10    8.60    6.70
  -1 -16  10  135.49   10.20
   0 -16  10   12.80    4.90
   1 -16  10    4.00    5.10
   2 -16  10   56.29    6.60
   3 -16  10   60.49    9.30
   4 -16  10    7.50    3.90
   5 -16  10   61.59    6.20
   6 -16  10    2.20    6.00
  -3 -15  10  129.89   13.70
  -2 -15  10   10.20    7.60
  -1 -15  10    3.60    4.90
   0 -15  10    7.20    4.90
   1 -15  10    3.50    4.90
   2 -15  10   61.69    6.10
   3 -15  10  109.69    9.40
   4 -15  10   17.40    5.00
   5 -15  10   17.80    5.70
   6 -15  10    3.00    4.90
   7 -15  10   14.50    6.30
  -4 -14  10    0.00   20.80
  -3 -14  10    0.00   14.80
  -2 -14  10    0.00   13.70
  -1 -14  10    0.10   10.80
   0 -14  10  180.88   19.80
   1 -14  10   28.70    8.30
   2 -14  10   40.50   10.40
   3 -14  10   23.70    7.60
   4 -14  10    2.30    7.70
   5 -14  10  202.48   12.90
   6 -14  10   44.20   11.40
   7 -14  10   28.70   17.50
  -5 -13  10   26.60    7.20
  -4 -13  10    7.80    9.50
  -3 -13  10   25.80   10.50
  -2 -13  10   71.69    9.00
  -1 -13  10    1.20    6.20
   0 -13  10   12.30    5.60
   1 -13  10   33.60    5.70
   2 -13  10   46.10    8.70
   3 -13  10  284.67   15.60
   4 -13  10   18.10    6.60
   5 -13  10   13.70    5.80
   6 -13  10    2.90    6.50
   7 -13  10   12.20    7.70
   8 -13  10   18.40    9.80
  -5 -12  10   78.19    9.60
  -4 -12  10   16.80    6.50
  -3 -12  10    4.00    5.50
  -2 -12  10   29.50    5.50
  -1 -12  10    5.30    3.30
   0 -12  10  259.87   11.30
   1 -12  10  233.48   10.70
   2 -12  10   10.50    3.70
   3 -12  10    1.80    2.80
   4 -12  10   25.50    4.10
   5 -12  10    5.10    3.80
   6 -12  10  118.69    7.00
   7 -12  10   40.50    5.60
   8 -12  10    2.70    5.50
  -6 -11  10   11.10    9.60
  -5 -11  10   50.29   16.60
  -4 -11  10   80.79   15.30
  -3 -11  10    9.00    9.80
  -2 -11  10  283.07   16.20
  -1 -11  10   34.90    7.70
   0 -11  10    4.00    5.60
   1 -11  10  101.59    9.80
   2 -11  10   49.99    4.90
   3 -11  10  106.79    7.00
   4 -11  10  247.58   13.90
   5 -11  10    2.40    4.80
   6 -11  10    4.10    6.30
   7 -11  10   23.80    8.80
   8 -11  10   21.60    8.40
  -7 -10  10   21.60   11.60
  -6 -10  10  150.38  740.03
  -5 -10  10   25.80   10.00
  -4 -10  10   12.50   17.30
  -3 -10  10   37.80   13.10
  -2 -10  10   32.40    5.30
  -1 -10  10  423.36   20.50
   0 -10  10    6.40    3.50
   1 -10  10   91.79    6.40
   2 -10  10  254.97   11.60
   3 -10  10    4.80    4.00
   4 -10  10   26.70    6.10
   5 -10  10   23.30    5.70
   6 -10  10  130.39   11.90
   7 -10  10   69.99    8.60
   8 -10  10    7.70    9.60
   9 -10  10   43.20   12.10
  -7  -9  10    9.40    5.40
  -6  -9  10    4.70    4.70
  -5  -9  10    5.40    4.20
  -4  -9  10  297.77   13.00
  -3  -9  10  323.47   15.10
  -2  -9  10   57.79    4.00
  -1  -9  10  159.78    6.70
   0  -9  10    1.70    2.30
   1  -9  10   98.99    4.40
   2  -9  10  345.67   11.60
   3  -9  10    7.00    2.50
   4  -9  10  241.88    9.90
   5  -9  10   82.19    5.20
   6  -9  10    9.70    3.90
   7  -9  10   10.80    3.90
   8  -9  10   23.20    6.70
   9  -9  10   22.70    7.40
  -8  -8  10   15.60   10.80
  -7  -8  10  124.89    8.80
  -6  -8  10  440.36   21.70
  -5  -8  10    4.40    3.90
  -4  -8  10    2.10    3.00
  -3  -8  10   74.19    4.60
  -2  -8  10    5.50    2.40
  -1  -8  10    4.20    2.20
   0  -8  10  281.07   10.10
   1  -8  10    6.90    2.00
   2  -8  10   64.89    3.70
   3  -8  10   91.09    4.70
   4  -8  10    6.10    2.90
   5  -8  10  190.78    9.00
   6  -8  10   44.50    5.40
   7  -8  10   21.70    5.60
   8  -8  10  201.88   13.40
   9  -8  10    1.90    7.10
  -8  -7  10  108.39   67.99
  -7  -7  10   32.00   23.40
  -6  -7  10   16.30   15.80
  -5  -7  10   38.30   15.30
  -4  -7  10   40.60    8.80
  -3  -7  10  225.28   11.50
  -2  -7  10   78.19    5.20
  -1  -7  10   17.70    2.50
   0  -7  10   10.40    2.30
   1  -7  10  120.59    5.70
   2  -7  10  209.98    9.60
   3  -7  10  306.97   12.30
   4  -7  10    3.10    4.00
   5  -7  10   84.49    8.10
   6  -7  10   30.20   10.60
   7  -7  10   17.80   10.10
   8  -7  10   88.79   19.00
   9  -7  10   77.59   26.40
  -8  -6  10   33.70    8.00
  -7  -6  10  179.28   11.10
  -6  -6  10   19.40    6.00
  -5  -6  10  324.97   16.20
  -4  -6  10   87.69    5.80
  -3  -6  10    5.00    2.10
  -2  -6  10    8.40    2.40
  -1  -6  10   28.60    2.60
   0  -6  10 1111.29   33.30
   1  -6  10  371.26   12.00
   2  -6  10  206.18    7.60
   3  -6  10  104.59    4.80
   4  -6  10   12.80    3.30
   5  -6  10    4.50    3.70
   6  -6  10   88.89    7.30
   7  -6  10    7.20    6.90
   8  -6  10   90.39   11.80
   9  -6  10   14.10    9.40
  -9  -5  10    5.30   19.30
  -8  -5  10   32.40    6.40
  -7  -5  10  100.29    8.30
  -6  -5  10    4.80    3.50
  -5  -5  10    5.40    3.40
  -4  -5  10   70.19    4.60
  -3  -5  10  132.89    5.70
  -2  -5  10  837.42   26.70
  -1  -5  10   88.69    3.80
   0  -5  10  186.88    6.60
   1  -5  10    9.30    2.10
   2  -5  10    3.10    2.30
   3  -5  10  140.69    6.00
   4  -5  10  247.98   10.00
   5  -5  10   29.20    4.70
   6  -5  10   36.80    4.90
   7  -5  10  127.49    8.20
   8  -5  10   21.60    7.10
   9  -5  10  119.09   11.30
  -9  -4  10  107.49   36.90
  -8  -4  10    6.60   28.70
  -7  -4  10   44.50   16.80
  -6  -4  10   22.50    8.70
  -5  -4  10  557.74   29.40
  -4  -4  10    6.00    5.30
  -3  -4  10   28.40    6.10
  -2  -4  10  186.48   13.00
  -1  -4  10  299.17   12.20
   0  -4  10   35.10    7.30
   1  -4  10  879.11   30.20
   2  -4  10  324.47   17.10
   3  -4  10   26.20   10.50
   4  -4  10   16.50   11.40
   5  -4  10    0.00    8.50
   6  -4  10  129.69   15.20
   7  -4  10   88.19   13.20
   8  -4  10   38.90   19.70
  -9  -3  10   45.10   11.70
  -8  -3  10    0.00    9.40
  -7  -3  10  196.98   14.20
  -6  -3  10   10.70   11.40
  -5  -3  10    0.00   18.40
  -4  -3  10  105.09    8.00
  -3  -3  10   64.39    7.10
  -2  -3  10  202.48   14.10
  -1  -3  10  225.18   10.60
   0  -3  10    0.00   26.70
   1  -3  10   86.79   10.60
   2  -3  10  312.67   14.90
   3  -3  10  167.98    9.60
   4  -3  10  485.35   24.20
   5  -3  10   32.20   16.20
   6  -3  10   89.79   34.10
   7  -3  10    0.00   16.40
   8  -3  10   32.90   25.50
  -9  -2  10    7.70    4.90
  -8  -2  10    2.60    3.50
  -7  -2  10  113.99    7.50
  -6  -2  10  359.36   15.00
  -5  -2  10   21.00    3.40
  -4  -2  10  382.76   14.20
  -3  -2  10   21.30    2.70
  -2  -2  10    4.00    2.40
  -1  -2  10   97.69    4.30
   0  -2  10   45.90    2.80
   1  -2  10  296.07   10.10
   2  -2  10   77.99    3.80
   3  -2  10    8.50    3.00
   4  -2  10    8.80    4.00
   5  -2  10  193.68   10.20
   6  -2  10    6.10    4.30
   7  -2  10   77.89    9.20
   8  -2  10   36.40    8.80
  -9  -1  10  159.68    9.20
  -8  -1  10   81.29    5.90
  -7  -1  10   33.70    6.30
  -6  -1  10    4.10    4.20
  -5  -1  10    4.60    3.80
  -4  -1  10  191.08   10.40
  -3  -1  10  623.54   26.60
  -2  -1  10    5.20    4.40
  -1  -1  10  226.48    8.60
   0  -1  10   90.79    6.20
   1  -1  10    8.90    4.10
   2  -1  10  171.88    8.10
   3  -1  10  127.99    8.60
   4  -1  10  222.08   13.50
   5  -1  10  202.78   16.50
   6  -1  10    5.40    9.00
   7  -1  10    0.00   15.00
   8  -1  10   82.39   11.50
  -9   0  10   18.10    8.10
  -8   0  10   13.20    7.90
  -7   0  10    5.40    9.20
  -6   0  10  178.98   15.80
  -5   0  10  343.27   32.50
  -4   0  10   11.50    5.70
  -3   0  10    7.20    3.50
  -2   0  10  110.39    9.20
  -1   0  10  193.58   16.60
   0   0  10  582.44   42.40
   1   0  10    6.30    4.70
   2   0  10  381.56   36.40
   3   0  10   56.29    7.50
   4   0  10   18.90    8.90
   5   0  10  105.59   21.30
   6   0  10   37.50   11.30
   7   0  10    8.80   12.40
  -9   1  10   54.59    7.80
  -8   1  10  106.59    9.60
  -7   1  10    8.20    4.40
  -6   1  10   35.20    5.80
  -5   1  10   49.50    8.30
  -4   1  10   64.99    6.30
  -3   1  10  502.15   26.20
  -2   1  10  150.68    8.60
  -1   1  10   68.69    5.80
   0   1  10   43.80    4.80
   1   1  10    6.60    5.00
   2   1  10   17.20    4.20
   3   1  10   11.20    4.60
   4   1  10   21.80    5.20
   5   1  10   74.19   11.70
   6   1  10   44.00   11.20
   7   1  10    4.20   13.80
  -9   2  10   18.30    6.10
  -8   2  10    5.30    4.50
  -7   2  10   14.30    4.70
  -6   2  10   68.09    5.50
  -5   2  10  302.17   13.60
  -4   2  10   60.89    5.90
  -3   2  10   54.39    4.40
  -2   2  10   29.30    3.10
  -1   2  10   41.70    3.30
   0   2  10  226.98    8.80
   1   2  10  156.88    6.70
   2   2  10   22.60    3.30
   3   2  10   47.90    5.40
   4   2  10    6.70    4.30
   5   2  10   27.40    7.40
   6   2  10  107.39   11.80
  -9   3  10   22.60   16.90
  -8   3  10   52.39   13.40
  -7   3  10  122.09   12.40
  -6   3  10   74.99   14.50
  -5   3  10   26.00   21.20
  -4   3  10    0.00    8.90
  -3   3  10   46.10   11.10
  -2   3  10   84.89    9.80
  -1   3  10  470.65   21.80
   0   3  10   21.50   14.90
   1   3  10   34.90    9.10
   2   3  10   66.79    7.60
   3   3  10   11.40   11.60
   4   3  10  183.58   16.50
   5   3  10   45.80   19.80
   6   3  10    9.90   22.50
  -9   4  10   16.10    7.80
  -8   4  10    7.50   23.30
  -7   4  10   73.69   17.40
  -6   4  10   83.39   14.60
  -5   4  10   51.49    8.20
  -4   4  10  521.05   26.90
  -3   4  10  141.49   14.00
  -2   4  10    0.00    7.40
  -1   4  10   11.30    8.30
   0   4  10   29.00    8.90
   1   4  10  166.58   12.10
   2   4  10   77.39   16.70
   3   4  10   25.00   18.50
   4   4  10   65.09   16.20
   5   4  10    0.00   15.50
  -8   5  10    9.50    6.10
  -7   5  10   96.59    7.80
  -6   5  10   15.60    5.20
  -5   5  10    4.00    3.90
  -4   5  10   94.29    6.20
  -3   5  10   56.89    5.30
  -2   5  10   37.20    4.00
  -1   5  10  476.55   18.30
   0   5  10    4.50    4.10
   1   5  10    9.10    4.80
   2   5  10   12.50    5.50
   3   5  10    7.00    6.10
   4   5  10   27.20    6.30
   5   5  10    9.00    8.20
  -8   6  10    7.10    8.00
  -7   6  10   10.30    9.00
  -6   6  10   50.79    8.30
  -5   6  10    5.70    5.40
  -4   6  10   68.99    7.20
  -3   6  10   54.69    6.50
  -2   6  10    9.60    4.90
  -1   6  10   30.00    4.80
   0   6  10  133.89    8.20
   1   6  10    1.90    4.90
   2   6  10   68.59    9.40
   3   6  10   38.70    8.40
   4   6  10    4.40    8.30
  -8   7  10  122.99   35.10
  -7   7  10    6.80   17.60
  -6   7  10   15.80    8.90
  -5   7  10    5.10    7.80
  -4   7  10    4.40    7.00
  -3   7  10   87.59    7.90
  -2   7  10   63.49    7.90
  -1   7  10   98.09   11.00
   0   7  10   11.50    7.10
   1   7  10    9.30    8.50
   2   7  10   29.00   10.90
   3   7  10   45.00   14.70
  -7   8  10    7.80    6.90
  -6   8  10   54.49    7.80
  -5   8  10  120.69    9.00
  -4   8  10    8.00    6.20
  -3   8  10   80.19    6.70
  -2   8  10   25.10    6.20
  -1   8  10    4.90    6.10
   0   8  10   22.00    7.20
   1   8  10   17.10    8.70
   2   8  10   48.60    9.70
  -6   9  10    4.30    7.00
  -5   9  10   10.10    7.30
  -4   9  10    6.20    5.80
  -3   9  10   23.20    5.50
  -2   9  10  105.79    8.10
  -1   9  10   15.40    6.40
   0   9  10   27.40    8.60
   1   9  10    5.30   10.50
  -4  10  10   43.90   12.30
  -3  10  10    6.10    7.60
  -2  10  10    0.00    8.40
   0 -17  11   19.10   13.10
   1 -17  11   66.49   12.90
   2 -17  11   39.30   13.20
   3 -17  11   27.40   10.40
   4 -17  11   32.40   16.20
  -2 -16  11    3.20   12.40
  -1 -16  11   26.80    6.50
   0 -16  11    9.60    5.70
   1 -16  11   16.60    6.20
   2 -16  11    7.30    5.30
   3 -16  11   52.09    8.20
   4 -16  11  132.29    8.70
   5 -16  11   56.49    6.60
   6 -16  11    3.10   14.80
  -3 -15  11   60.69   11.70
  -2 -15  11   10.70    7.30
  -1 -15  11    3.50    4.90
   0 -15  11   29.10    6.20
   1 -15  11    7.90    5.30
   2 -15  11   39.00    5.90
   3 -15  11    6.20    5.60
   4 -15  11    5.80    4.20
   5 -15  11    7.10    5.70
   6 -15  11   13.30    6.00
  -4 -14  11   19.30   20.70
  -3 -14  11    0.00   16.10
  -2 -14  11   31.90   13.80
  -1 -14  11  192.38   24.50
   0 -14  11  111.39   13.50
   1 -14  11    0.10   13.80
   2 -14  11    8.50   12.70
   3 -14  11    0.00    9.30
   4 -14  11    8.40    8.30
   5 -14  11   98.89   11.30
   6 -14  11    0.00   11.00
   7 -14  11   43.60   15.60
  -5 -13  11   48.90    8.80
  -4 -13  11    0.90    9.70
  -3 -13  11   89.49   11.70
  -2 -13  11   58.89    8.10
  -1 -13  11   14.50    4.70
   0 -13  11   21.80    5.70
   1 -13  11   11.20    6.90
   2 -13  11  164.78   12.70
   3 -13  11  137.99   12.10
   4 -13  11   10.10    6.00
   5 -13  11   11.80    6.10
   6 -13  11   19.80    7.30
   7 -13  11   16.30    8.60
  -5 -12  11   41.40    7.90
  -4 -12  11    2.20    5.60
  -3 -12  11   13.20    5.30
  -2 -12  11  128.99    9.70
  -1 -12  11   15.60    3.70
   0 -12  11  168.28    8.80
   1 -12  11   70.29    5.30
   2 -12  11    7.30    3.70
   3 -12  11  114.59    6.20
   4 -12  11   21.80    4.00
   5 -12  11   24.40    4.30
   6 -12  11   99.69    6.90
   7 -12  11    5.40    4.90
   8 -12  11    5.00    5.60
  -6 -11  11    4.00    7.90
  -5 -11  11   83.49   15.60
  -4 -11  11   46.70   10.00
  -3 -11  11    8.10    9.20
  -2 -11  11  176.68   10.40
  -1 -11  11   17.10    5.80
   0 -11  11   56.49    7.40
   1 -11  11  264.77   17.20
   2 -11  11    7.90    3.50
   3 -11  11  188.08   10.10
   4 -11  11  268.47   14.90
   5 -11  11    7.30    6.20
   6 -11  11    3.50    7.10
   7 -11  11   15.50    7.10
   8 -11  11   68.59   12.20
  -6 -10  11    0.00   34.10
  -5 -10  11    3.60    7.30
  -4 -10  11   13.10   21.30
  -3 -10  11    6.80   10.50
  -2 -10  11   82.59    8.20
  -1 -10  11   54.09    6.80
   0 -10  11    2.40    3.60
   1 -10  11  184.88   10.00
   2 -10  11   10.50    4.30
   3 -10  11   24.70    4.80
   4 -10  11    5.00    6.30
   5 -10  11  128.99    9.70
   6 -10  11   69.49   10.20
   7 -10  11   50.09    9.50
   8 -10  11   17.60    9.60
  -7  -9  11    8.40    5.90
  -6  -9  11   32.80    5.20
  -5  -9  11   53.99    5.00
  -4  -9  11  130.39    7.10
  -3  -9  11   87.99    6.10
  -2  -9  11  126.89    6.60
  -1  -9  11   57.09    3.70
   0  -9  11   19.50    3.10
   1  -9  11   77.29    3.90
   2  -9  11  205.88    8.10
   3  -9  11   17.10    3.20
   4  -9  11   88.59    5.50
   5  -9  11    5.00    3.60
   6  -9  11   26.00    3.70
   7  -9  11   53.79    7.50
   8  -9  11   29.10    7.50
  -7  -8  11    4.30    5.50
  -6  -8  11  210.88   11.00
  -5  -8  11  110.69    7.30
  -4  -8  11   49.90    5.20
  -3  -8  11  188.98    8.40
  -2  -8  11    4.00    2.60
  -1  -8  11  434.46   15.80
   0  -8  11  118.79    5.00
   1  -8  11   28.40    3.00
   2  -8  11   51.99    3.60
   3  -8  11   22.50    3.10
   4  -8  11   14.80    3.50
   5  -8  11  224.58   10.80
   6  -8  11    7.10    5.70
   7  -8  11  176.08   12.60
   8  -8  11    5.60    7.40
  -8  -7  11   38.90   38.90
  -7  -7  11   23.70   25.90
  -6  -7  11   65.29   20.30
  -5  -7  11    1.50   10.60
  -4  -7  11    3.70    8.70
  -3  -7  11  359.46   15.40
  -2  -7  11   32.80    4.10
  -1  -7  11  112.99    5.60
   0  -7  11    3.00    2.50
   1  -7  11    1.50    2.90
   2  -7  11  405.56   15.00
   3  -7  11  208.38   10.40
   4  -7  11  133.79   11.20
   5  -7  11   99.99    9.80
   6  -7  11    1.60   14.10
   7  -7  11    0.00   16.00
   8  -7  11   91.89   19.60
  -8  -6  11   66.69   11.50
  -7  -6  11    5.40    6.30
  -6  -6  11  212.68   17.70
  -5  -6  11  329.67   18.90
  -4  -6  11    2.50    3.40
  -3  -6  11    7.50    3.30
  -2  -6  11    6.60    2.10
  -1  -6  11  158.38    6.30
   0  -6  11   99.39    4.70
   1  -6  11    7.50    2.20
   2  -6  11    7.70    2.50
   3  -6  11   84.69    4.60
   4  -6  11    8.00    4.10
   5  -6  11  196.08   11.20
   6  -6  11  163.68   12.20
   7  -6  11    4.10    5.60
   8  -6  11   25.00   10.10
  -8  -5  11   36.90    5.40
  -7  -5  11   15.90    5.60
  -6  -5  11   15.90    3.70
  -5  -5  11   36.60    4.40
  -4  -5  11   10.60    3.20
  -3  -5  11  272.77   11.20
  -2  -5  11  168.18    6.90
  -1  -5  11    4.90    2.00
   0  -5  11    2.20    2.10
   1  -5  11   86.99    4.10
   2  -5  11    4.80    2.40
   3  -5  11  192.58    8.00
   4  -5  11   71.99    5.40
   5  -5  11    4.10    4.20
   6  -5  11    6.80    4.90
   7  -5  11    8.90    5.10
   8  -5  11   54.09    7.80
  -8  -4  11   24.90   20.60
  -7  -4  11  104.09   20.50
  -6  -4  11   11.10   10.90
  -5  -4  11  100.99    9.50
  -4  -4  11   27.00    8.30
  -3  -4  11  142.59   10.40
  -2  -4  11  582.44   30.80
  -1  -4  11  114.79   11.40
   0  -4  11  239.98   11.10
   1  -4  11  818.72   29.90
   2  -4  11   40.10    6.40
   3  -4  11    9.50   14.40
   4  -4  11    0.50    8.00
   5  -4  11   36.20    9.90
   6  -4  11   29.80   11.30
   7  -4  11   14.70   15.90
   8  -4  11   17.30   17.90
  -9  -3  11   16.90   22.70
  -8  -3  11   54.59   15.10
  -7  -3  11  111.99   13.50
  -6  -3  11   34.70   19.20
  -5  -3  11  107.59   10.30
  -4  -3  11  403.86   25.90
  -3  -3  11   37.00    6.70
  -2  -3  11  411.46   25.50
  -1  -3  11  157.08    8.80
   0  -3  11    0.00   23.30
   1  -3  11   21.70    6.00
   2  -3  11   54.79    9.60
   3  -3  11  148.49   11.10
   4  -3  11  125.09   12.00
   5  -3  11    5.60   21.40
   6  -3  11    8.90   19.20
   7  -3  11   95.19   26.70
   8  -3  11    0.00   25.20
  -9  -2  11   18.70    6.10
  -8  -2  11   26.50    5.50
  -7  -2  11  155.38    9.00
  -6  -2  11  122.59    7.10
  -5  -2  11  248.88   11.10
  -4  -2  11  324.17   15.00
  -3  -2  11   19.60    3.00
  -2  -2  11    4.10    2.50
  -1  -2  11  297.87   10.40
   0  -2  11  225.48    8.00
   1  -2  11  197.28    7.60
   2  -2  11  136.69    6.10
   3  -2  11    1.60    3.40
   4  -2  11   80.09    6.50
   5  -2  11   26.80    5.20
   6  -2  11   56.49    8.00
   7  -2  11   48.00    9.00
  -9  -1  11  146.09   11.90
  -8  -1  11   10.60    6.70
  -7  -1  11   47.80    6.60
  -6  -1  11   11.50    4.40
  -5  -1  11  112.59    8.10
  -4  -1  11   43.60    5.20
  -3  -1  11  268.27   25.50
  -2  -1  11   10.40    4.30
  -1  -1  11   27.20    4.50
   0  -1  11   24.60    4.40
   1  -1  11   37.60    5.70
   2  -1  11  348.27   13.90
   3  -1  11   57.19    6.10
   4  -1  11  217.58   12.40
   5  -1  11  167.08   17.20
   6  -1  11    9.50   10.10
   7  -1  11    6.60   12.20
  -9   0  11   16.80   10.00
  -8   0  11   70.69   12.50
  -7   0  11   19.20   10.40
  -6   0  11  409.56   38.30
  -5   0  11  204.98   20.40
  -4   0  11  118.29   13.60
  -3   0  11  222.98   15.30
  -2   0  11    1.20    4.20
  -1   0  11   44.00    5.60
   0   0  11  306.37   21.20
   1   0  11  102.99   10.50
   2   0  11  235.48   19.80
   3   0  11    0.60    5.30
   4   0  11    3.70   12.70
   5   0  11   84.99   13.90
   6   0  11   49.60   13.50
   7   0  11    3.40   13.40
  -9   1  11   31.30    7.10
  -8   1  11  203.78   17.00
  -7   1  11   27.10    8.70
  -6   1  11    9.60    9.40
  -5   1  11    8.40    7.70
  -4   1  11    9.00    4.30
  -3   1  11  390.96   20.90
  -2   1  11   78.69    6.50
  -1   1  11   28.00    6.10
   0   1  11  121.59    8.80
   1   1  11   18.30    6.10
   2   1  11   30.50    5.20
   3   1  11  275.87   17.00
   4   1  11   13.30    9.80
   5   1  11   71.59   12.10
   6   1  11   10.50   11.90
  -9   2  11   29.60    6.60
  -8   2  11   10.90    4.80
  -7   2  11   37.30    5.10
  -6   2  11   26.90    4.40
  -5   2  11   65.19    5.80
  -4   2  11    4.30    4.90
  -3   2  11   15.20    4.00
  -2   2  11   85.29    4.90
  -1   2  11    3.10    3.20
   0   2  11  270.47   10.50
   1   2  11  308.07   12.00
   2   2  11   13.40    3.60
   3   2  11   56.99    6.30
   4   2  11   10.20    5.10
   5   2  11   27.50    7.90
   6   2  11   43.50   10.00
  -8   3  11  115.79   16.20
  -7   3  11  110.89   15.10
  -6   3  11   77.39   12.40
  -5   3  11   14.70   10.50
  -4   3  11  323.77   22.00
  -3   3  11  325.47   18.30
  -2   3  11  485.85   23.90
  -1   3  11    0.00   14.90
   0   3  11   12.70    8.40
   1   3  11    1.70   11.10
   2   3  11    3.40    5.00
   3   3  11   48.50   13.80
   4   3  11   37.80   13.90
   5   3  11    0.00   22.20
  -8   4  11   28.70   22.80
  -7   4  11   91.49   12.00
  -6   4  11   28.80   12.60
  -5   4  11  118.89   15.40
  -4   4  11  129.09   16.40
  -3   4  11    1.20    7.90
  -2   4  11   12.70    7.50
  -1   4  11   88.99   10.00
   0   4  11   28.80   12.10
   1   4  11  181.38   17.40
   2   4  11    0.00   18.00
   3   4  11   35.00   18.00
   4   4  11   58.49   18.10
   5   4  11    0.00   19.70
  -8   5  11   22.10    7.10
  -7   5  11   60.49    6.90
  -6   5  11    6.10    5.30
  -5   5  11    5.30    4.60
  -4   5  11  134.69    8.10
  -3   5  11   42.80    5.20
  -2   5  11   42.20    4.50
  -1   5  11  159.08   10.00
   0   5  11   10.50    4.80
   1   5  11   17.40    5.10
   2   5  11   44.90    6.60
   3   5  11    6.50    5.90
   4   5  11   45.00    7.90
  -7   6  11   59.29    9.90
  -6   6  11  159.28   11.70
  -5   6  11    9.60    5.80
  -4   6  11   80.49    7.80
  -3   6  11   28.30    7.30
  -2   6  11    6.20    5.30
  -1   6  11   68.39    6.70
   0   6  11   12.50    5.50
   1   6  11  145.99    9.60
   2   6  11   41.80    9.30
   3   6  11   15.00    9.20
  -7   7  11    4.90    9.50
  -6   7  11    9.70   15.80
  -5   7  11   14.10    9.60
  -4   7  11   39.90    8.50
  -3   7  11   79.99   10.90
  -2   7  11   25.50    9.50
  -1   7  11   83.59   12.30
   0   7  11   42.00   10.10
   1   7  11   11.60    9.80
   2   7  11   35.10   15.10
  -6   8  11   48.10    8.20
  -5   8  11   17.10    6.40
  -4   8  11   32.50    6.60
  -3   8  11    5.20    6.40
  -2   8  11   16.20    6.80
  -1   8  11    6.70    7.40
   0   8  11  108.09   11.20
   1   8  11   21.40    7.50
  -4   9  11    8.60    7.10
  -3   9  11   31.60    6.90
  -2   9  11   61.09    8.00
  -1   9  11   11.90    6.90
   1 -17  12   29.90   11.30
   2 -17  12   14.20   10.10
   3 -17  12   10.40   10.00
  -1 -16  12   77.69    8.70
   0 -16  12    6.50    5.80
   1 -16  12    7.40    6.00
   2 -16  12   13.60    6.00
   3 -16  12   18.60    7.00
   4 -16  12   34.00    5.90
   5 -16  12    8.90    5.80
  -3 -15  12   20.60   11.90
  -2 -15  12    7.20    7.60
  -1 -15  12    8.00    5.00
   0 -15  12    5.90    5.50
   1 -15  12   61.89    7.40
   2 -15  12  101.89   10.20
   3 -15  12   11.70    6.80
   4 -15  12   32.90    5.50
   5 -15  12    3.50    5.20
   6 -15  12    6.70    6.40
  -4 -14  12    3.40   21.60
  -3 -14  12    0.00   15.20
  -2 -14  12    4.50   12.70
  -1 -14  12  100.39   13.40
   0 -14  12   57.19    9.90
   1 -14  12    0.00   12.60
   2 -14  12    0.00    9.70
   3 -14  12   48.20   12.00
   4 -14  12   76.39   11.30
   5 -14  12  172.48   14.50
   6 -14  12    0.00   12.10
   7 -14  12   19.60    8.40
  -4 -13  12   13.00    8.60
  -3 -13  12   92.09   11.40
  -2 -13  12   11.00    7.10
  -1 -13  12    6.30    4.70
   0 -13  12  114.59   11.30
   1 -13  12    8.40    7.40
   2 -13  12   86.69   10.10
   3 -13  12   72.09    9.20
   4 -13  12    7.30    7.30
   5 -13  12    4.00    6.30
   6 -13  12    9.60    7.10
   7 -13  12    5.40    9.70
  -5 -12  12    5.40    6.80
  -4 -12  12   31.20    6.60
  -3 -12  12   45.00    6.10
  -2 -12  12   98.89    6.30
  -1 -12  12   21.50    4.50
   0 -12  12  291.87   13.10
   1 -12  12   19.40    4.20
   2 -12  12   16.80    4.40
   3 -12  12   52.59    4.60
   4 -12  12    7.70    4.10
   5 -12  12   26.60    4.60
   6 -12  12   46.30    5.70
   7 -12  12    5.50    5.00
  -6 -11  12    5.10   11.90
  -5 -11  12  138.79   23.40
  -4 -11  12   39.00   10.30
  -3 -11  12   19.70   11.90
  -2 -11  12   75.79   12.70
  -1 -11  12    5.40    5.60
   0 -11  12   78.79    9.00
   1 -11  12  296.47   18.10
   2 -11  12   53.49    5.00
   3 -11  12  245.48   14.90
   4 -11  12   11.90    5.20
   5 -11  12   18.60    7.10
   6 -11  12   12.00    7.20
   7 -11  12   37.50   15.70
   8 -11  12   20.30    8.40
  -6 -10  12   23.70   16.30
  -5 -10  12  103.29   18.40
  -4 -10  12    5.60    9.50
  -3 -10  12   12.30    8.70
  -2 -10  12  157.78   12.00
  -1 -10  12  194.28   13.00
   0 -10  12  121.89    9.70
   1 -10  12   55.39    5.90
   2 -10  12    2.10    4.50
   3 -10  12   60.39    7.80
   4 -10  12  280.77   15.50
   5 -10  12    1.20    5.50
   6 -10  12   87.19   10.40
   7 -10  12   29.50    9.90
   8 -10  12    2.40    9.70
  -7  -9  12    4.60    5.80
  -6  -9  12   51.39    5.30
  -5  -9  12   17.00    3.80
  -4  -9  12  211.08   10.80
  -3  -9  12    8.10    2.90
  -2  -9  12   36.00    3.80
  -1  -9  12    6.70    3.00
   0  -9  12   14.80    3.10
   1  -9  12  151.08    6.80
   2  -9  12  279.57   11.00
   3  -9  12   18.70    3.60
   4  -9  12  305.87   13.30
   5  -9  12    2.30    3.50
   6  -9  12   13.80    5.50
   7  -9  12  112.69   10.00
   8  -9  12   26.00    8.30
  -7  -8  12  150.58   11.30
  -6  -8  12  101.49    7.20
  -5  -8  12   11.00    3.60
  -4  -8  12   50.79    4.70
  -3  -8  12    3.80    3.00
  -2  -8  12   35.40    3.10
  -1  -8  12  198.68    7.70
   0  -8  12   13.10    2.80
   1  -8  12  363.86   13.40
   2  -8  12   18.10    3.00
   3  -8  12   11.30    3.90
   4  -8  12   91.39    6.30
   5  -8  12   97.99    8.90
   6  -8  12    1.90    5.90
   7  -8  12    4.80    6.60
   8  -8  12   11.80    8.00
  -7  -7  12   16.50   29.80
  -6  -7  12   89.69   17.70
  -5  -7  12   30.90   12.50
  -4  -7  12  161.48   10.90
  -3  -7  12  135.99   10.20
  -2  -7  12    6.50    3.10
  -1  -7  12    9.70    3.40
   0  -7  12    3.70    3.00
   1  -7  12   31.70    4.10
   2  -7  12  148.19    7.40
   3  -7  12    6.70    6.20
   4  -7  12    8.10    6.70
   5  -7  12    7.00    8.90
   6  -7  12    3.40   16.60
   7  -7  12   40.70   16.30
   8  -7  12  200.78   36.00
  -8  -6  12   42.60   12.00
  -7  -6  12    5.00    9.40
  -6  -6  12  160.68   12.60
  -5  -6  12   25.50    5.50
  -4  -6  12   11.60    4.90
  -3  -6  12  262.37   15.40
  -2  -6  12  107.19    6.70
  -1  -6  12  278.37   10.30
   0  -6  12  516.15   18.00
   1  -6  12    5.20    2.40
   2  -6  12    4.60    2.70
   3  -6  12    1.60    2.90
   4  -6  12   82.79    7.40
   5  -6  12  234.58   13.30
   6  -6  12   27.50    7.00
   7  -6  12   11.70    6.60
   8  -6  12   25.00   10.40
  -8  -5  12   40.80    9.00
  -7  -5  12    8.50    5.60
  -6  -5  12   38.70    4.80
  -5  -5  12  110.69    6.40
  -4  -5  12    9.30    3.50
  -3  -5  12  279.77   11.70
  -2  -5  12   27.70    3.60
  -1  -5  12    6.00    2.30
   0  -5  12   46.30    3.20
   1  -5  12   40.00    3.30
   2  -5  12  175.18    7.80
   3  -5  12  210.18    8.80
   4  -5  12   77.39    6.30
   5  -5  12   57.19    6.40
   6  -5  12   13.30    4.90
   7  -5  12    1.10    5.40
   8  -5  12   54.99    8.60
  -8  -4  12   24.80   24.20
  -7  -4  12   13.50   14.70
  -6  -4  12  104.69   15.60
  -5  -4  12  290.67   27.90
  -4  -4  12   26.00    7.20
  -3  -4  12   17.00   10.00
  -2  -4  12  101.59   32.10
  -1  -4  12    5.80    5.90
   0  -4  12   84.49    7.80
   1  -4  12   14.90    6.10
   2  -4  12   18.00    7.10
   3  -4  12   68.19   11.30
   4  -4  12  211.78   16.50
   5  -4  12  100.39   16.80
   6  -4  12  149.39   14.00
   7  -4  12   17.20   15.10
   8  -4  12   25.30   16.40
  -8  -3  12   43.10   25.30
  -7  -3  12   17.70   12.40
  -6  -3  12    0.00   21.50
  -5  -3  12  319.67   22.40
  -4  -3  12  224.48   22.80
  -3  -3  12  193.08   11.20
  -2  -3  12   93.79    8.60
  -1  -3  12    0.00   40.40
   0  -3  12   34.50    8.30
   1  -3  12  176.48   10.50
   2  -3  12  158.38   14.50
   3  -3  12   15.00    8.80
   4  -3  12  178.68   13.70
   5  -3  12    8.00   18.80
   6  -3  12    6.70   17.40
   7  -3  12    0.00   22.90
  -8  -2  12    6.60    5.00
  -7  -2  12  107.69    7.20
  -6  -2  12   53.09    5.70
  -5  -2  12    7.10    3.90
  -4  -2  12   63.89    5.80
  -3  -2  12   60.19    6.00
  -2  -2  12  250.17   10.70
  -1  -2  12  375.06   13.40
   0  -2  12   64.69    4.00
   1  -2  12  293.67   12.10
   2  -2  12   38.30    3.60
   3  -2  12   39.40    4.90
   4  -2  12   37.30    5.50
   5  -2  12    7.20    5.00
   6  -2  12   67.59    9.20
   7  -2  12   43.20    9.60
  -8  -1  12   21.20   10.50
  -7  -1  12   11.30    8.50
  -6  -1  12   20.70    7.80
  -5  -1  12    9.70    8.20
  -4  -1  12  106.49    8.60
  -3  -1  12  167.58   14.50
  -2  -1  12   43.90    5.90
  -1  -1  12  426.56   16.50
   0  -1  12   64.49    6.50
   1  -1  12  232.28   11.60
   2  -1  12   82.49    6.40
   3  -1  12   22.40    6.90
   4  -1  12   58.59   10.30
   5  -1  12    2.70    9.30
   6  -1  12    3.10   11.60
   7  -1  12   15.10    9.40
  -8   0  12   11.20   10.10
  -7   0  12   57.19   12.50
  -6   0  12  106.09   15.40
  -5   0  12    9.30    9.60
  -4   0  12  201.68   23.10
  -3   0  12    1.90    4.70
  -2   0  12   21.20    6.10
  -1   0  12  376.06   31.10
   0   0  12   43.00    8.30
   1   0  12    4.70    7.20
   2   0  12   25.80    6.80
   3   0  12   23.20    7.00
   4   0  12   66.19   14.90
   5   0  12  121.29   18.90
   6   0  12   14.50   17.90
  -8   1  12   23.30    9.30
  -7   1  12   13.30    9.60
  -6   1  12    8.70    7.90
  -5   1  12   39.90    9.30
  -4   1  12   16.10    5.40
  -3   1  12  129.39    9.70
  -2   1  12    0.80    7.00
  -1   1  12   40.00    6.50
   0   1  12  186.08   12.20
   1   1  12   37.60    7.90
   2   1  12  328.97   18.90
   3   1  12  188.78   14.70
   4   1  12   14.00   10.90
   5   1  12   52.69   12.00
   6   1  12    1.60   13.20
  -8   2  12  177.98   14.60
  -7   2  12   34.00    9.80
  -6   2  12  142.09   11.10
  -5   2  12  100.99    8.60
  -4   2  12    7.10    5.00
  -3   2  12   10.90    4.60
  -2   2  12   11.90    3.60
  -1   2  12   73.39    5.10
   0   2  12  136.39    7.20
   1   2  12   24.50    4.00
   2   2  12   21.80    4.30
   3   2  12   23.00    5.80
   4   2  12    4.50    7.30
   5   2  12   52.69    9.80
  -8   3  12  151.18   20.80
  -7   3  12  168.28   15.80
  -6   3  12   87.19   13.40
  -5   3  12  133.89   14.20
  -4   3  12   21.90   10.80
  -3   3  12  242.18   22.10
  -2   3  12  290.27   19.70
  -1   3  12   47.40   17.20
   0   3  12   24.60   14.00
   1   3  12    0.00   11.40
   2   3  12    8.40    5.40
   3   3  12    0.00   16.70
   4   3  12    0.00   19.80
   5   3  12    7.50    9.30
  -8   4  12    8.50    7.20
  -7   4  12   72.79   13.70
  -6   4  12    0.00   13.20
  -5   4  12   36.10   15.20
  -4   4  12   32.90   15.20
  -3   4  12    0.00   11.70
  -2   4  12   47.40   13.80
  -1   4  12   58.29   13.20
   0   4  12    8.70   10.60
   1   4  12  233.78   21.60
   2   4  12    0.00   16.20
   3   4  12   29.90   16.60
   4   4  12   48.90   19.70
  -7   5  12   34.80    8.20
  -6   5  12    3.70    6.00
  -5   5  12   35.70    5.70
  -4   5  12  175.58   10.20
  -3   5  12   11.50    6.00
  -2   5  12   55.69    5.90
  -1   5  12   17.80    5.80
   0   5  12    6.20    5.50
   1   5  12   17.40    6.60
   2   5  12    7.30    6.80
   3   5  12   74.99    8.70
  -7   6  12   90.29   11.30
  -6   6  12  119.99   10.60
  -5   6  12   20.10    6.60
  -4   6  12  100.29   10.20
  -3   6  12    5.80    7.80
  -2   6  12    7.80    5.90
  -1   6  12   47.10    6.70
   0   6  12    7.50    7.00
   1   6  12   59.29    7.60
   2   6  12    9.70    8.70
  -6   7  12    4.60    8.90
  -5   7  12   19.00   11.00
  -4   7  12   65.89   11.10
  -3   7  12   36.30   11.30
  -2   7  12    0.80    8.10
  -1   7  12   38.20    9.70
   0   7  12   18.10   12.10
   1   7  12    8.00    8.70
  -4   8  12    6.80    7.40
  -3   8  12    5.30    7.20
  -2   8  12    6.40    6.80
  -1   8  12   71.49    8.50
  -1 -16  13   16.90    5.60
   0 -16  13   10.80    6.40
   1 -16  13    6.00    6.20
   2 -16  13    4.60    5.90
   3 -16  13   21.00    7.30
   4 -16  13   63.99   10.80
  -2 -15  13   19.90    8.40
  -1 -15  13   10.60    5.10
   0 -15  13    6.00    5.60
   1 -15  13   40.60    7.20
   2 -15  13   22.70    8.10
   3 -15  13    9.00    7.40
   4 -15  13    8.20    4.70
   5 -15  13   25.90    7.00
  -3 -14  13   92.09   17.00
  -2 -14  13    0.00   14.90
  -1 -14  13   76.19   18.00
   0 -14  13   47.60   11.90
   1 -14  13    0.20   12.60
   2 -14  13   75.29   13.10
   3 -14  13    0.00   12.20
   4 -14  13  101.09   12.30
   5 -14  13  137.69   14.70
   6 -14  13   15.70   13.90
  -4 -13  13   21.30    9.80
  -3 -13  13   95.89   12.00
  -2 -13  13    7.40    5.00
  -1 -13  13   15.10    4.90
   0 -13  13   70.89   11.00
   1 -13  13   13.80    7.90
   2 -13  13  142.29   13.50
   3 -13  13   19.90    7.90
   4 -13  13   25.60    7.90
   5 -13  13    8.00    6.40
   6 -13  13    8.50   10.30
   7 -13  13   30.10   11.10
  -5 -12  13   37.40    8.10
  -4 -12  13   14.00    6.70
  -3 -12  13  245.08   14.30
  -2 -12  13    6.40    4.50
  -1 -12  13  105.19    6.80
   0 -12  13   11.70    4.50
   1 -12  13    8.50    4.30
   2 -12  13   30.20    5.20
   3 -12  13   95.39    6.10
   4 -12  13   13.20    4.30
   5 -12  13   78.99    6.30
   6 -12  13   11.50    4.90
   7 -12  13    0.70    5.40
  -5 -11  13   84.29   15.40
  -4 -11  13   33.40   10.90
  -3 -11  13  104.19   13.70
  -2 -11  13   15.90    7.40
  -1 -11  13   14.30    7.50
   0 -11  13  159.58   13.70
   1 -11  13  121.39   11.50
   2 -11  13   25.00    5.70
   3 -11  13   78.99    7.60
   4 -11  13    8.90    6.10
   5 -11  13    3.90    8.10
   6 -11  13   35.10   15.60
   7 -11  13    0.40   10.00
  -6 -10  13    0.00   11.70
  -5 -10  13   13.40   14.10
  -4 -10  13    5.10   10.10
  -3 -10  13   92.49   19.50
  -2 -10  13  173.48   13.70
  -1 -10  13   17.30    6.00
   0 -10  13   15.40    5.80
   1 -10  13  164.08    8.80
   2 -10  13   41.10    5.80
   3 -10  13   56.89    7.30
   4 -10  13   12.70    6.00
   5 -10  13   21.40    9.00
   6 -10  13   32.60    9.70
   7 -10  13    5.20   10.00
  -6  -9  13   12.50    5.90
  -5  -9  13   53.79    5.80
  -4  -9  13   82.29    5.80
  -3  -9  13    5.80    3.90
  -2  -9  13    8.00    3.40
  -1  -9  13    4.40    3.20
   0  -9  13   33.60    3.60
   1  -9  13  209.68    9.40
   2  -9  13   25.20    3.90
   3  -9  13   63.19    5.10
   4  -9  13   20.30    4.10
   5  -9  13    6.40    4.00
   6  -9  13    3.20    6.00
   7  -9  13   32.00    7.50
  -7  -8  13  126.79   13.20
  -6  -8  13   15.50    6.40
  -5  -8  13   25.20    6.30
  -4  -8  13   13.90    3.90
  -3  -8  13   15.20    3.70
  -2  -8  13   22.80    3.10
  -1  -8  13  195.98    7.90
   0  -8  13    9.00    3.10
   1  -8  13  102.39    6.10
   2  -8  13    5.90    4.00
   3  -8  13   63.89    5.50
   4  -8  13  329.07   15.00
   5  -8  13   14.10    6.40
   6  -8  13   23.10    7.00
   7  -8  13   17.20    7.70
  -7  -7  13    1.70   16.10
  -6  -7  13   28.80   13.90
  -5  -7  13    9.30   11.80
  -4  -7  13   78.99   13.60
  -3  -7  13   10.30    6.30
  -2  -7  13    7.20    3.90
  -1  -7  13   34.60    4.10
   0  -7  13   75.59    5.10
   1  -7  13   51.09    5.70
   2  -7  13  419.26   18.50
   3  -7  13   23.10    7.30
   4  -7  13   24.10    7.40
   5  -7  13   13.30   10.60
   6  -7  13   17.10   15.00
   7  -7  13   96.99   28.70
  -7  -6  13   21.50    8.70
  -6  -6  13  160.68   12.60
  -5  -6  13    9.20    5.70
  -4  -6  13    6.30    5.50
  -3  -6  13  111.69    9.00
  -2  -6  13    3.70    3.70
  -1  -6  13  279.57   11.50
   0  -6  13   74.49    4.50
   1  -6  13   96.99    5.20
   2  -6  13    5.30    3.30
   3  -6  13   50.79    4.20
   4  -6  13   37.60    6.40
   5  -6  13  153.18   10.80
   6  -6  13   17.80    6.70
   7  -6  13   11.60    8.30
  -8  -5  13   17.00    7.80
  -7  -5  13   12.00    5.00
  -6  -5  13  123.99    8.10
  -5  -5  13  246.88   11.70
  -4  -5  13   41.10    4.60
  -3  -5  13  593.94   24.50
  -2  -5  13   24.30    3.70
  -1  -5  13    5.40    2.60
   0  -5  13   24.60    3.10
   1  -5  13   10.70    3.30
   2  -5  13  126.79    6.40
   3  -5  13   69.99    4.90
   4  -5  13   18.90    5.40
   5  -5  13    7.40    5.00
   6  -5  13   34.00    6.50
   7  -5  13    9.60    6.40
  -8  -4  13   44.20   23.30
  -7  -4  13   10.80   14.20
  -6  -4  13   78.09   20.30
  -5  -4  13   29.60   14.30
  -4  -4  13   19.50    7.90
  -3  -4  13  196.48   15.90
  -2  -4  13  562.74   28.20
  -1  -4  13    1.00    5.60
   0  -4  13  386.16   18.50
   1  -4  13    8.40    9.40
   2  -4  13   23.80    9.40
   3  -4  13   32.40   12.00
   4  -4  13   62.49   16.20
   5  -4  13  122.99   16.70
   6  -4  13  147.59   15.10
   7  -4  13    0.00   13.60
  -8  -3  13  104.49   17.30
  -7  -3  13   31.00   13.80
  -6  -3  13   37.20   13.20
  -5  -3  13  105.69   12.90
  -4  -3  13  413.86   21.70
  -3  -3  13   98.19    9.70
  -2  -3  13  112.49   11.20
  -1  -3  13    4.30    9.70
   0  -3  13   23.60   21.80
   1  -3  13  366.46   17.10
   2  -3  13    6.40    9.10
   3  -3  13  203.58   17.80
   4  -3  13   10.60   14.50
   5  -3  13   10.80   18.10
   6  -3  13    0.00   20.50
   7  -3  13    0.00   23.20
  -8  -2  13  115.39    9.70
  -7  -2  13   87.39    7.40
  -6  -2  13   15.30    4.80
  -5  -2  13   71.59    5.80
  -4  -2  13   14.30    4.90
  -3  -2  13    9.70    5.00
  -2  -2  13  101.99    6.50
  -1  -2  13  134.49    6.70
   0  -2  13   37.60    4.20
   1  -2  13  155.38    7.10
   2  -2  13    8.20    3.50
   3  -2  13    9.30    4.60
   4  -2  13   82.19    7.20
   5  -2  13    4.50    7.00
   6  -2  13   55.79    9.60
  -8  -1  13    9.40    9.30
  -7  -1  13   22.50    9.80
  -6  -1  13   13.80    8.70
  -5  -1  13   30.10   11.70
  -4  -1  13  351.06   20.90
  -3  -1  13   37.60    6.50
  -2  -1  13   34.90    8.10
  -1  -1  13   39.20    6.20
   0  -1  13   94.29    9.90
   1  -1  13  177.68   11.10
   2  -1  13  179.58   12.80
   3  -1  13   14.80    5.50
   4  -1  13   25.60    5.60
   5  -1  13   11.60   10.90
   6  -1  13   18.40   13.50
  -8   0  13   66.59   13.40
  -7   0  13   84.19   16.10
  -6   0  13   73.29   19.70
  -5   0  13    3.40   12.70
  -4   0  13    2.50   10.40
  -3   0  13    0.70    4.80
  -2   0  13  128.99   14.60
  -1   0  13  371.66   28.50
   0   0  13   13.90    6.70
   1   0  13   87.59   10.50
   2   0  13    2.20    7.70
   3   0  13   10.30    7.30
   4   0  13   55.39   13.40
   5   0  13   27.80   13.80
   6   0  13   13.90   19.50
  -8   1  13   21.90    7.60
  -7   1  13   11.10    9.50
  -6   1  13   19.70    9.80
  -5   1  13    7.70   11.30
  -4   1  13  140.79   13.90
  -3   1  13  185.48   12.60
  -2   1  13   10.10   10.20
  -1   1  13   40.40    6.30
   0   1  13   11.80    6.50
   1   1  13   60.59    8.40
   2   1  13  163.78   11.10
   3   1  13   41.80    7.30
   4   1  13   37.90   13.00
   5   1  13   11.20   11.80
  -8   2  13   61.59   11.20
  -7   2  13   22.40    9.40
  -6   2  13  131.39   12.20
  -5   2  13   13.40    7.70
  -4   2  13   31.90    6.60
  -3   2  13   40.10    5.70
  -2   2  13   32.30    5.40
  -1   2  13   35.80    4.80
   0   2  13   66.79    5.70
   1   2  13    7.20    4.40
   2   2  13   24.10    5.20
   3   2  13   14.30    7.50
   4   2  13    4.50    4.20
  -7   3  13   77.39   16.80
  -6   3  13   69.29   11.40
  -5   3  13  107.39   14.90
  -4   3  13   14.70   10.70
  -3   3  13   42.40   12.30
  -2   3  13   64.79   15.20
  -1   3  13   57.19   16.90
   0   3  13   13.40   12.90
   1   3  13   72.69   16.10
   2   3  13  105.59   20.60
   3   3  13  144.69   23.80
   4   3  13   26.80    8.80
  -7   4  13  104.19   10.00
  -6   4  13    0.00   11.40
  -5   4  13  100.79   18.00
  -4   4  13   12.40   14.60
  -3   4  13    0.00   13.10
  -2   4  13   49.50   12.00
  -1   4  13    0.00   10.90
   0   4  13  130.89   17.40
   1   4  13   78.19   15.50
   2   4  13   63.99   18.60
   3   4  13    0.00   20.40
  -6   5  13   10.90    6.30
  -5   5  13   78.89    7.40
  -4   5  13  149.69   10.00
  -3   5  13    8.40    6.80
  -2   5  13  100.89    7.80
  -1   5  13    8.50    6.80
   0   5  13    6.30    6.80
   1   5  13   10.40    5.90
   2   5  13    4.50    7.60
  -5   6  13   37.70    9.30
  -4   6  13   18.20    8.70
  -3   6  13   16.40    8.70
  -2   6  13   47.70    7.40
  -1   6  13  152.88   11.70
   0   6  13    7.60    6.90
   1   6  13   87.49    9.80
  -4   7  13   39.20    8.90
  -3   7  13   80.09   11.10
  -2   7  13    5.20    7.10
  -1   7  13   20.50    7.90
   0 -16  14   14.20    6.80
   1 -16  14    4.40    7.70
   2 -16  14    5.40    6.90
   3 -16  14   51.49    9.50
   4 -16  14  125.99   14.80
  -2 -15  14    4.00    7.70
  -1 -15  14   26.40    6.60
   0 -15  14    6.90    5.90
   1 -15  14  110.89   11.60
   2 -15  14    9.70    7.80
   3 -15  14    4.90    6.80
   4 -15  14    3.40    4.50
   5 -15  14    3.70    6.10
  -3 -14  14   76.69   14.60
  -2 -14  14  132.89   20.50
  -1 -14  14  106.39   11.70
   0 -14  14   37.40   11.80
   1 -14  14   25.10   12.20
   2 -14  14   70.59   12.40
   3 -14  14    0.60   15.20
   4 -14  14  280.97   20.60
   5 -14  14   10.60   12.80
   6 -14  14    7.80    7.90
  -4 -13  14   58.69    9.90
  -3 -13  14   18.90    8.50
  -2 -13  14   10.80    4.80
  -1 -13  14    4.30    6.40
   0 -13  14   38.20    9.40
   1 -13  14   29.60    7.70
   2 -13  14   63.19   10.60
   3 -13  14    5.10    8.20
   4 -13  14   14.90    9.00
   5 -13  14   74.49    9.40
   6 -13  14   17.10   10.70
  -4 -12  14   53.59    7.20
  -3 -12  14   61.29    7.30
  -2 -12  14   66.09    5.90
  -1 -12  14   60.69    5.70
   0 -12  14   29.10    4.40
   1 -12  14    4.10    5.30
   2 -12  14  100.19    6.40
   3 -12  14   47.10    4.80
   4 -12  14   21.10    4.90
   5 -12  14   69.19    6.90
   6 -12  14   15.90    5.30
  -5 -11  14  113.69   13.10
  -4 -11  14    8.50   10.90
  -3 -11  14   23.40   10.30
  -2 -11  14    7.80    8.30
  -1 -11  14   37.70    7.70
   0 -11  14  186.38   13.00
   1 -11  14   38.60   10.30
   2 -11  14   75.19    7.10
   3 -11  14   71.09    7.90
   4 -11  14    4.70    6.90
   5 -11  14    5.60    6.80
   6 -11  14   24.30   12.80
   7 -11  14    9.70    7.80
  -6 -10  14   17.60    8.50
  -5 -10  14    7.70   11.80
  -4 -10  14   18.30    7.70
  -3 -10  14  117.39   12.00
  -2 -10  14   28.30    8.50
  -1 -10  14   40.30    7.50
   0 -10  14  100.69   10.50
   1 -10  14    7.30    4.80
   2 -10  14    1.40    4.10
   3 -10  14   94.89    9.60
   4 -10  14   66.09    9.30
   5 -10  14   21.80    8.70
   6 -10  14   30.00   11.40
   7 -10  14   29.60   12.40
  -6  -9  14   10.30    7.10
  -5  -9  14  147.49    9.40
  -4  -9  14   12.20    5.80
  -3  -9  14   43.30    4.80
  -2  -9  14    4.70    3.60
  -1  -9  14    7.80    2.90
   0  -9  14   45.90    4.30
   1  -9  14  207.58    9.20
   2  -9  14   17.60    4.00
   3  -9  14    4.20    4.10
   4  -9  14   32.00    5.00
   5  -9  14   41.80    6.70
   6  -9  14  123.49   11.20
   7  -9  14   28.20    8.20
  -6  -8  14    8.20    6.70
  -5  -8  14   13.30    6.10
  -4  -8  14   85.39    6.40
  -3  -8  14    5.10    3.90
  -2  -8  14  302.57   12.20
  -1  -8  14  261.97   10.80
   0  -8  14    7.30    3.30
   1  -8  14   20.30    4.00
   2  -8  14    9.40    4.30
   3  -8  14  161.18    9.10
   4  -8  14  215.68   11.60
   5  -8  14   40.60    7.90
   6  -8  14   30.50    7.10
   7  -8  14   15.60    9.50
  -7  -7  14   75.39   18.80
  -6  -7  14   31.70   16.10
  -5  -7  14   65.19   20.00
  -4  -7  14  223.88   17.00
  -3  -7  14    2.20    6.00
  -2  -7  14    6.40    4.60
  -1  -7  14   15.70    4.00
   0  -7  14    6.20    4.10
   1  -7  14  169.98   10.60
   2  -7  14  141.99   10.30
   3  -7  14   15.20    8.40
   4  -7  14   19.90    9.20
   5  -7  14   25.80   13.50
   6  -7  14    0.00   11.60
   7  -7  14   66.39   23.70
  -7  -6  14  122.39   11.50
  -6  -6  14  108.89    9.90
  -5  -6  14    4.80    6.30
  -4  -6  14   40.90    7.80
  -3  -6  14   42.80    6.20
  -2  -6  14    5.00    4.30
  -1  -6  14   95.59    5.40
   0  -6  14   10.60    3.40
   1  -6  14   20.30    3.90
   2  -6  14   34.40    4.30
   3  -6  14   17.60    3.80
   4  -6  14  153.58   12.30
   5  -6  14  124.69   10.80
   6  -6  14   10.00    7.30
   7  -6  14   16.70    9.70
  -7  -5  14   15.60    5.30
  -6  -5  14   74.59    7.30
  -5  -5  14   97.59    7.00
  -4  -5  14   12.40    4.80
  -3  -5  14  120.59    7.00
  -2  -5  14    5.60    3.70
  -1  -5  14   11.70    3.00
   0  -5  14  576.04   21.30
   1  -5  14   36.00    4.30
   2  -5  14  116.19    6.50
   3  -5  14   98.79    6.40
   4  -5  14    6.90    6.00
   5  -5  14    6.30    5.50
   6  -5  14    0.90    6.30
   7  -5  14   75.39   10.10
  -7  -4  14   24.80   27.20
  -6  -4  14   31.60   17.00
  -5  -4  14   30.00   19.10
  -4  -4  14   17.80    9.00
  -3  -4  14  151.18   18.90
  -2  -4  14   63.19   13.20
  -1  -4  14  140.49    9.80
   0  -4  14   12.60    8.70
   1  -4  14   21.20    8.50
   2  -4  14   55.89   11.10
   3  -4  14   14.60   18.70
   4  -4  14   39.20   17.30
   5  -4  14   60.19   17.20
   6  -4  14   61.69   15.20
  -8  -3  14    8.10   18.10
  -7  -3  14   49.10   16.90
  -6  -3  14   63.99   15.00
  -5  -3  14  202.38   14.40
  -4  -3  14   23.20   10.70
  -3  -3  14  110.59   21.40
  -2  -3  14   35.90   18.20
  -1  -3  14    0.00   23.10
   0  -3  14  272.07   14.60
   1  -3  14    0.00    8.00
   2  -3  14   61.49   11.30
   3  -3  14   67.09   17.30
   4  -3  14   12.50   14.50
   5  -3  14    0.00   15.60
   6  -3  14   55.19   23.00
  -8  -2  14   52.99    9.20
  -7  -2  14   28.20    8.80
  -6  -2  14   22.40    7.50
  -5  -2  14   10.00    6.30
  -4  -2  14   48.80    6.50
  -3  -2  14    4.30    4.80
  -2  -2  14  442.66   20.00
  -1  -2  14   77.09    5.60
   0  -2  14   17.10    3.60
   1  -2  14   55.39    4.90
   2  -2  14    8.00    4.00
   3  -2  14   19.10    5.60
   4  -2  14   38.40    6.50
   5  -2  14   31.00    8.30
   6  -2  14   27.00    9.00
  -7  -1  14    7.90    9.10
  -6  -1  14   13.20   10.40
  -5  -1  14   64.59   14.00
  -4  -1  14   96.79   13.00
  -3  -1  14    8.10    6.50
  -2  -1  14   57.49   11.50
  -1  -1  14    6.40    6.90
   0  -1  14    6.80    6.60
   1  -1  14  309.77   18.70
   2  -1  14   92.29    9.50
   3  -1  14   47.80    5.90
   4  -1  14   18.10    5.70
   5  -1  14   24.70   12.30
  -7   0  14  215.68   39.20
  -6   0  14   58.79   14.80
  -5   0  14   32.20   15.70
  -4   0  14    4.10   13.60
  -3   0  14    6.80    7.10
  -2   0  14  134.99   14.10
  -1   0  14  205.88   21.40
   0   0  14    8.10    8.60
   1   0  14   37.40   14.10
   2   0  14   15.70    7.50
   3   0  14    7.50    8.70
   4   0  14  112.59   22.90
   5   0  14   23.70   19.20
  -7   1  14   11.70   11.80
  -6   1  14   46.80   11.40
  -5   1  14   12.20   13.00
  -4   1  14  172.18   17.20
  -3   1  14   21.60    7.00
  -2   1  14   13.70    8.50
  -1   1  14    9.30    6.40
   0   1  14   16.10    7.90
   1   1  14   19.70    8.30
   2   1  14  152.28   10.60
   3   1  14    8.00    6.70
   4   1  14    4.30   13.50
  -7   2  14   23.70   11.00
  -6   2  14  103.49   13.30
  -5   2  14   10.30    8.90
  -4   2  14   21.00    6.20
  -3   2  14   91.29    8.70
  -2   2  14    5.30    5.00
  -1   2  14   88.79    7.10
   0   2  14   69.49    6.70
   1   2  14   19.30    5.30
   2   2  14    7.60    5.10
   3   2  14    5.40    5.80
   4   2  14   16.50    9.50
  -6   3  14   53.49   12.30
  -5   3  14  160.38   17.70
  -4   3  14    6.00   11.80
  -3   3  14   91.89   14.00
  -2   3  14   24.70    9.50
  -1   3  14    0.00   15.30
   0   3  14    5.50   13.00
   1   3  14   26.10   15.60
   2   3  14  137.89   22.70
   3   3  14   53.39    9.50
  -6   4  14   44.90    7.40
  -5   4  14   96.19   23.00
  -4   4  14    0.00   12.00
  -3   4  14    0.00   13.30
  -2   4  14   58.29   13.70
  -1   4  14   30.70   15.60
   0   4  14   94.19   16.80
   1   4  14    0.00   17.20
   2   4  14   13.70   18.90
  -5   5  14   72.89    9.10
  -4   5  14    7.50    6.80
  -3   5  14    2.30    8.00
  -2   5  14   16.90    6.40
  -1   5  14   17.20    8.20
   0   5  14   14.90    8.30
   1   5  14   55.49    8.50
  -3   6  14   18.70    8.10
  -2   6  14   72.89    8.30
   1 -16  15    7.50    7.20
   2 -16  15   17.10    9.60
  -1 -15  15   11.70    8.20
   0 -15  15   43.00    8.10
   1 -15  15   78.79   12.00
   2 -15  15   19.40    9.00
   3 -15  15   22.60    9.90
   4 -15  15   10.10    6.80
  -2 -14  15   50.19   15.60
  -1 -14  15   72.99   11.40
   0 -14  15   19.70   11.40
   1 -14  15   14.10   12.40
   2 -14  15   26.90   16.20
   3 -14  15   87.19   19.10
   4 -14  15  180.68   19.60
   5 -14  15   35.30   13.00
  -3 -13  15   20.60   13.30
  -2 -13  15    3.30    8.00
  -1 -13  15   26.50    8.60
   0 -13  15    2.70    9.80
   1 -13  15   18.20   11.80
   2 -13  15   17.30   12.70
   3 -13  15   22.50   12.80
   4 -13  15    8.30    7.50
   5 -13  15    3.90   10.60
  -4 -12  15    7.80    6.20
  -3 -12  15  223.68   15.40
  -2 -12  15    6.50    4.60
  -1 -12  15   59.49    5.30
   0 -12  15   11.40    4.60
   1 -12  15   10.80    4.60
   2 -12  15   20.20    4.60
   3 -12  15    5.70    4.40
   4 -12  15   23.00    5.10
   5 -12  15    9.40    5.10
   6 -12  15   10.10    5.50
  -5 -11  15   48.10   13.40
  -4 -11  15    9.70   12.60
  -3 -11  15   25.30    8.70
  -2 -11  15   28.60    9.10
  -1 -11  15   94.89   11.00
   0 -11  15  131.59   13.70
   1 -11  15   15.60    4.30
   2 -11  15  101.99    8.90
   3 -11  15   10.90    6.70
   4 -11  15   15.80    8.00
   5 -11  15   66.99   13.90
   6 -11  15   30.30   11.50
  -5 -10  15   21.30   17.10
  -4 -10  15   19.10   13.50
  -3 -10  15  186.98   16.50
  -2 -10  15  110.59   12.30
  -1 -10  15    8.10    6.20
   0 -10  15    8.70    5.40
   1 -10  15    1.70    5.20
   2 -10  15   48.80    7.70
   3 -10  15  160.88   15.70
   4 -10  15   11.00    9.50
   5 -10  15  105.69   14.30
   6 -10  15   13.50   10.10
  -6  -9  15   16.80    7.80
  -5  -9  15  123.99    9.80
  -4  -9  15    5.70    4.90
  -3  -9  15   21.60    4.30
  -2  -9  15   66.49    4.70
  -1  -9  15    5.00    3.60
   0  -9  15  242.88   11.00
   1  -9  15  206.78    9.50
   2  -9  15    4.50    4.20
   3  -9  15   26.50    6.10
   4  -9  15    5.70    4.70
   5  -9  15    6.00    6.30
   6  -9  15   50.89    8.40
  -6  -8  15    4.50   10.10
  -5  -8  15    6.40    6.70
  -4  -8  15   12.30    4.50
  -3  -8  15   58.69    5.90
  -2  -8  15  201.88   10.10
  -1  -8  15    8.40    3.80
   0  -8  15   46.40    4.50
   1  -8  15   46.30    4.80
   2  -8  15   32.30    4.80
   3  -8  15   60.79    6.70
   4  -8  15  158.68   11.00
   5  -8  15   11.90    7.60
   6  -8  15   23.30    7.00
  -6  -7  15   14.80   29.10
  -5  -7  15  100.59   15.50
  -4  -7  15  289.57   21.40
  -3  -7  15   26.20    6.40
  -2  -7  15   11.40    5.50
  -1  -7  15   97.19    7.10
   0  -7  15    1.20    4.60
   1  -7  15  254.07   13.20
   2  -7  15   18.90    6.00
   3  -7  15   35.70   10.10
   4  -7  15  102.99   12.70
   5  -7  15    0.00   16.50
   6  -7  15   85.79   19.60
  -7  -6  15   14.50    9.00
  -6  -6  15    4.70    7.60
  -5  -6  15   29.90    8.70
  -4  -6  15  163.68   13.20
  -3  -6  15   51.19    5.90
  -2  -6  15   78.09    7.10
  -1  -6  15  221.68   10.50
   0  -6  15    6.80    3.90
   1  -6  15    4.80    3.90
   2  -6  15   44.00    5.10
   3  -6  15   15.30    4.20
   4  -6  15   70.69    8.80
   5  -6  15   43.10    8.60
   6  -6  15    9.50    8.40
  -7  -5  15   24.40    7.50
  -6  -5  15  129.79    9.40
  -5  -5  15   31.10    5.80
  -4  -5  15   91.79    6.70
  -3  -5  15   11.70    4.40
  -2  -5  15   46.70    5.30
  -1  -5  15   33.80    3.90
   0  -5  15    8.40    4.20
   1  -5  15   35.30    4.90
   2  -5  15  205.68   11.10
   3  -5  15   12.00    5.60
   4  -5  15   21.60    6.30
   5  -5  15   18.30    6.80
   6  -5  15    3.50    7.30
  -7  -4  15   43.00   21.20
  -6  -4  15   21.20   10.40
  -5  -4  15    0.00   12.50
  -4  -4  15   59.29   15.80
  -3  -4  15   43.70   15.60
  -2  -4  15   12.80    9.10
  -1  -4  15   38.20    8.00
   0  -4  15    0.00   10.70
   1  -4  15    0.00   11.90
   2  -4  15  104.29   16.20
   3  -4  15  103.89   18.30
   4  -4  15    0.00   17.70
   5  -4  15   85.19   19.10
   6  -4  15   20.50   20.10
  -7  -3  15    0.10   19.80
  -6  -3  15   25.70   16.30
  -5  -3  15   79.99   13.40
  -4  -3  15    3.10   14.30
  -3  -3  15    9.10   11.40
  -2  -3  15   37.20   21.90
  -1  -3  15    3.30   19.40
   0  -3  15  212.58   17.00
   1  -3  15   75.79   15.90
   2  -3  15   41.60   12.10
   3  -3  15   79.79   15.90
   4  -3  15  109.69   19.60
   5  -3  15   79.69   21.20
  -7  -2  15   55.19    9.10
  -6  -2  15   11.80    7.70
  -5  -2  15   19.40    8.30
  -4  -2  15    5.00    5.80
  -3  -2  15  122.89    9.80
  -2  -2  15  171.68   10.90
  -1  -2  15    3.60    4.00
   0  -2  15   76.39    5.60
   1  -2  15    2.60    4.10
   2  -2  15   10.80    4.10
   3  -2  15   51.09    7.50
   4  -2  15   12.00    6.20
   5  -2  15   14.90    8.70
  -7  -1  15   20.30   13.70
  -6  -1  15   49.90   12.50
  -5  -1  15  187.58   18.10
  -4  -1  15   27.70   14.50
  -3  -1  15    9.00    7.10
  -2  -1  15   31.70   10.70
  -1  -1  15   11.50    7.20
   0  -1  15   46.40    9.10
   1  -1  15   92.09   10.90
   2  -1  15   28.90    8.80
   3  -1  15   12.90    9.20
   4  -1  15    3.60   14.80
  -7   0  15  108.89   19.90
  -6   0  15    9.00   18.30
  -5   0  15   22.30   16.50
  -4   0  15  125.69   23.00
  -3   0  15   23.60   21.10
  -2   0  15  138.69   17.00
  -1   0  15  161.58   20.80
   0   0  15    8.00    7.70
   1   0  15   21.70    9.70
   2   0  15   11.10    8.50
   3   0  15   64.19   11.30
   4   0  15   71.29   17.10
  -6   1  15   52.59   12.10
  -5   1  15   34.20   11.70
  -4   1  15  110.89   12.90
  -3   1  15    4.80    7.90
  -2   1  15   12.10    7.40
  -1   1  15   56.79    8.40
   0   1  15   21.50    8.10
   1   1  15  182.18   16.60
   2   1  15   79.39    9.80
   3   1  15   10.70    6.90
  -6   2  15   89.99   13.00
  -5   2  15   10.40    9.50
  -4   2  15   23.70    6.80
  -3   2  15   26.20    7.10
  -2   2  15   15.20    5.50
  -1   2  15   61.09    6.40
   0   2  15   10.30    5.40
   1   2  15   22.10    6.80
   2   2  15   19.30    5.80
   3   2  15   25.60   18.30
  -5   3  15   32.70   13.70
  -4   3  15  104.09   17.60
  -3   3  15   41.40   15.20
  -2   3  15   22.60   10.50
  -1   3  15    0.40   12.00
   0   3  15   53.39   16.90
   1   3  15    0.00   20.10
   2   3  15   24.80   10.00
  -4   4  15    0.00   14.50
  -3   4  15   76.89   15.10
  -2   4  15   63.49   14.60
  -1   4  15    5.70   15.90
   0   4  15  129.99   17.80
   0 -15  16   30.30    9.80
   1 -15  16   35.40   10.40
   2 -15  16   13.10    8.60
   3 -15  16   15.80    6.60
  -2 -14  16   90.09   16.20
  -1 -14  16    7.30   11.40
   0 -14  16    0.00   12.80
   1 -14  16  102.29   13.90
   2 -14  16    0.00   16.50
   3 -14  16  176.08   15.30
   4 -14  16   95.19   16.00
  -3 -13  16    5.20    7.20
  -2 -13  16   56.39   11.80
  -1 -13  16   65.89   10.90
   0 -13  16   16.90   10.60
   1 -13  16   77.49   12.50
   2 -13  16   39.30   10.60
   3 -13  16    2.80    9.00
   4 -13  16   30.20    9.70
   5 -13  16    2.00   10.60
  -3 -12  16    7.90    5.50
  -2 -12  16   13.70    5.00
  -1 -12  16    5.30    4.40
   0 -12  16   14.80    4.70
   1 -12  16    9.60    5.20
   2 -12  16   27.40    4.80
   3 -12  16    6.70    5.20
   4 -12  16   41.90    5.80
   5 -12  16    9.20    6.00
  -4 -11  16   30.30   11.60
  -3 -11  16   45.70    9.50
  -2 -11  16   15.70    8.10
  -1 -11  16  145.69   12.70
   0 -11  16  136.39   11.70
   1 -11  16    5.70    5.60
   2 -11  16   37.70    6.80
   3 -11  16   13.90    7.90
   4 -11  16   19.80   11.00
   5 -11  16   81.59    8.50
  -5 -10  16   13.70   10.60
  -4 -10  16    0.00   15.40
  -3 -10  16  165.38   18.00
  -2 -10  16   30.00    6.10
  -1 -10  16   13.40    7.40
   0 -10  16   11.40    6.10
   1 -10  16   21.90    6.40
   2 -10  16   14.30    7.00
   3 -10  16   88.49   11.50
   4 -10  16    4.70   10.90
   5 -10  16   11.70   11.10
   6 -10  16   10.00   11.30
  -5  -9  16  121.69   12.50
  -4  -9  16    3.00    4.30
  -3  -9  16   18.00    4.60
  -2  -9  16    5.80    4.30
  -1  -9  16   28.30    4.20
   0  -9  16  292.77   13.00
   1  -9  16    3.50    4.30
   2  -9  16   12.60    4.70
   3  -9  16   11.00    5.20
   4  -9  16   26.30    4.80
   5  -9  16    8.30    7.60
   6  -9  16   35.10    9.20
  -5  -8  16   34.20    6.30
  -4  -8  16   34.00    6.10
  -3  -8  16   17.00    5.00
  -2  -8  16  169.38    9.10
  -1  -8  16   56.09    5.00
   0  -8  16   35.80    4.40
   1  -8  16    6.20    4.30
   2  -8  16    6.60    5.40
   3  -8  16  178.78   11.40
   4  -8  16   56.29    8.40
   5  -8  16   13.20    8.30
   6  -8  16    5.10    9.20
  -6  -7  16   18.80   12.60
  -5  -7  16   60.09   19.00
  -4  -7  16    3.30   10.50
  -3  -7  16    4.40    6.70
  -2  -7  16   26.40    7.10
  -1  -7  16   49.99    5.50
   0  -7  16   43.70    6.80
   1  -7  16   59.99    7.70
   2  -7  16   66.79    8.60
   3  -7  16    5.40    8.00
   4  -7  16   14.50   10.30
   5  -7  16   18.80   13.00
   6  -7  16   78.19   27.80
  -6  -6  16   11.00    8.80
  -5  -6  16    6.70    8.60
  -4  -6  16   63.19    8.30
  -3  -6  16    2.10    5.70
  -2  -6  16  163.28   10.80
  -1  -6  16    7.20    4.00
   0  -6  16    7.50    4.60
   1  -6  16   16.60    4.80
   2  -6  16   42.00    5.50
   3  -6  16   11.00    4.20
   4  -6  16   84.89   10.20
   5  -6  16    4.10    8.80
  -6  -5  16   84.79    9.10
  -5  -5  16    2.50    5.40
  -4  -5  16   54.79    6.20
  -3  -5  16    9.10    4.90
  -2  -5  16   25.50    5.80
  -1  -5  16  150.28    8.40
   0  -5  16   19.80    5.50
   1  -5  16  181.28   10.20
   2  -5  16   54.69    6.30
   3  -5  16    7.30    6.30
   4  -5  16   31.90    7.20
   5  -5  16   44.50    7.80
  -6  -4  16   10.80   19.80
  -5  -4  16   20.10   13.70
  -4  -4  16  118.59   15.00
  -3  -4  16  135.89   15.80
  -2  -4  16   17.90   11.90
  -1  -4  16  123.69   13.80
   0  -4  16   61.29   13.50
   1  -4  16   13.60   11.30
   2  -4  16   57.19   19.60
   3  -4  16   57.69   16.90
   4  -4  16    0.00   16.90
   5  -4  16    0.00   20.30
  -6  -3  16  116.79   16.40
  -5  -3  16   36.00   11.20
  -4  -3  16   82.49   15.40
  -3  -3  16    0.00   11.70
  -2  -3  16   11.50   10.70
  -1  -3  16   51.79   15.40
   0  -3  16   95.09   15.50
   1  -3  16    0.90   12.40
   2  -3  16  128.89   15.90
   3  -3  16    0.00   21.10
   4  -3  16   85.09   25.70
  -6  -2  16   27.50    9.70
  -5  -2  16   30.40    9.60
  -4  -2  16    3.50    6.20
  -3  -2  16   95.19    9.10
  -2  -2  16   93.49    9.00
  -1  -2  16    7.70    4.70
   0  -2  16   17.20    4.40
   1  -2  16   20.70    5.00
   2  -2  16   41.70    5.50
   3  -2  16  152.28   12.00
   4  -2  16    8.10    6.80
  -6  -1  16   40.80   13.10
  -5  -1  16  173.48   16.90
  -4  -1  16    5.50   10.50
  -3  -1  16    6.60    7.50
  -2  -1  16   19.70    8.00
  -1  -1  16   24.90    8.20
   0  -1  16   43.60    9.20
   1  -1  16   84.79   14.20
   2  -1  16   14.70    8.10
   3  -1  16    8.60    8.20
   4  -1  16    8.40   14.90
  -6   0  16   14.50   15.60
  -5   0  16   25.10   15.50
  -4   0  16  133.79   20.80
  -3   0  16   18.20   16.50
  -2   0  16  234.78   23.70
  -1   0  16   39.00   12.20
   0   0  16   14.50    9.60
   1   0  16    3.80   10.70
   2   0  16    7.80   12.80
   3   0  16   56.19   16.50
  -5   1  16   29.50   11.90
  -4   1  16  113.79   14.30
  -3   1  16   24.80    8.00
  -2   1  16   11.80    7.40
  -1   1  16   30.10    8.90
   0   1  16   46.50   10.70
   1   1  16   27.50    9.80
   2   1  16   18.20   13.30
  -5   2  16   19.90   11.40
  -4   2  16   32.90    8.00
  -3   2  16   30.30    7.60
  -2   2  16   10.20    6.00
  -1   2  16   69.79    7.70
   0   2  16   30.00    7.10
   1   2  16    8.60    6.30
  -4   3  16   29.10    9.30
  -3   3  16    0.80   18.70
  -2   3  16    5.40   10.40
  -1   3  16   95.09   17.10
   0   3  16   34.20   12.90
   0 -14  17    1.80   13.70
   1 -14  17   22.90   13.70
   2 -14  17   12.10   16.70
   3 -14  17   50.49   12.20
  -2 -13  17   31.10    8.30
  -1 -13  17   29.00   10.60
   0 -13  17   41.90   11.70
   1 -13  17   26.20   11.30
   2 -13  17    4.20   10.30
   3 -13  17    8.20   10.50
   4 -13  17  126.09   14.90
  -3 -12  17   20.20    8.20
  -2 -12  17   13.50    5.00
  -1 -12  17    8.60    5.10
   0 -12  17    5.30    4.90
   1 -12  17   97.09    8.10
   2 -12  17   31.50    4.70
   3 -12  17   23.70    5.90
   4 -12  17   75.69    8.00
  -3 -11  17   37.50   14.50
  -2 -11  17   15.00    9.70
  -1 -11  17  187.58   12.90
   0 -11  17   20.50    7.40
   1 -11  17   67.79    6.90
   2 -11  17   15.10    6.70
   3 -11  17   10.10    7.50
   4 -11  17   25.30   12.30
  -4 -10  17   69.59   17.40
  -3 -10  17   21.00   13.40
  -2 -10  17    8.40   13.30
  -1 -10  17   18.10   10.60
   0 -10  17   38.10    7.40
   1 -10  17   13.20    8.40
   2 -10  17  159.38   12.70
   3 -10  17   52.29   10.80
   4 -10  17    2.70   10.80
   5 -10  17   16.10    7.10
  -4  -9  17    4.50    5.60
  -3  -9  17   36.20    5.40
  -2  -9  17    5.20    5.10
  -1  -9  17    8.70    4.30
   0  -9  17   91.39    7.40
   1  -9  17   82.99    7.10
   2  -9  17   23.40    5.60
   3  -9  17    9.90    5.50
   4  -9  17   11.40    7.70
   5  -9  17   77.99   10.70
  -5  -8  17   81.89    9.30
  -4  -8  17    6.80    6.00
  -3  -8  17   57.89    6.50
  -2  -8  17  137.09   10.40
  -1  -8  17    5.40    3.90
   0  -8  17    7.80    4.30
   1  -8  17   75.09    6.80
   2  -8  17   85.89    8.70
   3  -8  17   70.39    7.60
   4  -8  17    2.30    7.60
   5  -8  17    8.90    8.20
  -5  -7  17   55.89   18.00
  -4  -7  17    0.60    9.50
  -3  -7  17   12.60    8.10
  -2  -7  17    8.70    7.00
  -1  -7  17   11.60    7.20
   0  -7  17  117.79   10.10
   1  -7  17   80.69   10.60
   2  -7  17   29.00    8.60
   3  -7  17   13.50    8.90
   4  -7  17   15.00   11.30
   5  -7  17   21.70   14.60
  -5  -6  17   22.50    8.90
  -4  -6  17   93.39   10.20
  -3  -6  17   11.70    6.00
  -2  -6  17   52.69    7.50
  -1  -6  17    9.80    4.20
   0  -6  17   13.30    5.40
   1  -6  17  136.29    9.00
   2  -6  17    7.10    5.50
   3  -6  17   66.69    9.50
   4  -6  17   47.40    9.20
  -5  -5  17   10.00    6.70
  -4  -5  17    5.20    5.50
  -3  -5  17   10.40    5.50
  -2  -5  17    8.60    6.30
  -1  -5  17  145.49    9.00
   0  -5  17    3.50    5.40
   1  -5  17   48.30    6.50
   2  -5  17   31.90    7.60
   3  -5  17   10.00    7.00
   4  -5  17   37.00    8.80
  -5  -4  17   31.70   12.10
  -4  -4  17   99.79   16.90
  -3  -4  17   20.60   15.30
  -2  -4  17   62.49   13.60
  -1  -4  17   44.50   12.00
   0  -4  17    6.60   10.70
   1  -4  17   18.10   17.30
   2  -4  17   26.30   13.70
   3  -4  17    0.00   19.30
   4  -4  17   69.69   20.70
  -5  -3  17   13.70   10.80
  -4  -3  17   25.90   12.90
  -3  -3  17   24.40   11.60
  -2  -3  17   22.90   12.00
  -1  -3  17   92.29   11.00
   0  -3  17   57.99   14.50
   1  -3  17   20.30   13.50
   2  -3  17    0.00   14.40
   3  -3  17   92.89   24.40
  -5  -2  17   54.09   11.10
  -4  -2  17   16.90    9.80
  -3  -2  17  158.88   11.90
  -2  -2  17   48.90    7.40
  -1  -2  17   11.30    5.00
   0  -2  17   13.80    5.40
   1  -2  17    4.90    5.60
   2  -2  17   63.09    7.10
   3  -2  17   54.19    8.40
  -5  -1  17  117.19   15.10
  -4  -1  17   18.20   12.30
  -3  -1  17   15.60    7.60
  -2  -1  17   25.80    7.90
  -1  -1  17   34.70    9.30
   0  -1  17  108.19   12.40
   1  -1  17   40.50   10.90
   2  -1  17   23.10   10.40
  -5   0  17   31.80   29.40
  -4   0  17   24.70   16.10
  -3   0  17   14.10   17.10
  -2   0  17   54.89   10.70
  -1   0  17    7.10   11.50
   0   0  17    8.40   13.40
   1   0  17   26.80   12.40
  -4   1  17   27.00    8.60
  -3   1  17   28.80    9.00
  -2   1  17   39.70   10.10
  -1   1  17   38.30   11.20
   0   1  17   11.20   10.50
   0 -13  18   25.70    9.50
   1 -13  18   10.10   12.00
   2 -13  18    8.20   10.60
  -2 -12  18   52.99   10.70
  -1 -12  18    6.60    5.30
   0 -12  18    5.20    5.30
   1 -12  18   17.00    4.70
   2 -12  18   50.19    5.90
   3 -12  18   16.70    6.30
  -2 -11  18    9.30   12.10
  -1 -11  18   50.59    8.50
   0 -11  18    6.70    6.30
   1 -11  18    5.10    6.90
   2 -11  18    6.40    8.10
   3 -11  18   21.70    9.20
  -3 -10  18  109.09   19.80
  -2 -10  18   18.70   11.10
  -1 -10  18   14.40    5.30
   0 -10  18    3.10    6.50
   1 -10  18    7.50    7.60
   2 -10  18  111.09   11.00
   3 -10  18   33.60   12.20
   4 -10  18   29.30    9.30
  -4  -9  18   10.60    6.90
  -3  -9  18   54.79    8.20
  -2  -9  18   15.90    6.20
  -1  -9  18  221.48   15.20
   0  -9  18   35.20    6.20
   1  -9  18   51.49    6.00
   2  -9  18   10.20    6.20
   3  -9  18    6.80    6.30
   4  -9  18   21.40    8.90
  -4  -8  18    3.20    6.80
  -3  -8  18   35.70    6.90
  -2  -8  18    7.10    6.10
  -1  -8  18    5.00    6.30
   0  -8  18   53.69    6.80
   1  -8  18   23.00    7.00
   2  -8  18   71.39    9.60
   3  -8  18   68.99    9.30
   4  -8  18    1.50    8.80
  -4  -7  18   14.70   14.90
  -3  -7  18    4.60    8.90
  -2  -7  18   78.39   12.00
  -1  -7  18    2.80    9.40
   0  -7  18   72.59   10.10
   1  -7  18   38.20   10.10
   2  -7  18   20.70    9.00
   3  -7  18   40.50   13.10
   4  -7  18   18.80   23.20
  -4  -6  18   61.79    8.90
  -3  -6  18   37.20    8.00
  -2  -6  18   75.29   10.10
  -1  -6  18    6.00    7.30
   0  -6  18    6.10    5.60
   1  -6  18   81.39    7.50
   2  -6  18   13.10    6.20
   3  -6  18   82.49   10.50
  -4  -5  18    7.00    6.20
  -3  -5  18    4.30    6.30
  -2  -5  18   62.49    8.80
  -1  -5  18   29.50    7.40
   0  -5  18   15.70    7.50
   1  -5  18   39.70    6.90
   2  -5  18    6.80    5.50
   3  -5  18    4.20    8.20
  -4  -4  18   48.00   19.70
  -3  -4  18   40.10   12.40
  -2  -4  18   18.10   13.90
  -1  -4  18    1.70   12.90
   0  -4  18    0.00   14.90
   1  -4  18   97.79   16.50
   2  -4  18  138.59   17.80
   3  -4  18    0.00   21.80
  -4  -3  18    5.90   15.00
  -3  -3  18    0.00   17.80
  -2  -3  18   38.00   16.40
  -1  -3  18  207.58   16.10
   0  -3  18   57.59   16.60
   1  -3  18    0.00   16.80
   2  -3  18   25.70   21.50
  -4  -2  18   59.89   12.20
  -3  -2  18  133.69   11.10
  -2  -2  18    3.40    7.40
  -1  -2  18   31.50    6.50
   0  -2  18    8.50    6.10
   1  -2  18   12.80    6.70
  -3  -1  18    3.90   13.60
  -2  -1  18   16.00   12.60
  -1  -1  18   33.10   12.20
   0  -1  18   46.30   12.90
  -2   0  18   97.29   49.90
  -1 -11  19   48.90    8.70
   0 -11  19    5.30    5.70
   1 -11  19    1.50    5.70
  -2 -10  19    1.60    6.80
  -1 -10  19    2.80    9.30
   0 -10  19    1.30    7.40
   1 -10  19   36.10    8.50
   2 -10  19   23.90    7.20
  -2  -9  19    6.90    6.30
  -1  -9  19   60.19    9.10
   0  -9  19   13.10    6.00
   1  -9  19    9.50    6.30
   2  -9  19   10.30    6.50
  -3  -8  19   19.90    7.10
  -2  -8  19   12.00    7.90
  -1  -8  19    8.10    7.30
   0  -8  19   28.30    6.50
   1  -8  19    4.20    8.30
   2  -8  19  112.59   10.70
  -3  -7  19   55.39   13.10
  -2  -7  19   57.49   11.60
  -1  -7  19   41.00   11.60
   0  -7  19   56.89   10.20
   1  -7  19   10.80    9.10
   2  -7  19   19.70   12.90
  -3  -6  19   67.79    9.60
  -2  -6  19    5.80    7.90
  -1  -6  19    7.70    8.10
   0  -6  19   22.60    6.30
   1  -6  19   41.80    7.10
   2  -6  19   11.60    6.60
  -3  -5  19    9.90    7.10
  -2  -5  19   84.29   10.10
  -1  -5  19   13.00    7.80
   0  -5  19    1.50    7.90
   1  -5  19    2.90    8.40
  -3  -4  19   27.90   15.60
  -2  -4  19   46.80   14.10
  -1  -4  19    0.00   13.80
   0  -4  19   23.20   16.20
   1  -4  19   38.80   20.80
  -2  -3  19  168.08   20.00
  -1  -3  19   54.09   11.00
   0  -3  19    7.80   21.70
   0   0   0    0.00    0.00

_computing_structure_solution     'SHELXT 2018/2 (Sheldrick, 2018)'
;
_shelx_hkl_checksum   86421

