 
data_1_a
 
_audit_creation_method            'SHELXL-2018/3'
_shelx_SHELXL_version_number      '2018/3'
_chemical_name_systematic         ?
_chemical_name_common             ?
_chemical_melting_point           ?
_chemical_formula_moiety          ?
_chemical_formula_sum
 'C H N O S Zn' 
_chemical_formula_weight          140.46

loop_
 _atom_type_symbol
 _atom_type_description
 _atom_type_scat_dispersion_real
 _atom_type_scat_dispersion_imag
 _atom_type_scat_source
 'C'  'C'   0.0033   0.0016
 'International Tables Vol C Tables 4.2.6.8 and 6.1.1.4'
 'H'  'H'   0.0000   0.0000
 'International Tables Vol C Tables 4.2.6.8 and 6.1.1.4'
 'N'  'N'   0.0061   0.0033
 'International Tables Vol C Tables 4.2.6.8 and 6.1.1.4'
 'O'  'O'   0.0106   0.0060
 'International Tables Vol C Tables 4.2.6.8 and 6.1.1.4'
 'S'  'S'   0.1246   0.1234
 'International Tables Vol C Tables 4.2.6.8 and 6.1.1.4'
 'Zn'  'Zn'   0.2839   1.4301
 'International Tables Vol C Tables 4.2.6.8 and 6.1.1.4'
 
_space_group_crystal_system       triclinic
_space_group_IT_number            2
_space_group_name_H-M_alt         'P -1'
_space_group_name_Hall            '-P 1'
 
_shelx_space_group_comment
;
The symmetry employed for this shelxl refinement is uniquely defined
by the following loop, which should always be used as a source of
symmetry information in preference to the above space-group names.
They are only intended as comments.
;
 
loop_
 _space_group_symop_operation_xyz
 'x, y, z'
 '-x, -y, -z'
 
_cell_length_a                    11.3606(3)
_cell_length_b                    12.9752(3)
_cell_length_c                    17.7062(4)
_cell_angle_alpha                 71.4680(10)
_cell_angle_beta                  77.3570(10)
_cell_angle_gamma                 88.2830(10)
_cell_volume                      2412.45(10)
_cell_formula_units_Z             23
_cell_measurement_temperature     150(2)
_cell_measurement_reflns_used     ?
_cell_measurement_theta_min       ?
_cell_measurement_theta_max       ?
 
_exptl_crystal_description        ?
_exptl_crystal_colour             ?
_exptl_crystal_density_meas       ?
_exptl_crystal_density_method     ?
_exptl_crystal_density_diffrn     2.224          
_exptl_crystal_F_000              1564
_exptl_transmission_factor_min    ?
_exptl_transmission_factor_max    ?
_exptl_crystal_size_max           ?
_exptl_crystal_size_mid           ?
_exptl_crystal_size_min           ?
_exptl_absorpt_coefficient_mu     6.155
_shelx_estimated_absorpt_T_min    ?
_shelx_estimated_absorpt_T_max    ?
_exptl_absorpt_correction_type    ?
_exptl_absorpt_correction_T_min   ?
_exptl_absorpt_correction_T_max   ?
_exptl_absorpt_process_details    ?
_exptl_absorpt_special_details    ?
_diffrn_ambient_temperature       150(2)
_diffrn_radiation_wavelength      0.71073
_diffrn_radiation_type            MoK\a
_diffrn_source                    ?
_diffrn_measurement_device_type   ?
_diffrn_measurement_method        ?
_diffrn_detector_area_resol_mean  ?
_diffrn_reflns_number             33389
_diffrn_reflns_av_unetI/netI      0.0335
_diffrn_reflns_av_R_equivalents   0.0340
_diffrn_reflns_limit_h_min        -13
_diffrn_reflns_limit_h_max        13
_diffrn_reflns_limit_k_min        -15
_diffrn_reflns_limit_k_max        15
_diffrn_reflns_limit_l_min        -21
_diffrn_reflns_limit_l_max        21
_diffrn_reflns_theta_min          1.657
_diffrn_reflns_theta_max          25.746
_diffrn_reflns_theta_full         25.242
_diffrn_measured_fraction_theta_max   0.989
_diffrn_measured_fraction_theta_full  0.995
_diffrn_reflns_Laue_measured_fraction_max    0.989
_diffrn_reflns_Laue_measured_fraction_full   0.995
_diffrn_reflns_point_group_measured_fraction_max   0.989
_diffrn_reflns_point_group_measured_fraction_full  0.995
_reflns_number_total              9127
_reflns_number_gt                 7888
_reflns_threshold_expression      'I > 2\s(I)'
_reflns_Friedel_coverage          0.000
_reflns_Friedel_fraction_max      .
_reflns_Friedel_fraction_full     .
 
_reflns_special_details
;
 Reflections were merged by SHELXL according to the crystal
 class for the calculation of statistics and refinement.
 
 _reflns_Friedel_fraction is defined as the number of unique
 Friedel pairs measured divided by the number that would be
 possible theoretically, ignoring centric projections and
 systematic absences.
;
 
_computing_data_collection        ?
_computing_cell_refinement        ?
_computing_data_reduction         ?
_computing_structure_solution     'SHELXT 2018/2 (Sheldrick, 2018)'
_computing_structure_refinement 'SHELXL-2018/3 (Sheldrick, 2018)'
_computing_molecular_graphics     ?
_computing_publication_material   ?
_refine_special_details           ?
_refine_ls_structure_factor_coef  Fsqd
_refine_ls_matrix_type            full
_refine_ls_weighting_scheme       calc
_refine_ls_weighting_details
'w=1/[\s^2^(Fo^2^)+(0.1000P)^2^] where P=(Fo^2^+2Fc^2^)/3'
_atom_sites_solution_primary      ?
_atom_sites_solution_secondary    ?
_atom_sites_solution_hydrogens    geom
_refine_ls_hydrogen_treatment     constr
_refine_ls_extinction_method      none
_refine_ls_extinction_coef        .
_refine_ls_number_reflns          9127
_refine_ls_number_parameters      499
_refine_ls_number_restraints      0
_refine_ls_R_factor_all           0.0917
_refine_ls_R_factor_gt            0.0817
_refine_ls_wR_factor_ref          0.2977
_refine_ls_wR_factor_gt           0.2915
_refine_ls_goodness_of_fit_ref    2.345
_refine_ls_restrained_S_all       2.345
_refine_ls_shift/su_max           0.001
_refine_ls_shift/su_mean          0.000
 
loop_
 _atom_site_label
 _atom_site_type_symbol
 _atom_site_fract_x
 _atom_site_fract_y
 _atom_site_fract_z
 _atom_site_U_iso_or_equiv
 _atom_site_adp_type
 _atom_site_occupancy
 _atom_site_site_symmetry_order  
 _atom_site_calc_flag
 _atom_site_refinement_flags_posn
 _atom_site_refinement_flags_adp
 _atom_site_refinement_flags_occupancy
 _atom_site_disorder_assembly
 _atom_site_disorder_group
Zn01 Zn 0.63827(5) 1.15809(4) 0.97903(3) 0.0230(2) Uani 1 1 d . . . . .
O1 O 0.7615(4) 1.1328(5) 0.4635(3) 0.0734(17) Uani 1 1 d . . . . .
S002 S 1.11141(11) 0.68214(10) 0.90366(9) 0.0347(4) Uani 1 1 d . . . . .
N2 N 0.6912(5) 1.1353(6) 0.4079(3) 0.0610(17) Uani 1 1 d . . . . .
C2 C 0.4179(14) 0.5734(8) 1.2311(7) 0.131(5) Uani 1 1 d . . . . .
H2A H 0.471631 0.619122 1.184121 0.157 Uiso 1 1 calc R U . . .
H2B H 0.383070 0.599858 1.274845 0.157 Uiso 1 1 calc R U . . .
O003 O 0.5188(3) 1.1489(3) 0.08121(19) 0.0282(7) Uani 1 1 d . . . . .
N3 N 0.6932(5) 1.1340(5) 0.5375(3) 0.0572(15) Uani 1 1 d . . . . .
C3 C 0.305(2) 0.4166(12) 1.3080(8) 0.225(11) Uani 1 1 d . . . . .
H3A H 0.298215 0.459109 1.345541 0.338 Uiso 1 1 calc R U . . .
H3B H 0.330939 0.343567 1.333742 0.338 Uiso 1 1 calc R U . . .
H3C H 0.226277 0.410987 1.295076 0.338 Uiso 1 1 calc R U . . .
O004 O 0.6916(3) 1.1591(3) 0.1181(2) 0.0317(8) Uani 1 1 d . . . . .
N4 N 0.3564(4) 1.1259(5) 0.3266(3) 0.0455(12) Uani 1 1 d . . . . .
O005 O 0.5303(3) 1.1510(3) 0.90709(19) 0.0307(8) Uani 1 1 d . . . . .
N5 N 0.3642(4) 1.1381(5) 0.7188(3) 0.0460(12) Uani 1 1 d . . . . .
O006 O 0.7034(4) 1.1603(3) 0.8167(2) 0.0414(9) Uani 1 1 d . . . . .
N6 N 0.7361(3) 1.0261(3) 0.9958(2) 0.0254(8) Uani 1 1 d . . . . .
N7 N 0.3903(9) 0.4685(6) 1.2357(5) 0.099(3) Uani 1 1 d . . . . .
N007 N 1.0176(4) 0.5900(3) 0.9046(3) 0.0317(9) Uani 1 1 d . . . . .
C7 C 0.7152(4) 0.9415(4) 0.9745(3) 0.0266(10) Uani 1 1 d . . . . .
H7 H 0.652757 0.935320 0.948002 0.032 Uiso 1 1 calc R U . . .
C8 C 0.9066(4) 0.6202(4) 0.9323(3) 0.0267(10) Uani 1 1 d . . . . .
N009 N 0.7279(4) 0.3036(3) 0.9349(2) 0.0290(9) Uani 1 1 d . . . . .
N00A N 0.7961(4) 0.8636(3) 0.9961(3) 0.0298(9) Uani 1 1 d . . . . .
N00B N 0.7913(4) 0.4665(3) 0.9247(3) 0.0322(9) Uani 1 1 d . . . . .
N00C N 1.0196(4) 0.7629(3) 0.9384(3) 0.0308(9) Uani 1 1 d . . . . .
N00D N 0.4726(4) 1.1423(4) 0.6649(2) 0.0353(10) Uani 1 1 d . . . . .
N00E N 0.4658(4) 1.1359(4) 0.3448(2) 0.0352(10) Uani 1 1 d . . . . .
C00J C 0.7087(4) 0.3835(4) 0.9666(3) 0.0266(10) Uani 1 1 d . . . . .
H00J H 0.646156 0.382929 1.012251 0.032 Uiso 1 1 calc R U . . .
C00K C 0.7964(5) 0.7617(4) 0.9820(3) 0.0312(11) Uani 1 1 d . . . . .
C00L C 0.8720(4) 0.9035(4) 1.0326(3) 0.0319(11) Uani 1 1 d . . . . .
H00L H 0.938114 0.867823 1.053141 0.038 Uiso 1 1 calc R U . . .
C00M C 0.7939(5) 0.5670(4) 0.9424(3) 0.0332(11) Uani 1 1 d . . . . .
C00N C 0.9083(4) 0.7186(4) 0.9524(3) 0.0273(10) Uani 1 1 d . . . . .
C00O C 0.8347(4) 1.0013(4) 1.0334(3) 0.0307(11) Uani 1 1 d . . . . .
H00O H 0.869342 1.047232 1.055929 0.037 Uiso 1 1 calc R U . . .
C00P C 0.5208(5) 1.1473(4) 0.7772(3) 0.0332(11) Uani 1 1 d . . . . .
O00Q O 0.5123(6) 0.4552(5) 1.1185(4) 0.0803(17) Uani 1 1 d . . . . .
C00R C 0.5812(4) 1.1505(4) 0.1341(3) 0.0249(10) Uani 1 1 d . . . . .
C00S C 0.6917(5) 0.7061(4) 0.9926(4) 0.0380(13) Uani 1 1 d . . . . .
H00S H 0.617512 0.731719 1.015267 0.046 Uiso 1 1 calc R U . . .
C00V C 0.5597(5) 1.1442(4) 0.2802(3) 0.0326(11) Uani 1 1 d . . . . .
H00V H 0.643068 1.151048 0.279411 0.039 Uiso 1 1 calc R U . . .
C00W C 0.5117(5) 1.1410(4) 0.2169(3) 0.0310(11) Uani 1 1 d . . . . .
C00X C 0.5680(5) 1.1464(4) 0.6982(3) 0.0345(12) Uani 1 1 d . . . . .
H00X H 0.650942 1.148403 0.672492 0.041 Uiso 1 1 calc R U . . .
C00Y C 0.5917(5) 1.1531(4) 0.8363(3) 0.0290(11) Uani 1 1 d . . . . .
C00Z C 0.4719(5) 1.1398(5) 0.5860(3) 0.0376(12) Uani 1 1 d . . . . .
C010 C 0.8663(5) 0.4374(5) 0.8637(4) 0.0463(14) Uani 1 1 d . . . . .
H010 H 0.932930 0.479249 0.824694 0.056 Uiso 1 1 calc R U . . .
C012 C 0.6911(5) 0.6105(4) 0.9704(4) 0.0409(13) Uani 1 1 d . . . . .
H012 H 0.615908 0.575970 0.975507 0.049 Uiso 1 1 calc R U . . .
C013 C 0.3853(5) 1.1294(5) 0.2489(3) 0.0411(13) Uani 1 1 d . . . . .
H013 H 0.327846 1.124599 0.218247 0.049 Uiso 1 1 calc R U . . .
C014 C 0.4671(5) 1.1394(5) 0.4230(3) 0.0377(12) Uani 1 1 d . . . . .
C015 C 0.3687(5) 1.1421(5) 0.5595(3) 0.0446(14) Uani 1 1 d . . . . .
H015 H 0.294277 1.143919 0.595993 0.054 Uiso 1 1 calc R U . . .
C016 C 0.8268(5) 0.3374(4) 0.8698(4) 0.0421(13) Uani 1 1 d . . . . .
H016 H 0.861276 0.296589 0.835033 0.051 Uiso 1 1 calc R U . . .
C017 C 0.5795(5) 1.1378(5) 0.4480(3) 0.0407(13) Uani 1 1 d . . . . .
C018 C 0.5811(5) 1.1391(5) 0.5292(3) 0.0414(13) Uani 1 1 d . . . . .
C019 C 0.3963(5) 1.1417(5) 0.7852(3) 0.0415(13) Uani 1 1 d . . . . .
H019 H 0.339866 1.140488 0.833838 0.050 Uiso 1 1 calc R U . . .
C01A C 0.3662(5) 1.1419(5) 0.4791(3) 0.0459(15) Uani 1 1 d . . . . .
H01A H 0.290264 1.143582 0.464567 0.055 Uiso 1 1 calc R U . . .
O01B O 0.8824(7) 0.8704(11) 0.7875(5) 0.162(5) Uani 1 1 d . . . . .
N1 N 1.0141(7) 1.0093(9) 0.7643(6) 0.109(3) Uani 1 1 d . . . . .
C1 C 1.0324(14) 1.1175(12) 0.7637(9) 0.158(6) Uani 1 1 d . . . . .
H1A H 1.013846 1.168983 0.714149 0.237 Uiso 1 1 calc R U . . .
H1B H 1.116646 1.129538 0.764800 0.237 Uiso 1 1 calc R U . . .
H1C H 0.979110 1.128666 0.811865 0.237 Uiso 1 1 calc R U . . .
C01E C 1.1174(7) 0.9553(8) 0.7395(6) 0.089(3) Uani 1 1 d . . . . .
H01B H 1.097839 0.877118 0.756455 0.133 Uiso 1 1 calc R U . . .
H01C H 1.181829 0.967954 0.764795 0.133 Uiso 1 1 calc R U . . .
H01D H 1.144540 0.983393 0.679905 0.133 Uiso 1 1 calc R U . . .
C01F C 0.9070(10) 0.9710(13) 0.7833(7) 0.117(4) Uani 1 1 d . . . . .
H01F H 0.842365 1.015726 0.794970 0.140 Uiso 1 1 calc R U . . .
C01G C 0.4369(11) 0.4225(8) 1.1744(6) 0.098(3) Uani 1 1 d . . . . .
H01G H 0.400360 0.354474 1.180688 0.118 Uiso 1 1 calc R U . . .
 
loop_
 _atom_site_aniso_label
 _atom_site_aniso_U_11
 _atom_site_aniso_U_22
 _atom_site_aniso_U_33
 _atom_site_aniso_U_23
 _atom_site_aniso_U_13
 _atom_site_aniso_U_12
Zn01 0.0297(4) 0.0189(3) 0.0228(3) -0.0109(2) -0.0034(2) -0.0043(2)
O1 0.035(2) 0.163(5) 0.037(2) -0.052(3) -0.0102(19) 0.013(3)
S002 0.0261(6) 0.0316(7) 0.0543(8) -0.0230(6) -0.0111(6) 0.0001(5)
N2 0.042(3) 0.122(5) 0.032(3) -0.040(3) -0.011(2) 0.009(3)
C2 0.223(15) 0.067(6) 0.102(8) -0.024(6) -0.041(9) 0.044(8)
O003 0.0331(18) 0.0350(18) 0.0208(16) -0.0142(14) -0.0069(14) 0.0003(15)
N3 0.039(3) 0.109(5) 0.032(3) -0.035(3) -0.007(2) 0.005(3)
C3 0.35(3) 0.126(12) 0.102(10) 0.006(8) 0.073(13) 0.076(15)
O004 0.037(2) 0.0359(19) 0.0260(17) -0.0155(15) -0.0058(15) -0.0033(15)
N4 0.033(2) 0.081(4) 0.026(2) -0.024(2) -0.0037(19) -0.009(2)
O005 0.0410(19) 0.0330(18) 0.0211(16) -0.0132(14) -0.0050(14) -0.0062(15)
N5 0.041(3) 0.078(4) 0.025(2) -0.027(2) -0.005(2) -0.001(2)
O006 0.047(2) 0.054(2) 0.0261(18) -0.0171(17) -0.0060(17) -0.0087(19)
N6 0.028(2) 0.0214(19) 0.028(2) -0.0114(16) -0.0013(16) -0.0054(16)
N7 0.133(7) 0.070(5) 0.074(5) -0.013(4) -0.001(5) 0.017(5)
N007 0.028(2) 0.024(2) 0.047(3) -0.0169(19) -0.0094(19) -0.0004(17)
C7 0.027(2) 0.020(2) 0.034(3) -0.0118(19) -0.004(2) -0.0032(18)
C8 0.029(2) 0.018(2) 0.036(3) -0.0096(19) -0.009(2) 0.0007(18)
N009 0.038(2) 0.0195(19) 0.032(2) -0.0114(17) -0.0067(18) -0.0046(17)
N00A 0.031(2) 0.0194(19) 0.042(2) -0.0148(17) -0.0073(19) -0.0019(16)
N00B 0.035(2) 0.021(2) 0.044(2) -0.0169(18) -0.0040(19) -0.0044(17)
N00C 0.028(2) 0.027(2) 0.043(2) -0.0164(19) -0.0108(19) -0.0012(17)
N00D 0.040(2) 0.046(3) 0.023(2) -0.0149(19) -0.0061(18) -0.004(2)
N00E 0.031(2) 0.057(3) 0.023(2) -0.020(2) -0.0068(18) 0.001(2)
C00J 0.030(2) 0.020(2) 0.033(2) -0.0107(19) -0.008(2) -0.0046(18)
C00K 0.035(3) 0.019(2) 0.044(3) -0.016(2) -0.009(2) -0.002(2)
C00L 0.026(2) 0.030(3) 0.044(3) -0.016(2) -0.011(2) -0.002(2)
C00M 0.034(3) 0.020(2) 0.048(3) -0.013(2) -0.009(2) -0.007(2)
C00N 0.024(2) 0.021(2) 0.040(3) -0.012(2) -0.011(2) -0.0003(18)
C00O 0.028(2) 0.030(3) 0.039(3) -0.020(2) -0.003(2) -0.007(2)
C00P 0.047(3) 0.032(3) 0.021(2) -0.010(2) -0.005(2) -0.007(2)
O00Q 0.095(4) 0.082(4) 0.055(3) -0.014(3) -0.007(3) -0.025(3)
C00R 0.032(3) 0.022(2) 0.025(2) -0.0122(19) -0.008(2) 0.0005(19)
C00S 0.027(3) 0.027(3) 0.065(4) -0.022(3) -0.007(2) 0.000(2)
C00V 0.031(3) 0.046(3) 0.024(2) -0.017(2) -0.005(2) -0.001(2)
C00W 0.035(3) 0.035(3) 0.029(2) -0.017(2) -0.008(2) -0.002(2)
C00X 0.041(3) 0.044(3) 0.023(2) -0.017(2) -0.004(2) -0.007(2)
C00Y 0.041(3) 0.025(2) 0.021(2) -0.0103(19) -0.002(2) -0.008(2)
C00Z 0.043(3) 0.051(3) 0.023(2) -0.018(2) -0.005(2) -0.002(3)
C010 0.040(3) 0.038(3) 0.056(4) -0.021(3) 0.012(3) -0.016(2)
C012 0.030(3) 0.023(2) 0.075(4) -0.021(3) -0.012(3) -0.004(2)
C013 0.038(3) 0.065(4) 0.025(3) -0.021(3) -0.007(2) -0.006(3)
C014 0.039(3) 0.055(3) 0.024(2) -0.017(2) -0.008(2) -0.003(3)
C015 0.039(3) 0.072(4) 0.027(3) -0.024(3) -0.002(2) -0.005(3)
C016 0.044(3) 0.034(3) 0.049(3) -0.024(3) 0.006(3) -0.012(2)
C017 0.033(3) 0.068(4) 0.028(3) -0.026(3) -0.005(2) 0.004(3)
C018 0.042(3) 0.062(4) 0.028(3) -0.023(3) -0.010(2) -0.001(3)
C019 0.041(3) 0.064(4) 0.025(3) -0.025(3) -0.003(2) -0.003(3)
C01A 0.039(3) 0.076(4) 0.029(3) -0.025(3) -0.009(2) -0.002(3)
O01B 0.081(5) 0.259(13) 0.087(5) 0.042(7) -0.037(4) -0.049(7)
N1 0.053(4) 0.174(9) 0.109(7) -0.079(7) 0.011(4) -0.004(5)
C1 0.174(15) 0.158(13) 0.160(13) -0.107(11) 0.005(11) 0.044(12)
C01E 0.052(4) 0.123(8) 0.085(6) -0.030(6) -0.008(4) 0.022(5)
C01F 0.065(7) 0.167(13) 0.105(9) -0.041(9) 0.006(6) -0.003(7)
C01G 0.136(10) 0.070(6) 0.079(6) -0.022(5) -0.007(7) 0.008(6)
 
_geom_special_details
;
 All esds (except the esd in the dihedral angle between two l.s. planes)
 are estimated using the full covariance matrix.  The cell esds are taken
 into account individually in the estimation of esds in distances, angles
 and torsion angles; correlations between esds in cell parameters are only
 used when they are defined by crystal symmetry.  An approximate (isotropic)
 treatment of cell esds is used for estimating esds involving l.s. planes.
;
 
loop_
 _geom_bond_atom_site_label_1
 _geom_bond_atom_site_label_2
 _geom_bond_distance
 _geom_bond_site_symmetry_2
 _geom_bond_publ_flag
Zn01 O005 1.975(3) . ?
Zn01 O003 1.982(3) 1_556 ?
Zn01 N6 1.991(4) . ?
Zn01 N009 2.011(4) 1_565 ?
O1 N3 1.374(6) . ?
O1 N2 1.388(6) . ?
S002 N007 1.619(4) . ?
S002 N00C 1.622(4) . ?
N2 C017 1.316(7) . ?
C2 N7 1.379(13) . ?
O003 C00R 1.297(5) . ?
N3 C018 1.312(7) . ?
C3 N7 1.407(16) . ?
O004 C00R 1.225(6) . ?
N4 C013 1.329(7) . ?
N4 N00E 1.370(6) . ?
O005 C00Y 1.287(6) . ?
N5 C019 1.321(7) . ?
N5 N00D 1.373(6) . ?
O006 C00Y 1.238(6) . ?
N6 C7 1.312(6) . ?
N6 C00O 1.404(6) . ?
N7 C01G 1.398(12) . ?
N007 C8 1.344(6) . ?
C7 N00A 1.366(6) . ?
C8 C00M 1.423(7) . ?
C8 C00N 1.432(6) . ?
N009 C00J 1.319(6) . ?
N009 C016 1.387(7) . ?
N00A C00L 1.383(6) . ?
N00A C00K 1.421(6) . ?
N00B C00J 1.356(6) . ?
N00B C010 1.368(7) . ?
N00B C00M 1.438(6) . ?
N00C C00N 1.344(6) . ?
N00D C00X 1.352(7) . ?
N00D C00Z 1.410(6) . ?
N00E C00V 1.362(6) . ?
N00E C014 1.402(6) . ?
C00K C00S 1.356(7) . ?
C00K C00N 1.433(7) . ?
C00L C00O 1.330(7) . ?
C00M C012 1.347(7) . ?
C00P C00X 1.388(7) . ?
C00P C019 1.393(8) . ?
C00P C00Y 1.474(7) . ?
O00Q C01G 1.130(11) . ?
C00R C00W 1.474(7) . ?
C00S C012 1.415(7) . ?
C00V C00W 1.361(7) . ?
C00W C013 1.417(8) . ?
C00Z C015 1.351(8) . ?
C00Z C018 1.417(8) . ?
C010 C016 1.348(7) . ?
C014 C01A 1.349(8) . ?
C014 C017 1.438(7) . ?
C015 C01A 1.431(7) . ?
C017 C018 1.447(7) . ?
O01B C01F 1.318(15) . ?
N1 C01F 1.262(14) . ?
N1 C01E 1.407(11) . ?
N1 C1 1.422(15) . ?
 
loop_
 _geom_angle_atom_site_label_1
 _geom_angle_atom_site_label_2
 _geom_angle_atom_site_label_3
 _geom_angle
 _geom_angle_site_symmetry_1
 _geom_angle_site_symmetry_3
 _geom_angle_publ_flag
O005 Zn01 O003 100.79(14) . 1_556 ?
O005 Zn01 N6 108.21(15) . . ?
O003 Zn01 N6 109.94(15) 1_556 . ?
O005 Zn01 N009 109.36(16) . 1_565 ?
O003 Zn01 N009 109.80(15) 1_556 1_565 ?
N6 Zn01 N009 117.42(17) . 1_565 ?
N3 O1 N2 112.3(4) . . ?
N007 S002 N00C 101.0(2) . . ?
C017 N2 O1 104.6(4) . . ?
C00R O003 Zn01 105.9(3) . 1_554 ?
C018 N3 O1 105.5(4) . . ?
C013 N4 N00E 103.7(4) . . ?
C00Y O005 Zn01 110.8(3) . . ?
C019 N5 N00D 103.4(4) . . ?
C7 N6 C00O 106.4(4) . . ?
C7 N6 Zn01 124.3(3) . . ?
C00O N6 Zn01 129.2(3) . . ?
C2 N7 C01G 124.1(10) . . ?
C2 N7 C3 110.9(11) . . ?
C01G N7 C3 124.9(11) . . ?
C8 N007 S002 106.3(3) . . ?
N6 C7 N00A 110.1(4) . . ?
N007 C8 C00M 127.7(4) . . ?
N007 C8 C00N 113.0(4) . . ?
C00M C8 C00N 119.3(4) . . ?
C00J N009 C016 106.3(4) . . ?
C00J N009 Zn01 126.0(3) . 1_545 ?
C016 N009 Zn01 127.6(3) . 1_545 ?
C7 N00A C00L 107.3(4) . . ?
C7 N00A C00K 123.8(4) . . ?
C00L N00A C00K 129.0(4) . . ?
C00J N00B C010 107.9(4) . . ?
C00J N00B C00M 124.2(4) . . ?
C010 N00B C00M 127.9(4) . . ?
C00N N00C S002 105.7(3) . . ?
C00X N00D N5 112.4(4) . . ?
C00X N00D C00Z 128.9(5) . . ?
N5 N00D C00Z 118.7(4) . . ?
C00V N00E N4 112.3(4) . . ?
C00V N00E C014 129.3(4) . . ?
N4 N00E C014 118.4(4) . . ?
N009 C00J N00B 110.1(4) . . ?
C00S C00K N00A 121.1(5) . . ?
C00S C00K C00N 118.9(4) . . ?
N00A C00K C00N 120.0(4) . . ?
C00O C00L N00A 106.9(4) . . ?
C012 C00M C8 119.2(4) . . ?
C012 C00M N00B 121.0(4) . . ?
C8 C00M N00B 119.7(4) . . ?
N00C C00N C8 113.9(4) . . ?
N00C C00N C00K 126.7(4) . . ?
C8 C00N C00K 119.3(4) . . ?
C00L C00O N6 109.3(4) . . ?
C00X C00P C019 104.2(5) . . ?
C00X C00P C00Y 125.7(5) . . ?
C019 C00P C00Y 130.1(5) . . ?
O004 C00R O003 123.4(4) . . ?
O004 C00R C00W 120.3(4) . . ?
O003 C00R C00W 116.3(4) . . ?
C00K C00S C012 121.1(5) . . ?
C00W C00V N00E 107.1(4) . . ?
C00V C00W C013 104.8(4) . . ?
C00V C00W C00R 125.4(5) . . ?
C013 C00W C00R 129.9(4) . . ?
N00D C00X C00P 106.5(5) . . ?
O006 C00Y O005 123.8(5) . . ?
O006 C00Y C00P 120.4(4) . . ?
O005 C00Y C00P 115.9(4) . . ?
C015 C00Z N00D 122.2(5) . . ?
C015 C00Z C018 116.7(5) . . ?
N00D C00Z C018 121.1(5) . . ?
C016 C010 N00B 106.4(5) . . ?
C00M C012 C00S 122.0(5) . . ?
N4 C013 C00W 112.2(5) . . ?
C01A C014 N00E 123.4(5) . . ?
C01A C014 C017 116.3(5) . . ?
N00E C014 C017 120.3(5) . . ?
C00Z C015 C01A 123.1(5) . . ?
C010 C016 N009 109.3(5) . . ?
N2 C017 C014 130.5(5) . . ?
N2 C017 C018 109.0(5) . . ?
C014 C017 C018 120.5(5) . . ?
N3 C018 C00Z 130.7(5) . . ?
N3 C018 C017 108.6(5) . . ?
C00Z C018 C017 120.7(5) . . ?
N5 C019 C00P 113.5(5) . . ?
C014 C01A C015 122.8(5) . . ?
C01F N1 C01E 125.2(12) . . ?
C01F N1 C1 117.8(12) . . ?
C01E N1 C1 117.0(10) . . ?
N1 C01F O01B 121.7(12) . . ?
O00Q C01G N7 128.7(11) . . ?
 
_refine_diff_density_max    1.943
_refine_diff_density_min   -0.816
_refine_diff_density_rms    0.231

_shelx_res_file
;
TITL 1_a.res in P-1
    1_a.res
    created by SHELXL-2018/3 at 17:11:31 on 03-Apr-2023
REM Old TITL 1 in P-1
REM SHELXT solution in P-1: R1 0.170, Rweak 0.011, Alpha 0.048
REM <I/s>   0.000 for    0 systematic absences,  Orientation as input
REM Formula found by SHELXT:  C33 N10 O7 S Zn
CELL  0.71073  11.3606  12.9752  17.7062   71.468   77.357   88.283
ZERR   23.000   0.0003   0.0003   0.0004    0.001    0.001    0.001
LATT  1
SFAC C H N O S ZN
UNIT 23 23 23 23 23 23
ACTA
LIST 6
TEMP -123.150
L.S. 10
BOND

FMAP 2
PLAN 20
WGHT    0.100000
FVAR       0.58632
ZN01  6    0.638267    1.158093    0.979028    11.00000    0.02972    0.01887 =
         0.02279   -0.01092   -0.00340   -0.00425
O1    4    0.761479    1.132809    0.463471    11.00000    0.03501    0.16331 =
         0.03717   -0.05241   -0.01018    0.01265
S002  5    1.111413    0.682135    0.903656    11.00000    0.02612    0.03163 =
         0.05431   -0.02301   -0.01115    0.00014
N2    3    0.691225    1.135262    0.407946    11.00000    0.04194    0.12193 =
         0.03190   -0.04032   -0.01137    0.00924
C2    1    0.417850    0.573355    1.231066    11.00000    0.22329    0.06655 =
         0.10203   -0.02442   -0.04143    0.04362
AFIX  93
H2A   2    0.471631    0.619122    1.184121    11.00000   -1.20000
H2B   2    0.383070    0.599858    1.274845    11.00000   -1.20000
AFIX   0
O003  4    0.518816    1.148928    0.081208    11.00000    0.03307    0.03503 =
         0.02078   -0.01417   -0.00695    0.00032
N3    3    0.693248    1.134032    0.537496    11.00000    0.03941    0.10920 =
         0.03182   -0.03537   -0.00734    0.00498
C3    1    0.304949    0.416594    1.307996    11.00000    0.35318    0.12563 =
         0.10217    0.00567    0.07295    0.07643
AFIX 137
H3A   2    0.298215    0.459109    1.345541    11.00000   -1.50000
H3B   2    0.330939    0.343567    1.333742    11.00000   -1.50000
H3C   2    0.226277    0.410987    1.295076    11.00000   -1.50000
AFIX   0
O004  4    0.691633    1.159145    0.118117    11.00000    0.03698    0.03587 =
         0.02601   -0.01547   -0.00578   -0.00327
N4    3    0.356440    1.125873    0.326572    11.00000    0.03339    0.08124 =
         0.02649   -0.02445   -0.00370   -0.00876
O005  4    0.530285    1.150972    0.907087    11.00000    0.04098    0.03304 =
         0.02107   -0.01317   -0.00501   -0.00617
N5    3    0.364172    1.138125    0.718753    11.00000    0.04074    0.07821 =
         0.02546   -0.02662   -0.00502   -0.00075
O006  4    0.703443    1.160305    0.816681    11.00000    0.04732    0.05358 =
         0.02609   -0.01708   -0.00603   -0.00867
N6    3    0.736101    1.026122    0.995811    11.00000    0.02795    0.02143 =
         0.02761   -0.01135   -0.00132   -0.00540
N7    3    0.390273    0.468463    1.235659    11.00000    0.13259    0.07034 =
         0.07375   -0.01267   -0.00070    0.01651
N007  3    1.017625    0.589984    0.904604    11.00000    0.02813    0.02426 =
         0.04729   -0.01689   -0.00941   -0.00036
C7    1    0.715150    0.941499    0.974527    11.00000    0.02702    0.02030 =
         0.03376   -0.01183   -0.00387   -0.00324
AFIX  43
H7    2    0.652757    0.935320    0.948002    11.00000   -1.20000
AFIX   0
C8    1    0.906609    0.620248    0.932307    11.00000    0.02876    0.01767 =
         0.03563   -0.00964   -0.00929    0.00070
N009  3    0.727903    0.303623    0.934904    11.00000    0.03789    0.01955 =
         0.03182   -0.01141   -0.00669   -0.00458
N00A  3    0.796132    0.863569    0.996067    11.00000    0.03150    0.01939 =
         0.04194   -0.01476   -0.00731   -0.00194
N00B  3    0.791336    0.466457    0.924664    11.00000    0.03458    0.02108 =
         0.04378   -0.01691   -0.00404   -0.00439
N00C  3    1.019563    0.762938    0.938401    11.00000    0.02799    0.02683 =
         0.04307   -0.01638   -0.01077   -0.00124
N00D  3    0.472559    1.142335    0.664903    11.00000    0.03955    0.04624 =
         0.02293   -0.01486   -0.00615   -0.00414
N00E  3    0.465753    1.135868    0.344842    11.00000    0.03112    0.05711 =
         0.02319   -0.02026   -0.00679    0.00054
C00J  1    0.708708    0.383470    0.966649    11.00000    0.03000    0.01961 =
         0.03268   -0.01067   -0.00761   -0.00462
AFIX  43
H00J  2    0.646156    0.382929    1.012251    11.00000   -1.20000
AFIX   0
C00K  1    0.796409    0.761658    0.982046    11.00000    0.03539    0.01885 =
         0.04358   -0.01552   -0.00858   -0.00161
C00L  1    0.871999    0.903480    1.032584    11.00000    0.02601    0.03031 =
         0.04410   -0.01604   -0.01104   -0.00198
AFIX  43
H00L  2    0.938114    0.867823    1.053141    11.00000   -1.20000
AFIX   0
C00M  1    0.793885    0.566992    0.942393    11.00000    0.03446    0.01956 =
         0.04768   -0.01261   -0.00940   -0.00703
C00N  1    0.908309    0.718637    0.952418    11.00000    0.02397    0.02120 =
         0.04020   -0.01165   -0.01133   -0.00034
C00O  1    0.834693    1.001318    1.033413    11.00000    0.02793    0.02988 =
         0.03931   -0.02021   -0.00304   -0.00682
AFIX  43
H00O  2    0.869342    1.047232    1.055929    11.00000   -1.20000
AFIX   0
C00P  1    0.520844    1.147260    0.777219    11.00000    0.04722    0.03177 =
         0.02117   -0.01026   -0.00515   -0.00676
O00Q  4    0.512261    0.455205    1.118510    11.00000    0.09495    0.08220 =
         0.05547   -0.01425   -0.00712   -0.02453
C00R  1    0.581185    1.150483    0.134094    11.00000    0.03224    0.02168 =
         0.02511   -0.01215   -0.00838    0.00049
C00S  1    0.691725    0.706077    0.992605    11.00000    0.02695    0.02651 =
         0.06468   -0.02205   -0.00739   -0.00038
AFIX  43
H00S  2    0.617512    0.731719    1.015267    11.00000   -1.20000
AFIX   0
C00V  1    0.559747    1.144231    0.280199    11.00000    0.03141    0.04611 =
         0.02389   -0.01667   -0.00479   -0.00117
AFIX  43
H00V  2    0.643068    1.151048    0.279411    11.00000   -1.20000
AFIX   0
C00W  1    0.511733    1.140975    0.216926    11.00000    0.03501    0.03480 =
         0.02895   -0.01676   -0.00844   -0.00244
C00X  1    0.567963    1.146450    0.698168    11.00000    0.04051    0.04378 =
         0.02316   -0.01734   -0.00410   -0.00658
AFIX  43
H00X  2    0.650942    1.148403    0.672492    11.00000   -1.20000
AFIX   0
C00Y  1    0.591730    1.153113    0.836298    11.00000    0.04129    0.02480 =
         0.02126   -0.01031   -0.00176   -0.00770
C00Z  1    0.471901    1.139845    0.585950    11.00000    0.04276    0.05078 =
         0.02266   -0.01766   -0.00501   -0.00173
C010  1    0.866278    0.437352    0.863663    11.00000    0.03998    0.03768 =
         0.05573   -0.02068    0.01152   -0.01612
AFIX  43
H010  2    0.932930    0.479249    0.824694    11.00000   -1.20000
AFIX   0
C012  1    0.691116    0.610490    0.970441    11.00000    0.03005    0.02251 =
         0.07458   -0.02086   -0.01176   -0.00424
AFIX  43
H012  2    0.615908    0.575970    0.975507    11.00000   -1.20000
AFIX   0
C013  1    0.385324    1.129354    0.248855    11.00000    0.03843    0.06520 =
         0.02489   -0.02093   -0.00661   -0.00567
AFIX  43
H013  2    0.327846    1.124599    0.218247    11.00000   -1.20000
AFIX   0
C014  1    0.467076    1.139435    0.422986    11.00000    0.03915    0.05457 =
         0.02398   -0.01738   -0.00837   -0.00318
C015  1    0.368710    1.142107    0.559494    11.00000    0.03931    0.07158 =
         0.02711   -0.02440   -0.00210   -0.00477
AFIX  43
H015  2    0.294277    1.143919    0.595993    11.00000   -1.20000
AFIX   0
C016  1    0.826799    0.337419    0.869806    11.00000    0.04366    0.03385 =
         0.04942   -0.02393    0.00625   -0.01235
AFIX  43
H016  2    0.861276    0.296589    0.835033    11.00000   -1.20000
AFIX   0
C017  1    0.579514    1.137784    0.448003    11.00000    0.03261    0.06808 =
         0.02819   -0.02594   -0.00529    0.00425
C018  1    0.581051    1.139111    0.529212    11.00000    0.04161    0.06179 =
         0.02818   -0.02266   -0.01027   -0.00096
C019  1    0.396289    1.141657    0.785235    11.00000    0.04073    0.06391 =
         0.02546   -0.02457   -0.00263   -0.00304
AFIX  43
H019  2    0.339866    1.140488    0.833838    11.00000   -1.20000
AFIX   0
C01A  1    0.366179    1.141906    0.479070    11.00000    0.03924    0.07650 =
         0.02889   -0.02547   -0.00850   -0.00182
AFIX  43
H01A  2    0.290264    1.143582    0.464567    11.00000   -1.20000
AFIX   0
O01B  4    0.882398    0.870389    0.787471    11.00000    0.08055    0.25886 =
         0.08704    0.04194   -0.03656   -0.04855
N1    3    1.014141    1.009289    0.764286    11.00000    0.05329    0.17430 =
         0.10912   -0.07854    0.01121   -0.00426
C1    1    1.032352    1.117537    0.763732    11.00000    0.17410    0.15818 =
         0.15958   -0.10737    0.00518    0.04416
AFIX 137
H1A   2    1.013846    1.168983    0.714149    11.00000   -1.50000
H1B   2    1.116646    1.129538    0.764800    11.00000   -1.50000
H1C   2    0.979110    1.128666    0.811865    11.00000   -1.50000
AFIX   0
C01E  1    1.117427    0.955344    0.739477    11.00000    0.05187    0.12314 =
         0.08510   -0.03029   -0.00786    0.02208
AFIX 137
H01B  2    1.097839    0.877118    0.756455    11.00000   -1.50000
H01C  2    1.181829    0.967954    0.764795    11.00000   -1.50000
H01D  2    1.144540    0.983393    0.679905    11.00000   -1.50000
AFIX   0
C01F  1    0.906954    0.970968    0.783330    11.00000    0.06501    0.16723 =
         0.10499   -0.04130    0.00553   -0.00302
AFIX  43
H01F  2    0.842365    1.015726    0.794970    11.00000   -1.20000
AFIX   0
C01G  1    0.436916    0.422450    1.174443    11.00000    0.13581    0.06974 =
         0.07913   -0.02168   -0.00737    0.00823
AFIX  43
H01G  2    0.400360    0.354474    1.180688    11.00000   -1.20000
AFIX   0
HKLF 4




REM  1_a.res in P-1
REM wR2 = 0.2977, GooF = S = 2.345, Restrained GooF = 2.345 for all data
REM R1 = 0.0817 for 7888 Fo > 4sig(Fo) and 0.0917 for all 9127 data
REM 499 parameters refined using 0 restraints

END

WGHT      0.1816      5.4400

REM Highest difference peak  1.943,  deepest hole -0.816,  1-sigma level  0.231
Q1    1   1.2036  0.5028  0.7450  11.00000  0.05    1.94
Q2    1   1.2047  0.4096  0.8056  11.00000  0.05    1.72
Q3    1   0.7098  1.4148  0.2564  11.00000  0.05    1.49
Q4    1   0.7041  0.5182  1.2793  11.00000  0.05    1.46
Q5    1   0.0541  1.0856  0.4232  11.00000  0.05    1.41
Q6    1   1.0686  0.5095  0.6852  11.00000  0.05    1.31
Q7    1   0.5804  1.3769  0.4451  11.00000  0.05    1.24
Q8    1   1.1348  0.5640  0.6947  11.00000  0.05    1.17
Q9    1   0.9679  1.3205  0.5731  11.00000  0.05    0.99
Q10   1   0.0862  1.2113  0.5101  11.00000  0.05    0.98
Q11   1   1.0229  0.4062  0.6952  11.00000  0.05    0.97
Q12   1   0.0528  1.2607  0.4491  11.00000  0.05    0.95
Q13   1   0.0428  0.2313  1.3697  11.00000  0.05    0.94
Q14   1   0.0557  0.3019  1.2658  11.00000  0.05    0.91
Q15   1   0.1682  1.3424  0.5188  11.00000  0.05    0.90
Q16   1   0.8432  1.2949  0.6544  11.00000  0.05    0.89
Q17   1   1.0053  1.0538  0.5056  11.00000  0.05    0.88
Q18   1   0.5963  1.3813  0.3795  11.00000  0.05    0.86
Q19   1   0.5076  0.5285  1.4543  11.00000  0.05    0.85
Q20   1   0.3282  1.4158  0.6641  11.00000  0.05    0.78
;
_shelx_res_checksum   59454

_shelx_hkl_file
;
  -1   0   0   -0.10    0.30
   1   0   0    0.00    0.30
  -3   0   0  934.91   21.90
  -3   0   0  931.81   21.70
  -3   0   0  913.31   23.20
   3   0   0  968.10   21.60
   3   0   0  931.01   21.70
   3   0   0  934.21   23.60
  -4   0   0  331.27   12.00
  -4   0   0  347.67   10.70
  -4   0   0  343.87   10.60
   4   0   0  341.97   10.40
   4   0   0  335.87   10.60
   4   0   0  348.17   12.40
  -5   0   0  412.16   12.80
  -5   0   0  404.56   12.90
  -5   0   0  378.26   14.50
   5   0   0  405.26   12.80
   5   0   0  429.56   15.40
   5   0   0  420.86   12.60
  -6   0   0  357.26   12.70
  -6   0   0  356.36   14.60
  -6   0   0  360.56   12.60
   6   0   0  336.67   12.30
   6   0   0  342.07   14.90
   6   0   0  367.36   12.10
  -7   0   0   77.09    6.30
  -7   0   0   81.29    6.30
  -7   0   0   84.99    9.40
   7   0   0   76.69    6.90
   7   0   0   68.99    5.30
   7   0   0   84.39    8.10
  -8   0   0  385.96   15.00
  -8   0   0  387.16   14.90
   8   0   0  384.16   14.80
   8   0   0  363.76   13.80
   8   0   0  385.16   18.00
  -9   0   0   63.99    7.90
  -9   0   0   70.09    8.10
   9   0   0   50.49    8.30
   9   0   0   57.99    6.70
 -10   0   0   95.29    8.90
 -10   0   0  106.19    9.50
  10   0   0  104.69   12.40
 -11   0   0  203.08   12.70
 -11   0   0  170.28   14.30
  11   0   0  179.48   15.20
 -12   0   0  199.38   13.50
 -12   0   0  233.78   14.10
  12   0   0  218.08   17.30
 -13   0   0   13.00    5.20
 -13   0   0   19.50    5.80
  13   0   0   27.00    9.60
  13  -1   0   -5.60    3.90
 -13   1   0    3.70    4.30
 -13   1   0    1.10    4.20
  12  -1   0  154.68   14.80
 -12   1   0  114.89   11.10
 -12   1   0  109.99   10.50
  11  -1   0   52.19   10.00
 -11   1   0   51.39    8.40
 -11   1   0   61.99    8.40
  10  -1   0  278.27   16.90
 -10   1   0  234.78   13.70
 -10   1   0  232.48   13.10
   9  -1   0  177.48    9.90
  -9   1   0  180.08   10.80
  -9   1   0  184.08   11.90
   8  -1   0   29.80    5.90
   8  -1   0   26.20    4.40
   8  -1   0   23.00    4.20
  -8   1   0   24.00    5.00
  -8   1   0   23.50    4.40
  -8   1   0    9.80    3.90
   7  -1   0    9.30    2.70
   7  -1   0   18.70    3.70
   7  -1   0   11.30    3.90
  -7   1   0   12.60    3.30
  -7   1   0   11.80    3.70
  -7   1   0   18.40    4.60
   6  -1   0  678.03   20.00
   6  -1   0  721.83   22.90
   6  -1   0  711.83   19.80
  -6   1   0  728.03   20.20
  -6   1   0  720.43   22.20
  -6   1   0  735.23   21.20
   5  -1   0   16.20    3.10
   5  -1   0   11.80    2.50
   5  -1   0   17.10    4.00
  -5   1   0   16.90    3.10
  -5   1   0   17.70    2.90
  -5   1   0   10.80    2.80
   4  -1   0   70.29    4.20
   4  -1   0   67.89    4.50
   4  -1   0   65.09    5.20
  -4   1   0   66.09    5.10
  -4   1   0   58.69    4.50
  -4   1   0   62.99    4.20
   3  -1   0  609.04   16.50
   3  -1   0  618.14   15.90
  -3   1   0  615.24   15.30
  -3   1   0  617.54   16.40
   0  -1   0   -0.10    0.20
  -1  -1   0  398.96    9.90
  -1  -1   0  417.66    9.30
  -1  -1   0  413.36   10.40
   1   1   0  425.26   10.50
   1   1   0  388.66    9.90
  -2  -1   0  164.48    7.20
  -2  -1   0  142.99    4.40
  -2  -1   0  132.29    5.20
   2   1   0  144.39    6.10
   2   1   0  144.59    4.50
   2   1   0  137.99    5.30
  -3  -1   0  663.73   15.70
  -3  -1   0  662.83   16.80
  -3  -1   0  671.63   18.30
   3   1   0  656.23   16.80
   3   1   0  639.64   18.40
   3   1   0  669.03   15.60
  -4  -1   0  106.09    5.60
  -4  -1   0  108.89    5.30
  -4  -1   0  103.99    6.60
   4   1   0   92.69    5.30
   4   1   0  108.39    4.90
   4   1   0  102.49    6.80
  -5  -1   0   10.80    2.60
  -5  -1   0    6.40    2.60
  -5  -1   0   21.40    3.30
   5   1   0   15.30    3.10
   5   1   0   21.80    3.10
   5   1   0   13.10    3.40
  -6  -1   0   71.39    5.20
  -6  -1   0   68.09    8.00
  -6  -1   0   75.59    5.90
   6   1   0   61.09    5.30
   6   1   0   68.19    4.70
   6   1   0   79.19    7.50
  -7  -1   0   29.00    4.50
  -7  -1   0   27.00    5.60
  -7  -1   0   32.60    4.80
   7   1   0   33.10    5.20
   7   1   0   31.70    4.40
   7   1   0   16.90    4.70
  -8  -1   0  309.37   13.40
  -8  -1   0  304.87   12.50
   8   1   0  305.57   16.20
   8   1   0  298.17   13.20
   8   1   0  315.07   12.20
  -9  -1   0   20.30    4.90
   9   1   0   16.00    5.80
   9   1   0   15.80    3.80
 -10  -1   0   37.30    6.70
 -10  -1   0   30.20    6.00
  10   1   0   33.20    5.70
  10   1   0   30.10    8.00
 -11  -1   0   51.69    7.80
 -11  -1   0   59.69    8.40
  11   1   0   45.70    9.90
 -12  -1   0   35.10    7.50
 -12  -1   0   32.50    7.00
  12   1   0   36.90    9.10
 -13  -1   0    4.90    4.60
 -13  -1   0    2.10    4.30
  13   1   0    6.60   10.60
  13  -2   0    4.60    6.10
 -13   2   0    9.90    4.80
 -13   2   0   -2.50    4.00
  12  -2   0   35.40    8.30
 -12   2   0   27.10    7.00
 -12   2   0   21.80    6.00
  11  -2   0   29.90    7.70
 -11   2   0   39.50    6.80
 -11   2   0   54.59    9.30
  10  -2   0   11.60    5.60
 -10   2   0   16.80    6.00
 -10   2   0   10.30    4.60
   9  -2   0   15.20    5.70
  -9   2   0   18.60    5.30
  -9   2   0   11.70    4.10
   8  -2   0    2.50    2.20
   8  -2   0    2.30    2.40
   8  -2   0    1.60    2.90
  -8   2   0   -0.70    2.40
  -8   2   0    6.40    3.50
  -8   2   0   -0.90    2.20
   7  -2   0    5.20    2.30
   7  -2   0    3.80    3.00
  -7   2   0   -1.80    1.80
  -7   2   0    3.90    3.20
  -7   2   0    0.20    2.10
   6  -2   0   21.70    4.40
   6  -2   0   23.80    3.80
   6  -2   0   24.10    3.50
  -6   2   0   24.30    4.80
  -6   2   0   23.70    4.50
  -6   2   0   22.60    3.80
   5  -2   0   54.79    4.80
   5  -2   0   50.69    5.60
   5  -2   0   39.80    3.70
  -5   2   0   41.70    4.80
  -5   2   0   48.00    5.30
  -5   2   0   48.80    4.20
   4  -2   0  140.99    6.80
   4  -2   0  132.79    5.70
   4  -2   0  126.19    6.70
  -4   2   0  126.79    6.00
  -4   2   0  131.89    7.10
  -4   2   0  132.49    6.60
   3  -2   0   61.89    4.50
   3  -2   0   66.19    3.80
   3  -2   0   61.09    4.20
  -3   2   0   65.69    4.80
  -3   2   0   62.59    4.00
   2  -2   0 2275.87   47.30
  -2   2   0 2272.97   47.60
  -2   2   0 2257.37   47.10
   1  -2   0  171.98    5.90
   1  -2   0  187.38    6.40
   1  -2   0  182.68    5.30
  -1   2   0  171.98    5.80
  -1   2   0  192.18    6.60
  -1   2   0  181.48    5.30
   0  -2   0    4.00    1.20
   0  -2   0    3.30    1.10
   0  -2   0    5.80    1.50
   0   2   0    2.00    1.00
   0   2   0    3.80    1.20
   0   2   0    5.80    1.60
  -1  -2   0  572.14   14.40
  -1  -2   0  594.84   13.90
  -1  -2   0  570.34   14.60
   1   2   0  563.14   14.40
   1   2   0  585.84   14.70
   1   2   0  579.44   13.80
  -3  -2   0 1354.66   33.30
  -3  -2   0 1358.36   29.60
  -3  -2   0 1382.86   31.60
  -3  -2   0 1449.65   30.30
   3   2   0 1369.26   33.40
   3   2   0 1334.37   31.70
  -4  -2   0  487.75   12.60
  -4  -2   0  502.35   13.10
  -4  -2   0  460.35   14.30
  -4  -2   0  456.95   16.00
   4   2   0  494.05   16.50
   4   2   0  460.45   14.40
  -5  -2   0  190.48    8.80
  -5  -2   0  198.68    7.50
  -5  -2   0  188.98    7.50
  -5  -2   0  190.48   10.20
   5   2   0  205.68   10.90
   5   2   0  195.98    8.90
  -6  -2   0    8.80    3.10
  -6  -2   0    9.10    3.70
  -6  -2   0    8.50    2.50
   6   2   0    6.50    2.40
   6   2   0   10.50    2.50
   6   2   0    8.00    3.40
  -7  -2   0  241.58   14.70
  -7  -2   0  261.87   11.80
  -7  -2   0  235.68    9.90
   7   2   0  262.67   14.40
   7   2   0  239.98    9.80
   7   2   0  231.98   11.20
  -8  -2   0   32.60    4.70
  -8  -2   0   21.00    4.60
   8   2   0   29.50    4.30
   8   2   0   40.90    9.30
  -9  -2   0  152.18    9.00
  -9  -2   0  141.79   10.00
   9   2   0  141.49    8.50
   9   2   0  143.89   12.70
 -10  -2   0    2.30    3.40
 -10  -2   0    2.00    3.30
 -10  -2   0    1.10    2.50
  10   2   0   -7.20    3.60
 -11  -2   0  249.28   14.50
 -11  -2   0  253.77   13.40
  11   2   0  259.17   18.60
 -12  -2   0    2.10    4.00
  12   2   0    2.90    5.70
 -13  -2   0   -2.20    3.50
 -13  -2   0   -1.60    3.30
  13   2   0   -2.80    4.30
  13  -3   0    3.80    5.20
 -13   3   0    9.70    4.60
 -13   3   0   14.30    6.20
  12  -3   0  158.78   14.50
 -12   3   0  148.79   11.80
 -12   3   0  143.69   12.90
  11  -3   0   12.90    5.80
 -11   3   0    0.60    3.10
 -11   3   0    2.30    4.60
  10  -3   0   45.80    8.70
 -10   3   0   40.30    7.60
   9  -3   0   46.50    5.90
   9  -3   0   48.70    7.80
  -9   3   0   35.90    6.10
   8  -3   0   53.39    7.90
   8  -3   0   49.80    6.10
  -8   3   0   46.40    6.60
  -8   3   0   53.19    7.60
  -8   3   0   50.79    6.30
   7  -3   0  842.42   26.20
   7  -3   0  833.02   22.90
   7  -3   0  803.62   24.80
  -7   3   0  864.21   26.40
  -7   3   0  820.62   24.00
  -7   3   0  816.52   25.10
   6  -3   0  239.18   11.20
   6  -3   0  219.88    9.10
   6  -3   0  227.18   10.80
  -6   3   0  235.68   10.70
  -6   3   0  215.78    9.80
  -6   3   0  218.68   11.40
   5  -3   0  745.93   21.20
   5  -3   0  707.33   21.10
   5  -3   0  732.73   19.30
  -5   3   0  729.93   20.60
  -5   3   0  758.32   20.40
  -5   3   0  740.43   22.60
   4  -3   0   78.09    5.70
   4  -3   0   83.69    4.80
   4  -3   0   83.99    5.30
  -4   3   0   85.59    5.20
  -4   3   0   79.29    5.10
  -4   3   0   83.99    6.30
   3  -3   0  203.48    8.70
   3  -3   0  202.58    7.50
   3  -3   0  224.78    7.70
  -3   3   0  205.98    9.10
  -3   3   0  198.18    7.30
  -3   3   0  220.98    8.10
   2  -3   0 1004.80   23.30
   2  -3   0 1058.79   24.50
   2  -3   0 1040.70   24.40
   2  -3   0 1063.19   25.50
  -2   3   0 1006.00   23.10
  -2  -3   0 1977.50   42.50
  -2  -3   0 1964.10   44.60
   2   3   0 1917.71   43.90
   2   3   0 2033.40   42.40
   2   3   0 1978.80   44.60
  -3  -3   0  473.95   15.60
  -3  -3   0  474.85   14.40
   3   3   0  461.25   14.50
   3   3   0  476.05   12.60
   3   3   0  478.75   15.80
  -4  -3   0   17.90    3.40
  -4  -3   0    6.80    3.00
  -4  -3   0   14.40    2.50
   4   3   0    7.00    2.80
   4   3   0    6.50    2.10
  -5  -3   0  117.29    7.20
  -5  -3   0  111.89    5.40
  -5  -3   0  112.19    5.70
  -5  -3   0  109.29    8.00
   5   3   0  111.29    7.10
   5   3   0   96.59    8.10
  -6  -3   0  562.04   21.00
  -6  -3   0  601.74   16.30
  -6  -3   0  592.14   16.90
  -6  -3   0  610.64   19.20
   6   3   0  557.34   21.40
   6   3   0  552.74   18.90
  -7  -3   0 1469.45   38.10
  -7  -3   0 1444.76   34.60
  -7  -3   0 1463.05   35.20
   7   3   0 1463.95   42.20
   7   3   0 1445.36   39.60
  -8  -3   0   10.60    2.90
  -8  -3   0   18.30    3.80
   8   3   0   18.20    5.80
  -9  -3   0   11.40    3.70
  -9  -3   0   12.80    4.40
  -9  -3   0    1.90    2.50
   9   3   0   11.60    5.40
 -10  -3   0  120.49    8.80
 -10  -3   0  127.79    8.50
 -10  -3   0  145.09   10.90
  10   3   0  137.39   15.60
 -11  -3   0   50.29    6.80
 -11  -3   0   54.49    8.80
 -11  -3   0   55.49    7.30
  11   3   0   46.80    9.70
 -12  -3   0   79.09    9.30
 -12  -3   0   67.69    9.30
  12   3   0   56.19   12.20
 -13  -3   0    1.40    4.00
 -13  -3   0   -3.50    3.60
  13   3   0    3.20    6.60
  13  -4   0   32.70    8.80
 -13   4   0   12.70    6.30
 -13   4   0   30.80    6.90
  12  -4   0   47.00    9.30
 -12   4   0   32.20    6.80
 -12   4   0   29.70    7.50
  11  -4   0   29.90    7.90
 -11   4   0   22.00    5.70
 -11   4   0   19.80    6.60
  10  -4   0   -0.80    3.30
 -10   4   0   -4.00    4.40
   9  -4   0   16.70    4.20
   9  -4   0   10.10    4.40
  -9   4   0    9.20    5.20
  -9   4   0    9.40    3.80
   8  -4   0   19.00    4.00
   8  -4   0   26.10    5.50
  -8   4   0   25.50    5.80
  -8   4   0   15.50    4.40
  -8   4   0   25.80    5.00
   7  -4   0  498.55   18.70
   7  -4   0  519.25   18.90
   7  -4   0  493.55   16.10
  -7   4   0  501.65   19.80
  -7   4   0  534.15   17.90
  -7   4   0  504.95   18.00
   6  -4   0   20.30    4.20
   6  -4   0   19.00    3.40
   6  -4   0   19.80    4.50
  -6   4   0   20.30    3.80
  -6   4   0   15.70    4.00
  -6   4   0   24.90    4.30
   5  -4   0   43.60    4.10
   5  -4   0   47.30    6.20
   5  -4   0   37.60    4.90
  -5   4   0   41.70    5.00
  -5   4   0   43.00    4.40
  -5   4   0   36.00    5.00
   4  -4   0 1050.69   26.20
   4  -4   0 1016.60   28.00
   4  -4   0 1072.19   26.10
   4  -4   0 1065.29   27.00
  -4   4   0 1096.49   26.00
  -4   4   0 1078.49   29.50
   3  -4   0   15.20    3.00
   3  -4   0   18.00    2.70
   3  -4   0   16.50    2.80
   3  -4   0   11.70    3.20
  -3   4   0   14.90    3.50
   2  -4   0 3753.92   79.99
  -2   4   0 3739.43   78.69
  -2  -4   0  522.25   15.80
  -2  -4   0  508.65   16.10
  -2  -4   0  527.15   14.90
   2   4   0  533.15   16.20
   2   4   0  539.05   15.00
   2   4   0  525.45   16.40
  -3  -4   0 1004.30   24.70
  -3  -4   0  990.30   27.60
  -3  -4   0 1063.09   26.60
   3   4   0 1027.70   27.80
   3   4   0 1044.30   24.40
   3   4   0  937.51   26.40
  -4  -4   0  144.09    8.90
  -4  -4   0  157.98    7.00
  -4  -4   0  141.29    8.00
   4   4   0  146.59    6.30
   4   4   0  150.08    9.40
   4   4   0  130.79    8.00
  -5  -4   0  174.28   10.50
  -5  -4   0  174.98    7.00
  -5  -4   0  174.28    9.30
  -5  -4   0  169.98    7.60
   5   4   0  163.48    9.20
   5   4   0  161.58   10.50
  -6  -4   0  159.78    7.00
  -6  -4   0  146.59   10.50
  -6  -4   0  140.79    8.90
  -6  -4   0  157.18    7.60
   6   4   0  158.98   11.30
   6   4   0  141.89    9.10
  -7  -4   0    3.80    2.10
  -7  -4   0    4.60    3.30
  -7  -4   0    3.00    2.20
  -8  -4   0   49.30    6.00
  -8  -4   0   52.69    6.80
  -8  -4   0   52.69    5.70
   8   4   0   53.89    9.60
  -9  -4   0   69.29    7.50
  -9  -4   0   53.69    7.60
  -9  -4   0   62.59    6.80
   9   4   0   85.69   12.40
 -10  -4   0   20.70    6.00
 -10  -4   0   17.00    4.10
 -10  -4   0   20.70    4.50
  10   4   0   16.20    6.40
 -11  -4   0    0.00    3.90
 -11  -4   0    9.40    3.90
 -11  -4   0   11.10    4.00
  11   4   0    1.80    5.50
 -12  -4   0  105.99    9.20
 -12  -4   0   89.99   11.40
  12  -5   0   54.79   10.20
 -12   5   0   49.50    9.20
 -12   5   0   57.59    8.90
  11  -5   0    4.80    4.70
 -11   5   0   -2.80    4.20
 -11   5   0    2.00    3.70
 -10   5   0   13.60    6.30
   9  -5   0  111.69    9.90
  -9   5   0  103.29    9.10
  -9   5   0  101.89    8.80
  -9   5   0  115.49   12.80
   8  -5   0   50.39    5.90
   8  -5   0   57.49    7.80
  -8   5   0   52.59    6.90
  -8   5   0   46.90    6.60
  -8   5   0   45.20    7.40
   7  -5   0    2.60    2.80
   7  -5   0    1.80    1.90
  -7   5   0    3.70    3.40
  -7   5   0    1.90    2.20
  -7   5   0    2.50    2.60
   6  -5   0   17.50    3.40
   6  -5   0   20.60    4.60
   6  -5   0   22.60    4.20
   6  -5   0   21.60    4.30
  -6   5   0   18.60    3.60
  -6   5   0   17.30    3.90
  -6   5   0   19.50    5.20
   5  -5   0   78.29    6.20
   5  -5   0   82.29    6.90
   5  -5   0   77.79    5.90
   5  -5   0   87.49    5.70
  -5   5   0   85.79    7.80
  -5   5   0   80.19    5.60
   4  -5   0  260.57   10.00
   4  -5   0  258.57    9.60
   4  -5   0  254.67   10.70
   4  -5   0  238.88   11.40
  -4   5   0  261.17   12.50
  -4   5   0  246.68    9.20
   3  -5   0  856.51   21.40
   3  -5   0  839.72   22.50
   3  -5   0  822.42   24.00
   3  -5   0  808.82   22.80
  -3   5   0  850.91   25.10
  -3   5   0  850.51   20.90
   2  -5   0 1884.11   44.40
   2  -5   0 1903.21   45.30
  -2   5   0 1918.61   44.20
  -2   5   0 1959.40   46.50
  -2   5   0 1944.11   42.20
   1  -5   0 1691.33   39.00
   1  -5   0 1617.84   39.00
  -1   5   0 1582.94   39.60
  -1   5   0 1603.14   38.80
  -1   5   0 1668.53   37.10
  -1   5   0 1632.04   36.60
   0  -5   0   38.00    3.80
   0  -5   0   53.99    5.70
   0  -5   0   42.80    5.10
   0   5   0   37.80    4.50
   0   5   0   39.60    3.90
   0   5   0   45.20    5.10
  -1  -5   0 1463.05   35.80
  -1  -5   0 1497.05   36.50
  -1  -5   0 1527.65   36.00
   1   5   0 1540.35   36.20
   1   5   0 1531.65   36.30
   1   5   0 1477.45   36.80
  -2  -5   0 1341.27   32.70
  -2  -5   0 1382.46   34.40
  -2  -5   0 1355.86   33.90
   2   5   0 1362.46   32.80
   2   5   0 1394.56   34.60
   2   5   0 1315.67   34.20
  -3  -5   0   73.89    6.30
  -3  -5   0   67.59    5.10
  -3  -5   0   77.89    6.30
   3   5   0   77.29    5.20
   3   5   0   79.89    6.90
   3   5   0   66.79    5.90
  -4  -5   0   14.10    4.60
  -4  -5   0   11.50    2.90
  -4  -5   0   11.50    3.20
   4   5   0   14.20    3.90
   4   5   0   15.10    4.30
   4   5   0   13.40    2.80
  -5  -5   0  375.86   12.80
  -5  -5   0  366.56   11.80
  -5  -5   0  356.16   16.10
  -5  -5   0  356.86   14.50
   5   5   0  343.57   14.80
   5   5   0  368.56   16.50
  -6  -5   0  172.28    7.60
  -6  -5   0  163.98    8.20
  -6  -5   0  146.79    9.70
   6   5   0  171.28   12.00
  -7  -5   0    0.80    1.90
  -7  -5   0    6.80    3.20
  -7  -5   0    1.00    2.00
   7   5   0   -0.30    3.70
  -8  -5   0    4.30    2.60
  -8  -5   0    2.50    2.40
  -8  -5   0   -0.70    3.30
   8   5   0    5.70    5.30
  -9  -5   0    5.40    2.90
  -9  -5   0    6.20    4.40
  -9  -5   0    4.20    2.80
   9   5   0    7.70    5.50
 -10  -5   0   -0.50    3.90
 -10  -5   0    0.40    2.90
  10   5   0    8.90    6.00
 -11  -5   0   13.80    4.20
 -11  -5   0   14.60    4.30
 -11  -5   0   18.70    6.40
  11   5   0   18.20    7.70
 -12  -5   0    7.70    5.00
 -12  -5   0    5.20    4.80
 -12  -5   0    9.80    4.40
  12   5   0    9.00    7.10
  12  -6   0    2.00    4.70
 -12   6   0   -2.50    3.10
 -12   6   0    9.30    6.00
  11  -6   0   44.50    8.50
 -11   6   0   57.09   10.50
 -11   6   0   48.30    8.20
  10  -6   0    1.80    3.60
 -10   6   0    0.60    3.10
 -10   6   0    5.80    4.90
   9  -6   0   66.99    9.00
  -9   6   0   53.19    7.30
  -9   6   0   53.39    8.80
  -9   6   0   78.89    9.20
   8  -6   0   64.69    8.30
   8  -6   0   50.79    7.50
   8  -6   0   52.59    6.30
  -8   6   0   65.19   10.10
   7  -6   0  233.98   12.00
   7  -6   0  231.88   11.70
   7  -6   0  218.98   10.30
  -7   6   0  235.68   11.10
  -7   6   0  242.08   14.60
   6  -6   0   26.20    4.20
   6  -6   0   29.70    5.10
   6  -6   0   25.80    4.30
  -6   6   0   27.50    4.40
  -6   6   0   21.80    5.30
   5  -6   0   -1.40    1.40
   5  -6   0   -0.50    2.20
   5  -6   0    1.90    1.90
   5  -6   0    2.10    2.60
  -5   6   0    0.70    1.80
  -5   6   0    1.40    2.90
   4  -6   0  471.45   16.20
   4  -6   0  418.66   14.70
   4  -6   0  415.76   16.50
   4  -6   0  459.95   14.20
  -4   6   0  428.36   13.40
  -4   6   0  429.46   17.70
   3  -6   0    7.40    2.70
   3  -6   0   11.40    2.90
   3  -6   0   14.70    4.40
  -3   6   0   10.10    2.40
  -3   6   0    9.60    2.70
  -3   6   0    6.10    3.10
   2  -6   0   12.60    3.10
   2  -6   0   12.50    3.80
  -2   6   0   12.70    4.00
  -2   6   0   14.30    3.20
  -2   6   0   12.90    2.80
   1  -6   0 1436.96   37.10
   1  -6   0 1494.95   37.00
  -1   6   0 1519.85   38.40
  -1   6   0 1480.95   35.10
  -1   6   0 1487.15   34.60
  -1   6   0 1457.05   37.10
   0  -6   0 4183.48   89.59
   0  -6   0 4155.88   91.09
   0   6   0 4295.17   91.99
   0   6   0 4325.17   92.39
   0   6   0 4223.48   89.59
  -1  -6   0 2961.50   65.89
  -1  -6   0 2887.71   64.89
  -1  -6   0 2885.01   64.99
   1   6   0 2868.61   66.19
   1   6   0 2950.80   65.69
   1   6   0 2961.30   65.19
  -2  -6   0   18.20    3.60
  -2  -6   0   12.40    3.20
  -2  -6   0   12.80    3.60
   2   6   0   11.50    3.10
   2   6   0   10.90    3.30
   2   6   0    8.60    3.10
  -3  -6   0   11.20    3.40
  -3  -6   0   12.10    3.30
  -3  -6   0   15.70    3.50
   3   6   0   13.30    3.30
   3   6   0    8.20    2.90
   3   6   0   13.80    4.00
  -4  -6   0  452.95   18.20
  -4  -6   0  476.35   17.40
  -4  -6   0  477.55   15.70
   4   6   0  450.35   17.60
   4   6   0  483.25   15.10
   4   6   0  489.65   19.00
  -5  -6   0  130.59    9.00
  -5  -6   0  133.99    7.60
   5   6   0  135.09    7.10
   5   6   0  129.59   10.30
  -6  -6   0  269.07   11.50
  -6  -6   0  289.27   10.80
  -6  -6   0  300.47   14.20
   6   6   0  297.57   19.30
  -7  -6   0  147.69   10.70
  -7  -6   0  137.49    8.20
  -7  -6   0  154.38    7.60
   7   6   0  146.29   12.80
  -8  -6   0  126.69    8.20
  -8  -6   0  148.59    7.70
  -8  -6   0  126.99   10.60
   8   6   0  139.69   13.20
  -9  -6   0    6.40    4.60
  -9  -6   0    4.00    2.90
  -9  -6   0   10.90    3.30
   9   6   0   13.70    7.10
 -10  -6   0   79.69   10.30
 -10  -6   0   90.69    7.10
  10   6   0   75.79   12.00
 -11  -6   0  149.39    9.10
 -11  -6   0  130.39    9.30
 -11  -6   0  147.99   13.20
  11   6   0  163.08   19.30
 -12  -6   0   23.70    7.00
 -12  -6   0   18.90    4.60
  12   6   0   26.40    9.40
  12  -7   0   83.79   11.60
  12  -7   0   73.49   11.50
 -12   7   0  106.79   22.80
  11  -7   0   -2.30    3.50
  11  -7   0   -0.40    3.80
 -11   7   0    7.20    6.00
  10  -7   0   -7.70    2.80
  10  -7   0   -3.00    3.00
 -10   7   0   -1.20    4.70
   9  -7   0   23.30    5.70
   9  -7   0   19.70    5.50
  -9   7   0   14.40    4.40
  -9   7   0   10.90    5.60
   8  -7   0  402.56   17.40
   8  -7   0  385.06   15.10
   8  -7   0  395.36   16.40
  -8   7   0  385.66   20.50
  -8   7   0  356.26   15.20
   7  -7   0   -0.20    1.80
   7  -7   0    5.70    3.50
   7  -7   0    0.40    2.30
  -7   7   0    0.20    3.80
  -7   7   0    3.40    2.50
   6  -7   0  100.99    8.30
   6  -7   0  111.29    7.50
   6  -7   0  111.59    7.40
  -6   7   0  110.89    7.00
  -6   7   0  134.19   11.40
   5  -7   0  226.98    9.80
   5  -7   0  198.18   10.90
   5  -7   0  193.58    9.80
  -5   7   0  208.08   13.10
  -5   7   0  201.48    8.80
   4  -7   0   70.99    6.00
   4  -7   0   60.79    6.90
   4  -7   0   64.69    5.20
  -4   7   0   70.49    9.00
  -4   7   0   62.79    4.80
   3  -7   0   71.39    6.50
   3  -7   0   70.09    8.40
  -3   7   0   65.39    5.90
  -3   7   0   65.69    4.80
  -3   7   0   66.69    4.80
   2  -7   0  194.28   10.30
   2  -7   0  172.98   10.10
  -2   7   0  182.38    9.80
  -2   7   0  179.08    8.20
  -2   7   0  190.58    8.20
  -2   7   0  179.88   11.00
   1  -7   0 8548.75  181.68
  -1   7   0 8826.42  180.68
   0  -7   0 9596.24  201.28
   0  -7   0 9999.00  199.88
  -1  -7   0  191.88    9.80
  -1  -7   0  199.78   10.10
  -1  -7   0  197.38   10.70
   1   7   0  189.18   10.00
   1   7   0  169.38   10.00
   1   7   0  206.88   11.50
  -2  -7   0  221.08   10.60
  -2  -7   0  217.48   11.00
  -2  -7   0  220.88   11.40
   2   7   0  236.58   11.70
   2   7   0  223.38   10.80
   2   7   0  212.38   11.60
  -3  -7   0  357.56   13.80
  -3  -7   0  351.76   15.50
  -3  -7   0  381.16   15.60
   3   7   0  345.97   15.60
   3   7   0  389.06   16.30
   3   7   0  377.36   14.10
  -4  -7   0   68.29    8.70
  -4  -7   0   57.59    7.10
  -4  -7   0   62.29    5.70
   4   7   0   85.49    9.60
   4   7   0   70.09    5.80
  -5  -7   0  160.48    8.90
  -5  -7   0  137.79    9.90
   5   7   0  150.78   11.50
   5   7   0  151.38    8.10
  -6  -7   0   69.39    7.30
  -6  -7   0   50.69    6.90
  -6  -7   0   63.99    5.40
   6   7   0   78.19   10.50
  -7  -7   0  350.66   12.70
  -7  -7   0  319.57   13.70
  -7  -7   0  347.07   16.90
   7   7   0  373.36   20.20
  -8  -7   0   18.50    3.80
  -8  -7   0   23.30    6.40
  -8  -7   0   13.70    3.90
   8   7   0   20.20    7.10
  -9  -7   0   60.69    6.40
  -9  -7   0   53.59    9.20
  -9  -7   0   56.99    7.00
   9   7   0   46.60    9.60
 -10  -7   0   40.30    5.60
 -10  -7   0   48.40    8.60
  10   7   0   33.50    9.00
 -11  -7   0  103.09    8.50
 -11  -7   0  114.79    8.00
  11   7   0  120.09   16.90
  11  -8   0   13.00    5.30
  11  -8   0    8.60    5.00
 -11   8   0    2.90    5.70
  10  -8   0    3.30    3.90
  10  -8   0    4.50    4.10
 -10   8   0    8.80    5.90
   9  -8   0  176.98   11.50
   9  -8   0  193.28   15.00
  -9   8   0  196.28   16.20
  -9   8   0  155.18   10.40
   8  -8   0   54.69    7.40
   8  -8   0   68.19    9.10
  -8   8   0   57.99    7.00
  -8   8   0   67.69   11.40
   7  -8   0    6.10    2.90
   7  -8   0    8.40    4.10
   7  -8   0    6.60    3.10
  -7   8   0    6.30    2.90
  -7   8   0    4.40    5.10
   6  -8   0    6.10    3.00
   6  -8   0   11.70    4.20
   6  -8   0   12.00    3.40
  -6   8   0   11.50    3.10
  -6   8   0    7.50    5.50
   5  -8   0  230.78   10.40
   5  -8   0  246.98   12.80
   5  -8   0  230.18   11.40
  -5   8   0  265.27   15.70
  -5   8   0  219.28    9.50
   4  -8   0   20.80    4.50
   4  -8   0   23.50    5.10
  -4   8   0   30.20    4.40
  -4   8   0   23.80    3.80
   3  -8   0   96.49    8.00
  -3   8   0   95.69   11.10
  -3   8   0  100.89    6.20
  -3   8   0   87.39    7.30
  -3   8   0   89.19    6.00
   2  -8   0 1829.82   45.90
   2  -8   0 1678.83   45.70
  -2   8   0 1802.02   42.00
  -2   8   0 1792.52   42.30
  -2   8   0 1830.42   48.30
  -2   8   0 1814.12   45.80
   1  -8   0 1383.86   38.30
   1  -8   0 1461.25   38.60
  -1   8   0 1485.55   35.70
  -1   8   0 1449.85   36.30
  -1   8   0 1434.16   38.90
  -1   8   0 1380.66   39.70
   0  -8   0  485.85   18.40
   0  -8   0  538.75   19.40
   0  -8   0  520.55   17.60
   0   8   0  530.15   17.60
   0   8   0  503.75   19.60
   0   8   0  509.65   19.50
  -1  -8   0   10.20    3.70
  -1  -8   0   12.50    3.60
   1   8   0    8.60    3.60
   1   8   0    4.20    2.80
   1   8   0    8.30    3.90
  -2  -8   0  463.85   18.20
  -2  -8   0  447.16   17.00
   2   8   0  491.45   18.40
   2   8   0  472.65   17.70
  -3  -8   0  133.79    9.60
  -3  -8   0  135.19    8.70
  -3  -8   0  152.68   10.10
   3   8   0  137.29    8.90
   3   8   0  141.89   10.30
  -4  -8   0   94.49    7.20
  -4  -8   0  101.59    8.80
   4   8   0  104.59    7.50
   4   8   0   95.79    9.40
  -5  -8   0   10.40    3.60
  -5  -8   0    3.20    3.70
   5   8   0   12.70    3.50
   5   8   0    9.10    4.80
  -6  -8   0   41.40    6.00
  -6  -8   0   45.30    7.80
   6   8   0   53.39    9.80
   6   8   0   52.49    6.10
  -7  -8   0   51.59    5.90
  -7  -8   0   48.50    7.80
  -7  -8   0   41.00    6.30
   7   8   0   40.70    9.20
  -8  -8   0    7.30    3.40
  -8  -8   0    8.20    4.90
  -8  -8   0    6.70    3.20
   8   8   0   14.00    6.60
  -9  -8   0   87.49   11.30
  -9  -8   0   71.89    6.20
   9   8   0   58.49   11.70
 -10  -8   0   22.10    6.80
 -10  -8   0   19.70    4.30
 -10  -8   0   20.50    5.10
  10   8   0   15.50    8.70
 -11  -8   0    1.50    4.80
 -11  -8   0    7.10    3.40
  11   8   0   -4.80    4.80
  11  -9   0    6.40    4.80
  11  -9   0    3.30    5.90
 -11   9   0    4.90    6.80
  10  -9   0    0.60    3.10
  10  -9   0    0.10    3.90
 -10   9   0   -6.70    4.30
 -10   9   0   -0.50    3.20
   9  -9   0   22.20    6.40
   9  -9   0   27.40    5.80
  -9   9   0    9.40    7.50
  -9   9   0   19.30    4.80
   8  -9   0   16.00    4.50
  -8   9   0   15.90    4.30
  -8   9   0   12.20    6.20
   7  -9   0    2.40    2.70
   7  -9   0    0.00    3.30
  -7   9   0    1.10    2.40
  -7   9   0    1.70    5.10
   6  -9   0    5.70    4.00
  -6   9   0    8.10    3.00
  -6   9   0   10.10    5.60
  -6   9   0   16.00    3.80
   5  -9   0   28.10    5.90
   5  -9   0   21.50    4.60
  -5   9   0   31.60    4.60
  -5   9   0   19.00    3.60
  -5   9   0   23.80    6.90
   4  -9   0   69.69    8.90
   4  -9   0   76.39    7.40
  -4   9   0   64.49    9.70
  -4   9   0   61.89    5.30
  -4   9   0   75.49    5.80
   3  -9   0  638.64   22.40
  -3   9   0  538.05   20.70
  -3   9   0  589.24   24.20
  -3   9   0  619.24   18.40
  -3   9   0  591.04   18.30
   2  -9   0  349.67   15.90
  -2   9   0  316.67   15.30
  -2   9   0  364.56   18.10
  -2   9   0  347.37   13.30
  -2   9   0  361.76   13.20
   1  -9   0  280.27   14.00
  -1   9   0  267.87   15.00
  -1   9   0  286.07   12.50
  -1   9   0  279.27   15.60
  -1   9   0  277.37   12.00
   0  -9   0  496.65   18.00
   0  -9   0  544.25   20.40
   0  -9   0  499.75   19.60
   0   9   0  509.05   18.10
   0   9   0  514.75   20.70
  -1  -9   0 1068.39   32.10
  -1  -9   0 1147.99   33.60
  -1  -9   0 1110.49   35.10
   1   9   0 1156.98   33.90
   1   9   0 1139.69   32.30
  -2  -9   0  213.88   11.60
  -2  -9   0  216.98   12.10
  -2  -9   0  204.08   12.60
   2   9   0  218.48   12.20
   2   9   0  226.28   12.60
  -3  -9   0  826.92   26.40
  -3  -9   0  861.81   28.50
   3   9   0  872.61   28.90
   3   9   0  884.21   27.20
  -4  -9   0   12.10    4.60
  -4  -9   0    9.70    3.90
   4   9   0   11.20    3.90
   4   9   0   18.30    6.40
  -5  -9   0  109.19    8.30
  -5  -9   0   95.39   11.00
   5   9   0   90.19    7.30
   5   9   0  126.39   13.90
  -6  -9   0    7.10    3.10
  -6  -9   0   11.70    4.70
   6   9   0    5.30    3.10
   6   9   0    1.90    4.70
  -7  -9   0  148.09   12.20
  -7  -9   0  145.69    8.50
  -7  -9   0  118.69    8.80
   7   9   0  146.49   14.40
  -8  -9   0    3.80    2.70
  -8  -9   0    2.60    4.30
  -8  -9   0    3.60    2.90
   8   9   0   -6.20    4.20
  -9  -9   0    0.90    4.10
  -9  -9   0    2.50    2.80
  -9  -9   0    4.50    3.30
   9   9   0    8.20    6.30
 -10  -9   0    5.60    3.30
 -10  -9   0    1.70    2.60
 -10  -9   0    7.10    5.70
  10   9   0   14.80    8.00
  10 -10   0    4.30    4.60
  10 -10   0    9.30    4.40
 -10  10   0    5.30    6.00
 -10  10   0    0.90    3.50
   9 -10   0   21.60    6.30
   9 -10   0   26.20    5.60
  -9  10   0   19.20    7.60
   8 -10   0   71.39    7.10
   8 -10   0   77.69   10.10
  -8  10   0   71.69   11.80
  -8  10   0   63.19    6.90
   7 -10   0  424.96   19.30
  -7  10   0  361.26   13.80
  -7  10   0  371.56   14.40
  -7  10   0  380.26   22.50
  -6  10   0   80.69   11.40
  -6  10   0   81.99    6.60
  -6  10   0   85.09    6.30
   5 -10   0  236.08   14.00
  -5  10   0  227.28   16.50
  -5  10   0  225.78   10.00
  -5  10   0  235.68   10.30
   4 -10   0    7.30    4.00
  -4  10   0    4.80    2.30
  -4  10   0    8.80    5.30
  -4  10   0    3.50    2.60
   3 -10   0   25.90    6.40
  -3  10   0   25.50    7.70
  -3  10   0   28.60    4.70
  -3  10   0   29.30    4.90
   2 -10   0  593.24   22.80
  -2  10   0  627.24   25.50
  -2  10   0  590.64   19.70
  -2  10   0  614.84   19.60
  -1  10   0 1280.77   39.60
  -1  10   0 1272.97   34.80
  -1  10   0 1250.47   33.90
   0 -10   0 1240.08   36.20
   0 -10   0 1171.78   33.50
   0  10   0 1189.68   33.30
   0  10   0 1128.09   43.20
   0  10   0 1196.48   34.70
  -1 -10   0  705.03   24.80
  -1 -10   0  768.22   26.80
   1  10   0  779.42   27.20
   1  10   0  794.42   25.70
  -2 -10   0  109.99   10.70
  -2 -10   0  105.99    9.90
   2  10   0  100.69    9.50
   2  10   0  102.29   10.50
  -3 -10   0    1.90    3.40
  -3 -10   0    4.40    3.40
   3  10   0    0.70    4.20
   3  10   0    8.10    4.10
  -4 -10   0  122.99    9.30
  -4 -10   0  138.29   11.30
   4  10   0  121.49   11.60
   4  10   0  138.69    9.70
  -5 -10   0   18.60    5.70
  -5 -10   0    7.70    3.80
   5  10   0   13.20    4.20
   5  10   0    7.20    5.20
  -6 -10   0  555.54   23.70
  -6 -10   0  510.45   19.80
   6  10   0  521.95   19.00
   6  10   0  569.04   26.10
  -7 -10   0   58.39    7.70
  -7 -10   0   67.19    7.40
   7  10   0   62.79   11.70
  -8 -10   0   -0.90    4.50
  -8 -10   0    6.90    3.50
  -8 -10   0    4.50    3.00
   8  10   0    2.30    5.60
  -9 -10   0    0.00    6.10
  -9 -10   0    6.40    3.40
  -9 -10   0    1.00    2.70
   9  10   0    6.80    6.80
   9 -11   0    9.90    5.20
  -9  11   0    7.30    3.60
  -9  11   0    0.40    3.00
  -9  11   0    6.00    6.70
   8 -11   0   76.59   10.50
  -8  11   0   73.89   14.40
  -8  11   0   70.49    6.70
  -8  11   0   57.69    6.40
   7 -11   0    3.30    3.90
  -7  11   0   -1.10    2.20
  -7  11   0    4.50    5.50
  -7  11   0    1.10    2.40
   6 -11   0   22.70    6.30
  -6  11   0   11.50    3.30
  -6  11   0    4.80    6.10
  -6  11   0   16.90    4.00
   5 -11   0  109.09   10.30
  -5  11   0   89.79   12.10
  -5  11   0   96.19    6.70
  -5  11   0   89.19    6.70
   4 -11   0   13.20    5.10
  -4  11   0    9.50    3.50
  -4  11   0   24.60    4.60
  -4  11   0   15.30    7.30
   3 -11   0  459.35   20.20
  -3  11   0  408.46   15.60
  -3  11   0  443.56   22.60
  -3  11   0  436.96   15.80
   2 -11   0  655.03   24.80
  -2  11   0  652.23   27.50
  -2  11   0  625.24   21.10
  -2  11   0  618.14   20.60
   1 -11   0  577.14   23.40
  -1  11   0  560.54   20.90
  -1  11   0  579.74   20.20
  -1  11   0  563.24   24.60
   0 -11   0  941.21   31.20
   0  11   0  858.41   28.60
   0  11   0  887.51   28.20
   0  11   0  916.61   32.20
  -1 -11   0   15.60    4.80
  -1 -11   0    7.00    4.30
   1  11   0   13.20    5.20
   1  11   0   17.00    5.60
  -2 -11   0   95.39   11.30
   2  11   0   80.99   10.00
   2  11   0  108.39   12.10
  -3 -11   0  407.16   19.50
   3  11   0  371.26   18.90
  -4 -11   0   72.19    9.90
   4  11   0   75.59    9.40
   4  11   0   68.69   10.10
  -5 -11   0  210.88   14.90
   5  11   0  202.28   12.00
   5  11   0  211.08   15.80
  -6 -11   0    9.90    5.00
   6  11   0   29.70    8.40
   6  11   0   15.80    4.80
  -7 -11   0    8.00    5.30
   7  11   0   12.70    4.30
   7  11   0    4.50    5.80
  -8 -11   0    0.70    4.40
  -8 -11   0    5.60    3.10
   8  11   0    7.40    6.40
   8 -12   0    3.50    4.40
  -8  12   0   -1.30    2.50
  -8  12   0    1.30    5.60
  -8  12   0    2.20    2.70
   7 -12   0   21.10    6.30
  -7  12   0   34.30    4.90
  -7  12   0   21.70   12.70
  -7  12   0   23.60    4.10
   6 -12   0   58.19    9.30
  -6  12   0   62.39   12.20
  -6  12   0   53.99    6.00
  -6  12   0   45.40    5.30
   5 -12   0   25.10    6.60
  -5  12   0   23.00    4.10
  -5  12   0   52.59   11.00
  -5  12   0   19.10    4.00
   4 -12   0   80.29   10.20
  -4  12   0   59.99    5.80
  -4  12   0   61.19    6.70
  -4  12   0   72.09   11.60
   3 -12   0  375.76   18.60
  -3  12   0  361.66   21.20
  -3  12   0  301.37   13.40
  -3  12   0  308.67   13.40
   2 -12   0    2.90    4.40
  -2  12   0    6.50    3.30
  -2  12   0    1.40    3.00
  -2  12   0    6.50    4.90
   1 -12   0   57.39    9.30
  -1  12   0   39.40    8.60
  -1  12   0   48.00    7.20
  -1  12   0   56.19    7.60
   0 -12   0  139.79   12.00
   0  12   0  104.59    9.40
   0  12   0  132.19   12.50
  -1 -12   0   96.59   11.20
   1  12   0   83.79   10.30
   1  12   0  113.09   13.70
  -2 -12   0   19.80    5.90
   2  12   0   27.60    6.90
   2  12   0   29.40    7.60
  -3 -12   0   47.30    8.60
   3  12   0   52.49    8.50
   3  12   0   63.79   10.60
  -4 -12   0  127.89   14.00
   4  12   0  108.69   10.00
   4  12   0  109.59   13.00
  -5 -12   0   81.99   10.90
   5  12   0   86.29   12.50
   5  12   0   80.19    9.40
  -6 -12   0   60.29   13.90
   6  12   0   63.39    8.60
   6  12   0   62.99   11.90
  -7 -12   0   -5.30    4.10
   7  12   0    3.40    3.60
   7  12   0   -3.40    5.00
   7 -13   0   18.80    6.70
  -7  13   0    7.70    2.80
  -7  13   0    9.90    3.00
  -7  13   0   11.60    7.60
   6 -13   0   -0.70    3.50
  -6  13   0   -2.20    5.40
  -6  13   0   -2.90    2.00
  -6  13   0    0.80    2.20
   5 -13   0    4.90    4.50
  -5  13   0    5.00    6.30
  -5  13   0    0.20    2.30
  -5  13   0    2.90    2.40
   4 -13   0  130.39   12.20
  -4  13   0  106.69   15.60
  -4  13   0  123.49    8.20
  -4  13   0  111.69    7.80
   3 -13   0   22.00    6.70
  -3  13   0   25.50    5.20
  -3  13   0   16.30    7.00
  -3  13   0   24.50    4.90
   2 -13   0   -0.10    3.90
  -2  13   0   -1.70    2.80
  -2  13   0    0.70    2.90
  -2  13   0    2.80    5.20
   1 -13   0  458.75   21.90
  -1  13   0  410.96   17.90
  -1  13   0  427.86   23.20
  -1  13   0  426.16   18.60
   0 -13   0  802.92   30.40
   0  13   0  748.83   26.80
   0  13   0  795.52   31.70
  -1 -13   0    3.40    4.30
   1  13   0    8.60    5.30
   1  13   0    3.70    4.50
  -2 -13   0    4.10    4.90
   2  13   0    3.70    4.70
   2  13   0   -4.40    3.50
  -3 -13   0   64.19   10.20
   3  13   0   45.80    8.30
   3  13   0   63.99   10.30
  -4 -13   0    0.10    4.60
   4  13   0    1.50    3.50
   4  13   0    8.30    5.50
  -5 -13   0   15.50    6.50
   5  13   0   28.80    8.20
   5  13   0   22.90    5.90
  -6 -13   0   67.79   10.90
   6  13   0   86.59   13.30
   6  13   0   80.69    9.80
   5 -14   0   42.10    8.80
  -5  14   0   42.90    5.80
  -5  14   0   78.09   15.30
  -5  14   0   49.50    5.70
   4 -14   0    2.10    5.20
  -4  14   0   13.30    3.70
  -4  14   0    8.30    3.50
  -4  14   0    5.00    5.50
   3 -14   0   35.90    8.10
  -3  14   0   35.80    6.00
  -3  14   0   34.50    9.20
   2 -14   0  378.56   20.60
  -2  14   0  395.06   23.60
  -2  14   0  351.56   16.30
  -2  14   0  349.77   15.90
   1 -14   0  604.14   26.50
  -1  14   0  573.14   28.40
  -1  14   0  606.04   22.70
   0 -14   0  107.79   13.40
   0  14   0  100.79   14.60
   0  14   0   96.39   11.00
  -1 -14   0    7.40    5.20
   1  14   0    3.30    4.80
   1  14   0    1.80    4.50
  -2 -14   0   94.49   12.70
   2  14   0   92.69   12.00
   2  14   0  100.19   13.40
  -3 -14   0   20.50    7.30
   3  14   0    9.80    5.60
   3  14   0   12.00    5.70
  -4 -14   0   21.80    7.40
   4  14   0   20.30    7.20
   4  14   0   28.10    7.30
   3  14  -1    9.20    5.90
   3  14  -1   14.60    5.70
  -3 -14   1    8.50    6.10
   2  14  -1   83.99   11.80
   2  14  -1   75.09   11.20
  -2 -14   1   77.49   12.50
   1  14  -1  101.39   14.00
   1  14  -1   98.19   12.10
  -1 -14   1  100.89   12.60
   0  14  -1    9.90    5.50
   0  14  -1    6.00    5.50
   0 -14   1   12.30    6.00
  -1  14  -1  114.99   10.70
  -1  14  -1  119.59   15.10
   1 -14   1  139.19   13.10
  -2  14  -1   46.00   10.00
  -2  14  -1   71.49    9.20
   2 -14   1   72.39   10.60
  -3  14  -1   40.00    6.80
  -3  14  -1   32.40    6.60
  -3  14  -1   25.10    8.40
   3 -14   1   51.89    9.70
  -4  14  -1   24.60    5.80
  -4  14  -1   22.20    5.10
  -4  14  -1   39.00   10.90
   4 -14   1   34.30    8.50
   5  13  -1    7.10    4.50
   5  13  -1    2.50    5.50
  -5 -13   1    8.30    5.40
   4  13  -1   12.20    5.40
   4  13  -1   16.60    6.70
  -4 -13   1    4.80    6.20
   3  13  -1   54.69    9.10
   3  13  -1   62.29   11.10
  -3 -13   1   56.99    9.60
   2  13  -1   41.50    8.60
   2  13  -1   38.20    8.30
  -2 -13   1   52.09    9.60
   1  13  -1   30.70    8.20
   1  13  -1   30.40    7.10
  -1 -13   1   16.10    6.10
   0  13  -1  438.16   19.90
   0  13  -1  403.66   21.90
   0 -13   1  457.55   21.70
  -1  13  -1  223.88   13.70
  -1  13  -1  217.08   16.80
   1 -13   1  220.88   15.30
  -2  13  -1    4.30    4.10
  -2  13  -1   -5.90    3.70
  -2  13  -1    0.40    3.40
   2 -13   1   -3.10    3.60
  -3  13  -1   91.09    8.30
  -3  13  -1   92.39    8.50
  -3  13  -1  104.29   14.70
   3 -13   1  108.69   12.70
  -4  13  -1  138.49   16.20
  -4  13  -1  147.59   10.00
  -4  13  -1  165.28   10.30
   4 -13   1  186.38   14.00
  -5  13  -1   -0.20    2.80
  -5  13  -1    2.00    6.30
  -5  13  -1    1.10    2.80
   5 -13   1    4.70    4.80
  -6  13  -1    3.40    3.00
  -6  13  -1   -0.10    2.70
  -6  13  -1   -2.00    5.80
   6 -13   1    4.10    4.60
   7  12  -1   52.49   16.40
  -7 -12   1   35.50    8.90
   6  12  -1   32.20    8.70
  -6 -12   1   40.80    9.00
   5  12  -1  165.58   11.30
   5  12  -1  202.98   16.30
  -5 -12   1  180.48   14.60
   4  12  -1  165.58   14.70
   4  12  -1  160.18   11.60
  -4 -12   1  162.48   13.70
   3  12  -1   24.00    7.40
   3  12  -1   10.00    4.80
  -3 -12   1   18.00    6.00
   2  12  -1   13.80    5.40
   2  12  -1   31.50    7.50
  -2 -12   1   10.10    5.30
   1  12  -1  371.16   19.60
   1  12  -1  354.46   18.10
  -1 -12   1  423.56   20.10
   0  12  -1  133.89   14.80
   0  12  -1  125.39   10.60
   0 -12   1   99.69   11.20
  -1  12  -1   -2.10    2.70
  -1  12  -1    2.10    4.50
  -1  12  -1    7.00    3.90
   1 -12   1    1.00    4.10
  -2  12  -1    0.90    3.10
  -2  12  -1    2.70    4.70
  -2  12  -1    1.90    3.20
   2 -12   1   -1.60    3.70
  -3  12  -1  269.37   13.70
  -3  12  -1  286.87   13.80
  -3  12  -1  302.07   19.40
   3 -12   1  333.67   17.40
  -4  12  -1   16.70    6.70
  -4  12  -1   10.90    3.80
  -4  12  -1    7.80    3.80
   4 -12   1   14.50    5.40
  -5  12  -1   21.80    5.00
  -5  12  -1   27.60    5.10
  -5  12  -1   24.50    8.10
   5 -12   1   17.70    5.70
  -6  12  -1   48.50   11.00
  -6  12  -1   68.49    7.70
  -6  12  -1   61.39    6.90
   6 -12   1   71.89    9.80
  -7  12  -1   84.79    7.50
  -7  12  -1   91.99   15.80
  -7  12  -1   72.29    6.90
   7 -12   1   78.39   10.70
  -8  12  -1    2.80    3.50
  -8  12  -1   -0.20    2.90
  -8  12  -1   10.00    6.40
   8 -12   1    1.20    4.20
   8  11  -1   20.20    8.70
  -8 -11   1   28.20    4.80
  -8 -11   1   31.50    8.30
  -8 -11   1   21.40    6.00
   7  11  -1   33.60    8.90
  -7 -11   1   35.50    5.80
  -7 -11   1   39.40    5.80
   6  11  -1   21.60    4.70
   6  11  -1   25.10    8.40
  -6 -11   1   21.60    6.90
  -6 -11   1   18.00    4.90
   5  11  -1  156.18   14.30
   5  11  -1  125.39    9.40
  -5 -11   1  131.09   12.50
   4  11  -1  171.18   11.30
   4  11  -1  161.58   13.90
  -4 -11   1  175.68   13.40
   3  11  -1  215.98   13.40
   3  11  -1  243.38   15.60
  -3 -11   1  219.58   14.50
   2  11  -1  384.36   18.40
   2  11  -1  383.66   18.90
  -2 -11   1  366.26   18.50
   1  11  -1  176.38   12.40
   1  11  -1  183.18   13.20
  -1 -11   1  188.08   13.00
   0  11  -1    9.90    4.40
   0  11  -1    3.70    3.90
   0  11  -1    6.40    4.80
   0 -11   1   17.10    5.90
  -1  11  -1    6.90    3.80
  -1  11  -1    4.00    4.70
  -1  11  -1    5.70    3.50
   1 -11   1    6.90    4.40
  -2  11  -1  240.68   12.40
  -2  11  -1  228.38   14.10
  -2  11  -1  237.18   16.00
   2 -11   1  216.58   13.90
  -3  11  -1  116.89   13.90
  -3  11  -1  115.49    8.60
  -3  11  -1  129.29    8.90
   3 -11   1  144.29   11.30
  -4  11  -1   17.70    4.40
  -4  11  -1    5.30    5.10
  -4  11  -1    5.00    3.10
   4 -11   1    5.30    4.20
  -5  11  -1  150.08   17.10
  -5  11  -1  126.39    8.60
  -5  11  -1  138.79    8.90
   5 -11   1  128.19   11.00
  -6  11  -1   14.70    4.10
  -6  11  -1   13.50    6.90
  -6  11  -1   17.40    4.20
   6 -11   1   23.30    6.10
  -7  11  -1   -1.20    2.60
  -7  11  -1    2.30    3.00
  -7  11  -1    3.80    5.20
   7 -11   1    2.30    3.70
  -8  11  -1   41.80    6.50
  -8  11  -1   20.80   13.10
   8 -11   1   38.80    7.70
  -9  11  -1    7.50    3.90
  -9  11  -1   15.20    4.50
  -9  11  -1    8.20    7.20
   9 -11   1   15.40    5.90
   9  10  -1   22.10    9.10
  -9 -10   1   23.70    7.30
  -9 -10   1   15.30    3.50
  -9 -10   1   20.40    4.90
   8  10  -1    3.60    6.40
  -8 -10   1    0.20    2.40
   7  10  -1  117.59   14.90
  -7 -10   1   83.79    6.80
  -7 -10   1   86.09    7.40
  -7 -10   1   94.99   12.10
   6  10  -1  439.86   23.20
   6  10  -1  428.66   16.20
  -6 -10   1  429.96   16.90
  -6 -10   1  427.96   20.70
   5  10  -1   18.90    7.00
   5  10  -1    4.00    3.30
  -5 -10   1   16.80    4.40
  -5 -10   1   13.60    5.20
   4  10  -1  127.69   12.10
   4  10  -1  135.49    9.50
  -4 -10   1  124.49    9.20
  -4 -10   1  136.99   11.60
   3  10  -1    0.50    3.80
   3  10  -1    3.30    3.20
  -3 -10   1    8.50    3.70
  -3 -10   1    5.20    3.90
   2  10  -1  122.39   10.60
   2  10  -1  131.19   10.20
  -2 -10   1  132.99   10.80
   1  10  -1   46.00    7.50
   1  10  -1   39.20    7.00
  -1 -10   1   33.90    6.20
  -1 -10   1   47.90    7.90
   0  10  -1   44.10    6.70
   0  10  -1   52.09    7.70
   0  10  -1   54.99   10.30
   0 -10   1   52.19    8.00
  -1  10  -1  364.46   18.70
  -1  10  -1  399.26   16.30
  -2  10  -1   84.09   10.40
  -2  10  -1   68.59    6.90
  -2  10  -1   86.39    7.50
   2 -10   1   77.79    9.20
  -3  10  -1  137.19   12.60
  -3  10  -1  138.59    8.90
  -3  10  -1  134.29    8.80
   3 -10   1  144.89   10.80
  -4  10  -1   14.00    3.90
  -4  10  -1    5.70    5.00
  -4  10  -1   17.80    4.10
   4 -10   1   12.60    4.80
  -5  10  -1  381.46   14.90
  -5  10  -1  379.36   21.30
  -5  10  -1  368.46   14.50
   5 -10   1  388.76   17.60
  -6  10  -1   68.09    6.70
  -6  10  -1   46.20    9.50
  -6  10  -1   62.79    6.30
   6 -10   1   72.89    9.30
  -7  10  -1  276.67   19.40
  -7  10  -1  231.18   11.60
  -7  10  -1  255.27   12.50
   7 -10   1  261.47   17.00
  -8  10  -1   29.70    9.10
   8 -10   1   22.00    5.90
   8 -10   1    8.50    4.00
  -9  10  -1    7.20    3.80
  -9  10  -1   22.00    9.50
   9 -10   1    8.60    5.10
   9 -10   1   21.40    5.70
 -10  10  -1    7.80    7.60
  10 -10   1   18.20    5.50
  10 -10   1    8.90    5.10
  10   9  -1   51.49   12.40
 -10  -9   1   25.40    7.90
 -10  -9   1   27.80    4.30
   9   9  -1  124.79   17.30
  -9  -9   1  116.99    8.00
  -9  -9   1  134.19    7.60
   8   9  -1   61.19   11.70
  -8  -9   1   59.49    6.80
  -8  -9   1   57.89    6.00
  -8  -9   1   46.40    8.00
   7   9  -1  297.37   19.40
  -7  -9   1  293.37   16.90
  -7  -9   1  291.57   11.70
  -7  -9   1  259.37   12.30
   6   9  -1    9.60    5.80
   6   9  -1    8.50    3.30
  -6  -9   1    5.00    3.10
  -6  -9   1    4.70    4.10
   5   9  -1   -8.20    3.20
   5   9  -1   -1.50    2.30
  -5  -9   1    1.40    3.70
  -5  -9   1   -1.10    2.30
   4   9  -1   22.30    4.90
   4   9  -1   16.40    5.80
  -4  -9   1   19.10    5.70
   3   9  -1  669.13   22.60
   3   9  -1  703.73   25.70
  -3  -9   1  645.24   22.00
  -3  -9   1  710.03   24.80
   2   9  -1  163.28   10.60
   2   9  -1  181.28   11.90
  -2  -9   1  171.58   11.30
  -2  -9   1  174.68   11.50
  -2  -9   1  169.58   10.20
   1   9  -1  563.34   20.80
   1   9  -1  577.04   21.20
  -1  -9   1  516.15   20.10
  -1  -9   1  540.15   19.80
  -1  -9   1  533.75   20.50
   0   9  -1  457.75   19.10
   0   9  -1  460.05   18.40
   0   9  -1  459.15   17.60
   0  -9   1  416.86   17.70
   0  -9   1  418.56   17.10
   0  -9   1  426.96   17.30
  -1   9  -1   89.99    7.60
  -1   9  -1   98.49    7.70
  -1   9  -1   87.99    9.80
  -1   9  -1   94.49   10.80
   1  -9   1  102.69    8.70
  -2   9  -1  374.26   15.00
  -2   9  -1  358.26   20.70
  -2   9  -1  387.36   16.70
  -2   9  -1  381.96   14.90
   2  -9   1  399.06   16.70
  -3   9  -1  700.53   26.90
  -3   9  -1  687.23   21.60
  -3   9  -1  695.83   23.70
  -3   9  -1  744.33   22.00
   3  -9   1  714.33   24.10
  -4   9  -1  183.28    9.70
  -4   9  -1  215.98   10.40
  -4   9  -1  204.38   14.40
   4  -9   1  201.48   11.80
   4  -9   1  201.38   11.30
  -5   9  -1   84.89   10.40
  -5   9  -1  115.19    7.60
  -5   9  -1  129.39    8.30
   5  -9   1  112.49    8.50
   5  -9   1  110.29    9.10
  -6   9  -1   72.69   11.00
  -6   9  -1   85.19    6.80
  -6   9  -1   76.59    6.80
   6  -9   1   72.09    7.00
   6  -9   1   99.39    8.80
  -7   9  -1    1.40    2.80
  -7   9  -1    5.60    5.30
   7  -9   1    2.90    3.10
   7  -9   1    9.50    4.10
  -8   9  -1   -1.50    3.00
  -8   9  -1   -1.20    4.10
   8  -9   1    0.80    3.40
   8  -9   1    0.10    3.10
  -9   9  -1   40.80   10.70
  -9   9  -1   38.20    6.30
   9  -9   1   51.49    7.80
 -10   9  -1   65.99   13.10
  10  -9   1   56.79    8.40
  10  -9   1   74.59   10.10
 -11   9  -1   34.10   10.50
  11  -9   1   10.60    5.50
  11  -9   1   26.40    6.70
  10   8  -1   52.99   12.20
 -10  -8   1   36.00    8.00
 -10  -8   1   55.49    5.70
 -10  -8   1   50.99    6.20
   9   8  -1  294.77   20.80
  -9  -8   1  277.07   12.10
  -9  -8   1  294.47   11.20
  -9  -8   1  305.97   17.90
   8   8  -1  323.97   20.90
  -8  -8   1  311.17   13.00
  -8  -8   1  330.07   11.90
  -8  -8   1  332.87   17.90
   7   8  -1   21.70    7.10
  -7  -8   1   24.40    6.50
  -7  -8   1   25.40    4.10
  -7  -8   1   26.90    4.60
   6   8  -1   64.59    5.60
   6   8  -1   63.79   10.50
  -6  -8   1   73.59    9.70
  -6  -8   1   61.69    5.90
   5   8  -1   79.39   10.50
   5   8  -1   75.29    6.10
  -5  -8   1   57.69    7.80
  -5  -8   1   72.49    6.30
   4   8  -1  254.67   11.50
   4   8  -1  272.67   16.20
  -4  -8   1  257.97   13.80
  -4  -8   1  256.97   11.70
   3   8  -1   94.69    8.90
   3   8  -1   95.09    7.20
  -3  -8   1   91.69    6.90
  -3  -8   1   72.99    9.40
   2   8  -1  606.74   21.70
   2   8  -1  606.74   20.50
  -2  -8   1  570.34   21.10
  -2  -8   1  575.94   19.60
  -2  -8   1  589.94   21.10
   1   8  -1  962.20   28.60
   1   8  -1  932.01   29.40
   1   8  -1  957.90   28.90
  -1  -8   1  954.10   28.50
  -1  -8   1 1018.40   29.30
  -1  -8   1  918.81   30.50
   0   8  -1  322.77   14.90
   0   8  -1  333.97   14.10
   0   8  -1  329.17   15.20
   0  -8   1  352.86   14.90
   0  -8   1  333.87   14.00
   0  -8   1  338.57   14.40
  -1   8  -1   20.50    4.10
  -1   8  -1   25.90    5.80
  -1   8  -1   23.70    4.80
  -1   8  -1   20.00    4.40
   1  -8   1   21.80    4.60
   1  -8   1   22.50    4.90
  -2   8  -1  435.56   15.50
  -2   8  -1  424.66   16.70
  -2   8  -1  433.76   15.20
  -2   8  -1  393.16   17.80
   2  -8   1  405.36   16.30
   2  -8   1  386.16   16.60
  -3   8  -1  300.77   12.10
  -3   8  -1  308.07   15.90
  -3   8  -1  297.17   12.10
   3  -8   1  292.97   13.40
  -4   8  -1    2.80    2.40
  -4   8  -1    5.50    4.60
  -4   8  -1    3.70    2.60
   4  -8   1    5.80    3.00
  -5   8  -1  292.37   12.00
  -5   8  -1  287.27   16.60
   5  -8   1  318.37   14.20
   5  -8   1  298.57   13.00
   5  -8   1  300.97   13.00
  -6   8  -1    5.30    2.80
  -6   8  -1    9.40    4.90
   6  -8   1    7.10    3.00
   6  -8   1    9.50    3.90
   6  -8   1   13.50    3.80
  -7   8  -1    2.30    4.80
  -7   8  -1   25.30    4.80
   7  -8   1   23.20    4.60
   7  -8   1   26.30    5.60
   7  -8   1   21.80    5.00
  -8   8  -1   -2.10    4.40
  -8   8  -1    0.80    2.90
   8  -8   1    1.70    3.00
   8  -8   1    5.90    3.60
   8  -8   1    4.20    2.90
  -9   8  -1  356.76   21.40
  -9   8  -1  308.27   14.90
   9  -8   1  327.77   16.30
   9  -8   1  370.96   17.20
 -10   8  -1  101.49   13.30
  10  -8   1  109.59   10.40
  10  -8   1  101.39   10.00
 -11   8  -1    8.20   11.20
  11  -8   1   14.50    5.50
  11  -8   1   14.00    5.70
  11   7  -1   12.70    8.00
 -11  -7   1   24.20    4.60
 -11  -7   1   18.60    6.60
 -11  -7   1   27.90    4.50
  10   7  -1    5.70    6.00
 -10  -7   1    1.60    2.60
 -10  -7   1   -0.70    2.40
 -10  -7   1   10.60    5.70
   9   7  -1   40.60    9.30
  -9  -7   1   48.70    5.20
  -9  -7   1   30.90    5.00
  -9  -7   1   40.30    7.20
   8   7  -1   14.00    6.50
  -8  -7   1    8.90    3.20
  -8  -7   1   12.20    5.60
  -8  -7   1    4.50    2.70
   7   7  -1  470.15   23.10
  -7  -7   1  451.55   19.70
  -7  -7   1  473.35   14.50
  -7  -7   1  443.26   15.80
   6   7  -1    1.70    4.20
  -6  -7   1    3.90    2.40
  -6  -7   1    3.00    2.20
  -6  -7   1    1.60    3.40
   5   7  -1  272.17   15.90
   5   7  -1  254.27   10.30
  -5  -7   1  259.27   11.00
  -5  -7   1  258.87   13.60
   4   7  -1  267.47   14.60
   4   7  -1  267.27   11.10
  -4  -7   1  283.57   11.50
  -4  -7   1  275.87   13.50
   3   7  -1   98.99    8.70
   3   7  -1  105.39    7.00
  -3  -7   1   94.49    6.60
  -3  -7   1   96.19    8.10
  -3  -7   1   99.29    8.10
   2   7  -1   34.40    5.90
   2   7  -1   44.10    5.70
   2   7  -1   28.40    5.30
  -2  -7   1   35.40    6.10
  -2  -7   1   23.50    4.50
  -2  -7   1   43.90    5.70
   1   7  -1 1226.98   33.20
   1   7  -1 1184.88   33.70
   1   7  -1 1266.57   33.40
  -1  -7   1 1310.17   33.70
  -1  -7   1 1164.98   31.80
  -1  -7   1 1180.08   32.90
   0   7  -1  295.67   13.50
   0   7  -1  321.97   13.00
   0   7  -1  335.87   14.10
   0  -7   1  321.47   13.50
   0  -7   1  291.37   12.60
   0  -7   1  295.77   12.70
  -1   7  -1 1429.76   36.00
  -1   7  -1 1458.75   36.70
  -1   7  -1 1440.56   38.70
  -1   7  -1 1419.76   37.60
   1  -7   1 1419.16   40.40
   1  -7   1 1485.65   37.30
  -2   7  -1   18.20    5.10
  -2   7  -1   11.20    3.20
  -2   7  -1   21.30    3.80
  -2   7  -1   13.00    3.20
   2  -7   1   18.10    3.90
   2  -7   1   20.10    4.30
  -3   7  -1  151.88    8.60
  -3   7  -1  151.38   10.50
  -3   7  -1  167.88    8.30
  -3   7  -1  145.29    7.80
   3  -7   1  161.48    9.20
   3  -7   1  146.29    9.40
  -4   7  -1  176.18    8.60
  -4   7  -1  202.28   12.40
   4  -7   1  186.68   10.00
   4  -7   1  187.78    9.40
   4  -7   1  181.58    9.40
  -5   7  -1   78.39    6.10
   5  -7   1   68.69    7.40
   5  -7   1   78.09    6.40
   5  -7   1   81.09    6.20
  -6   7  -1   15.00    3.90
  -6   7  -1   20.70    5.90
   6  -7   1   18.60    3.90
   6  -7   1   24.40    4.80
   6  -7   1   21.90    4.80
  -7   7  -1   -3.40    3.40
  -7   7  -1   -3.40    1.90
   7  -7   1   -2.80    2.00
   7  -7   1   -2.50    2.30
   7  -7   1   -1.00    1.80
  -8   7  -1  390.06   20.50
  -8   7  -1  348.57   15.10
   8  -7   1  366.16   16.20
   8  -7   1  345.67   13.70
   8  -7   1  362.76   16.00
  -9   7  -1   -0.60    4.70
  -9   7  -1    2.30    3.20
   9  -7   1    1.50    3.20
   9  -7   1    2.80    3.20
 -10   7  -1    4.40    5.40
  10  -7   1   14.30    5.10
  10  -7   1   10.40    5.90
 -11   7  -1   -5.50    4.00
  11  -7   1    3.60    3.90
  11  -7   1    0.10    4.00
 -12   7  -1   39.70   11.40
  12  -7   1   38.90    8.50
  12  -7   1   32.00    7.30
  11   6  -1   15.70    8.50
 -11  -6   1   13.80    5.80
 -11  -6   1   13.20    4.00
 -11  -6   1   11.00    3.60
  10   6  -1   11.70    6.50
 -10  -6   1    3.90    2.60
 -10  -6   1    3.40    4.70
 -10  -6   1    3.90    2.90
   9   6  -1  174.68   15.60
  -9  -6   1  177.98   13.20
  -9  -6   1  162.38    9.00
  -9  -6   1  159.88    8.10
   8   6  -1  505.75   24.90
  -8  -6   1  541.15   21.70
  -8  -6   1  508.65   15.50
  -8  -6   1  499.75   16.80
   7   6  -1   79.89   10.50
  -7  -6   1   87.69    6.30
  -7  -6   1  100.79   10.80
  -7  -6   1   86.99    5.40
   6   6  -1  147.79   12.10
  -6  -6   1  163.98   10.70
  -6  -6   1  151.48    7.10
  -6  -6   1  151.88    7.90
   5   6  -1   59.09    8.30
   5   6  -1   55.49    4.50
  -5  -6   1   48.90    4.70
  -5  -6   1   45.80    6.10
   4   6  -1  323.97   11.30
   4   6  -1  310.67   14.40
   4   6  -1  326.87   15.50
  -4  -6   1  317.07   11.70
  -4  -6   1  310.87   15.00
  -4  -6   1  308.57   13.70
   3   6  -1   58.89    4.90
   3   6  -1   53.89    6.90
   3   6  -1   61.39    7.00
  -3  -6   1   73.59    6.60
  -3  -6   1   59.89    4.90
   2   6  -1   15.10    4.00
   2   6  -1   23.40    4.10
   2   6  -1   23.50    5.00
  -2  -6   1   24.80    4.40
  -2  -6   1   22.30    3.90
  -2  -6   1   23.40    4.70
   1   6  -1  569.54   18.70
   1   6  -1  533.75   18.50
   1   6  -1  589.44   18.30
  -1  -6   1  534.65   18.10
  -1  -6   1  585.24   17.70
  -1  -6   1  570.64   18.40
   0   6  -1  519.35   16.60
   0   6  -1  492.45   17.10
   0   6  -1  518.45   17.40
   0  -6   1  490.85   16.50
   0  -6   1  484.45   16.20
   0  -6   1  507.35   16.90
  -1   6  -1   47.60    5.60
  -1   6  -1   42.10    5.40
  -1   6  -1   45.90    5.20
  -1   6  -1   36.70    5.20
   1  -6   1   38.70    5.00
   1  -6   1   38.60    5.10
  -2   6  -1  378.86   15.40
  -2   6  -1  390.06   13.00
  -2   6  -1  382.36   13.00
  -2   6  -1  375.86   13.70
   2  -6   1  367.66   13.70
   2  -6   1  364.66   14.30
  -3   6  -1 1028.40   25.80
  -3   6  -1  991.60   25.60
  -3   6  -1  998.60   26.40
   3  -6   1  938.31   27.90
   3  -6   1  980.80   26.80
  -4   6  -1  524.55   16.20
   4  -6   1  513.65   16.40
   4  -6   1  546.95   17.00
   4  -6   1  479.65   18.10
   4  -6   1  533.75   17.30
  -5   6  -1   51.99    5.00
  -5   6  -1   56.69    7.60
   5  -6   1   56.39    5.40
   5  -6   1   48.40    4.70
   5  -6   1   59.39    6.60
  -6   6  -1   16.50    3.70
  -6   6  -1   14.60    5.10
   6  -6   1   21.40    4.40
   6  -6   1   19.00    4.20
   6  -6   1   21.60    3.70
  -7   6  -1  221.48   11.20
  -7   6  -1  242.98   14.90
   7  -6   1  235.88   10.20
   7  -6   1  241.08   12.20
   7  -6   1  236.18   11.80
  -8   6  -1   17.50    4.50
  -8   6  -1   27.00    7.30
   8  -6   1   15.30    4.20
   8  -6   1   16.80    5.00
   8  -6   1   10.80    3.20
  -9   6  -1    5.30    3.70
  -9   6  -1   10.30    5.50
   9  -6   1   18.50    5.10
   9  -6   1   15.50    5.30
   9  -6   1   12.60    3.50
 -10   6  -1  110.69   13.30
  10  -6   1  160.78   11.30
 -11   6  -1  177.68   12.40
 -11   6  -1  188.78   15.80
  11  -6   1  174.98   13.90
  11  -6   1  199.18   13.10
 -12   6  -1    3.50    3.70
 -12   6  -1    0.00    5.10
  12  -6   1   -4.00    3.90
  12  -6   1    3.90    4.40
  12   5  -1   14.70    7.70
 -12  -5   1   19.00    6.80
 -12  -5   1   13.50    4.50
 -12  -5   1   18.90    4.60
  11   5  -1    0.90    5.40
 -11  -5   1    1.10    2.70
 -11  -5   1    8.40    4.80
 -11  -5   1    3.60    3.20
  10   5  -1  152.98   15.40
 -10  -5   1  155.68   12.60
 -10  -5   1  140.99    8.70
 -10  -5   1  156.98    8.40
   9   5  -1  703.23   29.70
  -9  -5   1  653.63   20.20
  -9  -5   1  649.74   19.10
  -9  -5   1  644.14   25.00
   8   5  -1  159.68   13.50
  -8  -5   1  160.98   11.40
  -8  -5   1  140.39    7.20
  -8  -5   1  138.39    7.80
   7   5  -1  105.39   10.60
  -7  -5   1   93.39    6.10
  -7  -5   1   91.89    8.70
  -7  -5   1   89.09    5.50
   6   5  -1    1.10    3.10
  -6  -5   1    2.80    1.80
  -6  -5   1    0.50    2.60
  -6  -5   1    2.20    1.90
   5   5  -1 1309.27   37.10
   5   5  -1 1185.98   34.50
  -5  -5   1 1243.08   30.20
  -5  -5   1 1236.38   33.70
  -5  -5   1 1232.28   28.90
   4   5  -1   14.10    3.40
   4   5  -1   28.80    3.50
   4   5  -1   21.30    5.10
  -4  -5   1   21.00    4.80
  -4  -5   1   23.80    3.50
  -4  -5   1   24.40    4.50
   3   5  -1   20.90    4.30
   3   5  -1   27.20    3.60
   3   5  -1   28.10    4.50
  -3  -5   1   24.60    4.10
  -3  -5   1   25.30    3.60
  -3  -5   1   16.10    3.50
   2   5  -1 1859.51   44.90
   2   5  -1 1870.91   42.10
   2   5  -1 1794.12   43.90
  -2  -5   1 1832.72   41.90
  -2  -5   1 1871.71   43.70
  -2  -5   1 1812.12   44.60
   1   5  -1 1913.21   45.90
   1   5  -1 1971.30   45.00
   1   5  -1 1974.90   46.10
  -1  -5   1 2014.00   45.70
  -1  -5   1 1936.91   45.80
  -1  -5   1 1949.70   44.40
   0   5  -1  749.62   21.50
   0   5  -1  792.62   21.40
   0   5  -1  767.42   21.70
   0  -5   1  762.12   21.10
   0  -5   1  756.32   21.00
   0  -5   1  781.42   21.40
  -1   5  -1   79.49    5.30
  -1   5  -1   73.69    5.30
  -1   5  -1   69.69    5.40
  -1   5  -1   75.59    6.00
   1  -5   1   77.79    5.60
   1  -5   1   73.39    5.60
  -2   5  -1 1069.39   29.20
  -2   5  -1 1081.49   26.70
  -2   5  -1 1104.79   26.80
  -2   5  -1 1055.19   27.10
   2  -5   1 1072.19   27.30
  -3   5  -1 1490.55   34.40
  -3   5  -1 1457.05   37.90
  -3   5  -1 1417.56   34.40
   3  -5   1 1468.05   34.80
   3  -5   1 1454.55   34.70
   3  -5   1 1445.06   36.90
   3  -5   1 1496.75   35.30
  -4   5  -1  100.09    8.00
  -4   5  -1  103.59    6.10
   4  -5   1  113.79    6.60
   4  -5   1   94.99    6.20
   4  -5   1   94.39    5.80
  -5   5  -1   23.10    4.70
  -5   5  -1   29.20    4.30
   5  -5   1   30.50    4.80
   5  -5   1   30.80    4.60
   5  -5   1   34.50    6.00
   5  -5   1   23.90    3.60
  -6   5  -1  522.15   17.40
   6  -5   1  526.05   18.10
   6  -5   1  543.65   17.40
   6  -5   1  499.45   15.60
  -7   5  -1   10.10    3.30
  -7   5  -1    7.20    3.20
  -7   5  -1    4.50    4.20
   7  -5   1    8.20    2.60
   7  -5   1   11.80    3.60
   7  -5   1   12.00    3.90
  -8   5  -1  205.48   11.00
  -8   5  -1  200.18   13.80
  -8   5  -1  201.18   11.30
   8  -5   1  203.38   12.10
  -9   5  -1   97.19   11.90
  -9   5  -1   85.99    8.00
   9  -5   1   97.89    9.60
   9  -5   1   92.89    7.00
 -10   5  -1  508.55   23.60
 -10   5  -1  475.85   19.40
  10  -5   1  494.65   22.20
 -11   5  -1   76.79   11.30
 -11   5  -1  110.89    9.70
  11  -5   1   98.49   12.50
 -12   5  -1   31.30    6.90
 -12   5  -1   32.60    8.20
  12  -5   1   26.20    8.00
  12   4  -1   -0.10    5.80
 -12  -4   1    0.20    2.70
 -12  -4   1   -1.90    3.70
 -12  -4   1    2.80    3.50
  11   4  -1    5.70    5.70
 -11  -4   1   14.90    4.50
 -11  -4   1   16.20    5.90
 -11  -4   1    9.70    3.90
  10   4  -1  134.09   15.60
 -10  -4   1  117.99    7.90
 -10  -4   1  108.09    7.60
 -10  -4   1  126.09   11.00
   9   4  -1  146.69   13.60
  -9  -4   1  134.49    7.90
  -9  -4   1  124.49   10.70
  -9  -4   1  146.69    8.00
   8   4  -1   22.10    6.30
  -8  -4   1   17.60    5.20
  -8  -4   1   22.30    4.00
  -8  -4   1   22.30    3.80
   7   4  -1   15.50    5.30
  -7  -4   1   21.80    3.30
  -7  -4   1   23.70    3.80
  -7  -4   1   14.90    5.00
   6   4  -1  420.76   18.80
  -6  -4   1  433.66   13.60
  -6  -4   1  447.96   12.70
  -6  -4   1  439.16   16.70
   5   4  -1  212.68   10.80
   5   4  -1  218.28   12.50
  -5  -4   1  215.58    7.60
  -5  -4   1  218.18   12.10
  -5  -4   1  223.18    8.40
  -5  -4   1  215.18   10.60
   4   4  -1  100.29    8.00
   4   4  -1   94.59    6.80
   4   4  -1   91.99    5.80
  -4  -4   1   97.89    7.70
  -4  -4   1   95.89    6.90
  -4  -4   1   90.89    5.00
   3   4  -1 1035.00   23.70
   3   4  -1  977.80   26.70
   3   4  -1  972.20   27.80
  -3  -4   1  973.00   23.80
  -3  -4   1 1007.50   26.30
   2   4  -1 1228.08   31.30
   2   4  -1 1272.47   29.40
   2   4  -1 1303.87   32.50
  -2  -4   1 1294.57   31.20
  -2  -4   1 1267.17   29.30
  -2  -4   1 1244.78   32.20
   1   4  -1  267.07   10.20
   1   4  -1  244.68    9.80
   1   4  -1  263.07    9.40
  -1  -4   1  253.37    9.60
  -1  -4   1  247.68    8.90
  -1  -4   1  258.37   10.00
   0   4  -1  476.35   14.40
   0   4  -1  478.45   14.40
   0   4  -1  489.85   14.50
   0  -4   1  457.55   14.00
   0  -4   1  471.65   14.20
   0  -4   1  472.65   14.00
  -1   4  -1  354.66   11.50
  -1   4  -1  355.96   11.30
  -1   4  -1  358.96   12.30
  -1   4  -1  343.07   11.50
   1  -4   1  370.86   12.00
   1  -4   1  336.97   11.30
  -2   4  -1 1781.22   39.50
  -2   4  -1 1804.02   41.90
  -2   4  -1 1716.93   39.40
   2  -4   1 1802.82   40.10
   2  -4   1 1719.33   39.60
  -3   4  -1   10.10    2.70
  -3   4  -1   18.60    3.00
   3  -4   1   19.40    3.70
   3  -4   1   18.00    2.90
   3  -4   1   17.20    2.90
   3  -4   1   21.00    3.30
  -4   4  -1  217.68   11.00
  -4   4  -1  233.08    9.30
   4  -4   1  242.98    9.70
   4  -4   1  224.08   10.40
   4  -4   1  259.67    9.50
   4  -4   1  235.28    8.60
  -5   4  -1  222.98    9.70
  -5   4  -1  235.88    9.60
  -5   4  -1  215.48   11.50
   5  -4   1  225.78    8.60
   5  -4   1  221.58    9.30
   5  -4   1  244.88   10.50
  -6   4  -1  114.19    8.90
  -6   4  -1  111.39    7.40
  -6   4  -1  116.59    7.10
   6  -4   1  105.99    7.70
   6  -4   1  113.09    6.10
   6  -4   1  108.49    7.70
  -7   4  -1  320.67   13.90
  -7   4  -1  358.26   13.50
  -7   4  -1  340.77   16.10
   7  -4   1  346.07   15.10
   7  -4   1  338.47   12.00
  -8   4  -1   53.09    6.50
  -8   4  -1   55.29    7.40
   8  -4   1   62.09    5.40
   8  -4   1   50.79    7.20
  -9   4  -1  370.86   15.40
  -9   4  -1  377.76   18.90
   9  -4   1  343.67   17.40
   9  -4   1  362.56   14.00
 -10   4  -1   65.99   11.40
 -10   4  -1   56.89    8.00
  10  -4   1   61.39    9.60
 -11   4  -1    3.60    3.80
 -11   4  -1   -2.90    4.00
  11  -4   1   -0.20    4.20
 -12   4  -1   -5.20    4.40
 -12   4  -1    5.50    4.20
  12  -4   1    2.50    4.70
 -13   4  -1   23.30    6.30
 -13   4  -1   12.30    6.20
  13  -4   1   20.60    7.70
  12   3  -1    8.00    6.50
 -12  -3   1   -1.10    4.10
 -12  -3   1    4.90    4.00
 -12  -3   1    9.70    4.20
  11   3  -1   35.10    9.20
 -11  -3   1   28.40    6.60
 -11  -3   1   23.60    4.80
 -11  -3   1   29.20    5.80
  10   3  -1   27.30    7.90
 -10  -3   1   31.50    5.30
 -10  -3   1   28.40    5.00
 -10  -3   1   29.20    6.30
   9   3  -1   40.60    8.60
  -9  -3   1   25.60    4.30
  -9  -3   1   29.40    4.70
  -9  -3   1   35.00    6.30
   8   3  -1  116.49   11.20
  -8  -3   1  111.79    6.70
  -8  -3   1  101.19    6.50
  -8  -3   1  116.59    9.20
   7   3  -1 1436.96   42.80
  -7  -3   1 1507.15   34.60
  -7  -3   1 1489.65   39.10
  -7  -3   1 1462.25   34.90
   6   3  -1  149.69    9.10
   6   3  -1  200.88   12.10
  -6  -3   1  173.38    7.30
  -6  -3   1  159.18    9.40
  -6  -3   1  168.18    6.90
  -6  -3   1  168.48   10.80
   5   3  -1  839.52   26.30
  -5  -3   1  823.02   20.60
  -5  -3   1  861.81   24.00
  -5  -3   1  797.32   28.30
   4   3  -1   74.19    6.70
   4   3  -1   61.29    5.30
  -4  -3   1   72.59    5.60
  -4  -3   1   62.99    3.50
  -4  -3   1   74.39    4.10
  -4  -3   1   66.09    6.10
   3   3  -1  172.48    5.90
   3   3  -1  171.78    9.00
   3   3  -1  166.68    7.90
  -3  -3   1  178.18    9.00
  -3  -3   1  173.18    6.20
  -3  -3   1  163.68    7.70
   2   3  -1  985.20   25.30
   2   3  -1  942.81   24.10
   2   3  -1  970.30   22.00
  -2  -3   1  964.90   22.10
  -2  -3   1  966.60   23.80
  -2  -3   1  927.41   24.90
   1   3  -1   37.30    3.20
   1   3  -1   42.60    4.60
   1   3  -1   36.30    3.70
  -1  -3   1   45.40    4.10
  -1  -3   1   40.10    3.20
  -1  -3   1   25.50    3.00
   0   3  -1  704.73   17.70
   0   3  -1  683.23   17.60
   0   3  -1  689.23   17.60
   0  -3   1  662.23   17.30
  -1   3  -1  113.39    5.30
  -1   3  -1  106.39    5.20
  -1   3  -1  110.19    5.30
  -1   3  -1  110.69    5.80
   1  -3   1  103.99    5.20
   1  -3   1  105.69    5.60
  -2   3  -1   19.40    2.80
  -2   3  -1   17.20    3.20
  -2   3  -1   16.80    2.30
   2  -3   1   16.20    2.60
   2  -3   1   17.80    3.20
   2  -3   1   17.10    2.50
  -3   3  -1   14.10    2.50
  -3   3  -1    6.60    2.30
   3  -3   1   11.10    2.20
   3  -3   1   11.30    2.20
   3  -3   1   12.10    2.70
  -4   3  -1   50.29    4.30
  -4   3  -1   62.99    6.80
  -4   3  -1   45.90    3.90
   4  -3   1   52.59    4.60
   4  -3   1   50.69    3.50
   4  -3   1   50.59    4.70
  -5   3  -1 1430.66   35.10
  -5   3  -1 1461.85   37.10
  -5   3  -1 1441.36   33.70
   5  -3   1 1395.36   32.50
   5  -3   1 1440.66   35.90
   5  -3   1 1440.06   35.70
  -6   3  -1  705.23   21.40
  -6   3  -1  714.03   22.90
  -6   3  -1  717.23   20.00
   6  -3   1  669.83   23.70
   6  -3   1  701.83   18.90
   6  -3   1  732.93   22.90
  -7   3  -1  187.18    9.10
  -7   3  -1  157.28   10.50
  -7   3  -1  154.78    9.60
   7  -3   1  179.08    9.90
   7  -3   1  178.58    8.10
   7  -3   1  177.38   10.70
  -8   3  -1    8.70    4.50
  -8   3  -1   13.90    3.60
  -8   3  -1    6.80    3.50
   8  -3   1   11.60    3.20
   8  -3   1    9.50    4.50
  -9   3  -1   -0.50    2.60
  -9   3  -1    9.50    5.00
   9  -3   1    7.40    4.30
   9  -3   1    2.60    2.40
 -10   3  -1  362.96   18.10
 -10   3  -1  309.47   14.70
  10  -3   1  339.97   18.40
 -11   3  -1    3.60    3.60
 -11   3  -1    6.80    5.30
  11  -3   1    3.60    4.70
 -12   3  -1   97.59   12.00
 -12   3  -1  106.39    9.70
  12  -3   1   92.39   12.80
 -13   3  -1    7.00    5.70
 -13   3  -1   -0.50    3.40
  13  -3   1   -0.70    4.40
  13   2  -1   -6.20    4.40
 -13  -2   1    3.40    4.60
 -13  -2   1    0.00    3.30
  12   2  -1   14.10    6.70
 -12  -2   1   14.40    5.30
 -12  -2   1    7.50    4.70
  11   2  -1   30.00    8.50
 -11  -2   1   29.40    5.90
 -11  -2   1   35.40    7.30
 -11  -2   1   20.60    4.50
  10   2  -1  496.15   24.30
 -10  -2   1  452.75   16.80
 -10  -2   1  519.15   18.40
 -10  -2   1  497.05   20.40
   9   2  -1  133.59   12.40
  -9  -2   1  128.39    8.40
  -9  -2   1  138.09   10.30
  -9  -2   1  130.39    7.70
   8   2  -1 1048.00   34.30
  -8  -2   1 1022.20   33.10
  -8  -2   1  997.00   26.50
  -8  -2   1 1028.90   26.80
   7   2  -1  168.18    7.50
   7   2  -1  155.88    9.40
   7   2  -1  166.78   11.60
  -7  -2   1  171.28    7.80
  -7  -2   1  147.19    9.20
   6   2  -1  212.68   10.40
   6   2  -1  241.98   13.10
  -6  -2   1  214.48   11.90
  -6  -2   1  247.38   11.10
  -6  -2   1  234.08    8.60
  -6  -2   1  222.98    8.40
   5   2  -1  193.18   10.80
   5   2  -1  186.18    9.00
  -5  -2   1  202.98    9.40
  -5  -2   1  205.58   10.80
  -5  -2   1  209.58    7.40
   4   2  -1  342.37   13.60
   4   2  -1  339.97   11.90
  -4  -2   1  331.47   11.80
  -4  -2   1  326.87   13.20
  -4  -2   1  343.07    9.60
  -4  -2   1  341.77    9.40
   3   2  -1   75.19    5.80
   3   2  -1   77.79    4.90
  -3  -2   1   78.09    5.70
  -3  -2   1   81.29    3.60
  -3  -2   1   72.49    4.90
  -3  -2   1   74.69    3.20
   1   2  -1  339.67    8.80
   1   2  -1  352.36   10.80
   1   2  -1  342.47   10.60
  -1  -2   1  338.47    8.70
  -1  -2   1  333.97    9.70
   0   2  -1  675.03   16.10
   0   2  -1  672.03   16.60
   0   2  -1  679.63   16.10
   0  -2   1  694.13   16.10
   0  -2   1  689.33   16.00
   0  -2   1  690.43   16.70
  -1   2  -1  138.69    5.30
  -1   2  -1  135.29    5.60
  -1   2  -1  140.89    4.90
   1  -2   1  134.99    4.80
   1  -2   1  138.09    5.50
   1  -2   1  145.29    5.50
  -2   2  -1 2337.67   50.19
   2  -2   1 2433.76   49.20
   2  -2   1 2383.36   49.30
  -4   2  -1  167.98    8.20
  -4   2  -1  168.68    7.70
   4  -2   1  182.48    6.30
   4  -2   1  170.08    7.90
   4  -2   1  156.18    7.60
  -5   2  -1  310.47   10.40
  -5   2  -1  331.27   12.70
  -5   2  -1  303.47   11.90
   5  -2   1  311.17   11.80
   5  -2   1  311.37    9.90
   5  -2   1  318.37   12.50
  -6   2  -1  263.07   11.80
  -6   2  -1  246.98    9.80
  -6   2  -1  296.67   12.60
   6  -2   1  256.87   11.10
   6  -2   1  274.67   12.50
   6  -2   1  269.77    9.70
  -7   2  -1   11.30    3.90
  -7   2  -1   16.50    4.80
  -7   2  -1   18.80    3.40
   7  -2   1   11.00    3.70
   7  -2   1   22.00    3.50
   7  -2   1   13.00    3.80
  -8   2  -1  244.38   12.80
  -8   2  -1  243.38   12.90
  -8   2  -1  242.18   10.90
   8  -2   1  251.87   13.80
   8  -2   1  208.98   11.00
   8  -2   1  231.78   10.40
  -9   2  -1  526.35   18.60
  -9   2  -1  543.75   21.50
   9  -2   1  505.25   17.60
   9  -2   1  566.84   23.20
 -10   2  -1  171.18   12.50
 -10   2  -1  174.78   10.80
  10  -2   1  170.58   13.60
 -11   2  -1   61.19    9.00
 -11   2  -1   51.69    7.60
  11  -2   1   50.59    9.70
 -12   2  -1    8.90    5.70
 -12   2  -1   14.00    5.20
  12  -2   1    9.00    6.10
 -13   2  -1   25.90    6.10
 -13   2  -1   23.40    7.70
  13  -2   1   45.70   10.20
  13   1  -1   41.90   12.00
 -13  -1   1   31.70    7.40
 -13  -1   1   48.50    7.80
  12   1  -1  111.49   15.00
 -12  -1   1  125.49   11.50
  11   1  -1  105.59   13.90
 -11  -1   1   97.99    8.90
 -11  -1   1  103.99   11.10
  10   1  -1  380.76   15.30
  10   1  -1  450.25   22.60
 -10  -1   1  436.86   17.20
 -10  -1   1  450.35   18.70
   9   1  -1  872.51   31.30
   9   1  -1  833.42   24.20
  -9  -1   1  852.31   25.20
  -9  -1   1  853.81   27.00
   8   1  -1   19.10    3.50
   8   1  -1   11.40    5.00
  -8  -1   1   21.00    4.10
  -8  -1   1   17.20    4.20
   7   1  -1   11.90    4.30
   7   1  -1   16.40    3.10
   7   1  -1   16.70    3.90
  -7  -1   1   18.20    3.50
  -7  -1   1   12.80    3.90
  -7  -1   1   14.50    3.90
   6   1  -1   26.60    4.50
   6   1  -1   29.40    3.80
   6   1  -1   25.90    5.60
  -6  -1   1   38.90    7.00
  -6  -1   1   27.30    4.00
  -6  -1   1   33.10    5.00
   5   1  -1  323.97   11.90
   5   1  -1  330.37   10.00
   5   1  -1  304.07   13.50
  -5  -1   1  320.97   13.40
  -5  -1   1  325.77   11.90
  -5  -1   1  328.47   10.30
   4   1  -1   40.90    2.90
   4   1  -1   44.60    4.10
   4   1  -1   59.99    6.60
  -4  -1   1   44.30    3.10
  -4  -1   1   40.60    4.90
  -4  -1   1   47.00    4.30
   3   1  -1 1650.83   33.80
   3   1  -1 1602.74   37.80
   3   1  -1 1607.44   36.20
  -3  -1   1 1633.84   33.90
  -3  -1   1 1628.84   36.30
  -3  -1   1 1567.84   37.60
   2   1  -1  704.23   17.50
   2   1  -1  722.03   18.90
  -2  -1   1  710.53   18.60
  -2  -1   1  745.83   15.50
  -2  -1   1  723.43   17.70
  -2  -1   1  742.13   15.40
   1   1  -1  695.43   14.40
   1   1  -1  698.13   16.00
   1   1  -1  686.03   16.80
  -1  -1   1  709.63   16.00
   0   1  -1   80.19    3.30
   0  -1   1   78.29    2.60
   0  -1   1   82.89    2.80
   0  -1   1   59.89    3.00
  -1   1  -1  237.18    6.80
  -1   1  -1  252.67    6.90
  -1   1  -1  235.38    5.70
   1  -1   1  233.28    6.70
   1  -1   1  226.38    6.70
   1  -1   1  238.88    5.70
  -2   1  -1  561.04   14.30
  -2   1  -1  567.14   12.70
  -2   1  -1  567.64   14.40
   2  -1   1  565.54   14.40
   2  -1   1  570.74   12.60
  -3   1  -1  914.21   22.60
  -3   1  -1  949.80   20.70
  -3   1  -1  928.61   22.50
   3  -1   1  945.91   22.40
   3  -1   1  850.51   24.00
   3  -1   1  932.51   20.50
  -4   1  -1 1979.10   44.40
  -4   1  -1 1947.01   44.80
   4  -1   1 1966.60   42.20
   4  -1   1 2030.60   44.10
   4  -1   1 1956.10   45.20
  -5   1  -1   24.20    3.90
  -5   1  -1   17.70    2.90
  -5   1  -1   22.70    4.10
   5  -1   1   16.90    3.70
   5  -1   1   22.50    3.50
   5  -1   1   23.30    3.10
  -6   1  -1    3.50    2.60
  -6   1  -1    1.90    2.20
  -6   1  -1    0.00    1.70
   6  -1   1    6.00    2.10
   6  -1   1    6.10    2.80
   6  -1   1    4.10    2.20
  -7   1  -1   37.60    4.90
  -7   1  -1   32.30    5.00
  -7   1  -1   35.60    6.00
   7  -1   1   43.80    6.80
   7  -1   1   48.70    6.20
   7  -1   1   37.90    4.70
  -8   1  -1  591.64   20.50
  -8   1  -1  567.84   21.40
  -8   1  -1  581.84   18.60
   8  -1   1  543.65   18.70
   8  -1   1  591.14   22.40
  -9   1  -1 1128.79   32.70
  -9   1  -1 1045.40   29.80
   9  -1   1 1028.80   29.30
 -10   1  -1  161.08   10.60
  10  -1   1  212.68   14.90
 -11   1  -1    9.10    4.20
 -11   1  -1   17.90    6.30
  11  -1   1    9.60    5.50
 -12   1  -1  123.79   11.60
 -12   1  -1  133.79   10.80
  12  -1   1  142.49   16.90
 -13   1  -1   -2.10    3.40
 -13   1  -1    5.70    5.30
  13  -1   1    1.00    4.80
  13   0  -1  126.99   16.00
 -13   0   1  121.19   11.80
 -13   0   1  126.49   10.90
  12   0  -1   94.69   13.10
 -12   0   1   97.49   10.80
 -12   0   1   67.19    9.80
  11   0  -1   69.69   11.00
 -11   0   1   72.09    9.10
 -11   0   1   68.69    9.00
  10   0  -1    7.50    3.40
  10   0  -1    7.90    5.20
 -10   0   1    6.20    3.90
 -10   0   1    6.40    4.10
   9   0  -1   -0.20    2.40
   9   0  -1    1.30    3.90
  -9   0   1    1.20    3.50
  -9   0   1   -0.70    2.90
   8   0  -1  186.08    9.00
   8   0  -1  200.18   12.90
  -8   0   1  180.68    9.90
  -8   0   1  184.58   10.40
   7   0  -1  127.09    6.80
   7   0  -1  115.99    9.40
   7   0  -1  114.89    7.50
  -7   0   1  120.29    7.90
  -7   0   1  129.39    7.70
  -7   0   1  119.49    8.90
   6   0  -1  288.47   13.50
   6   0  -1  285.57   10.20
   6   0  -1  279.47   11.20
  -6   0   1  261.57   12.50
  -6   0   1  304.97   11.30
  -6   0   1  287.57   11.50
   5   0  -1  227.68    8.20
   5   0  -1  222.38    9.20
   5   0  -1  236.38   11.00
  -5   0   1  216.48   10.40
  -5   0   1  225.48    9.40
  -5   0   1  218.08    8.60
   4   0  -1  314.17   10.40
   4   0  -1  324.17    9.50
   4   0  -1  320.57   12.00
  -4   0   1  321.37   10.60
  -4   0   1  295.27   11.50
  -4   0   1  300.27    9.80
   3   0  -1   16.90    2.30
   3   0  -1   11.60    2.90
   3   0  -1   15.40    2.70
  -3   0   1    6.90    1.90
  -3   0   1    7.60    2.30
  -3   0   1   10.90    2.20
   1   0  -1  361.06    9.00
   1   0  -1  298.37    8.30
  -1   0   1  382.76    7.70
  -1   0   1  331.17    8.80
  -1   0   1  375.16    8.70
  -1   0  -1    3.60    0.80
  -1   0  -1    0.40    0.50
   1   0   1    3.60    0.90
  -3   0  -1  447.66   12.60
  -3   0  -1  463.65   11.80
  -3   0  -1  459.15   13.60
   3   0   1  475.75   11.80
   3   0   1  470.05   12.50
   3   0   1  462.85   14.00
  -4   0  -1   73.69    4.20
  -4   0  -1   80.49    5.60
  -4   0  -1   77.69    4.80
   4   0   1   73.39    4.20
   4   0   1   67.59    4.30
   4   0   1   76.49    5.80
  -5   0  -1  156.08    7.50
  -5   0  -1  159.38    6.90
  -5   0  -1  172.98    9.00
   5   0   1  158.48    7.10
   5   0   1  156.18    6.90
   5   0   1  152.58    8.90
  -6   0  -1  252.37   10.40
  -6   0  -1  244.78    9.70
  -6   0  -1  240.88   11.60
   6   0   1  225.38   11.90
   6   0   1  247.18    9.80
   6   0   1  240.28    9.60
  -7   0  -1   67.89    5.70
  -7   0  -1   61.69    5.80
  -7   0  -1   69.89    7.00
   7   0   1   63.89    5.30
   7   0   1   65.49    5.40
   7   0   1   67.49    8.40
  -8   0  -1  241.08   11.80
  -8   0  -1  235.68   10.90
   8   0   1  245.18   14.00
   8   0   1  226.68   10.60
   8   0   1  253.87   11.10
  -9   0  -1   52.89    7.70
  -9   0  -1   30.90    5.40
   9   0   1   36.10    7.00
   9   0   1   33.90    6.40
   9   0   1   30.60    5.10
 -10   0  -1  275.17   16.10
 -10   0  -1  326.97   15.80
  10   0   1  316.47   18.40
 -11   0  -1  225.38   13.90
 -11   0  -1  202.28   12.50
  11   0   1  242.48   17.10
 -12   0  -1   77.39    9.90
 -12   0  -1   65.79    9.70
  12   0   1   79.99   12.50
 -13   0  -1   16.90    6.40
 -13   0  -1   18.30    5.70
  13   0   1    9.80    6.60
  13  -1  -1    6.00    5.80
 -13   1   1   10.10    4.90
 -13   1   1    1.90    4.20
  12  -1  -1   56.79   10.80
 -12   1   1   49.99    8.40
 -12   1   1   46.80    8.10
  11  -1  -1   -0.40    4.30
 -11   1   1    2.50    4.30
 -11   1   1    5.40    4.50
  10  -1  -1    2.70    4.50
 -10   1   1   -4.50    3.50
 -10   1   1    0.90    3.40
   9  -1  -1 1917.71   48.10
   9  -1  -1 2000.10   55.49
  -9   1   1 2023.80   50.99
  -9   1   1 2069.29   50.59
   8  -1  -1  182.08   12.10
   8  -1  -1  150.78    9.10
  -8   1   1  175.58   10.10
  -8   1   1  180.58   10.20
  -8   1   1  172.18   11.80
   7  -1  -1   77.89    7.70
   7  -1  -1   71.69    5.60
   7  -1  -1   71.99    5.90
  -7   1   1   74.69    7.10
  -7   1   1   77.29    6.50
  -7   1   1   76.49    6.40
   6  -1  -1   28.80    4.30
   6  -1  -1   18.70    4.20
   6  -1  -1   17.00    3.10
  -6   1   1   26.70    4.90
  -6   1   1   28.70    5.00
  -6   1   1   21.10    3.70
   5  -1  -1  772.12   20.30
   5  -1  -1  794.22   22.60
   5  -1  -1  733.33   20.40
  -5   1   1  736.43   21.90
  -5   1   1  793.92   21.00
  -5   1   1  760.02   20.70
   4  -1  -1  367.96   12.50
   4  -1  -1  359.26   11.20
   4  -1  -1  363.46   11.20
  -4   1   1  348.47   11.40
  -4   1   1  361.06   12.20
  -4   1   1  344.87   11.30
   3  -1  -1 1624.74   36.50
   3  -1  -1 1633.44   35.60
   3  -1  -1 1630.34   35.60
  -3   1   1 1591.84   35.80
  -3   1   1 1656.53   35.90
  -3   1   1 1601.74   36.30
   2  -1  -1  183.58    6.30
   2  -1  -1  178.68    6.00
   2  -1  -1  182.88    6.10
  -2   1   1  187.78    6.30
  -2   1   1  172.98    6.10
  -2   1   1  179.08    6.10
   0   1   1  137.89    3.30
  -1  -1  -1    0.80    0.60
  -1  -1  -1    1.40    0.80
  -1  -1  -1    0.30    0.50
   1   1   1    0.90    0.70
   1   1   1    0.60    0.60
   1   1   1   -0.20    0.50
  -3  -1  -1 2029.00   45.40
  -4  -1  -1  133.29    6.00
  -4  -1  -1  130.89    7.30
  -4  -1  -1  121.89    5.60
   4   1   1  124.59    5.60
   4   1   1  121.49    7.40
   4   1   1  128.39    5.90
  -5  -1  -1   14.20    3.80
  -5  -1  -1    8.70    2.40
  -5  -1  -1   12.10    2.60
   5   1   1   13.40    3.80
   5   1   1   15.50    3.10
   5   1   1   17.20    2.90
  -6  -1  -1  312.17   11.50
  -6  -1  -1  319.47   11.60
  -6  -1  -1  304.17   13.70
   6   1   1  307.57   11.10
   6   1   1  287.67   11.20
   6   1   1  327.67   14.50
  -7  -1  -1    5.40    2.60
  -7  -1  -1    6.20    3.50
  -7  -1  -1    8.30    3.00
   7   1   1    9.70    3.90
   7   1   1    5.00    2.40
   7   1   1    4.80    2.30
  -8  -1  -1    0.40    2.50
  -8  -1  -1    1.70    2.80
   8   1   1   -1.20    1.60
   8   1   1   -0.40    3.00
   8   1   1    0.50    2.10
  -9  -1  -1  106.19    8.40
  -9  -1  -1  105.29    8.60
   9   1   1  104.09   12.70
   9   1   1  103.59    7.60
 -10  -1  -1  729.53   24.30
 -10  -1  -1  754.82   24.70
  10   1   1  705.53   29.20
 -11  -1  -1  150.58   11.10
  11   1   1  188.78   15.30
 -12  -1  -1   67.39    9.80
 -12  -1  -1   52.69    8.10
  12   1   1   49.90    9.80
 -13  -1  -1   24.40    7.00
 -13  -1  -1   16.10    5.40
  13   1   1   11.80    6.80
  13  -2  -1   23.80    8.00
 -13   2   1   25.50    6.50
 -13   2   1   17.80    6.30
  12  -2  -1    3.80    5.00
 -12   2   1    3.90    4.30
 -12   2   1    5.40    4.40
  11  -2  -1    0.60    4.60
 -11   2   1    3.90    4.00
 -11   2   1    3.20    3.60
  10  -2  -1  476.55   22.00
 -10   2   1  443.26   27.20
 -10   2   1  455.65   18.90
   9  -2  -1  673.43   25.70
  -9   2   1  685.63   23.20
  -9   2   1  679.53   24.00
   8  -2  -1  251.77   13.70
   8  -2  -1  228.68   11.00
   8  -2  -1  227.38   11.00
  -8   2   1  255.07   12.20
  -8   2   1  235.38   12.70
  -8   2   1  240.18   12.40
   7  -2  -1  142.79    8.10
   7  -2  -1  153.58    9.90
  -7   2   1  141.89    8.50
  -7   2   1  130.99    8.90
  -7   2   1  149.88    9.10
   6  -2  -1  555.64   17.70
   6  -2  -1  614.54   19.80
   6  -2  -1  570.84   17.30
  -6   2   1  588.74   18.10
  -6   2   1  548.95   18.70
  -6   2   1  578.64   18.90
   5  -2  -1  332.17   11.40
   5  -2  -1  351.26   12.10
   5  -2  -1  344.27   12.90
  -5   2   1  339.27   11.90
  -5   2   1  352.36   12.70
  -5   2   1  316.77   12.40
   4  -2  -1   45.10    4.00
   4  -2  -1   45.60    4.30
   4  -2  -1   41.70    3.60
  -4   2   1   39.00    3.80
  -4   2   1   39.60    3.90
  -4   2   1   66.69    6.40
   3  -2  -1 1004.30   24.10
   3  -2  -1 1041.20   25.00
   3  -2  -1 1054.99   24.40
  -3   2   1 1015.10   24.20
  -3   2   1 1055.09   24.70
  -3   2   1 1051.39   25.60
   1  -2  -1  286.67    8.90
   1  -2  -1  302.77    8.80
   1  -2  -1  306.57    6.70
   1  -2  -1  300.57    8.70
  -1   2   1  319.27    9.30
   0  -2  -1   48.40    2.00
   0  -2  -1   48.30    3.00
   0  -2  -1   46.90    2.90
   0   2   1   49.00    2.00
   0   2   1   49.20    3.00
   0   2   1   51.59    3.10
  -1  -2  -1  169.48    5.80
  -1  -2  -1  167.48    5.80
  -1  -2  -1  153.98    5.80
   1   2   1  168.48    5.80
   1   2   1  176.28    6.10
   1   2   1  176.08    5.90
  -2  -2  -1 1985.30   43.80
  -2  -2  -1 2031.80   42.50
   2   2   1 1990.10   42.20
  -3  -2  -1 1010.60   26.20
  -3  -2  -1 1054.89   25.20
  -3  -2  -1 1040.70   24.60
  -3  -2  -1 1031.20   23.70
   3   2   1 1055.19   24.90
   3   2   1 1047.80   26.50
  -4  -2  -1  896.91   21.40
  -4  -2  -1  865.31   24.50
  -4  -2  -1  881.01   21.70
  -4  -2  -1  926.21   22.70
   4   2   1  882.91   22.70
   4   2   1  881.91   24.90
  -5  -2  -1   22.50    3.40
  -5  -2  -1   25.50    3.40
  -5  -2  -1   20.10    4.00
   5   2   1   28.30    4.00
   5   2   1   24.20    3.20
   5   2   1   22.90    4.90
  -6  -2  -1  193.68    8.40
  -6  -2  -1  202.38    9.30
   6   2   1  184.58    9.10
   6   2   1  196.58   11.50
   6   2   1  197.28    8.40
  -7  -2  -1  501.75   16.00
  -7  -2  -1  495.95   17.00
  -7  -2  -1  501.35   19.70
   7   2   1  508.05   20.40
   7   2   1  492.75   17.20
   7   2   1  486.45   15.80
  -8  -2  -1  345.07   14.20
  -8  -2  -1  368.66   13.80
   8   2   1  443.36   28.70
   8   2   1  329.57   13.00
   8   2   1  328.17   14.30
  -9  -2  -1  429.16   20.70
  -9  -2  -1  355.96   14.70
   9   2   1  371.56   19.60
   9   2   1  365.06   14.50
 -10  -2  -1  545.55   20.70
 -10  -2  -1  557.24   19.80
  10   2   1  536.95   19.20
  10   2   1  575.04   26.20
 -11  -2  -1   11.50    5.00
 -11  -2  -1   16.70    5.50
  11   2   1   16.90    6.90
 -12  -2  -1    3.10    4.20
 -12  -2  -1   -0.90    4.00
  12   2   1    3.40    5.20
 -13  -2  -1    0.10    4.40
 -13  -2  -1   -1.00    3.50
  13   2   1    8.50    6.60
  13  -3  -1   20.50    7.40
 -13   3   1    1.00    3.80
 -13   3   1   10.20    5.70
  12  -3  -1    2.00    4.20
 -12   3   1   -0.10    4.00
 -12   3   1   -1.10    3.00
  11  -3  -1   61.89    9.90
 -11   3   1   44.10    7.40
 -11   3   1   46.00    8.10
  10  -3  -1  119.09   11.40
 -10   3   1  106.89   11.50
 -10   3   1  108.59    9.60
   9  -3  -1  116.29   10.30
  -9   3   1  113.29   12.20
  -9   3   1   88.99    8.50
   8  -3  -1    2.10    2.40
   8  -3  -1    3.20    3.30
   8  -3  -1    2.50    2.60
  -8   3   1    0.60    2.60
  -8   3   1    3.50    3.40
  -8   3   1    3.70    2.80
   7  -3  -1  639.94   21.30
   7  -3  -1  584.54   19.70
  -7   3   1  614.54   21.20
  -7   3   1  597.44   19.70
  -7   3   1  575.24   20.00
   6  -3  -1  590.54   19.00
   6  -3  -1  601.94   19.50
   6  -3  -1  621.04   18.20
  -6   3   1  608.34   19.20
  -6   3   1  620.44   20.40
  -6   3   1  619.24   19.20
   5  -3  -1  161.38    7.40
   5  -3  -1  159.18    8.20
   5  -3  -1  150.68    7.90
  -5   3   1  161.58    8.10
  -5   3   1  146.39    7.60
  -5   3   1  142.39    8.70
   4  -3  -1  276.17    9.70
   4  -3  -1  255.77    9.40
  -4   3   1  270.17   10.10
  -4   3   1  257.27   11.00
  -4   3   1  258.27    9.40
   3  -3  -1  529.25   15.90
   3  -3  -1  549.35   15.00
   3  -3  -1  543.25   14.00
  -3   3   1  544.15   16.50
  -3   3   1  549.15   15.50
  -3   3   1  531.15   13.80
   2  -3  -1    7.50    2.10
   2  -3  -1    6.90    2.00
   2  -3  -1    9.50    2.40
   2  -3  -1    9.20    1.50
  -2   3   1    4.80    2.50
  -2   3   1   10.00    1.50
   1  -3  -1 1372.86   31.20
  -1   3   1 1349.36   28.10
  -1   3   1 1376.56   32.00
  -1   3   1 1356.16   28.10
  -1   3   1 1362.96   30.90
   0  -3  -1   75.09    3.50
   0  -3  -1   91.69    5.00
   0   3   1   84.99    3.70
   0   3   1   71.59    4.60
  -1  -3  -1  857.41   21.40
  -1  -3  -1  865.41   20.60
   1   3   1  860.31   21.00
   1   3   1  869.91   20.60
   1   3   1  854.81   21.40
  -2  -3  -1  602.14   16.20
  -2  -3  -1  584.34   16.80
  -2  -3  -1  578.44   16.40
   2   3   1  586.04   15.40
   2   3   1  617.44   16.70
   2   3   1  568.84   16.20
  -3  -3  -1  116.09    6.80
  -3  -3  -1  109.89    5.50
  -3  -3  -1  124.89    6.30
   3   3   1  106.99    6.80
   3   3   1  115.19    6.20
  -4  -3  -1    3.00    1.70
  -4  -3  -1    4.30    2.40
  -4  -3  -1    3.60    1.60
  -4  -3  -1    1.10    1.80
   4   3   1    2.90    2.00
   4   3   1    0.70    2.10
  -5  -3  -1 1040.80   30.10
  -5  -3  -1 1051.49   25.70
  -5  -3  -1 1101.39   28.00
  -5  -3  -1 1096.89   26.70
   5   3   1 1040.70   28.10
   5   3   1 1085.49   30.80
  -6  -3  -1  372.56   13.60
  -6  -3  -1  355.86   11.70
  -6  -3  -1  341.77   12.10
  -6  -3  -1  321.27   14.90
   6   3   1  322.27   15.50
  -7  -3  -1  829.12   24.40
  -7  -3  -1  813.92   22.30
  -7  -3  -1  813.12   22.90
   7   3   1  799.42   24.80
   7   3   1  832.22   28.10
  -8  -3  -1  332.67   13.20
  -8  -3  -1  354.96   15.00
  -8  -3  -1  345.17   13.10
   8   3   1  369.46   18.50
  -9  -3  -1  165.28    9.50
  -9  -3  -1  185.18   11.30
  -9  -3  -1  161.18    9.50
   9   3   1  175.98   13.90
 -10  -3  -1   -1.70    2.60
 -10  -3  -1   -1.00    2.20
 -10  -3  -1   -2.00    2.90
  10   3   1    4.80    4.70
 -11  -3  -1    7.90    4.00
 -11  -3  -1    7.70    4.50
  11   3   1   12.30    6.30
 -12  -3  -1   43.90    7.70
 -12  -3  -1   54.89    8.10
  12   3   1   58.69   12.30
 -13  -3  -1    5.60    4.70
 -13  -3  -1   -3.30    3.40
  13   3   1    9.20    6.60
  13  -4  -1    1.80    4.30
 -13   4   1    3.60    5.00
 -13   4   1    3.90    4.20
  12  -4  -1   18.00    6.40
 -12   4   1   25.80    6.70
 -12   4   1   22.50    7.00
  11  -4  -1   10.80    5.30
 -11   4   1   22.10    6.50
 -11   4   1   15.80    5.40
  10  -4  -1  104.09   11.90
 -10   4   1   96.39   12.00
 -10   4   1   84.69    9.60
   9  -4  -1   41.80    7.50
  -9   4   1   25.40    5.60
  -9   4   1   36.00    7.40
  -9   4   1   42.20    7.50
   8  -4  -1  334.87   15.60
   8  -4  -1  331.27   13.50
  -8   4   1  356.56   16.90
  -8   4   1  358.46   15.30
  -8   4   1  328.27   14.80
   7  -4  -1  363.36   15.10
   7  -4  -1  361.06   13.60
   7  -4  -1  370.36   15.10
  -7   4   1  347.27   14.30
  -7   4   1  362.56   16.50
  -7   4   1  386.26   15.10
   6  -4  -1   75.29    5.60
   6  -4  -1   65.39    6.10
   6  -4  -1   71.29    6.10
  -6   4   1   70.79    6.10
  -6   4   1   62.39    5.60
  -6   4   1   64.19    7.30
   5  -4  -1   51.79    4.70
   5  -4  -1   44.40    5.60
   5  -4  -1   50.49    4.50
  -5   4   1   51.89    7.10
  -5   4   1   46.20    5.30
  -5   4   1   46.90    4.50
   4  -4  -1 2271.87   53.69
   4  -4  -1 2323.97   51.79
  -4   4   1 2401.46   53.19
  -4   4   1 2315.97   50.49
  -4   4   1 2403.56   55.09
   3  -4  -1  167.58    7.40
   3  -4  -1  146.19    7.80
   3  -4  -1  174.98    8.00
   3  -4  -1  167.38    6.20
  -3   4   1  164.18    6.00
  -3   4   1  157.68    8.50
   2  -4  -1 1531.95   36.00
   2  -4  -1 1497.35   36.50
   2  -4  -1 1496.35   35.60
   2  -4  -1 1577.94   32.80
  -2   4   1 1593.54   37.60
  -2   4   1 1545.05   32.50
   1  -4  -1    5.30    2.10
   1  -4  -1   11.90    3.00
  -1   4   1    8.80    1.60
  -1   4   1    7.10    2.00
  -1   4   1    9.70    3.10
  -1   4   1   11.70    1.70
   0  -4  -1   22.90    2.70
   0  -4  -1   20.50    3.50
   0  -4  -1   21.50    3.60
   0   4   1   20.10    3.20
   0   4   1   21.10    2.70
   0   4   1   15.00    3.00
  -1  -4  -1  847.22   22.20
  -1  -4  -1  880.61   21.60
  -1  -4  -1  836.52   22.40
   1   4   1  908.11   22.60
   1   4   1  854.61   21.60
   1   4   1  864.51   22.80
  -2  -4  -1 1248.28   30.50
  -2  -4  -1 1239.98   30.50
  -2  -4  -1 1235.28   29.80
   2   4   1 1183.58   30.50
   2   4   1 1272.27   30.70
   2   4   1 1295.87   29.80
  -3  -4  -1  702.93   21.00
  -3  -4  -1  700.03   19.30
  -3  -4  -1  744.83   20.60
   3   4   1  728.43   20.80
   3   4   1  743.63   21.50
   3   4   1  729.53   19.00
  -4  -4  -1  623.84   18.60
  -4  -4  -1  606.74   17.40
  -4  -4  -1  614.94   20.10
   4   4   1  621.54   16.80
   4   4   1  587.24   19.90
   4   4   1  599.74   18.90
  -5  -4  -1  583.34   17.00
  -5  -4  -1  554.24   16.00
  -5  -4  -1  568.64   18.20
   5   4   1  556.14   20.50
   5   4   1  568.54   18.90
  -6  -4  -1  212.48    8.60
  -6  -4  -1  196.48   10.30
  -6  -4  -1  182.98   11.40
  -6  -4  -1  198.88    9.10
   6   4   1  183.88   11.90
   6   4   1  186.58   10.30
  -7  -4  -1    2.80    2.80
  -7  -4  -1    7.40    2.60
  -7  -4  -1   10.60    3.10
   7   4   1    7.70    4.40
  -8  -4  -1   18.50    3.90
  -8  -4  -1   16.50    4.00
  -8  -4  -1   32.20    5.90
   8   4   1   10.20    5.00
  -9  -4  -1  285.97   14.60
  -9  -4  -1  290.47   18.90
  -9  -4  -1  265.77   11.90
   9   4   1  276.57   17.70
 -10  -4  -1   24.10    4.90
 -10  -4  -1   22.90    5.80
 -10  -4  -1   17.90    4.60
  10   4   1   25.60    7.50
 -11  -4  -1   30.00    5.70
 -11  -4  -1   21.40    6.00
  11   4   1   22.80    7.50
 -12  -4  -1   79.59   10.20
  12   4   1   74.89   12.60
 -13  -4  -1   64.59    9.00
 -13  -4  -1   51.59    8.90
  13   4   1   67.79   12.90
  12  -5  -1   56.59   10.20
 -12   5   1   66.79   11.10
 -12   5   1   53.09    9.10
  11  -5  -1   39.00    7.80
 -11   5   1   40.90    7.10
 -11   5   1   39.60    8.40
  10  -5  -1  331.97   20.80
 -10   5   1  395.76   20.20
 -10   5   1  362.66   17.60
   9  -5  -1  206.28   13.00
  -9   5   1  199.58   12.40
  -9   5   1  203.48   12.00
  -9   5   1  217.68   14.50
   8  -5  -1  547.65   18.70
   8  -5  -1  582.04   21.10
  -8   5   1  560.24   20.80
  -8   5   1  584.44   23.30
   7  -5  -1    5.40    2.40
   7  -5  -1    3.00    3.00
  -7   5   1    3.00    3.40
  -7   5   1    2.90    2.50
  -7   5   1    3.00    2.90
   6  -5  -1   15.50    4.20
   6  -5  -1   14.30    3.40
   6  -5  -1   11.00    3.00
  -6   5   1   16.30    4.00
  -6   5   1   18.30    3.60
  -6   5   1   15.30    5.00
   5  -5  -1  247.98   11.80
   5  -5  -1  263.47   11.50
   5  -5  -1  246.98   10.20
   5  -5  -1  248.18    9.90
  -5   5   1  254.57   13.00
  -5   5   1  243.28    9.50
  -5   5   1  265.57   11.60
   4  -5  -1  219.88   10.10
   4  -5  -1  208.18    9.20
   4  -5  -1  215.38    8.20
  -4   5   1  228.48   11.60
  -4   5   1  202.58    7.70
   3  -5  -1 1567.04   33.70
   3  -5  -1 1478.75   37.00
   3  -5  -1 1541.45   36.60
   3  -5  -1 1461.65   37.70
  -3   5   1 1572.74   39.40
  -3   5   1 1517.25   33.20
   2  -5  -1 1554.34   37.50
   2  -5  -1 1521.95   37.80
  -2   5   1 1552.24   33.20
  -2   5   1 1538.85   38.80
  -2   5   1 1520.75   36.80
  -2   5   1 1558.34   33.30
   1  -5  -1  526.85   16.60
   1  -5  -1  518.75   16.50
  -1   5   1  522.05   13.40
  -1   5   1  499.65   16.10
  -1   5   1  538.55   13.80
   0  -5  -1    1.20    1.90
   0  -5  -1    5.10    2.20
   0   5   1    3.60    1.80
   0   5   1    2.80    1.90
   0   5   1    3.60    2.20
  -1  -5  -1 1304.97   32.50
  -1  -5  -1 1279.67   32.00
  -1  -5  -1 1301.07   31.10
   1   5   1 1295.77   31.00
   1   5   1 1293.97   32.80
   1   5   1 1302.47   32.30
  -2  -5  -1  937.91   25.40
  -2  -5  -1  955.10   25.10
  -2  -5  -1  962.60   25.90
   2   5   1  959.00   25.50
   2   5   1  952.50   25.00
   2   5   1  956.40   26.20
  -3  -5  -1  254.97   11.40
  -3  -5  -1  268.77   10.50
  -3  -5  -1  268.77   11.30
   3   5   1  254.07   10.00
   3   5   1  269.77   11.90
   3   5   1  269.77   11.60
  -4  -5  -1    3.40    2.20
  -4  -5  -1    2.20    2.50
  -4  -5  -1    0.50    1.60
   4   5   1    1.60    2.70
   4   5   1    6.90    2.30
   4   5   1    2.80    2.40
  -5  -5  -1  864.61   25.10
  -5  -5  -1  871.81   22.60
  -5  -5  -1  812.02   26.80
  -5  -5  -1  878.11   23.80
   5   5   1  847.42   27.50
   5   5   1  819.52   25.70
  -6  -5  -1  126.89    7.50
  -6  -5  -1  120.29    6.60
  -6  -5  -1  120.19    8.60
   6   5   1  114.19   10.00
  -7  -5  -1    8.60    3.20
  -7  -5  -1    8.50    2.80
   7   5   1    3.80    4.00
  -8  -5  -1  365.86   14.70
  -8  -5  -1  400.66   14.10
  -8  -5  -1  397.06   17.10
   8   5   1  377.86   19.90
  -9  -5  -1  172.68    9.40
  -9  -5  -1  180.78   12.30
  -9  -5  -1  180.38   12.20
   9   5   1  192.28   15.30
 -10  -5  -1  153.68    9.40
 -10  -5  -1  142.99   11.80
 -10  -5  -1  127.69    9.10
  10   5   1  129.49   14.90
 -11  -5  -1   80.29   10.70
 -11  -5  -1   67.29    7.90
  11   5   1   59.89   11.00
 -12  -5  -1   11.10    5.30
 -12  -5  -1   20.20    5.20
  12   5   1   12.40    7.00
  12  -6  -1    1.50    4.40
 -12   6   1    4.00    5.70
 -12   6   1    0.00    4.20
  11  -6  -1   93.89   11.90
 -11   6   1   73.19   11.20
 -11   6   1   89.99   11.10
  10  -6  -1  218.68   13.90
 -10   6   1  222.98   16.20
 -10   6   1  202.88   13.60
   9  -6  -1  135.09   10.50
  -9   6   1  151.18   13.30
  -9   6   1  126.89    9.50
   8  -6  -1    5.70    3.60
  -8   6   1    2.80    2.90
  -8   6   1    2.70    4.70
  -8   6   1    2.70    3.10
   7  -6  -1  145.69    9.90
   7  -6  -1  148.29    8.50
   7  -6  -1  131.39    8.60
  -7   6   1  131.19   11.20
  -7   6   1  138.19    8.40
   6  -6  -1  113.69    8.40
   6  -6  -1  108.59    7.00
   6  -6  -1  105.49    7.80
  -6   6   1   99.99    6.50
  -6   6   1  120.09   10.00
   5  -6  -1  150.28    7.30
   5  -6  -1  115.99    8.60
   5  -6  -1  131.39    7.70
   5  -6  -1  144.29    9.00
  -5   6   1  137.79   10.10
  -5   6   1  134.79    6.70
   4  -6  -1  609.54   18.80
   4  -6  -1  580.44   20.10
   4  -6  -1  618.74   19.80
   4  -6  -1  601.54   16.60
  -4   6   1  613.14   21.90
  -4   6   1  573.74   15.70
   3  -6  -1  197.18    9.60
   3  -6  -1  207.38   10.20
  -3   6   1  211.98   11.50
  -3   6   1  195.28    7.20
  -3   6   1  197.38    7.10
   2  -6  -1  339.17   14.00
   2  -6  -1  373.66   14.10
  -2   6   1  373.06   10.70
  -2   6   1  350.36   13.40
  -2   6   1  371.46   15.20
  -2   6   1  375.16   10.70
   1  -6  -1  462.35   16.50
   1  -6  -1  502.85   16.90
  -1   6   1  498.85   13.60
  -1   6   1  477.75   16.50
  -1   6   1  484.45   17.40
   0  -6  -1  450.85   16.10
   0  -6  -1  476.35   14.10
   0  -6  -1  463.25   16.10
   0   6   1  458.05   13.90
   0   6   1  434.86   15.90
   0   6   1  495.35   16.90
  -1  -6  -1  871.71   25.00
  -1  -6  -1  865.71   23.40
  -1  -6  -1  870.81   24.50
   1   6   1  903.71   25.10
   1   6   1  844.92   25.10
   1   6   1  887.51   23.60
  -2  -6  -1  132.39    7.70
  -2  -6  -1  120.89    7.40
  -2  -6  -1  127.19    8.10
   2   6   1  115.89    7.60
   2   6   1  131.39    7.70
   2   6   1  148.09    8.70
  -3  -6  -1   55.69    6.80
  -3  -6  -1   41.30    5.40
  -3  -6  -1   50.89    5.50
   3   6   1   50.49    6.20
   3   6   1   42.10    6.40
   3   6   1   62.69    6.40
  -4  -6  -1  350.76   14.60
  -4  -6  -1  365.06   13.60
  -4  -6  -1  360.86   15.70
   4   6   1  390.96   13.30
   4   6   1  365.76   15.80
   4   6   1  349.17   15.00
  -5  -6  -1    0.20    2.30
  -5  -6  -1    6.00    2.70
  -5  -6  -1    6.60    3.10
   5   6   1    7.20    4.00
   5   6   1    5.80    2.50
  -6  -6  -1   21.20    3.80
  -6  -6  -1   18.00    4.60
  -6  -6  -1   17.30    3.80
   6   6   1   17.40    5.90
  -7  -6  -1  423.56   17.90
  -7  -6  -1  445.16   14.80
  -7  -6  -1  419.06   15.90
   7   6   1  435.36   20.80
  -8  -6  -1  456.55   15.30
  -8  -6  -1  447.36   19.00
  -8  -6  -1  414.56   16.40
   8   6   1  451.05   22.40
  -9  -6  -1  262.67   14.80
  -9  -6  -1  231.28   10.90
  -9  -6  -1  225.78   11.90
   9   6   1  230.68   16.90
 -10  -6  -1   53.69    6.60
 -10  -6  -1   58.29    9.10
 -10  -6  -1   49.90    7.10
  10   6   1   64.19   11.90
 -11  -6  -1   23.50    5.10
 -11  -6  -1   29.60    7.30
  11   6   1   16.50    7.90
 -12  -6  -1    7.30    4.10
  12   6   1   12.30    7.30
  12  -7  -1   10.30    5.60
  12  -7  -1   20.50    6.40
 -12   7   1   14.80    7.00
  11  -7  -1   18.00    6.80
  11  -7  -1   13.10    5.30
 -11   7   1   16.10    6.60
  10  -7  -1    6.80    4.80
  10  -7  -1    5.50    4.00
 -10   7   1    3.00    5.30
   9  -7  -1   37.90    7.40
   9  -7  -1   35.30    6.60
  -9   7   1   21.10    7.00
  -9   7   1   29.50    5.80
   8  -7  -1  219.48   13.00
   8  -7  -1  209.98   11.40
  -8   7   1  193.38   10.50
  -8   7   1  222.18   15.40
   7  -7  -1   19.30    4.10
   7  -7  -1   28.70    4.80
   7  -7  -1   35.10    6.50
  -7   7   1   29.30    7.60
  -7   7   1   20.60    4.00
   6  -7  -1   86.29    7.90
   6  -7  -1   84.39    6.60
   6  -7  -1   79.29    6.00
  -6   7   1   81.89   10.90
  -6   7   1   69.69    5.50
   5  -7  -1  372.86   12.40
   5  -7  -1  327.87   13.70
   5  -7  -1  386.86   15.70
  -5   7   1  351.26   11.70
   4  -7  -1   30.20    4.90
   4  -7  -1   36.80    5.70
  -4   7   1   34.30    6.40
  -4   7   1   32.80    3.30
   3  -7  -1   24.00    4.20
   3  -7  -1   26.60    5.00
   3  -7  -1   36.20    5.20
  -3   7   1   31.90    5.10
  -3   7   1   30.70    6.10
  -3   7   1   33.50    3.20
   2  -7  -1   45.40    5.70
   2  -7  -1   52.79    7.00
  -2   7   1   39.20    5.80
  -2   7   1   43.70    3.70
  -2   7   1   42.20    5.50
  -2   7   1   53.39    3.90
   1  -7  -1 1513.95   42.20
   1  -7  -1 1524.85   39.40
  -1   7   1 1481.75   40.30
  -1   7   1 1522.45   35.20
  -1   7   1 1563.74   35.80
  -1   7   1 1508.75   39.30
   0  -7  -1 1046.30   29.60
   0  -7  -1 1057.69   27.10
   0  -7  -1 1062.59   30.00
   0   7   1 1037.00   30.10
   0   7   1 1089.59   30.80
   0   7   1 1068.89   27.10
  -1  -7  -1  662.83   21.40
  -1  -7  -1  598.84   20.40
  -1  -7  -1  653.63   19.70
   1   7   1  648.04   19.70
   1   7   1  661.53   21.40
  -2  -7  -1   95.99    7.10
  -2  -7  -1   98.59    7.20
  -2  -7  -1  101.59    7.90
   2   7   1  101.49    7.90
   2   7   1   92.89    7.40
   2   7   1   99.29    7.40
  -3  -7  -1  307.47   13.70
  -3  -7  -1  285.37   12.40
  -3  -7  -1  296.47   13.40
   3   7   1  318.57   12.90
   3   7   1  282.87   13.70
   3   7   1  290.07   13.70
  -4  -7  -1   29.40    5.30
  -4  -7  -1   30.50    4.80
  -4  -7  -1   30.40    6.00
   4   7   1   37.00    6.60
   4   7   1   32.30    5.10
  -5  -7  -1    0.90    2.30
   5   7   1    3.00    2.30
   5   7   1   -1.70    3.00
  -6  -7  -1  169.38    8.80
  -6  -7  -1  163.98    9.50
  -6  -7  -1  183.98   11.50
   6   7   1  168.48   13.00
   6   7   1  163.88    8.70
  -7  -7  -1  335.37   16.40
  -7  -7  -1  333.67   14.30
  -7  -7  -1  359.06   13.30
   7   7   1  337.17   18.90
  -8  -7  -1   25.20    4.50
  -8  -7  -1   17.00    5.80
   8   7   1   13.00    6.10
  -9  -7  -1    6.30    3.30
  -9  -7  -1    9.50    3.70
  -9  -7  -1    8.40    4.50
   9   7   1   10.90    6.00
 -10  -7  -1   34.90    6.30
 -10  -7  -1   41.40    7.70
 -10  -7  -1   46.10    6.20
  10   7   1   29.10    8.70
 -11  -7  -1   70.79    7.70
 -11  -7  -1   70.99   10.20
  11   7   1   70.89   14.00
  11  -8  -1    5.70    4.60
  11  -8  -1   10.80    7.80
 -11   8   1    1.60    4.80
  10  -8  -1  106.89    9.60
  10  -8  -1  111.19   12.40
 -10   8   1   95.79    8.80
 -10   8   1   94.09   13.10
   9  -8  -1  589.24   24.10
   9  -8  -1  592.34   21.50
  -9   8   1  589.94   27.80
  -9   8   1  580.24   23.80
   8  -8  -1   -1.00    2.50
  -8   8   1   -0.20    2.40
  -8   8   1    0.10    4.50
   7  -8  -1   70.79    6.30
   7  -8  -1   68.09    9.00
  -7   8   1  112.59   14.40
  -7   8   1   69.49    6.00
   6  -8  -1   51.19    5.00
   6  -8  -1   50.49    7.40
   6  -8  -1   56.89    6.80
  -6   8   1   50.59    4.80
  -6   8   1   69.59   10.70
   5  -8  -1  321.07   11.50
   5  -8  -1  303.97   13.50
   5  -8  -1  310.47   15.00
  -5   8   1  306.97   10.70
   4  -8  -1    5.00    2.90
   4  -8  -1    8.30    3.70
  -4   8   1    6.50    2.10
   3  -8  -1   20.80    4.50
   3  -8  -1   24.40    4.90
  -3   8   1   17.60    4.40
  -3   8   1   20.30    4.40
  -3   8   1   26.10    3.40
   2  -8  -1 1483.25   39.60
   2  -8  -1 1428.46   39.60
  -2   8   1 1495.85   34.20
  -2   8   1 1484.25   34.50
  -2   8   1 1486.45   41.70
  -2   8   1 1423.36   38.90
   1  -8  -1  272.87   13.20
   1  -8  -1  267.47   13.20
  -1   8   1  254.17   12.90
  -1   8   1  274.27   10.40
  -1   8   1  273.57   10.80
  -1   8   1  275.67   14.30
   0  -8  -1  191.78    9.10
   0  -8  -1  168.58   10.30
   0  -8  -1  200.18   11.30
   0   8   1  187.48   11.40
   0   8   1  172.88   10.70
   0   8   1  183.18    9.10
  -1  -8  -1  373.86   14.30
  -1  -8  -1  392.36   16.30
  -1  -8  -1  368.26   15.50
   1   8   1  353.86   16.00
   1   8   1  381.86   16.10
   1   8   1  382.66   14.70
  -2  -8  -1  945.51   28.60
  -2  -8  -1  904.41   27.30
  -2  -8  -1  868.71   30.00
   2   8   1  945.31   33.10
   2   8   1  958.20   28.20
   2   8   1  949.40   27.70
  -3  -8  -1   91.09    7.80
  -3  -8  -1   80.99    7.00
  -3  -8  -1   92.19    8.10
   3   8   1   87.89    7.20
   3   8   1  101.09    8.60
  -4  -8  -1   30.60    6.40
  -4  -8  -1   26.00    5.50
  -4  -8  -1   27.90    5.10
   4   8   1   27.20    4.90
   4   8   1   19.70    5.10
  -5  -8  -1    5.00    3.70
  -5  -8  -1   -1.40    2.20
   5   8   1    6.10    3.00
  -6  -8  -1  192.68   12.50
   6   8   1  204.48   14.60
   6   8   1  217.38   10.60
  -7  -8  -1   -1.80    2.10
  -7  -8  -1   -0.90    3.30
  -7  -8  -1   -0.90    2.20
   7   8   1    6.50    5.10
  -8  -8  -1   13.60    5.60
  -8  -8  -1    6.80    3.10
  -8  -8  -1    7.90    3.80
   8   8   1    8.80    5.90
  -9  -8  -1  248.68   13.10
  -9  -8  -1  248.88   11.60
  -9  -8  -1  264.77   16.00
   9   8   1  269.37   19.20
 -10  -8  -1  142.29    9.10
 -10  -8  -1  134.99   10.00
 -10  -8  -1  159.38   13.40
  10   8   1  139.99   17.00
 -11  -8  -1    1.90    3.10
 -11  -8  -1    4.30    5.00
  11   8   1   -1.10    5.50
  11  -9  -1   39.00    7.50
  11  -9  -1   34.20    8.20
 -11   9   1   43.40   11.40
  10  -9  -1  131.69   10.10
  10  -9  -1  145.79   12.70
 -10   9   1   91.69    8.40
 -10   9   1  111.09   14.80
   9  -9  -1   40.70    7.80
   9  -9  -1   29.70    5.60
  -9   9   1   23.70    4.80
  -9   9   1   35.30    9.10
   8  -9  -1   26.70    5.00
   8  -9  -1   26.60    6.80
  -8   9   1   17.40    8.50
  -8   9   1   21.90    4.30
   7  -9  -1   15.60    3.80
  -7   9   1    4.10    4.80
  -7   9   1    7.00    2.90
   6  -9  -1   19.50    5.60
  -6   9   1   13.50    3.10
  -6   9   1   16.70    3.50
  -6   9   1   30.70    8.50
   5  -9  -1   78.69    9.30
  -5   9   1   81.19    5.40
  -5   9   1   65.69    9.60
  -5   9   1   69.39    4.90
   4  -9  -1    1.60    2.90
   4  -9  -1    5.70    3.60
  -4   9   1    1.70    1.80
  -4   9   1    3.10    1.90
  -4   9   1    6.90    4.80
   3  -9  -1  855.11   27.90
  -3   9   1  864.41   22.10
  -3   9   1  843.72   22.00
  -3   9   1  821.42   26.80
  -3   9   1  863.41   30.40
   2  -9  -1  426.36   18.00
  -2   9   1  410.66   19.50
  -2   9   1  416.16   13.70
  -2   9   1  419.56   14.00
  -2   9   1  428.56   17.70
   1  -9  -1  236.38   13.10
  -1   9   1  235.68   14.70
  -1   9   1  231.08   10.20
  -1   9   1  246.38   10.70
  -1   9   1  236.28   13.90
   0  -9  -1  240.88   13.10
   0  -9  -1  213.58   13.90
   0  -9  -1  233.68   10.90
   0   9   1  232.78   13.50
   0   9   1  250.17   11.20
  -1  -9  -1  980.00   30.40
  -1  -9  -1  996.40   29.10
  -1  -9  -1 1092.69   32.20
   1   9   1 1058.89   29.50
   1   9   1 1014.80   31.70
  -2  -9  -1  224.28   12.00
  -2  -9  -1  228.88   12.20
   2   9   1  222.68   12.50
   2   9   1  216.88   12.10
  -3  -9  -1  382.56   16.40
  -3  -9  -1  369.06   16.70
  -3  -9  -1  405.06   17.80
   3   9   1  398.66   16.70
   3   9   1  408.66   17.80
  -4  -9  -1  137.19    9.60
  -4  -9  -1  151.08   11.20
   4   9   1  176.58   10.40
   4   9   1  172.38   12.20
  -5  -9  -1   56.49    7.70
  -5  -9  -1   52.89    8.00
   5   9   1   55.99    9.40
   5   9   1   44.10    6.40
  -6  -9  -1    3.30    4.10
  -6  -9  -1    9.30    3.70
   6   9   1    5.30    3.00
   6   9   1    1.60    4.80
  -7  -9  -1  170.38    9.70
  -7  -9  -1  137.39   10.00
  -7  -9  -1  167.38   12.70
   7   9   1  167.38   14.70
  -8  -9  -1   84.49    8.00
  -8  -9  -1   80.99   10.60
  -8  -9  -1   87.19    7.10
   8   9   1   86.09   12.50
  -9  -9  -1  261.07   16.70
  -9  -9  -1  258.87   12.00
  -9  -9  -1  236.28   13.20
   9   9   1  297.57   20.60
 -10  -9  -1   53.39    9.60
 -10  -9  -1   42.80    6.10
  10   9   1   36.80   10.30
  10 -10  -1   -0.30    4.10
  10 -10  -1    5.40    3.30
 -10  10   1    1.30    5.50
   9 -10  -1    7.40    3.50
   9 -10  -1   14.20    6.20
  -9  10   1    6.90    3.20
  -9  10   1   19.80    8.00
   8 -10  -1   48.00    8.60
   8 -10  -1   46.90    6.20
  -8  10   1   35.60    8.90
  -8  10   1   36.90    5.10
   7 -10  -1  328.77   17.50
  -7  10   1  317.67   12.00
  -7  10   1  297.67   11.40
  -7  10   1  343.37   21.20
   6 -10  -1    7.70    4.20
  -6  10   1    5.00    4.20
  -6  10   1   13.70    3.10
  -6  10   1   13.10    3.10
   5 -10  -1  118.69   15.20
  -5  10   1  102.29    5.80
  -5  10   1  115.29   14.70
  -5  10   1  103.79    6.00
   4 -10  -1    2.10    3.90
  -4  10   1    0.60    1.70
  -4  10   1   -0.80    3.50
  -4  10   1    1.80    2.00
   3 -10  -1  212.28   13.40
  -3  10   1  226.18    9.30
  -3  10   1  224.18    9.30
  -3  10   1  232.48   15.50
   2 -10  -1  194.38   12.70
  -2  10   1  182.38    8.80
  -2  10   1  177.28   13.60
  -2  10   1  160.38    8.50
  -1  10   1  130.29    8.30
  -1  10   1  150.48    8.50
  -1  10   1  143.19   11.80
   0 -10  -1  361.46   17.20
   0 -10  -1  348.87   14.30
   0  10   1  370.46   14.80
  -1 -10  -1  133.89   10.70
   1  10   1  148.59    9.90
   1  10   1  138.69   11.10
  -2 -10  -1  298.17   15.90
  -2 -10  -1  290.27   14.40
   2  10   1  312.37   15.10
   2  10   1  290.37   15.30
  -3 -10  -1    0.60    3.60
   3  10   1   11.00    4.70
   3  10   1    2.30    3.10
  -4 -10  -1  105.29   11.40
   4  10   1   81.19   10.40
   4  10   1   92.39   10.30
  -5 -10  -1   46.40    7.90
  -5 -10  -1   56.79    8.90
   5  10   1   53.99    9.70
   5  10   1   52.99    7.20
  -6 -10  -1  406.66   19.80
   6  10   1  400.36   16.50
   6  10   1  403.06   21.80
  -7 -10  -1  130.39   12.10
   7  10   1  126.59    8.90
   7  10   1  113.39   13.60
  -8 -10  -1   32.20    5.50
  -8 -10  -1   40.00    8.10
   8  10   1   39.10    9.30
  -9 -10  -1    3.80    5.00
  -9 -10  -1   10.10    3.70
   9  10   1    2.00    6.00
 -10 -10  -1    4.10    5.10
 -10 -10  -1    2.40    3.40
   9 -11  -1   39.80    8.60
  -9  11   1   33.50    5.20
  -9  11   1   18.30    4.00
  -9  11   1   30.00    9.10
   8 -11  -1  176.08   13.90
  -8  11   1  175.78    8.50
  -8  11   1  148.59    7.80
  -8  11   1  132.29   15.30
   7 -11  -1   -0.20    3.40
  -7  11   1   -0.20    1.90
  -7  11   1    0.40    4.90
  -7  11   1    0.50    2.00
   6 -11  -1   16.40    5.90
  -6  11   1   13.30    7.10
  -6  11   1   22.20    3.60
  -6  11   1   19.50    3.20
   5 -11  -1  213.08   14.30
  -5  11   1  221.88   17.10
  -5  11   1  205.18    8.30
  -5  11   1  218.08    8.70
   4 -11  -1  148.89   12.10
  -4  11   1  127.29   14.70
  -4  11   1  130.09    6.90
  -4  11   1  143.79    7.20
   3 -11  -1  364.26   18.10
  -3  11   1  384.66   20.80
  -3  11   1  351.96   12.70
  -3  11   1  347.47   12.70
   2 -11  -1  148.19   12.00
  -2  11   1  178.68   14.10
  -2  11   1  173.78    9.10
  -2  11   1  152.38    8.70
   1 -11  -1  120.19   10.90
  -1  11   1   92.19    7.60
  -1  11   1  102.29    7.90
  -1  11   1  104.59   13.10
   0 -11  -1   46.80    8.10
   0  11   1   56.49    7.50
   0  11   1   46.10    6.80
   0  11   1   46.90    8.40
  -1 -11  -1  266.57   15.60
  -1 -11  -1  247.68   13.40
   1  11   1  278.17   14.10
   1  11   1  268.77   16.10
  -2 -11  -1   97.09   11.30
   2  11   1   96.29    9.50
   2  11   1  107.39   12.10
  -3 -11  -1  487.15   21.70
   3  11   1  488.75   20.80
  -4 -11  -1   26.70    6.70
   4  11   1   14.70    5.60
   4  11   1   28.40    7.40
  -5 -11  -1  219.28   15.00
   5  11   1  265.57   17.00
  -6 -11  -1   22.40    6.70
   6  11   1   22.60    7.40
  -7 -11  -1   -0.30    4.00
   7  11   1   -7.50    3.90
  -8 -11  -1   20.70    5.10
  -8 -11  -1   15.20    5.70
   8  11   1   15.50    7.20
  -9 -11  -1   87.89    9.90
  -9 -11  -1   64.79   11.20
   9  11   1   81.19   13.60
   8 -12  -1   -1.20    4.50
  -8  12   1   -1.10    5.60
  -8  12   1   -0.50    2.10
   7 -12  -1    5.30    4.40
  -7  12   1    7.30   11.60
  -7  12   1    4.50    3.40
  -7  12   1    6.20    2.70
   6 -12  -1   63.89   10.20
  -6  12   1   59.69    4.50
  -6  12   1  103.59   16.60
   5 -12  -1    5.80    4.30
  -5  12   1   -2.50    4.30
  -5  12   1    2.40    2.10
  -5  12   1    0.70    1.90
   4 -12  -1  136.49   12.00
  -4  12   1  160.18   18.10
  -4  12   1  131.99    7.10
  -4  12   1  123.09    6.90
   3 -12  -1  235.58   15.40
  -3  12   1  238.88   10.40
  -3  12   1  228.88   10.30
  -3  12   1  277.27   18.60
   2 -12  -1   -2.70    3.10
  -2  12   1   -0.10    2.60
  -2  12   1    2.60    2.70
  -2  12   1    7.80    5.60
   1 -12  -1   30.50    7.20
  -1  12   1   23.50    5.00
  -1  12   1   26.50    7.30
  -1  12   1   28.80    5.40
   0 -12  -1  240.28   15.30
   0  12   1  228.68   15.80
   0  12   1  233.18   12.60
   0  12   1  223.88   12.80
  -1 -12  -1   79.19    9.40
  -1 -12  -1   81.69   10.00
   1  12   1   74.69   10.40
   1  12   1   80.99    9.50
  -2 -12  -1  227.58   15.10
   2  12   1  210.08   14.00
   2  12   1  227.18   15.00
  -3 -12  -1   73.69   10.40
   3  12   1   68.59   10.10
   3  12   1   73.99   10.20
  -4 -12  -1  152.18   13.30
   4  12   1  153.28   11.60
   4  12   1  159.08   13.60
  -5 -12  -1   96.79   11.80
   5  12   1  119.99   10.10
   5  12   1   89.99   12.40
  -6 -12  -1   27.80    7.10
   6  12   1   30.80    6.40
   6  12   1   32.50    8.50
  -7 -12  -1    1.60    4.80
   7  12   1    3.10    5.90
   7  12   1    0.90    3.50
  -8 -12  -1  274.87   13.70
  -8 -12  -1  264.37   18.40
   8  12   1  256.97   20.90
   7 -13  -1   11.90    5.90
  -7  13   1   23.20    9.20
   6 -13  -1   18.80    6.40
  -6  13   1   20.60    2.40
  -6  13   1   24.60    9.00
  -6  13   1   19.20    2.60
   5 -13  -1    2.30    4.00
  -5  13   1    1.30    1.80
  -5  13   1    1.80    5.50
   4 -13  -1   89.09   11.50
  -4  13   1   95.49    6.10
  -4  13   1   83.59    5.80
  -4  13   1  106.09   15.90
   3 -13  -1   29.30    7.80
  -3  13   1   24.00    8.50
  -3  13   1   21.90    4.30
  -3  13   1   19.30    3.90
   2 -13  -1   52.89    9.40
  -2  13   1   47.90    6.40
  -2  13   1   48.20    6.50
  -2  13   1   47.50    9.50
   1 -13  -1  363.86   19.70
  -1  13   1  317.67   15.30
  -1  13   1  339.47   15.00
  -1  13   1  358.06   21.20
   0 -13  -1  512.85   23.60
   0  13   1  503.55   24.70
   0  13   1  458.05   19.80
   0  13   1  506.45   19.90
  -1 -13  -1    0.20    4.00
   1  13   1    2.60    4.20
   1  13   1    0.00    4.90
  -2 -13  -1    6.20    4.30
   2  13   1    5.60    4.30
   2  13   1    1.00    4.10
  -3 -13  -1   90.79   12.20
   3  13   1  106.39   12.40
   3  13   1   99.89   11.90
  -4 -13  -1   14.30    6.10
   4  13   1   20.20    6.10
   4  13   1   17.60    6.40
   5  13   1    2.40    5.60
   5  13   1    3.90    3.80
  -6 -13  -1   51.89    9.80
   6  13   1   60.79    8.70
   6  13   1   53.39   10.80
   5 -14  -1   50.59    9.80
  -5  14   1   53.59    5.40
  -5  14   1   54.89   12.30
  -5  14   1   44.00    3.30
   4 -14  -1   19.20    6.70
  -4  14   1   14.90    3.10
  -4  14   1   16.60    8.60
  -4  14   1   11.10    3.00
   3 -14  -1    6.70    5.30
  -3  14   1    5.70    6.10
  -3  14   1    3.80    2.90
  -3  14   1    6.30    3.00
   2 -14  -1  203.08   15.60
  -2  14   1  187.28   10.60
  -2  14   1  197.08   17.20
  -2  14   1  161.58   10.20
   1 -14  -1  238.98   16.90
  -1  14   1  211.48   12.70
  -1  14   1  264.17   19.00
  -1  14   1  237.58   13.00
   0 -14  -1   -2.20    4.60
   0  14   1    2.50    5.80
   0  14   1    0.10    4.00
  -1 -14  -1   35.20    8.60
   1  14   1   14.10    6.50
   1  14   1   29.00    7.10
  -2 -14  -1  201.68   15.70
   2  14   1  202.98   14.40
   2  14   1  212.68   15.90
  -3 -14  -1    2.90    6.90
   3  14   1    5.80    5.30
   3  14   1   15.40    6.50
  -4 -14  -1   24.10    7.70
   4  14   1   17.20    6.30
   4  14   1    7.50    5.80
   2 -15  -1  112.49   13.90
  -2  15   1  120.29    8.90
  -2  15   1  108.39   15.20
   1 -15  -1    5.00    5.60
  -1  15   1   -3.60    3.10
  -1  15   1   -0.30    9.00
   0 -15  -1   43.30   14.00
   0  15   1   52.49   11.80
  -1 -15  -1  136.79   15.20
   1  15   1  147.49   16.70
   1  15   1  117.89   11.60
   2  14  -2   45.20    9.00
   2  14  -2   44.30    9.70
  -2 -14   2   41.20   12.10
   1  14  -2  112.19   14.80
   1  14  -2   94.99   12.70
  -1 -14   2  122.89   14.30
   0  14  -2    3.00    5.70
   0  14  -2   -1.80    3.80
   0 -14   2    4.30    4.80
  -1  14  -2   25.00    8.30
  -1  14  -2   30.70    7.40
   1 -14   2   31.20    7.90
  -2  14  -2    8.20    6.40
  -2  14  -2    4.80    4.20
   2 -14   2   26.40    6.90
  -3  14  -2   30.30   11.40
   3 -14   2   42.70    8.80
  -4  14  -2   47.60    7.50
  -4  14  -2   60.29   13.00
   4 -14   2   74.59   10.50
   5  13  -2   -4.60    5.00
   5  13  -2   -0.60    3.30
  -5 -13   2    2.70    4.80
   4  13  -2   48.30   10.40
   4  13  -2   44.00    7.80
  -4 -13   2   25.30    7.50
   3  13  -2   58.29   10.90
   3  13  -2   48.40    8.30
  -3 -13   2   50.29    9.50
   2  13  -2   66.69    9.90
   2  13  -2   99.09   12.90
  -2 -13   2   76.19   10.70
   1  13  -2   43.20    8.30
   1  13  -2   41.30    8.60
  -1 -13   2   34.30    8.00
   0  13  -2  227.08   16.40
   0  13  -2  239.08   15.30
   0 -13   2  236.58   15.90
  -1  13  -2   72.29    9.60
  -1  13  -2   97.39   13.50
   1 -13   2   87.39   10.90
  -2  13  -2   33.20    9.20
  -2  13  -2    9.60    5.20
   2 -13   2    5.00    4.80
  -3  13  -2   94.99    9.40
  -3  13  -2   77.29   12.50
   3 -13   2  107.99   12.30
  -4  13  -2  123.29   14.90
  -4  13  -2  123.79    9.90
  -4  13  -2  146.39   18.70
   4 -13   2  134.59   12.10
  -5  13  -2    1.20    3.20
  -5  13  -2   -1.90    3.00
   5 -13   2   -0.80    4.10
  -6  13  -2    0.40    2.80
  -6  13  -2   -7.10    4.30
  -6  13  -2   -0.10    3.40
   6 -13   2    0.60    4.40
   6  12  -2   22.40    8.20
   6  12  -2   20.00    5.00
  -6 -12   2   20.50    7.10
   5  12  -2  206.78   17.40
  -5 -12   2  246.78   17.70
   4  12  -2  203.98   16.20
   4  12  -2  167.38   11.70
  -4 -12   2  217.88   15.40
   3  12  -2    3.30    4.00
   3  12  -2    3.80    5.10
  -3 -12   2    4.70    4.90
   2  12  -2    6.80    5.30
   2  12  -2    8.80    4.80
  -2 -12   2    6.70    4.70
   1  12  -2  242.98   15.50
   1  12  -2  237.78   15.50
  -1 -12   2  237.08   15.40
   0  12  -2    4.20    4.40
   0  12  -2    1.90    4.40
   0 -12   2    7.40    4.50
  -1  12  -2    3.00    4.30
  -1  12  -2    4.80    3.70
   1 -12   2    9.90    5.00
  -2  12  -2    0.50    3.20
  -2  12  -2    6.50    5.60
   2 -12   2    1.00    4.00
  -3  12  -2  150.68   10.70
  -3  12  -2  171.68   15.30
  -3  12  -2  135.69   10.40
   3 -12   2  166.88   12.50
  -4  12  -2    1.70    5.50
  -4  12  -2    3.50    3.40
  -4  12  -2   -0.30    3.20
   4 -12   2    6.80    4.40
  -5  12  -2   24.70    7.70
  -5  12  -2   35.40    6.00
  -5  12  -2   34.30    6.30
   5 -12   2   48.70    8.10
  -6  12  -2   34.40    6.10
  -6  12  -2   38.50   11.00
  -6  12  -2   56.79    7.80
   6 -12   2   42.30    7.90
  -7  12  -2  257.07   20.20
  -7  12  -2  219.78   12.20
  -7  12  -2  168.88   10.90
   7 -12   2  228.08   14.40
  -8  12  -2    8.90    7.50
  -8  12  -2   15.20    5.00
   8 -12   2   11.90    5.20
   7  11  -2   28.00    8.50
  -7 -11   2   18.10    4.00
  -7 -11   2   29.30    7.70
  -7 -11   2   30.10    4.80
   6  11  -2   54.09    6.70
   6  11  -2   41.40    9.10
  -6 -11   2   49.10    6.60
  -6 -11   2   38.10    7.90
   5  11  -2  106.19   14.20
   5  11  -2  100.69    8.30
  -5 -11   2  104.29   11.80
  -5 -11   2  109.59    8.40
   4  11  -2  219.88   12.60
   4  11  -2  250.47   17.00
  -4 -11   2  238.38   15.50
   3  11  -2   88.39    9.90
   3  11  -2   93.59   11.90
  -3 -11   2   77.19    9.80
   2  11  -2  387.16   19.60
  -2 -11   2  370.36   18.50
   1  11  -2   -2.80    3.30
   1  11  -2   10.10    4.80
  -1 -11   2    1.20    3.80
   0  11  -2    1.00    3.30
   0  11  -2    1.70    4.30
   0 -11   2    0.50    3.80
  -1  11  -2   -0.20    4.10
  -1  11  -2    9.90    4.30
   1 -11   2    5.10    4.50
  -2  11  -2   84.99   11.90
  -2  11  -2   87.89    8.60
  -2  11  -2  101.59    8.80
   2 -11   2  110.89   11.70
  -3  11  -2    1.20    3.10
  -3  11  -2    3.80    3.20
  -3  11  -2   -2.00    3.90
   3 -11   2    2.20    3.50
  -4  11  -2   31.90    5.90
  -4  11  -2   31.00    7.80
  -4  11  -2   33.60    6.20
   4 -11   2   29.50    6.30
  -5  11  -2  265.27   13.30
  -5  11  -2  241.88   12.60
  -5  11  -2  263.27   18.50
   5 -11   2  238.08   14.10
  -6  11  -2   61.19    7.80
  -6  11  -2   73.99   12.60
  -6  11  -2   52.79    7.20
   6 -11   2   62.89    8.60
  -7  11  -2    0.80    2.80
  -7  11  -2   -2.50    2.80
  -7  11  -2    7.60    6.20
   7 -11   2    1.20    3.50
  -8  11  -2   11.10    4.20
  -8  11  -2   12.20    7.70
  -8  11  -2   10.00    4.30
   8 -11   2    8.00    4.50
  -9  11  -2   21.20    8.40
  -9  11  -2   15.40    5.00
   9 -11   2   22.10    6.60
  -8 -10   2   47.00    9.20
  -8 -10   2   37.40    5.00
  -8 -10   2   35.80    4.60
   7  10  -2   85.29   13.80
  -7 -10   2   80.19    6.20
  -7 -10   2   79.69    6.60
  -7 -10   2   85.09   11.70
   6  10  -2  304.87   19.90
   6  10  -2  314.57   12.90
  -6 -10   2  297.07   16.30
  -6 -10   2  318.97   18.00
   5  10  -2   14.00    4.00
   5  10  -2   11.00    5.90
  -5 -10   2   11.90    3.60
  -5 -10   2   15.80    5.70
   4  10  -2  156.68   10.10
   4  10  -2  184.68   14.50
  -4 -10   2  185.78   13.30
  -4 -10   2  163.38   10.00
   3  10  -2  145.49   12.40
   3  10  -2  124.19    9.50
  -3 -10   2  145.19   11.50
  -3 -10   2  133.19    9.30
   2  10  -2   83.39    9.60
   2  10  -2   93.69   11.70
  -2 -10   2   59.69    8.30
  -2 -10   2   70.89    9.80
   1  10  -2   -1.10    3.30
   1  10  -2    9.10    4.20
  -1 -10   2   -0.20    3.40
   0  10  -2    4.00    3.40
   0  10  -2    1.50    3.00
   0  10  -2    2.20    4.30
   0 -10   2    8.10    4.30
  -1  10  -2  220.58   12.50
  -1  10  -2  211.88   12.70
  -1  10  -2  196.78   13.60
  -2  10  -2    5.20    3.60
  -2  10  -2    2.10    2.90
  -2  10  -2    3.00    4.30
   2 -10   2    0.60    3.30
  -3  10  -2   57.29    9.80
  -3  10  -2   64.19    7.80
   3 -10   2   65.19    8.10
  -4  10  -2   38.20    9.20
  -4  10  -2   26.90    5.60
  -4  10  -2   19.80    4.70
   4 -10   2   26.20    5.60
  -5  10  -2  322.07   15.60
  -5  10  -2  350.26   15.20
  -5  10  -2  359.06   20.70
   5 -10   2  342.87   16.10
  -6  10  -2   46.30    7.00
  -6  10  -2   45.60    9.50
   6 -10   2   55.29    8.00
  -7  10  -2  222.78   17.60
  -7  10  -2  197.38   11.30
  -7  10  -2  205.78   12.00
   7 -10   2  208.48   12.80
  -8  10  -2   55.39   10.70
  -8  10  -2   45.90    6.90
   8 -10   2   56.49    8.10
   8 -10   2   64.69    9.00
  -9  10  -2   71.39   21.70
   9 -10   2   75.29    9.90
   9 -10   2   83.39   12.00
 -10  10  -2    9.80    7.60
  10 -10   2    5.30    5.10
  10 -10   2   14.70    5.20
   9   9  -2   -3.20    5.80
  -9  -9   2   -0.90    1.90
  -9  -9   2    8.20    5.30
  -9  -9   2    2.30    2.10
   8   9  -2   -4.60    4.60
  -8  -9   2    6.20    2.60
  -8  -9   2    7.00    2.60
  -8  -9   2    1.20    4.10
   7   9  -2  114.49   13.80
  -7  -9   2  150.38   12.80
  -7  -9   2  136.09    7.90
  -7  -9   2  133.49    7.30
   6   9  -2   26.00    7.80
   6   9  -2   20.20    4.10
  -6  -9   2   23.30    4.20
  -6  -9   2   19.70    6.20
   5   9  -2   23.40    7.00
   5   9  -2   35.90    5.30
  -5  -9   2   29.30    6.50
  -5  -9   2   31.20    5.30
   4   9  -2  245.98   11.80
   4   9  -2  245.98   15.90
  -4  -9   2  256.77   11.90
  -4  -9   2  250.97   14.50
   3   9  -2  667.93   22.30
   3   9  -2  661.63   25.90
  -3  -9   2  676.23   24.30
   2   9  -2   62.99    9.00
   2   9  -2   62.19    8.00
  -2  -9   2   79.79    9.50
  -2  -9   2   56.59    6.80
   1   9  -2  196.88   12.00
   1   9  -2  226.08   12.90
  -1  -9   2  199.48   11.20
  -1  -9   2  196.18   12.10
   0   9  -2  447.46   19.00
   0   9  -2  445.66   18.20
   0   9  -2  427.76   18.50
   0  -9   2  436.86   17.40
   0  -9   2  453.45   18.10
  -1   9  -2   47.40    7.70
  -1   9  -2   53.19    7.90
  -1   9  -2   38.30    6.20
   1  -9   2   39.80    6.70
  -2   9  -2  175.88   10.50
  -2   9  -2  172.48   11.00
  -2   9  -2  175.78   10.50
   2  -9   2  159.48   10.60
  -3   9  -2  228.58   14.70
  -3   9  -2  253.37   12.30
  -3   9  -2  242.98   12.00
  -3   9  -2  224.78   12.30
   3  -9   2  247.28   12.70
  -4   9  -2  333.67   14.70
  -4   9  -2  345.47   18.70
  -4   9  -2  338.87   14.20
  -4   9  -2  325.67   14.30
   4  -9   2  333.27   15.00
  -5   9  -2   10.70    5.60
  -5   9  -2   20.10    4.60
  -5   9  -2   21.00    4.90
   5  -9   2   26.00    5.10
   5  -9   2   22.80    5.10
  -6   9  -2   92.19    7.80
  -6   9  -2   79.99   10.60
  -6   9  -2  107.99    8.50
   6  -9   2  103.59    7.80
   6  -9   2  107.39    9.00
  -7   9  -2   34.30    5.80
  -7   9  -2   49.00    9.50
   7  -9   2   50.29    7.50
   7  -9   2   43.30    5.80
   7  -9   2   63.49    8.70
  -8   9  -2  130.39   15.90
  -8   9  -2  119.29    9.40
   8  -9   2  117.79    9.90
   8  -9   2  159.28   11.00
  -9   9  -2   11.50    6.80
   9  -9   2   15.10    5.10
   9  -9   2   21.60    5.80
 -10   9  -2   -0.80   10.30
  10  -9   2    2.40    4.00
 -11   9  -2   17.90    8.30
  11  -9   2   14.10    5.70
  11  -9   2   19.60    6.20
  10   8  -2   -2.00    5.80
 -10  -8   2    2.40    2.10
 -10  -8   2    4.50    2.10
 -10  -8   2   -2.80    4.10
   9   8  -2  152.78   18.20
  -9  -8   2  141.39    7.30
  -9  -8   2  142.99    6.80
  -9  -8   2  154.98   13.80
   8   8  -2  347.57   21.70
  -8  -8   2  331.67   18.40
  -8  -8   2  343.27   11.30
  -8  -8   2  337.17   12.30
   7   8  -2   47.00    9.60
  -7  -8   2   43.40    5.10
  -7  -8   2   45.40    4.40
  -7  -8   2   37.90    7.00
   6   8  -2   68.59   10.30
  -6  -8   2  110.09   11.90
  -6  -8   2   77.69    5.60
  -6  -8   2   73.69    6.00
   5   8  -2   83.29    6.20
   5   8  -2   96.29   12.60
  -5  -8   2   90.69   10.10
  -5  -8   2   84.89    6.40
   4   8  -2  194.58   13.60
   4   8  -2  193.58    9.70
  -4  -8   2  218.98   12.70
  -4  -8   2  208.08   10.00
   3   8  -2   20.20    4.10
   3   8  -2   17.90    5.40
  -3  -8   2   16.30    4.30
  -3  -8   2   11.60    3.40
   2   8  -2  184.28   10.30
   2   8  -2  191.88   12.10
  -2  -8   2  165.08   11.00
  -2  -8   2  186.28   11.10
  -2  -8   2  192.48    9.90
   1   8  -2  463.15   17.70
   1   8  -2  428.56   20.10
   1   8  -2  474.25   18.60
  -1  -8   2  424.26   16.30
  -1  -8   2  427.76   17.70
  -1  -8   2  458.15   17.60
   0   8  -2    6.60    3.30
   0   8  -2    5.10    3.40
   0   8  -2    3.20    2.90
   0   8  -2    1.30    2.40
   0  -8   2    0.40    2.20
   0  -8   2    0.20    2.30
   0  -8   2    2.30    2.50
  -1   8  -2    1.70    2.40
  -1   8  -2    2.40    2.50
  -1   8  -2    8.00    3.40
  -1   8  -2    2.50    3.10
   1  -8   2    2.40    2.60
   1  -8   2    7.30    3.40
  -2   8  -2   35.50    6.90
  -2   8  -2   46.40    6.40
  -2   8  -2   41.00    5.80
  -2   8  -2   49.60    7.70
   2  -8   2   28.60    4.90
   2  -8   2   41.70    7.90
  -3   8  -2  291.17   14.70
  -3   8  -2  289.77   12.80
  -3   8  -2  268.97   12.30
  -3   8  -2  277.07   15.10
   3  -8   2  291.07   13.10
  -4   8  -2    5.90    3.00
  -4   8  -2   12.30    3.60
  -4   8  -2   11.30    3.60
  -4   8  -2    2.50    3.80
   4  -8   2    7.20    3.10
   4  -8   2   10.40    3.70
  -5   8  -2  298.67   13.00
  -5   8  -2  300.47   13.30
  -5   8  -2  298.07   17.00
   5  -8   2  284.67   12.70
   5  -8   2  295.57   13.70
   5  -8   2  323.57   13.90
  -6   8  -2   15.20    5.80
  -6   8  -2   21.90    4.60
   6  -8   2   22.90    4.90
   6  -8   2   31.10    5.90
  -7   8  -2  176.48   11.80
  -7   8  -2  195.28   15.10
   7  -8   2  169.18   11.00
   7  -8   2  199.08   11.40
   7  -8   2  163.18    9.10
  -8   8  -2    3.30    4.70
  -8   8  -2    1.50    2.80
   8  -8   2    2.10    2.40
   8  -8   2   -1.40    2.60
   8  -8   2    5.30    3.70
  -9   8  -2   67.29   12.00
   9  -8   2   79.39    9.20
   9  -8   2   87.79   10.50
   9  -8   2   71.39    6.50
 -10   8  -2   47.10   10.80
  10  -8   2   55.49    8.90
  10  -8   2   59.49    8.30
 -11   8  -2   21.70    8.90
  11  -8   2   25.90    7.00
  11  -8   2   13.60    5.50
  11   7  -2    8.50    7.30
 -11  -7   2   13.70    2.80
 -11  -7   2    5.10    5.00
 -11  -7   2   11.80    3.10
 -10  -7   2   46.50   10.10
 -10  -7   2   47.70    4.50
 -10  -7   2   46.90    4.30
   9   7  -2  192.18   17.10
  -9  -7   2  156.38    7.70
  -9  -7   2  161.78    7.30
  -9  -7   2  181.18   14.00
   8   7  -2   29.00    7.90
  -8  -7   2   39.10    7.80
  -8  -7   2   26.70    4.00
  -8  -7   2   35.10    4.00
   7   7  -2  401.76   21.60
  -7  -7   2  401.46   12.30
  -7  -7   2  372.36   13.10
  -7  -7   2  409.26   18.90
   6   7  -2  119.99   14.10
  -6  -7   2   99.09    5.80
  -6  -7   2   99.39   10.60
  -6  -7   2   97.79    6.30
   5   7  -2  281.17   10.30
   5   7  -2  263.77   15.80
  -5  -7   2  256.17   10.50
  -5  -7   2  273.37   14.20
   4   7  -2  179.68    8.50
   4   7  -2  185.18   12.60
  -4  -7   2  179.58    8.60
  -4  -7   2  162.58   11.80
   3   7  -2   95.99    9.00
   3   7  -2   80.79    6.20
  -3  -7   2   94.49    6.30
  -3  -7   2   94.09    8.30
  -3  -7   2   92.79    7.80
   2   7  -2  229.28   12.40
   2   7  -2  202.98   11.40
   2   7  -2  211.98   10.30
  -2  -7   2  214.38   11.80
  -2  -7   2  226.28   10.00
  -2  -7   2  196.08   10.80
   1   7  -2  153.88    9.50
   1   7  -2  134.59    9.20
   1   7  -2  152.38    8.90
  -1  -7   2  138.69    8.90
  -1  -7   2  134.69    7.90
  -1  -7   2  136.29    9.00
   0   7  -2  183.98   10.30
   0   7  -2  199.48   10.60
   0   7  -2  169.28   11.30
   0  -7   2  191.88    9.80
   0  -7   2  175.68    9.90
   0  -7   2  198.18   10.20
  -1   7  -2  625.14   21.30
  -1   7  -2  602.14   19.80
  -1   7  -2  604.44   20.30
  -1   7  -2  615.64   20.40
   1  -7   2  607.14   19.70
  -2   7  -2   53.29    6.20
  -2   7  -2   42.80    6.20
  -2   7  -2   57.19    5.60
  -2   7  -2   55.09    6.60
   2  -7   2   58.69    6.30
   2  -7   2   51.69    6.30
  -3   7  -2   18.20    3.90
  -3   7  -2   15.60    3.70
  -3   7  -2   11.40    3.90
  -3   7  -2   15.60    3.60
   3  -7   2   14.00    4.60
   3  -7   2   16.20    3.70
  -4   7  -2  315.07   15.80
  -4   7  -2  319.77   13.00
  -4   7  -2  301.07   12.40
   4  -7   2  307.47   13.30
   4  -7   2  316.87   12.90
   4  -7   2  271.67   11.80
  -5   7  -2   13.80    4.90
  -5   7  -2   12.40    3.40
   5  -7   2   18.70    4.50
   5  -7   2   18.90    3.80
   5  -7   2   13.50    3.60
  -6   7  -2   36.60    7.60
  -6   7  -2   43.70    5.90
   6  -7   2   43.30    6.00
   6  -7   2   43.60    6.30
   6  -7   2   36.60    4.90
  -7   7  -2   -2.00    3.90
   7  -7   2    5.10    2.50
   7  -7   2    1.90    3.20
   7  -7   2    5.40    3.20
  -8   7  -2  314.57   14.80
  -8   7  -2  346.17   19.30
   8  -7   2  319.57   15.80
   8  -7   2  330.57   14.70
   8  -7   2  299.67   12.30
  -9   7  -2   17.20    6.70
   9  -7   2   16.00    5.50
   9  -7   2   17.70    4.80
   9  -7   2   17.40    3.90
 -10   7  -2    2.50    5.10
  10  -7   2   18.60    5.20
  10  -7   2   18.00    6.10
 -11   7  -2    9.80    6.70
  11  -7   2   10.00    4.90
  11  -7   2   13.90    6.10
 -12   7  -2   46.50   11.70
  12  -7   2   50.29    9.80
  12  -7   2   56.09    8.90
  11   6  -2   58.29   11.80
 -11  -6   2   64.19   10.70
 -11  -6   2   47.30    4.90
 -11  -6   2   51.79    5.00
  10   6  -2  332.07   21.90
 -10  -6   2  278.07   10.90
 -10  -6   2  281.27   17.40
 -10  -6   2  283.37   10.40
   9   6  -2   -6.80    4.00
  -9  -6   2    3.20    2.10
  -9  -6   2    5.60    2.30
  -9  -6   2    6.10    4.90
   8   6  -2  209.78   16.00
  -8  -6   2  163.08    7.20
  -8  -6   2  173.48    8.10
  -8  -6   2  179.68   13.00
   7   6  -2    3.60    4.40
  -7  -6   2    5.90    3.80
  -7  -6   2    3.20    2.00
  -7  -6   2    6.40    2.60
   6   6  -2  128.19   11.60
  -6  -6   2  130.59    6.00
  -6  -6   2  128.29   10.00
  -6  -6   2  118.09    6.40
   5   6  -2  385.36   21.70
   5   6  -2  391.46   11.90
  -5  -6   2  370.86   12.40
  -5  -6   2  380.46   18.00
   4   6  -2  476.05   19.60
   4   6  -2  471.45   14.00
  -4  -6   2  454.55   17.30
  -4  -6   2  441.66   21.40
  -4  -6   2  439.06   14.10
   3   6  -2   78.19    5.40
   3   6  -2   79.39    7.80
   3   6  -2   74.69    8.20
  -3  -6   2   53.59    6.80
  -3  -6   2   73.09    5.10
  -3  -6   2   82.49    7.00
   2   6  -2  252.97   10.30
   2   6  -2  250.47   12.40
   2   6  -2  216.18   11.10
  -2  -6   2  232.18    9.60
  -2  -6   2  250.37   11.40
  -2  -6   2  223.18   11.60
   1   6  -2  425.36   14.60
   1   6  -2  425.36   15.90
   1   6  -2  386.56   15.00
  -1  -6   2  386.46   15.30
  -1  -6   2  379.06   13.50
  -1  -6   2  398.96   14.70
   0   6  -2  228.58   10.70
   0   6  -2  238.58   10.90
   0   6  -2  238.88   11.10
   0  -6   2  213.68    9.90
   0  -6   2  235.88   10.50
   0  -6   2  232.68   10.80
  -1   6  -2    4.10    2.50
  -1   6  -2    2.00    2.50
  -1   6  -2    3.90    2.60
  -1   6  -2    0.00    1.90
   1  -6   2    0.80    2.10
   1  -6   2    5.60    2.90
  -2   6  -2  337.47   14.20
  -2   6  -2  337.27   12.80
  -2   6  -2  326.77   12.70
  -2   6  -2  328.77   12.60
   2  -6   2  314.47   13.30
   2  -6   2  316.37   12.20
  -3   6  -2  893.71   24.30
  -3   6  -2  901.21   27.70
  -3   6  -2  951.10   25.30
  -3   6  -2  885.51   24.80
   3  -6   2  875.81   26.20
   3  -6   2  893.41   24.50
  -4   6  -2  182.48   11.20
  -4   6  -2  178.18    9.00
   4  -6   2  187.28    9.00
   4  -6   2  166.38   10.00
   4  -6   2  177.78    9.40
   4  -6   2  170.88    8.30
  -5   6  -2   -0.40    2.90
  -5   6  -2    1.90    2.10
   5  -6   2    2.20    2.20
   5  -6   2    4.70    2.30
   5  -6   2    0.30    2.00
  -6   6  -2    6.20    3.00
  -6   6  -2   16.10    6.30
   6  -6   2    7.20    2.30
   6  -6   2    8.10    3.40
   6  -6   2    8.00    3.00
  -7   6  -2  655.23   25.60
  -7   6  -2  594.44   23.40
   7  -6   2  678.93   20.90
   7  -6   2  637.64   18.70
   7  -6   2  644.24   22.50
  -8   6  -2   10.10    5.60
  -8   6  -2   24.70    5.30
   8  -6   2   21.00    5.20
   8  -6   2   12.80    3.10
   8  -6   2   13.60    4.00
  -9   6  -2   33.20    8.50
   9  -6   2   34.00    6.90
   9  -6   2   30.50    4.50
   9  -6   2   48.40    6.70
 -10   6  -2  118.59   14.60
  10  -6   2  100.89    8.90
  10  -6   2   75.79    6.80
  10  -6   2   87.69   11.20
 -11   6  -2  169.78   15.20
  11  -6   2  135.99   12.80
  11  -6   2  137.99   10.90
 -12   6  -2    0.70    4.70
  12  -6   2    2.40    5.00
  12  -6   2    8.40    4.80
  12   5  -2    2.30    6.30
 -12  -5   2    8.30    3.10
 -12  -5   2    9.10    5.60
  11   5  -2  111.19   21.30
 -11  -5   2  105.69   12.60
 -11  -5   2   85.59    6.50
 -11  -5   2   94.89    6.70
  10   5  -2    1.90    5.40
 -10  -5   2    0.10    2.20
 -10  -5   2   -0.60    4.00
 -10  -5   2   -3.70    2.20
   9   5  -2  372.76   21.50
  -9  -5   2  329.17   11.30
  -9  -5   2  333.97   17.60
  -9  -5   2  322.67   12.00
   8   5  -2    6.40    5.40
  -8  -5   2    8.30    4.10
  -8  -5   2    8.50    2.60
  -8  -5   2    9.70    2.60
   7   5  -2   63.99   10.10
  -7  -5   2   57.19    4.50
  -7  -5   2   40.80    6.40
  -7  -5   2   56.79    4.10
   6   5  -2   69.19   10.10
  -6  -5   2   53.69    6.80
  -6  -5   2   61.59    3.90
  -6  -5   2   51.29    4.20
   5   5  -2 1217.98   36.10
  -5  -5   2 1154.28   32.60
  -5  -5   2 1172.68   28.00
   4   5  -2   69.79    4.60
   4   5  -2   84.39    9.50
   4   5  -2   69.29    6.50
  -4  -5   2   72.49    6.60
  -4  -5   2   69.89    4.50
   3   5  -2  248.88    9.00
   3   5  -2  254.17   13.00
   3   5  -2  242.88   12.40
  -3  -5   2  257.77    9.10
  -3  -5   2  251.27   14.20
  -3  -5   2  240.68   11.10
   2   5  -2  931.21   23.40
   2   5  -2  906.11   25.60
   2   5  -2  921.21   26.80
  -2  -5   2  907.81   26.50
  -2  -5   2  891.11   22.80
  -2  -5   2  898.01   24.90
   1   5  -2 2036.20   47.30
   1   5  -2 1960.90   45.00
   1   5  -2 1931.61   46.10
  -1  -5   2 1938.51   44.30
  -1  -5   2 1970.00   45.60
  -1  -5   2 1967.80   47.10
   0   5  -2  289.17   11.70
   0   5  -2  282.07   11.10
   0   5  -2  271.77   11.00
   0  -5   2  276.07   10.50
   0  -5   2  279.07   11.40
   0  -5   2  275.57   10.70
  -1   5  -2   13.60    3.10
  -1   5  -2   10.30    2.90
  -1   5  -2   10.40    3.10
  -1   5  -2    9.40    2.80
   1  -5   2   10.70    2.70
   1  -5   2   13.00    3.30
  -2   5  -2  483.55   16.70
  -2   5  -2  470.35   14.80
  -2   5  -2  475.75   15.40
  -2   5  -2  477.15   15.40
   2  -5   2  483.65   14.80
   2  -5   2  467.95   15.90
  -3   5  -2  238.48    9.30
  -3   5  -2  236.48   10.00
  -3   5  -2  237.58   11.80
   3  -5   2  239.38    9.60
   3  -5   2  242.38   11.00
   3  -5   2  255.27   10.60
  -4   5  -2  108.09    6.70
  -4   5  -2  109.49    8.40
   4  -5   2   99.59    5.70
   4  -5   2  110.79    7.10
   4  -5   2  114.09    7.70
   4  -5   2  103.09    6.20
  -5   5  -2    7.50    3.40
  -5   5  -2    8.90    2.90
   5  -5   2    9.90    3.20
   5  -5   2    8.60    2.70
   5  -5   2    7.50    2.20
   5  -5   2    7.30    3.00
  -6   5  -2  861.41   28.40
  -6   5  -2  827.22   24.90
   6  -5   2  884.41   24.00
   6  -5   2  898.01   26.30
   6  -5   2  864.01   22.40
  -7   5  -2   94.49    7.60
  -7   5  -2  102.29   12.70
   7  -5   2   91.59    5.70
   7  -5   2   80.59    7.70
   7  -5   2   70.99    6.10
  -8   5  -2   -2.80    3.80
  -8   5  -2    2.20    3.00
   8  -5   2    3.90    2.30
   8  -5   2    6.40    3.70
   8  -5   2    0.90    2.60
  -9   5  -2    0.80    4.30
  -9   5  -2    1.60    2.80
   9  -5   2    1.90    3.30
   9  -5   2   -2.00    1.80
 -10   5  -2  216.98   15.80
 -10   5  -2  190.68   11.40
  10  -5   2  202.48   14.20
  10  -5   2  166.78    9.50
 -11   5  -2   42.40    9.70
 -11   5  -2   61.39    8.40
  11  -5   2   53.49    9.50
 -12   5  -2   -0.80    5.00
 -12   5  -2    1.60    3.40
  12  -5   2   -1.30    4.00
 -13   5  -2   -2.20    3.20
  13  -5   2    3.30    4.60
  12   4  -2   10.10    6.70
 -12  -4   2    3.30    5.20
 -12  -4   2   10.90    3.40
 -12  -4   2    3.90    3.10
  11   4  -2   -2.90    5.10
 -11  -4   2   -4.20    3.40
 -11  -4   2   -1.60    2.70
 -11  -4   2    1.00    2.30
  10   4  -2  144.19   16.60
 -10  -4   2  124.39   11.50
 -10  -4   2  107.69    7.10
 -10  -4   2  126.49    7.60
   9   4  -2   78.39   11.40
  -9  -4   2   60.59    5.30
  -9  -4   2   64.39    8.70
  -9  -4   2   87.99    6.40
   8   4  -2   28.90    7.40
  -8  -4   2   23.50    5.50
  -8  -4   2   33.00    4.30
  -8  -4   2   37.90    4.30
   7   4  -2   34.90    7.30
  -7  -4   2   38.30    3.70
  -7  -4   2   40.00    4.30
  -7  -4   2   27.70    5.10
   6   4  -2  624.04   24.10
  -6  -4   2  615.34   16.60
  -6  -4   2  631.54   21.30
   5   4  -2  155.48    9.40
   5   4  -2  161.58   11.00
  -5  -4   2  166.28    9.50
  -5  -4   2  162.98   10.60
  -5  -4   2  164.08    5.80
   4   4  -2  168.58    9.30
   4   4  -2  190.58   11.10
  -4  -4   2  188.28    6.20
  -4  -4   2  179.98    6.70
  -4  -4   2  170.48   10.80
  -4  -4   2  173.78    9.20
   3   4  -2 1205.28   26.80
   3   4  -2 1127.39   30.50
   3   4  -2 1186.98   32.50
  -3  -4   2 1212.68   30.40
  -3  -4   2 1187.08   27.00
  -3  -4   2 1179.58   32.50
   2   4  -2  840.52   20.50
   2   4  -2  831.52   22.90
   2   4  -2  826.62   24.20
  -2  -4   2  830.12   22.40
  -2  -4   2  829.52   24.00
   1   4  -2   17.50    3.40
   1   4  -2   20.40    4.00
  -1  -4   2   23.00    3.50
  -1  -4   2   24.10    3.20
  -1  -4   2   22.00    3.80
   0   4  -2   62.09    5.10
   0   4  -2   70.59    4.90
   0   4  -2   70.99    4.90
   0  -4   2   69.99    4.80
   0  -4   2   72.19    4.60
   0  -4   2   71.49    5.30
  -1   4  -2 1236.68   30.60
  -1   4  -2 1249.38   30.80
  -1   4  -2 1264.67   30.60
  -1   4  -2 1244.88   29.70
   1  -4   2 1214.78   29.90
   1  -4   2 1269.37   29.40
  -2   4  -2  666.53   18.90
  -2   4  -2  680.73   17.90
  -2   4  -2  654.83   19.70
   2  -4   2  668.03   17.80
   2  -4   2  693.53   19.40
   2  -4   2  684.33   19.30
  -3   4  -2   41.20    4.80
  -3   4  -2   26.80    4.20
   3  -4   2   44.00    5.20
   3  -4   2   27.60    4.00
   3  -4   2   36.60    5.90
   3  -4   2   35.00    3.30
  -4   4  -2    8.10    2.60
  -4   4  -2    1.10    4.40
   4  -4   2    5.80    2.80
   4  -4   2    6.00    2.10
   4  -4   2    8.20    2.10
   4  -4   2    8.80    2.90
  -5   4  -2  809.42   25.20
  -5   4  -2  792.92   22.80
   5  -4   2  800.12   20.10
   5  -4   2  805.22   23.50
   5  -4   2  773.12   23.70
   5  -4   2  829.62   21.30
  -6   4  -2    0.60    3.00
  -6   4  -2   -0.80    1.70
  -6   4  -2   -1.80    1.70
   6  -4   2   -0.50    1.70
   6  -4   2   -1.00    2.00
   6  -4   2    0.50    1.50
   6  -4   2   -0.80    1.80
  -7   4  -2   57.69    6.90
  -7   4  -2   56.49    5.30
  -7   4  -2   42.90    6.80
   7  -4   2   49.70    4.40
   7  -4   2   45.60    6.60
  -8   4  -2    1.10    2.30
  -8   4  -2    5.70    4.20
  -8   4  -2    3.70    2.90
   8  -4   2    3.20    2.00
   8  -4   2    1.00    2.80
  -9   4  -2  214.68   11.10
  -9   4  -2  207.88   14.40
   9  -4   2  228.48   14.20
 -10   4  -2   16.10    4.50
 -10   4  -2   15.90    7.80
  10  -4   2   15.60    3.90
  10  -4   2   15.30    5.60
 -11   4  -2    9.50    5.70
 -11   4  -2   -1.90    2.60
  11  -4   2    4.80    4.60
 -12   4  -2   -5.80    4.00
 -12   4  -2    0.90    3.40
  12  -4   2   -1.80    4.10
 -13   4  -2   34.30    6.70
 -13   4  -2   40.00    9.80
  13  -4   2   20.50    7.80
  12   3  -2   19.80   11.70
 -12  -3   2   11.20    5.60
 -12  -3   2   15.70    4.20
 -12  -3   2    7.40    3.30
  11   3  -2  151.48   15.20
 -11  -3   2  105.99   12.10
 -11  -3   2  115.09    7.80
 -11  -3   2  132.69    8.40
  10   3  -2   26.90    7.70
 -10  -3   2   20.20    4.00
 -10  -3   2   32.20    5.10
 -10  -3   2   21.60    5.80
   9   3  -2  257.97   17.10
  -9  -3   2  214.98    9.60
  -9  -3   2  232.08   13.70
  -9  -3   2  234.28   10.20
   8   3  -2   35.60    7.90
  -8  -3   2   22.70    5.50
  -8  -3   2   35.00    4.50
  -8  -3   2   23.60    3.70
   7   3  -2  778.62   32.60
  -7  -3   2  842.82   31.00
  -7  -3   2  793.32   20.20
  -7  -3   2  804.12   20.80
   6   3  -2   43.60    5.50
   6   3  -2   62.99    8.50
  -6  -3   2   59.79    9.40
  -6  -3   2   68.39    5.10
  -6  -3   2   63.89    7.20
  -6  -3   2   64.99    4.20
   5   3  -2  322.47   13.10
   5   3  -2  326.57   15.00
  -5  -3   2  307.57   12.90
  -5  -3   2  313.87    9.50
  -5  -3   2  319.97    9.00
   4   3  -2  572.34   19.70
   4   3  -2  542.05   17.70
  -4  -3   2  558.84   13.20
  -4  -3   2  542.55   19.20
  -4  -3   2  561.44   17.60
  -4  -3   2  568.94   13.90
   3   3  -2  322.07   13.10
   3   3  -2  325.37   11.90
   3   3  -2  331.17    8.50
  -3  -3   2  312.07    8.70
  -3  -3   2  316.47   12.90
  -3  -3   2  309.57   11.50
   2   3  -2  187.38    9.00
   2   3  -2  177.18    5.90
   2   3  -2  174.08    7.80
  -2  -3   2  175.08    8.70
  -2  -3   2  167.98    7.60
  -2  -3   2  179.48    5.90
   1   3  -2    9.90    2.50
   1   3  -2   13.00    2.20
   1   3  -2   11.40    2.40
  -1  -3   2    7.60    2.30
  -1  -3   2   10.80    2.50
  -1  -3   2   13.10    2.10
   0   3  -2   13.50    2.80
   0   3  -2   15.50    2.70
   0   3  -2    8.50    2.10
   0  -3   2    6.50    2.00
   0  -3   2   10.50    2.60
   0  -3   2   10.70    2.30
  -1   3  -2  108.59    5.80
  -1   3  -2  116.69    6.10
  -1   3  -2  113.09    5.80
   1  -3   2  108.09    5.60
   1  -3   2  104.59    4.90
  -2   3  -2 2023.30   45.00
  -2   3  -2 2023.00   44.30
  -2   3  -2 1984.60   42.30
   2  -3   2 1926.31   44.30
   2  -3   2 1938.01   42.30
   2  -3   2 2015.40   44.70
  -3   3  -2    2.40    1.90
  -3   3  -2    4.70    2.50
   3  -3   2    1.70    1.40
   3  -3   2    3.60    1.40
   3  -3   2    2.80    1.80
   3  -3   2    2.70    2.00
  -4   3  -2  499.65   16.30
  -4   3  -2  465.15   14.90
   4  -3   2  450.45   12.90
   4  -3   2  469.25   15.30
   4  -3   2  468.35   12.30
   4  -3   2  459.35   15.30
  -5   3  -2  865.21   24.30
  -5   3  -2  897.01   22.10
   5  -3   2  871.41   21.00
   5  -3   2  905.31   25.20
   5  -3   2  856.81   24.80
  -6   3  -2  308.27   10.90
  -6   3  -2  297.67   13.80
  -6   3  -2  289.37   12.60
   6  -3   2  320.97   13.70
   6  -3   2  308.27   10.10
  -7   3  -2  425.36   20.40
  -7   3  -2  426.96   17.40
  -7   3  -2  416.66   14.00
   7  -3   2  430.76   17.40
   7  -3   2  376.56   15.50
   7  -3   2  397.66   12.90
  -8   3  -2  286.87   14.20
  -8   3  -2  301.27   12.20
  -8   3  -2  307.27   15.30
   8  -3   2  296.97   15.30
   8  -3   2  282.87   11.00
  -9   3  -2    9.10    3.50
  -9   3  -2    2.90    4.20
   9  -3   2    8.20    4.70
 -10   3  -2  225.88   15.20
 -10   3  -2  246.78   12.30
  10  -3   2  225.88   11.00
  10  -3   2  254.67   16.30
 -11   3  -2    1.10    5.20
 -11   3  -2   11.40    4.20
  11  -3   2    0.80    4.40
 -12   3  -2  121.29   10.00
 -12   3  -2  115.69   13.60
  12  -3   2  122.59   15.30
 -13   3  -2    9.80    5.90
 -13   3  -2    5.60    3.90
  13  -3   2    2.00    4.70
  12   2  -2   53.69   11.50
 -12  -2   2   64.69   10.00
 -12  -2   2   48.00    6.70
 -12  -2   2   32.90    5.60
  11   2  -2   63.69   11.60
 -11  -2   2   49.70    6.80
 -11  -2   2   47.90    8.20
 -11  -2   2   40.50    5.90
  10   2  -2   -2.10    4.00
 -10  -2   2   -4.20    2.60
 -10  -2   2   -0.80    1.90
 -10  -2   2   -3.90    3.00
   9   2  -2   47.90    9.50
  -9  -2   2   27.40    6.20
  -9  -2   2   35.90    5.40
  -9  -2   2   36.60    4.90
   8   2  -2  561.74   23.70
  -8  -2   2  578.34   20.70
  -8  -2   2  511.75   16.10
  -8  -2   2  560.64   16.90
   7   2  -2   21.10    5.60
  -7  -2   2   15.10    2.90
  -7  -2   2   13.70    3.90
  -7  -2   2   15.20    3.30
   6   2  -2  375.76   14.90
   6   2  -2  399.86   17.30
  -6  -2   2  407.96   11.90
  -6  -2   2  395.56   17.10
  -6  -2   2  415.56   15.40
  -6  -2   2  409.06   11.80
   5   2  -2  568.74   20.20
   5   2  -2  522.15   17.70
  -5  -2   2  567.44   20.30
  -5  -2   2  576.64   14.40
  -5  -2   2  555.94   14.10
  -5  -2   2  571.34   18.20
   4   2  -2 1943.61   47.40
  -4  -2   2 1949.60   47.40
  -4  -2   2 1939.81   40.40
  -4  -2   2 1970.90   40.70
  -4  -2   2 1935.41   45.00
   3   2  -2    1.00    1.40
   3   2  -2    1.60    2.00
  -3  -2   2    3.40    2.20
  -3  -2   2   -0.50    0.70
  -3  -2   2    1.10    0.90
  -3  -2   2    0.70    1.60
   2   2  -2 2501.95   54.79
   2   2  -2 2584.24   51.29
  -2  -2   2 2580.74   56.69
  -2  -2   2 2555.24   51.39
   1   2  -2  291.77   10.30
   1   2  -2  290.77    7.70
   1   2  -2  277.87    9.00
  -1  -2   2  294.97    7.50
  -1  -2   2  294.47   10.30
  -1   2  -2 2353.66   48.60
  -2   2  -2   31.40    3.50
  -2   2  -2   38.90    4.10
  -2   2  -2   30.00    2.30
   2  -2   2   37.20    4.10
   2  -2   2   29.00    2.30
   2  -2   2   43.40    4.40
  -3   2  -2 3332.77   69.89
   3  -2   2 3220.98   66.79
   3  -2   2 3310.77   66.39
  -4   2  -2   90.09    4.30
  -4   2  -2   89.89    6.20
  -4   2  -2   93.29    5.90
   4  -2   2   86.09    5.90
   4  -2   2   85.89    5.70
   4  -2   2   96.29    4.10
  -5   2  -2  600.54   19.30
  -5   2  -2  633.04   16.30
  -5   2  -2  599.54   18.90
   5  -2   2  607.94   18.60
   5  -2   2  661.63   20.00
   5  -2   2  630.84   15.80
  -6   2  -2  257.47   11.90
  -6   2  -2  251.87    9.30
  -6   2  -2  240.38   11.30
   6  -2   2  236.58    8.70
   6  -2   2  253.87   11.00
   6  -2   2  232.68   11.80
  -7   2  -2  593.74   22.90
  -7   2  -2  635.24   21.30
  -7   2  -2  630.94   18.00
   7  -2   2  582.24   19.70
   7  -2   2  618.14   21.90
   7  -2   2  603.64   17.20
  -8   2  -2    2.50    2.40
  -8   2  -2   -0.70    2.40
  -8   2  -2    2.00    3.50
   8  -2   2    1.40    2.00
   8  -2   2    2.80    3.20
  -9   2  -2  486.35   17.00
   9  -2   2  512.25   22.20
   9  -2   2  453.85   16.10
 -10   2  -2   13.90    5.70
 -10   2  -2   16.60    4.30
  10  -2   2   10.30    3.60
  10  -2   2   14.00    5.90
 -11   2  -2   71.39   10.00
  11  -2   2   72.49   11.20
 -12   2  -2    6.20    4.10
 -12   2  -2   20.00    6.70
  12  -2   2    9.80    6.70
 -13   2  -2    2.80    4.90
 -13   2  -2    5.20    4.10
  13  -2   2    9.20    6.20
  13   1  -2    5.30    6.20
 -13  -1   2   17.70    7.50
 -13  -1   2   14.90    4.90
  12   1  -2   97.49   14.50
 -12  -1   2  131.19   11.90
 -12  -1   2  115.29    9.50
  11   1  -2   21.70    7.30
  11   1  -2   15.70    4.00
 -11  -1   2   18.50    4.80
 -11  -1   2   16.00    5.50
  10   1  -2   34.90    8.60
  10   1  -2   28.10    5.30
 -10  -1   2   21.20    5.50
 -10  -1   2   21.30    5.70
   9   1  -2  734.33   21.40
   9   1  -2  729.63   28.50
  -9  -1   2  755.82   22.60
  -9  -1   2  741.23   25.20
   8   1  -2   12.10    5.90
   8   1  -2    8.60    2.80
  -8  -1   2   10.80    3.60
   7   1  -2  374.96   15.10
   7   1  -2  362.06   11.90
   7   1  -2  376.96   17.30
  -7  -1   2  391.56   12.90
  -7  -1   2  367.86   14.90
  -7  -1   2  329.67   17.80
   6   1  -2  171.48    9.20
   6   1  -2  188.48    7.20
   6   1  -2  178.38   11.00
  -6  -1   2  193.48    7.80
  -6  -1   2  175.38    9.40
  -6  -1   2  183.68   10.90
   5   1  -2  281.17   11.40
   5   1  -2  291.67   13.20
   5   1  -2  305.77    9.00
  -5  -1   2  296.77    9.40
  -5  -1   2  298.07   13.00
  -5  -1   2  278.07   11.50
   4   1  -2  177.78    9.20
   4   1  -2  178.58    8.10
   4   1  -2  184.28    5.80
  -4  -1   2  183.48    6.10
  -4  -1   2  180.78    9.20
  -4  -1   2  173.48    8.10
   3   1  -2  161.48    7.10
   3   1  -2  162.68    4.60
   3   1  -2  159.58    8.10
  -3  -1   2  151.08    7.00
  -3  -1   2  163.38    4.80
  -3  -1   2  162.88    8.00
   1   1  -2   64.39    3.50
   1   1  -2   65.59    4.20
   1   1  -2   63.99    1.90
  -1  -1   2   62.69    3.50
   0   1  -2  634.84   14.20
   0   1  -2  640.04   15.80
   0   1  -2  633.64   14.00
   0  -1   2  616.44   14.10
   0  -1   2  624.24   13.90
  -1   1  -2    5.30    1.50
  -1   1  -2    5.20    0.80
  -1   1  -2    5.60    1.70
   1  -1   2    8.50    1.60
   1  -1   2    4.50    1.50
   1  -1   2    5.20    0.70
  -2   1  -2 1415.76   33.60
  -2   1  -2 1505.45   32.70
   2  -1   2 1463.15   32.40
   2  -1   2 1504.25   29.50
   2  -1   2 1438.36   32.90
  -3   1  -2  104.29    5.80
  -3   1  -2  110.09    3.90
   3  -1   2  107.69    6.10
   3  -1   2  115.69    3.80
   3  -1   2  107.29    5.60
  -4   1  -2  805.12   21.80
  -4   1  -2  793.02   22.00
  -4   1  -2  849.72   19.20
   4  -1   2  853.11   22.80
   4  -1   2  841.12   21.70
   4  -1   2  831.12   19.00
  -5   1  -2   93.39    4.80
  -5   1  -2   98.29    6.40
  -5   1  -2   92.69    6.60
   5  -1   2   97.29    6.00
   5  -1   2   85.39    6.70
   5  -1   2   93.39    4.70
  -6   1  -2  244.58   10.90
  -6   1  -2  225.18   11.10
  -6   1  -2  237.88    8.90
   6  -1   2  234.88   10.30
   6  -1   2  239.18    8.70
   6  -1   2  245.38   12.10
  -7   1  -2  160.18    9.80
  -7   1  -2  146.09    9.10
  -7   1  -2  153.08    7.70
   7  -1   2  156.18    8.80
   7  -1   2  167.98   10.70
   7  -1   2  145.29    7.30
  -8   1  -2  164.28   10.50
  -8   1  -2  158.58    8.40
  -8   1  -2  151.08   10.60
   8  -1   2  164.18   11.60
   8  -1   2  144.89    7.90
   8  -1   2  156.18    9.10
  -9   1  -2  515.55   20.00
  -9   1  -2  461.65   16.50
   9  -1   2  413.36   15.50
 -10   1  -2   15.10    4.50
 -10   1  -2   15.50    5.60
  10  -1   2   24.00    6.60
 -11   1  -2    3.80    5.20
 -11   1  -2    1.20    3.10
  11  -1   2    0.10    4.00
 -12   1  -2   69.99   10.00
 -12   1  -2   71.79    8.50
  12  -1   2   70.49   11.40
 -13   1  -2   17.50    5.50
 -13   1  -2   20.50    7.40
  13  -1   2   17.50    7.40
  13   0  -2   40.10   14.40
 -13   0   2   49.50    8.30
 -13   0   2   59.89   10.00
  12   0  -2   63.19   11.80
 -12   0   2   48.90    8.60
  11   0  -2   61.29   10.70
 -11   0   2   46.90    7.40
 -11   0   2   43.70    7.70
  10   0  -2  105.79   13.30
  10   0  -2   95.89    7.40
 -10   0   2  100.69   10.80
 -10   0   2  106.89   10.60
   9   0  -2    1.50    2.70
   9   0  -2    8.00    5.20
  -9   0   2    7.20    4.20
  -9   0   2    7.80    4.00
   8   0  -2    8.10    2.80
   8   0  -2    5.40    4.20
  -8   0   2    6.30    3.10
  -8   0   2    5.50    3.50
   7   0  -2  352.46   14.30
   7   0  -2  393.36   12.70
   7   0  -2  386.76   17.20
  -7   0   2  398.46   13.70
  -7   0   2  379.36   14.90
  -7   0   2  372.26   16.60
   6   0  -2  110.09    5.80
   6   0  -2  133.99    9.30
  -6   0   2  108.29    7.40
  -6   0   2  115.79    6.80
  -6   0   2  123.69    8.60
   5   0  -2   62.29    4.00
   5   0  -2   57.79    4.90
   5   0  -2   47.20    5.70
  -5   0   2   45.50    5.50
  -5   0   2   62.59    6.10
   4   0  -2  138.19    6.90
   4   0  -2  152.08    8.20
  -4   0   2  160.08    8.20
  -4   0   2  148.29    6.00
  -4   0   2  136.99    7.00
   3   0  -2   65.99    3.30
   3   0  -2   68.09    5.20
   3   0  -2   65.89    4.40
  -3   0   2   59.89    4.80
  -3   0   2   66.09    4.50
  -3   0   2   67.39    3.40
  -1   0  -2 1128.99   23.90
  -1   0  -2 1111.69   24.60
  -1   0  -2 1130.79   22.80
   1   0   2 1113.79   23.90
   1   0   2 1079.79   24.60
  -2   0  -2 1628.54   35.70
   2   0   2 1612.84   32.90
   2   0   2 1630.44   34.80
   2   0   2 1619.04   35.90
  -3   0  -2 2254.07   49.70
   3   0   2 2285.47   48.50
  -4   0  -2  149.59    7.70
  -4   0  -2  154.58    7.00
  -4   0  -2  153.58    5.70
   4   0   2  158.18    8.10
   4   0   2  157.68    5.80
   4   0   2  166.78    6.90
  -5   0  -2   18.40    3.90
  -5   0  -2   11.50    3.00
  -5   0  -2   10.30    2.20
   5   0   2   14.30    3.00
   5   0   2    9.60    3.10
   5   0   2   14.30    2.50
  -6   0  -2   23.50    3.40
  -6   0  -2   29.20    4.40
  -6   0  -2   25.40    4.40
   6   0   2   32.90    5.70
   6   0   2   29.20    4.20
   6   0   2   29.90    3.80
  -7   0  -2  120.29    9.00
  -7   0  -2  119.49    7.00
  -7   0  -2  129.79    8.20
   7   0   2  128.49    7.00
   7   0   2  123.39    9.50
   7   0   2  126.79    7.50
  -8   0  -2  107.69    7.10
  -8   0  -2  107.69    8.00
   8   0   2  108.99    9.80
   8   0   2  105.89    7.30
   8   0   2  109.19    7.00
  -9   0  -2   35.00    6.30
  -9   0  -2   42.50    5.90
   9   0   2   42.20    5.60
   9   0   2   41.70    8.30
 -10   0  -2  120.59    9.00
  10   0   2  100.89   12.00
 -11   0  -2  222.18   12.50
 -11   0  -2  229.58   14.30
  11   0   2  242.48   17.30
 -12   0  -2   21.80    6.80
 -12   0  -2   34.90    6.80
  12   0   2   14.40    6.40
 -13   0  -2   11.30    6.10
 -13   0  -2   11.20    4.80
  13   0   2   16.10    7.50
  13  -1  -2    6.10    5.60
 -13   1   2   15.50    6.10
 -13   1   2   26.70    6.40
  12  -1  -2   17.80    7.00
 -12   1   2   15.60    5.90
 -12   1   2   19.60    5.90
  11  -1  -2  110.69   14.20
 -11   1   2   80.59    9.70
 -11   1   2   67.99    9.10
  10  -1  -2  315.97   15.70
  10  -1  -2  317.87   18.60
 -10   1   2  348.07   16.70
 -10   1   2  317.87   15.60
   9  -1  -2  760.22   28.10
   9  -1  -2  735.03   22.40
  -9   1   2  745.93   24.20
  -9   1   2  733.23   25.00
   8  -1  -2    4.70    2.80
   8  -1  -2    2.60    3.50
  -8   1   2    1.10    2.50
  -8   1   2    5.30    3.40
   7  -1  -2    2.60    2.00
   7  -1  -2    3.90    3.20
   7  -1  -2    1.50    2.10
  -7   1   2    1.80    2.70
  -7   1   2    5.30    2.80
  -7   1   2    1.90    2.60
   6  -1  -2  278.77   11.40
   6  -1  -2  287.37   13.00
   6  -1  -2  275.27   10.30
  -6   1   2  277.97   12.60
  -6   1   2  284.77   11.80
  -6   1   2  265.87   11.10
   5  -1  -2 1356.86   33.50
   5  -1  -2 1402.06   32.60
   5  -1  -2 1424.06   35.60
  -5   1   2 1426.06   34.20
  -5   1   2 1387.26   33.30
  -5   1   2 1338.67   35.00
   4  -1  -2   11.80    2.40
   4  -1  -2   18.10    3.20
   4  -1  -2   11.70    3.10
  -4   1   2   13.40    2.60
  -4   1   2   11.50    2.60
  -4   1   2    9.90    2.70
   3  -1  -2    1.40    1.90
   3  -1  -2    3.50    1.70
  -3   1   2   -0.40    1.50
  -3   1   2    1.60    1.70
  -3   1   2    4.30    1.90
   2  -1  -2  756.62   18.10
   2  -1  -2  719.53   17.40
   2  -1  -2  734.03   18.00
  -2   1   2  773.12   17.80
  -2   1   2  774.92   18.20
   0  -1  -2   83.79    3.30
   0  -1  -2   86.39    3.40
   0   1   2   83.29    3.30
   0   1   2   84.59    3.40
   0   1   2   89.99    3.20
  -1  -1  -2   48.30    2.70
  -1  -1  -2   44.90    2.50
  -1  -1  -2   43.60    2.30
   1   1   2   45.80    2.70
   1   1   2   44.60    2.30
   1   1   2   44.00    2.50
  -3  -1  -2 1692.63   38.80
   3   1   2 1681.43   38.90
   3   1   2 1716.03   37.10
   3   1   2 1687.73   36.40
  -4  -1  -2   91.99    4.70
  -4  -1  -2   89.79    6.20
  -4  -1  -2   96.39    5.20
   4   1   2   97.69    4.90
   4   1   2   96.39    5.20
   4   1   2   97.09    6.60
  -5  -1  -2   75.89    5.20
  -5  -1  -2   76.29    4.90
  -5  -1  -2   70.99    6.10
   5   1   2   80.39    4.90
   5   1   2   78.39    5.10
   5   1   2   78.09    6.70
  -6  -1  -2  622.34   20.80
  -6  -1  -2  601.84   17.60
  -6  -1  -2  640.54   18.50
   6   1   2  644.24   21.70
   6   1   2  591.04   17.90
   6   1   2  596.74   17.60
  -7  -1  -2  219.68    9.80
  -7  -1  -2  213.18   12.00
  -7  -1  -2  226.68   10.50
   7   1   2  220.18   12.80
   7   1   2  227.58    9.90
   7   1   2  214.08    9.90
  -8  -1  -2   18.50    4.30
  -8  -1  -2   14.90    3.50
   8   1   2   10.40    4.60
   8   1   2   11.30    3.30
   8   1   2   12.10    3.20
  -9  -1  -2    2.00    3.60
  -9  -1  -2    5.50    3.30
   9   1   2    9.60    4.60
   9   1   2    3.20    2.50
   9   1   2    3.60    2.80
 -10  -1  -2  796.32   25.90
  10   1   2  772.32   30.90
 -11  -1  -2    9.50    4.30
 -11  -1  -2   15.40    5.70
  11   1   2   11.40    6.10
 -12  -1  -2    7.20    5.40
 -12  -1  -2    2.50    3.90
  12   1   2    6.00    5.20
 -13  -1  -2    5.80    5.40
 -13  -1  -2    3.10    4.00
  13   1   2   -0.80    5.00
  13  -2  -2   -4.70    3.70
 -13   2   2   -3.50    3.30
 -13   2   2   -1.80    3.90
  12  -2  -2    0.60    4.30
 -12   2   2   -5.70    3.20
 -12   2   2    2.40    3.60
  11  -2  -2   60.39    9.90
 -11   2   2   79.59   10.30
 -11   2   2   66.69    9.40
  10  -2  -2  137.09   12.30
 -10   2   2  107.39   11.00
 -10   2   2  108.59    9.90
   9  -2  -2  115.69   13.00
   9  -2  -2   82.69    7.20
  -9   2   2   95.89    8.80
  -9   2   2   97.09    9.00
   8  -2  -2   75.79    9.20
   8  -2  -2   60.59    6.60
  -8   2   2   52.69    6.80
  -8   2   2   68.09    8.50
  -8   2   2   63.79    7.70
   7  -2  -2   18.70    3.70
   7  -2  -2   17.40    3.70
   7  -2  -2   19.50    4.60
  -7   2   2   17.20    3.90
  -7   2   2   21.70    4.70
   6  -2  -2  904.51   24.30
   6  -2  -2  858.71   24.30
   6  -2  -2  936.21   26.50
  -6   2   2  894.21   25.30
  -6   2   2  892.01   25.20
  -6   2   2  880.51   25.70
   5  -2  -2  384.26   12.80
   5  -2  -2  379.16   12.90
   5  -2  -2  399.66   14.00
  -5   2   2  372.86   13.50
  -5   2   2  383.56   13.50
  -5   2   2  388.06   13.80
   4  -2  -2   88.59    5.30
   4  -2  -2   91.09    5.70
   4  -2  -2   92.29    5.40
  -4   2   2   83.99    5.40
  -4   2   2   84.99    5.60
  -4   2   2   92.49    5.70
   3  -2  -2  166.48    6.80
   3  -2  -2  155.48    6.50
   3  -2  -2  161.88    6.70
  -3   2   2  159.58    7.00
  -3   2   2  158.48    7.10
   1  -2  -2  167.28    6.10
   1  -2  -2  156.48    4.00
   1  -2  -2  147.09    5.90
  -1   2   2  155.28    6.20
  -1   2   2  152.18    6.00
  -1   2   2  151.38    4.00
   0  -2  -2  146.09    5.50
   0  -2  -2  137.79    5.40
   0  -2  -2  134.59    3.80
   0   2   2  138.79    3.90
   0   2   2  139.29    5.50
   0   2   2  137.49    5.30
  -1  -2  -2  182.28    5.90
  -1  -2  -2  162.38    6.10
  -1  -2  -2  164.18    6.10
   1   2   2  166.78    6.10
   1   2   2  166.48    6.10
   1   2   2  181.88    5.90
  -3  -2  -2    4.80    1.70
  -3  -2  -2    2.00    1.50
  -3  -2  -2    8.50    2.50
  -3  -2  -2    6.40    1.90
   3   2   2    5.60    2.50
  -4  -2  -2  400.36   11.80
  -4  -2  -2  370.86   11.80
  -4  -2  -2  381.06   13.80
  -4  -2  -2  390.56   12.00
   4   2   2  391.06   14.20
   4   2   2  389.96   12.20
  -5  -2  -2  998.70   25.10
  -5  -2  -2 1009.00   25.40
  -5  -2  -2 1026.70   28.50
   5   2   2 1043.80   29.20
   5   2   2 1039.60   26.00
   5   2   2  982.90   25.30
  -6  -2  -2  254.07   14.20
  -6  -2  -2  269.37   10.50
  -6  -2  -2  255.07   10.40
   6   2   2  283.67   13.70
   6   2   2  268.87   10.40
   6   2   2  264.97   10.80
  -7  -2  -2    2.00    2.30
  -7  -2  -2    2.70    2.50
  -7  -2  -2    4.80    2.80
   7   2   2    4.40    2.50
   7   2   2    3.50    3.70
   7   2   2    2.80    2.00
  -8  -2  -2   54.89    6.70
  -8  -2  -2   62.59    6.90
   8   2   2   45.90    7.80
   8   2   2   43.50    6.00
  -9  -2  -2  239.88   12.00
  -9  -2  -2  230.88   11.80
   9   2   2  246.78   11.80
   9   2   2  230.78   15.50
 -10  -2  -2  257.77   13.10
 -10  -2  -2  248.78   12.90
  10   2   2  235.08   16.70
 -11  -2  -2   96.09    9.20
 -11  -2  -2   81.89    9.40
  11   2   2   79.09   12.50
 -12  -2  -2    2.20    4.00
 -12  -2  -2   -1.20    3.10
  12   2   2   -3.70    3.90
 -13  -2  -2    0.20    3.40
 -13  -2  -2   -2.20    4.00
  13  -3  -2    6.20    5.40
 -13   3   2    2.00    4.00
 -13   3   2   12.40    5.80
  12  -3  -2    0.80    4.60
 -12   3   2   -2.20    2.90
 -12   3   2    7.50    5.00
  11  -3  -2   72.09   10.60
 -11   3   2   66.69    9.10
 -11   3   2   74.99   10.00
  10  -3  -2   30.00    7.00
 -10   3   2   36.60    7.30
 -10   3   2   29.50    6.00
   9  -3  -2   57.09    8.60
  -9   3   2   69.49    8.80
  -9   3   2   48.50    7.10
   8  -3  -2    1.70    2.70
   8  -3  -2    2.90    3.30
  -8   3   2   -0.20    3.00
  -8   3   2    1.50    2.60
  -8   3   2   -1.10    2.40
   7  -3  -2 1381.66   36.70
   7  -3  -2 1288.37   34.70
   7  -3  -2 1350.56   34.50
  -7   3   2 1359.36   36.80
  -7   3   2 1319.57   35.70
  -7   3   2 1331.27   35.80
   6  -3  -2  846.02   24.40
   6  -3  -2  817.92   22.90
   6  -3  -2  785.02   23.10
  -6   3   2  843.42   24.30
  -6   3   2  838.62   25.00
  -6   3   2  790.12   23.50
   5  -3  -2  142.69    7.80
   5  -3  -2  142.39    7.30
   5  -3  -2  149.19    7.90
  -5   3   2  153.08    8.20
  -5   3   2  153.48    8.70
  -5   3   2  147.59    7.60
   4  -3  -2    9.30    2.20
   4  -3  -2   16.30    2.90
   4  -3  -2   17.10    3.40
  -4   3   2   18.40    3.00
  -4   3   2   18.40    3.20
  -4   3   2   14.40    3.30
   3  -3  -2  605.14   15.10
   3  -3  -2  568.84   16.90
   3  -3  -2  589.14   16.40
  -3   3   2  613.24   17.20
  -3   3   2  595.04   14.90
  -3   3   2  620.84   17.90
   2  -3  -2   15.60    2.90
   2  -3  -2   15.90    1.60
   2  -3  -2   16.00    3.10
  -2   3   2   15.00    1.60
  -2   3   2   10.50    2.30
  -2   3   2   10.50    2.50
   1  -3  -2  365.46   11.30
   1  -3  -2  342.37   11.20
   1  -3  -2  331.67   10.80
  -1   3   2  343.97   11.40
   0  -3  -2  236.98    6.20
   0  -3  -2  222.78    8.50
   0   3   2  224.98    6.20
   0   3   2  242.38    8.40
  -1  -3  -2 2085.69   46.00
  -1  -3  -2 2091.49   44.70
   1   3   2 2141.39   46.20
  -2  -3  -2  125.89    6.20
  -2  -3  -2  140.09    6.30
  -2  -3  -2  127.69    6.30
   2   3   2  131.29    6.40
   2   3   2  123.69    6.70
   2   3   2  142.19    7.60
  -3  -3  -2   24.00    3.90
  -3  -3  -2   16.40    2.90
  -3  -3  -2   19.00    3.20
   3   3   2   18.20    3.10
   3   3   2   24.40    4.10
   3   3   2   23.90    3.30
  -4  -3  -2    4.80    2.00
  -4  -3  -2    1.60    1.70
  -4  -3  -2    3.00    1.80
  -4  -3  -2    3.40    2.30
   4   3   2    3.00    1.90
   4   3   2    5.50    2.80
  -5  -3  -2 1365.86   36.80
  -5  -3  -2 1425.06   33.80
  -5  -3  -2 1420.96   34.10
  -5  -3  -2 1410.56   33.00
   5   3   2 1399.26   37.30
   5   3   2 1378.26   34.70
  -6  -3  -2   41.40    5.40
  -6  -3  -2   33.50    4.20
  -6  -3  -2   20.40    4.20
  -6  -3  -2   25.40    3.90
   6   3   2   31.30    5.80
   6   3   2   36.80    5.20
  -7  -3  -2  285.17   11.70
  -7  -3  -2  278.17   12.10
  -7  -3  -2  272.17   11.20
   7   3   2  290.87   15.40
   7   3   2  273.67   12.40
  -8  -3  -2  351.36   15.80
  -8  -3  -2  365.76   13.80
  -8  -3  -2  358.06   14.70
   8   3   2  358.06   19.10
   8   3   2  352.16   18.20
  -9  -3  -2   14.50    4.00
  -9  -3  -2   16.90    4.10
   9   3   2    9.10    5.50
 -10  -3  -2   83.59    7.90
 -10  -3  -2   65.69    8.20
  10   3   2   89.39   12.80
 -11  -3  -2    7.10    4.20
 -11  -3  -2    0.50    3.40
  11   3   2    5.20    5.50
 -12  -3  -2   32.90    6.60
 -12  -3  -2   26.60    6.20
  12   3   2   19.60    6.90
 -13  -3  -2    0.60    3.80
 -13  -3  -2   -0.80    4.20
  13   3   2   -3.00    4.50
  12  -4  -2   70.19   11.70
 -12   4   2   74.69   10.80
 -12   4   2   73.59   10.40
  11  -4  -2   10.10    5.40
 -11   4   2   11.00    5.60
 -11   4   2   17.00    5.60
  10  -4  -2   -1.10    3.50
 -10   4   2    0.00    4.10
 -10   4   2   -5.10    2.40
   9  -4  -2   22.40    6.00
  -9   4   2   22.20    5.50
  -9   4   2   14.50    5.50
  -9   4   2   21.00    6.10
   8  -4  -2  262.37   13.50
  -8   4   2  235.38   12.40
  -8   4   2  237.98   13.80
  -8   4   2  243.88   12.90
   7  -4  -2  114.79    8.00
   7  -4  -2  101.79    8.00
   7  -4  -2  109.69    7.40
  -7   4   2  117.09    8.50
  -7   4   2  115.29    8.00
  -7   4   2  109.99    9.00
   6  -4  -2  207.68   10.60
   6  -4  -2  244.18   10.80
   6  -4  -2  221.58   10.10
  -6   4   2  224.68   10.10
  -6   4   2  246.58   12.50
  -6   4   2  240.98   11.40
   5  -4  -2   57.09    4.90
   5  -4  -2   65.39    6.80
   5  -4  -2   58.19    4.80
  -5   4   2   46.60    4.40
  -5   4   2   54.09    6.10
  -5   4   2   55.79    6.40
   4  -4  -2 2293.67   49.50
   4  -4  -2 2247.78   51.09
   4  -4  -2 2248.88   52.59
  -4   4   2 2340.67   53.99
  -4   4   2 2317.57   49.50
  -4   4   2 2255.87   52.39
   3  -4  -2   20.20    2.30
   3  -4  -2   17.60    3.20
   3  -4  -2   25.80    3.70
  -3   4   2   17.90    3.70
  -3   4   2   20.10    3.60
  -3   4   2   21.80    2.30
   2  -4  -2   38.60    4.70
   2  -4  -2   34.10    3.90
   2  -4  -2   31.00    1.80
   2  -4  -2   48.70    5.10
  -2   4   2   33.50    1.70
  -2   4   2   29.90    4.20
   1  -4  -2   18.40    3.00
   1  -4  -2   24.70    3.80
  -1   4   2   26.90    1.40
  -1   4   2   23.20    3.30
  -1   4   2   27.20    4.30
  -1   4   2   19.90    1.20
   0  -4  -2  270.77    7.70
   0  -4  -2  289.37   10.60
   0   4   2  285.67   10.70
   0   4   2  280.67    7.80
   0   4   2  275.77   10.30
  -1  -4  -2  263.67    9.50
  -1  -4  -2  231.48    9.40
  -1  -4  -2  249.88    9.80
   1   4   2  242.98    9.50
   1   4   2  248.38    9.80
   1   4   2  254.17    8.60
  -2  -4  -2 1391.56   32.80
  -2  -4  -2 1386.46   32.60
  -2  -4  -2 1338.97   33.00
   2   4   2 1310.37   33.00
   2   4   2 1384.96   32.50
   2   4   2 1410.06   32.90
  -3  -4  -2  574.44   18.00
  -3  -4  -2  608.54   17.80
  -3  -4  -2  598.24   17.30
   3   4   2  610.74   18.50
   3   4   2  566.84   17.70
   3   4   2  608.14   16.90
  -4  -4  -2 1091.09   30.30
  -4  -4  -2 1160.78   29.10
  -4  -4  -2 1158.68   28.60
   4   4   2 1114.79   30.80
   4   4   2 1123.39   29.50
   4   4   2 1109.19   27.60
  -5  -4  -2  800.22   25.60
  -5  -4  -2  843.82   23.60
  -5  -4  -2  857.81   23.20
  -5  -4  -2  864.61   22.20
   5   4   2  827.12   24.30
   5   4   2  823.02   26.20
  -6  -4  -2   61.09    8.00
  -6  -4  -2   74.79    5.40
  -6  -4  -2   70.89    6.30
  -6  -4  -2   69.39    5.60
   6   4   2   76.19    8.80
   6   4   2   70.29    6.30
  -7  -4  -2  198.08    9.80
  -7  -4  -2  209.28   10.70
  -7  -4  -2  216.78    9.50
   7   4   2  177.98   10.60
   7   4   2  203.48   13.30
  -8  -4  -2   19.90    4.40
  -8  -4  -2   30.20    4.70
  -8  -4  -2   21.10    4.40
   8   4   2   34.10    7.30
  -9  -4  -2  345.77   15.70
  -9  -4  -2  332.77   13.80
  -9  -4  -2  316.07   14.10
   9   4   2  346.97   19.50
 -10  -4  -2    8.90    4.50
 -10  -4  -2    7.10    4.00
 -10  -4  -2   12.00    4.20
  10   4   2    5.20    5.90
 -11  -4  -2   27.80    5.80
 -11  -4  -2   32.70    6.50
  11   4   2   35.40    8.80
 -12  -4  -2   78.29   10.30
 -12  -4  -2   49.40    7.60
  12   4   2   41.90    9.50
 -13  -4  -2   50.29    8.20
 -13  -4  -2   26.30    6.50
  13   4   2   84.29   14.60
  12  -5  -2   27.60    7.80
 -12   5   2   33.10    7.40
 -12   5   2   27.80    7.50
  11  -5  -2    7.90    4.70
 -11   5   2    7.10    4.50
 -11   5   2   12.50    6.10
  10  -5  -2   14.00    6.30
 -10   5   2    6.30    5.00
 -10   5   2    2.90    3.50
   9  -5  -2   62.79    8.50
  -9   5   2   63.39   10.10
  -9   5   2   47.90    7.20
  -9   5   2   49.80    7.80
   8  -5  -2  138.39    9.90
  -8   5   2  133.59   10.60
  -8   5   2  150.68   10.50
  -8   5   2  139.19   11.40
   7  -5  -2  416.06   15.70
   7  -5  -2  467.95   16.80
  -7   5   2  459.15   18.00
  -7   5   2  475.45   19.70
  -7   5   2  444.86   16.00
   6  -5  -2   21.40    5.00
   6  -5  -2   21.60    4.00
   6  -5  -2   17.20    3.50
  -6   5   2   16.30    4.30
  -6   5   2   17.10    4.00
  -6   5   2   24.20    3.90
   5  -5  -2 1089.59   26.80
   5  -5  -2 1045.10   28.10
  -5   5   2 1098.19   30.10
  -5   5   2 1053.59   26.30
  -5   5   2 1088.79   31.70
   4  -5  -2    9.50    2.80
   4  -5  -2    7.60    1.90
   4  -5  -2    7.60    3.10
   4  -5  -2   10.20    3.10
  -4   5   2    5.10    2.80
  -4   5   2    7.30    1.90
   3  -5  -2  822.32   23.50
   3  -5  -2  815.12   23.90
   3  -5  -2  838.72   19.00
   3  -5  -2  813.52   22.80
  -3   5   2  839.12   25.10
  -3   5   2  855.21   18.80
   2  -5  -2  421.66   14.20
   2  -5  -2  404.46   14.30
   2  -5  -2  395.96   14.40
  -2   5   2  415.76    9.50
  -2   5   2  404.66    9.40
  -2   5   2  421.16   15.30
   1  -5  -2 1750.22   41.50
   1  -5  -2 1692.43   41.50
  -1   5   2 1736.53   36.30
  -1   5   2 1797.72   36.20
  -1   5   2 1733.43   41.10
  -1   5   2 1715.53   42.10
   0  -5  -2  131.39    5.40
   0  -5  -2  136.59    7.50
   0   5   2  126.39    7.30
   0   5   2  124.99    5.20
  -1  -5  -2  978.00   26.30
  -1  -5  -2 1000.30   24.30
  -1  -5  -2 1004.80   26.60
   1   5   2  967.20   26.20
   1   5   2 1030.70   26.10
   1   5   2  952.90   26.30
  -2  -5  -2  645.74   19.90
  -2  -5  -2  687.83   19.90
  -2  -5  -2  696.23   19.40
   2   5   2  701.73   19.60
   2   5   2  670.03   19.60
   2   5   2  656.03   20.20
  -3  -5  -2 1449.15   35.60
  -3  -5  -2 1444.66   36.30
  -3  -5  -2 1429.46   36.10
   3   5   2 1486.95   36.90
   3   5   2 1415.36   36.50
   3   5   2 1465.65   35.20
  -4  -5  -2  554.54   17.50
  -4  -5  -2  536.15   18.90
  -4  -5  -2  575.04   18.30
   4   5   2  587.44   19.80
   4   5   2  563.14   16.80
   4   5   2  506.65   18.10
  -5  -5  -2 1114.09   29.40
  -5  -5  -2 1086.09   30.00
  -5  -5  -2 1070.99   32.00
  -5  -5  -2 1141.39   28.30
   5   5   2 1133.19   32.80
   5   5   2 1156.78   28.50
   5   5   2 1042.30   30.60
  -6  -5  -2   14.10    3.60
  -6  -5  -2   17.20    3.30
  -6  -5  -2   26.90    6.00
  -6  -5  -2   18.90    4.60
   6   5   2   18.40    4.40
   6   5   2   21.50    5.70
  -7  -5  -2  205.38   10.40
  -7  -5  -2  215.48    9.80
  -7  -5  -2  219.88   11.70
  -8  -5  -2  338.17   13.20
  -8  -5  -2  350.76   15.60
   8   5   2  335.47   18.80
  -9  -5  -2  137.89   10.40
  -9  -5  -2  142.69    8.70
  -9  -5  -2  118.89    8.80
   9   5   2  131.79   13.00
 -10  -5  -2   19.00    5.30
 -10  -5  -2   16.80    4.50
 -10  -5  -2   12.40    4.80
  10   5   2   11.90    6.40
 -11  -5  -2   56.99    7.60
 -11  -5  -2   48.20    8.10
  11   5   2   50.99   11.30
 -12  -5  -2   26.20    6.50
 -12  -5  -2   34.50    6.30
  12  -6  -2    1.40    4.30
 -12   6   2    3.90    5.50
 -12   6   2    1.40    4.30
  11  -6  -2   29.10    7.10
 -11   6   2   15.30    6.20
 -11   6   2   28.10    6.80
  10  -6  -2  129.29   11.10
 -10   6   2  143.59   16.40
 -10   6   2  136.79   11.60
   9  -6  -2   75.19    9.40
  -9   6   2   77.09    8.80
  -9   6   2   72.39    9.70
  -9   6   2   72.49   10.80
   8  -6  -2  151.88    9.90
  -8   6   2  153.18   11.10
  -8   6   2  142.19    9.10
  -8   6   2  147.69   12.40
   7  -6  -2  239.68   11.50
   7  -6  -2  246.48   11.50
  -7   6   2  262.97   15.40
  -7   6   2  249.38   13.20
  -7   6   2  246.48   10.90
   6  -6  -2  507.95   16.20
   6  -6  -2  491.65   17.30
   6  -6  -2  522.65   19.30
  -6   6   2  507.35   15.90
  -6   6   2  540.15   21.50
   5  -6  -2  132.19    8.90
   5  -6  -2  136.49    6.50
   5  -6  -2  125.79    8.70
  -5   6   2  116.19    9.50
  -5   6   2  120.89    6.00
   4  -6  -2  273.37   12.50
   4  -6  -2  257.27    8.50
   4  -6  -2  257.97   11.30
   4  -6  -2  288.47   12.70
  -4   6   2  265.07    8.30
  -4   6   2  256.77   13.40
   3  -6  -2   25.60    4.40
   3  -6  -2   25.50    4.00
  -3   6   2   29.40    2.30
  -3   6   2   23.00    2.20
  -3   6   2   16.30    3.60
   2  -6  -2  695.73   22.30
   2  -6  -2  763.42   22.80
  -2   6   2  741.53   23.60
  -2   6   2  746.43   16.70
  -2   6   2  749.33   16.70
  -2   6   2  733.03   21.90
   1  -6  -2  111.89    7.50
   1  -6  -2  115.29    7.70
  -1   6   2  117.59    8.20
  -1   6   2  113.19    4.80
  -1   6   2  120.99    5.00
  -1   6   2  113.69    7.40
   0  -6  -2   42.10    5.40
   0  -6  -2   41.30    3.90
   0  -6  -2   30.00    4.30
   0   6   2   28.30    4.30
   0   6   2   45.00    5.80
   0   6   2   39.80    3.60
  -1  -6  -2 1268.97   33.40
  -1  -6  -2 1260.17   33.00
  -1  -6  -2 1284.67   30.80
   1   6   2 1262.77   33.50
   1   6   2 1290.57   30.90
   1   6   2 1259.47   33.30
  -2  -6  -2  539.75   17.10
  -2  -6  -2  544.55   18.30
  -2  -6  -2  549.15   17.90
   2   6   2  540.15   17.80
   2   6   2  538.15   17.20
   2   6   2  531.75   18.40
  -3  -6  -2   10.80    3.40
  -3  -6  -2    6.70    2.80
  -3  -6  -2    7.70    3.10
   3   6   2    6.80    3.10
   3   6   2    5.70    3.00
   3   6   2    7.10    2.70
  -4  -6  -2  803.62   24.00
  -4  -6  -2  859.71   25.30
  -4  -6  -2  817.52   25.70
   4   6   2  825.92   23.40
   4   6   2  815.12   25.60
   4   6   2  881.41   26.70
  -5  -6  -2   14.70    3.80
  -5  -6  -2    7.50    3.10
  -5  -6  -2   15.90    4.00
   5   6   2   21.40    4.10
   5   6   2    8.00    3.00
   5   6   2   24.40    5.60
  -6  -6  -2  182.78    9.00
  -6  -6  -2  158.08    9.20
  -6  -6  -2  179.08   10.50
   6   6   2  168.38   12.00
  -7  -6  -2  306.07   12.20
  -7  -6  -2  287.57   14.20
  -7  -6  -2  300.27   13.30
   7   6   2  295.77   16.90
  -8  -6  -2  133.89   10.40
  -8  -6  -2  142.29    9.30
  -8  -6  -2  133.89    8.30
   8   6   2  159.28   13.50
  -9  -6  -2  130.29   10.60
  -9  -6  -2  112.49    8.80
  -9  -6  -2  122.09    8.30
   9   6   2  157.78   16.90
 -10  -6  -2    1.30    4.00
 -10  -6  -2    1.60    2.90
  10   6   2    4.60    4.90
 -11  -6  -2   71.39   10.00
 -11  -6  -2   83.49    8.80
  11   6   2   70.79   12.10
 -12  -6  -2    9.50    5.60
 -12  -6  -2   14.10    4.70
  12   6   2   12.30    7.70
  12  -7  -2   16.60    5.70
 -12   7   2   25.30    7.80
 -12   7   2   12.10    5.40
  11  -7  -2   40.60    8.10
 -11   7   2   37.50    9.90
 -11   7   2   47.80    9.10
  10  -7  -2   23.10    6.20
  10  -7  -2   27.70    7.00
 -10   7   2   19.60    6.30
 -10   7   2   20.30    6.20
 -10   7   2   25.30    7.70
   9  -7  -2   23.60    5.80
   9  -7  -2   31.10    6.30
  -9   7   2   13.40    4.20
  -9   7   2   16.70    6.40
   8  -7  -2  122.89    8.60
  -8   7   2   94.79   11.30
  -8   7   2  103.49    7.60
   7  -7  -2  143.29   10.70
   7  -7  -2  139.59    8.30
  -7   7   2  133.59   12.00
  -7   7   2  144.89    8.00
   6  -7  -2   29.10    5.50
   6  -7  -2   24.80    3.90
   6  -7  -2   21.20    4.50
  -6   7   2   16.80    5.70
  -6   7   2   27.40    3.80
   5  -7  -2  680.03   21.80
   5  -7  -2  724.23   23.90
  -5   7   2  687.53   17.90
  -5   7   2  694.53   25.80
   4  -7  -2   35.40    5.70
   4  -7  -2   40.80    8.50
   4  -7  -2   46.50    6.20
  -4   7   2   37.70    7.40
  -4   7   2   34.80    2.90
   3  -7  -2  133.19    9.00
   3  -7  -2  129.39    8.40
   3  -7  -2  136.69    9.00
  -3   7   2  134.29    4.90
  -3   7   2  134.59    4.90
   2  -7  -2  434.16   17.00
   2  -7  -2  472.15   17.40
  -2   7   2  450.05   11.80
  -2   7   2  453.75   18.20
  -2   7   2  443.76   16.50
  -2   7   2  442.96   11.60
   1  -7  -2  162.38    9.70
  -1   7   2  160.08    6.40
  -1   7   2  148.39    9.10
  -1   7   2  159.78    7.40
  -1   7   2  147.29    9.90
   0  -7  -2  255.07    9.50
   0  -7  -2  245.88   11.90
   0  -7  -2  271.27   12.60
   0   7   2  239.88   12.30
   0   7   2  264.07    9.60
   0   7   2  240.18   12.00
  -1  -7  -2  148.29    9.30
  -1  -7  -2  147.09    9.00
  -1  -7  -2  145.19    7.70
   1   7   2  154.98    8.00
   1   7   2  125.29    8.80
  -2  -7  -2  417.76   16.40
  -2  -7  -2  393.76   14.60
  -2  -7  -2  408.56   15.60
   2   7   2  428.26   15.30
   2   7   2  425.86   16.00
   2   7   2  394.56   16.30
  -3  -7  -2  429.66   16.40
  -3  -7  -2  461.85   17.00
  -3  -7  -2  462.55   17.50
   3   7   2  466.85   17.30
   3   7   2  453.35   16.40
   3   7   2  422.46   17.30
  -4  -7  -2   31.70    5.70
  -4  -7  -2   25.70    4.90
  -4  -7  -2   34.40    5.80
   4   7   2   26.40    4.60
   4   7   2   25.50    6.00
   4   7   2   32.00    6.00
  -5  -7  -2  156.08    9.40
  -5  -7  -2  169.48   10.60
  -5  -7  -2  152.88   12.10
   5   7   2  156.78   11.40
   5   7   2  172.08    9.20
  -6  -7  -2  276.97   13.00
  -6  -7  -2  271.87   13.90
   6   7   2  273.27   11.90
  -7  -7  -2  437.16   15.50
  -7  -7  -2  423.06   18.30
  -7  -7  -2  410.06   16.70
   7   7   2  394.96   20.50
  -8  -7  -2   47.60    8.10
  -8  -7  -2   32.70    5.80
  -8  -7  -2   42.20    5.90
   8   7   2   45.30    9.10
  -9  -7  -2    9.00    3.60
  -9  -7  -2    8.10    3.70
  -9  -7  -2    4.80    4.50
   9   7   2   -8.50    3.80
 -10  -7  -2  145.09   12.20
 -10  -7  -2  128.29    9.00
  10   7   2  151.58   15.40
 -11  -7  -2   82.99    7.70
 -11  -7  -2   74.99   10.60
  11   7   2   59.99   13.10
 -12  -7  -2   28.80    7.90
 -12  -7  -2   24.50    5.80
  12   7   2   28.90   10.10
  11  -8  -2   47.50    9.00
  11  -8  -2   42.00    8.20
 -11   8   2   32.00    9.80
  10  -8  -2   50.89    7.60
  10  -8  -2   37.80    8.10
 -10   8   2   39.30    6.80
 -10   8   2   42.80    9.80
   9  -8  -2  225.88   14.80
   9  -8  -2  221.28   12.00
  -9   8   2  189.98   10.70
  -9   8   2  206.68   16.40
   8  -8  -2    7.50    3.30
   8  -8  -2   13.50    5.00
  -8   8   2   15.10    6.50
  -8   8   2   10.40    3.30
   7  -8  -2    0.30    3.20
   7  -8  -2    1.60    2.00
  -7   8   2    6.10    5.30
  -7   8   2    1.10    2.10
   6  -8  -2  351.56   12.10
   6  -8  -2  355.86   16.80
  -6   8   2  373.86   19.50
  -6   8   2  352.76   11.60
   5  -8  -2  180.68   11.60
   5  -8  -2  155.88    9.70
  -5   8   2  171.28   12.70
   4  -8  -2   -2.40    1.80
   4  -8  -2   -2.80    2.00
  -4   8   2    1.20    1.30
  -4   8   2    2.10    4.40
  -4   8   2    0.80    1.20
   3  -8  -2    6.80    3.10
   3  -8  -2    6.50    3.40
  -3   8   2   11.80    4.10
  -3   8   2   11.10    2.00
  -3   8   2    9.40    1.80
   2  -8  -2  292.07   14.10
   2  -8  -2  285.47   14.00
  -2   8   2  302.57    9.30
  -2   8   2  303.67    9.40
  -2   8   2  301.57   13.70
   1  -8  -2  193.28   11.30
   1  -8  -2  208.28   11.50
  -1   8   2  199.08   11.70
  -1   8   2  191.28   11.80
  -1   8   2  207.28   11.30
  -1   8   2  205.78    8.30
   0  -8  -2   -0.80    2.40
   0  -8  -2   -1.20    1.40
   0  -8  -2   -1.60    2.20
   0   8   2    2.60    3.10
   0   8   2    0.70    1.90
   0   8   2    2.50    2.70
  -1  -8  -2   57.89    7.70
  -1  -8  -2   51.29    7.10
  -1  -8  -2   50.89    5.00
   1   8   2   51.49    5.80
   1   8   2   47.50    6.90
   1   8   2   58.69    7.80
  -2  -8  -2  809.52   24.50
  -2  -8  -2  839.92   26.50
  -2  -8  -2  795.12   25.60
   2   8   2  786.72   26.60
   2   8   2  846.62   24.90
   2   8   2  818.62   25.90
  -3  -8  -2    1.00    2.40
   3   8   2    1.80    2.50
   3   8   2    5.20    3.10
  -4  -8  -2   -1.40    1.80
  -4  -8  -2    1.50    2.70
   4   8   2    1.90    2.40
   4   8   2   -0.10    2.80
  -5  -8  -2  178.28   11.70
  -5  -8  -2  178.48   10.60
   5   8   2  185.78   13.00
   5   8   2  178.78   10.00
  -6  -8  -2  435.46   18.60
  -6  -8  -2  378.86   16.50
   6   8   2  416.76   20.20
   6   8   2  415.16   15.90
  -7  -8  -2   -1.80    2.40
  -7  -8  -2   -3.50    2.80
  -7  -8  -2   -3.00    2.30
   7   8   2   -1.20    4.10
  -8  -8  -2    1.00    2.90
  -8  -8  -2    1.60    3.70
  -8  -8  -2    4.40    3.40
   8   8   2   -7.00    3.40
  -9  -8  -2  331.77   17.70
  -9  -8  -2  307.17   13.60
   9   8   2  321.67   20.70
 -10  -8  -2  167.98   13.40
 -10  -8  -2  172.38   10.40
  10   8   2  166.68   16.60
  11   8   2   44.10   10.80
  11  -9  -2   39.20    9.10
  11  -9  -2   36.40    6.90
 -11   9   2   30.00    8.90
  10  -9  -2   64.39   10.60
  10  -9  -2   71.49    8.80
 -10   9   2   60.49   12.40
 -10   9   2   68.79    8.20
   9  -9  -2    6.60    3.30
   9  -9  -2   -3.40    2.90
  -9   9   2    5.60    6.40
  -9   9   2   -0.80    2.60
   8  -9  -2    0.20    4.20
   8  -9  -2   10.30    3.20
  -8   9   2    3.20    2.60
  -8   9   2    5.70    6.10
   7  -9  -2  230.28   14.50
   7  -9  -2  226.18    9.80
  -7   9   2  286.87   18.40
  -7   9   2  215.48    9.00
  -6   9   2   79.79   12.00
  -6   9   2   65.79    4.60
   5  -9  -2  190.58   12.50
  -5   9   2  180.48    6.70
  -5   9   2  175.38    6.90
  -5   9   2  184.48   14.00
   4  -9  -2   48.20    7.30
  -4   9   2   47.60    3.40
  -4   9   2   59.49   10.20
  -4   9   2   42.30    3.20
   3  -9  -2 1222.08   35.70
  -3   9   2 1211.78   37.90
  -3   9   2 1176.08   26.90
  -3   9   2 1144.29   26.80
   2  -9  -2  375.56   16.90
  -2   9   2  342.57   17.90
  -2   9   2  349.96   11.30
  -2   9   2  370.76   12.20
   1  -9  -2   -5.80    2.00
  -1   9   2    0.80    1.70
  -1   9   2    0.90    2.00
  -1   9   2    0.40    2.90
   0  -9  -2  117.79    9.50
   0  -9  -2  111.09    6.90
   0   9   2  108.89    9.40
   0   9   2  116.29    7.10
  -1  -9  -2 1468.35   40.10
  -1  -9  -2 1355.56   39.00
  -1  -9  -2 1368.96   36.20
   1   9   2 1420.46   40.30
   1   9   2 1475.35   36.80
  -2  -9  -2  269.27   13.70
  -2  -9  -2  293.27   16.90
  -2  -9  -2  282.27   13.00
   2   9   2  277.07   14.20
   2   9   2  284.27   13.30
  -3  -9  -2   85.79    7.80
  -3  -9  -2   90.39    8.00
  -3  -9  -2  109.39    9.30
   3   9   2   99.19    8.40
   3   9   2  108.29    9.00
  -4  -9  -2  477.15   19.20
  -4  -9  -2  536.65   21.10
   4   9   2  522.75   21.20
   4   9   2  505.75   19.20
  -5  -9  -2   12.70    4.80
  -5  -9  -2   11.50    4.50
   5   9   2   15.30    4.30
   5   9   2   11.70    5.70
  -6  -9  -2   24.40    5.80
  -6  -9  -2   27.90    5.80
   6   9   2   23.50    6.90
   6   9   2   25.00    5.20
  -7  -9  -2    0.20    2.60
  -7  -9  -2    1.70    3.90
  -7  -9  -2    1.00    2.80
   7   9   2   -2.30    4.10
  -8  -9  -2   93.89   12.00
  -8  -9  -2   80.59    7.30
   8   9   2   84.79   13.00
  -9  -9  -2  291.97   17.50
  -9  -9  -2  285.07   13.30
   9   9   2  289.07   20.30
 -10  -9  -2   -2.00    4.20
 -10  -9  -2    1.70    3.10
  10   9   2   -3.70    8.20
  10 -10  -2   -4.30    3.90
  10 -10  -2    2.00    3.10
 -10  10   2    0.60    5.40
 -10  10   2   -3.50    2.50
   9 -10  -2   24.30    4.70
   9 -10  -2   13.40    5.60
  -9  10   2   20.60    4.20
  -9  10   2   26.60    8.80
   8 -10  -2  148.89   12.80
   8 -10  -2  127.49    7.50
  -8  10   2   95.79   13.20
  -8  10   2  122.89    6.80
   7 -10  -2  398.76   19.90
  -7  10   2  353.76   11.40
  -7  10   2  384.26   22.40
   6 -10  -2    6.20    4.10
  -6  10   2   -1.30    4.20
  -6  10   2   -0.10    1.60
   5 -10  -2  218.08   14.00
  -5  10   2  207.68    6.90
  -5  10   2  208.98    6.80
  -5  10   2  195.18   15.20
   4 -10  -2    3.60    3.60
  -4  10   2    8.80    2.00
  -4  10   2    3.40    5.10
  -4  10   2    9.50    2.10
  -3  10   2  231.48   15.30
  -3  10   2  225.48    8.10
  -2  10   2   58.39    4.70
  -2  10   2   69.09   10.30
  -2  10   2   62.69    4.80
  -1  10   2    4.30    2.60
  -1  10   2    8.20    4.40
  -1  10   2    6.80    2.80
   0 -10  -2  194.48    9.70
   0 -10  -2  193.28   12.60
   0  10   2  181.58   21.30
   0  10   2  212.38   10.20
  -1 -10  -2   82.09    7.10
  -1 -10  -2   89.49   10.20
   1  10   2   81.59    7.50
   1  10   2  109.09    9.80
  -2 -10  -2  160.18   10.20
  -2 -10  -2  168.58   12.00
   2  10   2  180.38   12.00
   2  10   2  156.78   10.50
  -3 -10  -2   25.00    5.70
  -3 -10  -2   18.80    5.10
   3  10   2   16.80    5.30
   3  10   2   23.70    5.70
  -4 -10  -2  172.78   12.50
   4  10   2  168.18   11.10
   4  10   2  178.28   13.00
  -5 -10  -2  222.18   14.20
   5  10   2  218.68   15.10
   5  10   2  195.28   11.70
  -6 -10  -2  178.28   13.10
   6  10   2  190.98   14.80
   6  10   2  176.58   11.00
  -7 -10  -2  153.08   12.70
   7  10   2  156.38   10.10
   7  10   2  147.59   14.30
  -8 -10  -2   59.79    7.30
  -8 -10  -2   50.09    8.40
   8  10   2   73.49   12.50
  -9 -10  -2   14.70    6.10
   9  10   2   15.90    7.60
 -10 -10  -2   21.50    5.20
 -10 -10  -2   17.80    6.60
  10  10   2   17.30    7.70
   9 -11  -2   26.70    7.30
  -9  11   2   14.20    7.00
  -9  11   2   22.30    4.00
  -9  11   2   16.50    3.20
   8 -11  -2  180.08   14.40
  -8  11   2  113.39   14.80
  -8  11   2  160.08    7.20
   7 -11  -2   -1.20    3.70
  -7  11   2   -0.60    4.80
  -7  11   2    3.10    1.60
  -7  11   2    2.40    1.50
   6 -11  -2   23.40    7.10
  -6  11   2   21.40    2.10
  -6  11   2   18.00    7.30
  -6  11   2   21.80    2.20
   5 -11  -2  227.58   15.00
  -5  11   2  216.98    6.40
  -5  11   2  242.78   17.60
  -5  11   2  214.28    6.30
   4 -11  -2  221.98   14.60
  -4  11   2  215.18    7.20
  -4  11   2  217.68    7.40
  -4  11   2  251.87   17.30
   3 -11  -2  167.38   12.70
  -3  11   2  140.69   13.40
  -3  11   2  159.08    6.90
   2 -11  -2    1.10    3.20
  -2  11   2    4.60    2.30
  -2  11   2    3.70    2.40
  -2  11   2    1.80    4.20
   1 -11  -2    8.70    4.50
  -1  11   2   14.20    3.70
  -1  11   2   11.50    3.30
  -1  11   2   16.10    6.70
   0 -11  -2   11.30    5.20
   0  11   2    7.40    4.90
   0  11   2    6.30    3.40
   0  11   2    4.80    3.10
  -1 -11  -2   60.39    9.10
   1  11   2   66.39   10.30
   1  11   2   80.29    8.90
  -2 -11  -2   33.50    6.70
  -2 -11  -2   28.50    5.80
   2  11   2   39.60    7.30
   2  11   2   32.70    7.10
  -3 -11  -2  595.54   24.20
   3  11   2  553.24   22.70
   3  11   2  586.14   23.20
  -4 -11  -2   37.70    8.10
   4  11   2   40.30    6.90
   4  11   2   53.69    9.30
  -5 -11  -2  217.88   15.00
   5  11   2  221.68   13.00
   5  11   2  223.78   15.70
  -6 -11  -2   81.49   10.50
   6  11   2   87.69    9.80
   6  11   2   92.99   12.90
  -7 -11  -2   38.40    8.00
   7  11   2   44.20    9.70
   7  11   2   39.60    6.70
  -8 -11  -2   75.89   12.80
  -8 -11  -2   71.99    8.20
   8  11   2   67.69   11.90
  -9 -11  -2   70.79    8.30
  -9 -11  -2   66.59   10.90
   9  11   2   87.39   14.70
   8 -12  -2   54.59    9.50
  -8  12   2   62.89   13.60
   7 -12  -2   62.19   10.90
  -7  12   2   53.19   13.20
   6 -12  -2  196.48   14.90
  -6  12   2  219.88   18.40
   5 -12  -2   43.90    8.20
  -5  12   2   74.09   13.70
   4 -12  -2  228.58   15.40
  -4  12   2  235.38   17.90
  -4  12   2  212.18    7.00
  -4  12   2  214.58    7.10
   3 -12  -2   96.19   11.20
  -3  12   2  102.39    6.60
  -3  12   2  107.99   13.80
  -3  12   2   92.59    5.50
   2 -12  -2    2.00    3.80
  -2  12   2    2.60    2.30
  -2  12   2    5.60    2.70
  -2  12   2   11.50    5.90
   1 -12  -2   12.60    5.00
  -1  12   2   10.40    5.80
  -1  12   2   19.60    4.30
  -1  12   2   21.10    4.40
   0 -12  -2  129.29   11.90
   0  12   2  119.09   13.30
   0  12   2  125.09    9.10
   0  12   2  140.79    9.40
  -1 -12  -2    5.30    3.40
  -1 -12  -2    6.50    4.40
   1  12   2    2.20    3.60
   1  12   2    8.90    5.30
  -2 -12  -2  329.17   18.30
   2  12   2  326.77   18.00
   2  12   2  329.67   16.50
  -3 -12  -2   34.00    7.30
   3  12   2   46.60    8.60
   3  12   2   36.40    7.70
  -4 -12  -2  257.97   16.60
   4  12   2  254.97   15.10
   4  12   2  246.48   16.40
  -5 -12  -2  198.18   14.70
   5  12   2  206.38   15.70
   5  12   2  190.98   12.70
  -6 -12  -2   -3.20    3.20
   6  12   2   -2.10    4.50
   6  12   2   -0.50    3.30
  -7 -12  -2    1.10    5.10
   7  12   2    7.40    4.20
   7  12   2   -0.40    5.40
  -8 -12  -2  325.47   19.90
  -8 -12  -2  344.07   16.00
   8  12   2  297.37   21.60
   7 -13  -2   82.49   12.00
  -7  13   2   71.49   14.20
   6 -13  -2   77.59   11.80
  -6  13   2   52.59   11.30
   5 -13  -2    7.40    5.40
  -5  13   2    7.80    6.50
   4 -13  -2   76.29   11.60
  -4  13   2   68.39   13.00
  -4  13   2   65.19    3.30
  -4  13   2   63.89    3.30
   3 -13  -2    6.90    4.90
  -3  13   2   18.00    3.10
  -3  13   2   19.80    7.80
  -3  13   2   13.50    3.10
   2 -13  -2  213.98   15.20
  -2  13   2  181.68    9.10
  -2  13   2  178.68   15.80
  -2  13   2  172.98    9.00
   1 -13  -2  211.78   15.20
  -1  13   2  190.68   15.70
  -1  13   2  183.38   10.40
  -1  13   2  178.28   10.20
   0 -13  -2  232.38   16.00
   0  13   2  226.08   12.70
   0  13   2  241.18   12.70
   0  13   2  239.88   17.10
  -1 -13  -2    7.80    4.70
  -1 -13  -2    6.30    4.20
   1  13   2   21.60    7.60
   1  13   2   13.40    5.10
  -2 -13  -2    4.40    4.70
   2  13   2   -0.10    4.00
  -3 -13  -2  121.89   14.50
   3  13   2  117.69   11.30
   3  13   2  119.99   11.60
  -4 -13  -2   60.29   10.00
   4  13   2   61.69   10.20
   4  13   2   49.30    8.60
  -5 -13  -2    8.40    5.30
   5  13   2    8.30    4.40
   5  13   2    2.50    5.30
  -6 -13  -2   34.30    8.30
   6  13   2   26.10    6.50
   6  13   2   29.10    9.10
  -7 -13  -2  137.49   15.30
   7  13   2  139.89   16.90
   7  13   2  149.09   11.30
   5 -14  -2   39.20    9.00
  -5  14   2   50.69   10.90
   4 -14  -2   29.60    7.40
  -4  14   2   38.40   12.50
   3 -14  -2   71.09   10.60
  -3  14   2   63.29    5.70
  -3  14   2   72.59    5.00
  -3  14   2   75.99   12.90
   2 -14  -2   91.79   12.40
  -2  14   2   86.89   12.60
  -2  14   2   79.39    6.50
  -2  14   2   72.19    6.30
   1 -14  -2   69.49   10.50
  -1  14   2   72.09    7.20
  -1  14   2   75.19    7.30
  -1  14   2   67.69   11.60
   0 -14  -2    0.80    4.30
   0  14   2   -5.80    4.10
   0  14   2   -0.10    3.00
   0  14   2   -3.20    3.00
  -1 -14  -2    0.40    4.10
   1  14   2    8.60    6.60
   1  14   2    4.20    4.10
  -2 -14  -2  219.68   16.30
   2  14   2  221.18   16.30
   2  14   2  215.68   14.50
  -3 -14  -2   14.60    6.10
   3  14   2   11.30    5.90
   3  14   2   13.40    6.30
  -4 -14  -2    4.90    5.20
   4  14   2   -3.40    4.30
   4  14   2    0.90    4.30
  -5 -14  -2    2.70    5.00
   5  14   2    3.10    5.30
   5  14   2    1.30    4.00
   3 -15  -2   37.30    8.60
  -3  15   2   50.69    5.90
  -3  15   2   31.60    9.80
   2 -15  -2   52.19    9.90
  -2  15   2   45.30    5.80
  -2  15   2   22.30    9.30
  -2  15   2   35.10    5.10
   1 -15  -2   -3.80    4.10
  -1  15   2   -1.80    3.00
  -1  15   2   -3.40    5.00
  -1  15   2    1.60    4.00
   0 -15  -2   39.60    9.60
   0  15   2   25.00    8.40
   0  15   2   19.70    5.50
  -1 -15  -2  129.09   15.50
   1  15   2  144.99   11.70
   1  15   2  126.99   15.30
  -2 -15  -2   52.19    9.80
   2  15   2   39.10    8.20
   2  15   2   44.20    9.80
   0  14  -3   -1.00    4.50
   0  14  -3   -1.90    4.70
   0 -14   3   -3.40    3.70
  -1  14  -3   16.20    7.50
  -1  14  -3   11.00    5.60
   1 -14   3   23.10    7.10
  -2  14  -3   33.00    9.80
  -2  14  -3   37.70    7.90
   2 -14   3   39.70    8.00
   4  13  -3    1.80    5.40
   4  13  -3    4.30    3.70
  -4 -13   3   14.00    6.20
   3  13  -3   28.20    8.60
   3  13  -3   31.60    7.00
  -3 -13   3   21.20    7.10
   2  13  -3  116.79   13.80
   2  13  -3   93.89   11.90
  -2 -13   3  114.69   12.90
   1  13  -3   53.19    9.30
   1  13  -3   60.29   10.30
  -1 -13   3   65.39   10.10
   0  13  -3   72.09   10.40
   0  13  -3   65.29   10.20
   0 -13   3   74.89   10.30
  -1  13  -3   57.69   11.00
  -1  13  -3   50.29    8.70
   1 -13   3   57.59    9.20
  -2  13  -3   62.39   12.00
  -2  13  -3   63.29    9.30
   2 -13   3   55.69    8.70
  -3  13  -3   51.09    8.40
  -3  13  -3   43.70    9.80
   3 -13   3   56.39    8.90
  -4  13  -3   16.50    7.90
   4 -13   3   31.50    7.10
  -5  13  -3    0.10    5.30
  -5  13  -3    0.90    3.80
   5 -13   3   -0.30    3.90
  -6  13  -3    1.10    3.60
  -6  13  -3    0.80    5.50
   6 -13   3   -3.50    3.80
   6  12  -3   12.70    4.30
   6  12  -3   14.50    7.50
  -6 -12   3   15.40    6.60
   5  12  -3  141.49    9.80
   5  12  -3  167.18   16.10
  -5 -12   3  179.78   15.00
   4  12  -3  137.39   16.30
  -4 -12   3  131.09   12.70
   3  12  -3   -2.30    4.40
   3  12  -3    8.30    4.70
  -3 -12   3    4.90    4.60
   2  12  -3   21.00    6.20
   2  12  -3   22.70    7.10
  -2 -12   3   18.80    6.10
   1  12  -3  128.79   11.80
   1  12  -3  122.19   11.90
  -1 -12   3  140.99   12.30
   0  12  -3    0.20    3.90
   0  12  -3    2.10    4.40
   0 -12   3    2.90    4.60
  -1  12  -3   31.20    8.30
  -1  12  -3   27.30    6.90
   1 -12   3   38.30    7.30
  -2  12  -3    0.10    4.40
  -2  12  -3   -0.80    4.20
   2 -12   3    9.00    4.60
  -3  12  -3   88.79   10.40
  -3  12  -3   84.49   13.30
   3 -12   3  102.29   11.60
  -4  12  -3   -1.30    3.40
  -4  12  -3   -3.10    4.20
   4 -12   3   -4.80    3.00
  -5  12  -3   43.20    7.30
  -5  12  -3   41.80   11.10
   5 -12   3   44.50    7.90
  -6  12  -3   17.60    5.50
  -6  12  -3   21.00    7.80
   6 -12   3   18.50    6.10
  -7  12  -3  153.68   20.50
  -7  12  -3  172.18   11.80
   7 -12   3  135.99   11.50
   7  11  -3   10.50    7.50
  -7 -11   3   12.50    5.70
  -7 -11   3    7.00    3.70
  -7 -11   3   17.00    3.70
   6  11  -3  110.69   14.80
   6  11  -3   96.89    7.30
   5  11  -3   98.89    8.00
   5  11  -3  116.99   15.30
  -5 -11   3   94.79   11.70
  -5 -11   3   84.69    7.60
   4  11  -3  267.37   18.20
   4  11  -3  242.38   12.90
  -4 -11   3  240.48   12.60
  -4 -11   3  256.77   16.10
   3  11  -3   18.50    7.00
   3  11  -3    8.20    4.20
  -3 -11   3    9.00    4.90
   2  11  -3  455.75   22.10
  -2 -11   3  486.85   21.20
   1  11  -3   -3.60    3.50
   1  11  -3    1.50    3.70
  -1 -11   3    5.30    4.30
   0  11  -3    1.20    3.40
   0  11  -3    0.60    3.90
   0 -11   3    0.80    3.50
  -1  11  -3    9.10    5.30
  -1  11  -3    4.00    4.10
   1 -11   3    8.50    4.50
  -2  11  -3  116.29   10.10
  -2  11  -3  119.49   13.10
   2 -11   3  108.39   10.00
  -3  11  -3   16.90    6.30
  -3  11  -3   26.30    6.00
   3 -11   3   36.00    6.70
  -4  11  -3  107.89    9.40
  -4  11  -3  102.99   14.40
  -4  11  -3   88.79   10.10
   4 -11   3  103.79    9.80
  -5  11  -3  179.18   11.60
  -5  11  -3  204.08   12.60
  -5  11  -3  229.28   17.50
  -6  11  -3   58.19    8.10
  -6  11  -3   68.09    9.00
  -6  11  -3   71.29   13.20
  -7  11  -3   -2.90    4.70
  -7  11  -3    3.60    3.70
  -8  11  -3   -3.60    5.40
  -8  11  -3    1.70    3.80
   8 -11   3   -3.20    5.10
  -9  11  -3   63.59   13.80
   9 -11   3   65.09    8.90
   8  10  -3   36.40   10.00
  -8 -10   3   33.00    3.60
  -8 -10   3   31.50    4.10
  -8 -10   3   42.60    9.10
   7  10  -3  117.39   16.10
  -7 -10   3   83.39    6.10
  -7 -10   3   72.19   11.90
  -7 -10   3   80.29    5.50
   6  10  -3  169.58   15.60
   6  10  -3  164.98    8.70
  -6 -10   3  150.68    8.50
  -6 -10   3  176.88   13.90
   5  10  -3  143.59   14.30
   5  10  -3  127.99    8.30
  -5 -10   3  133.29    8.40
  -5 -10   3  140.19   12.40
   4  10  -3  118.59    8.60
   4  10  -3  136.49   15.30
  -4 -10   3  119.29    8.50
  -4 -10   3  145.59   11.90
   3  10  -3  199.18   14.80
   3  10  -3  183.98   11.10
  -3 -10   3  197.08   13.30
  -3 -10   3  171.58   10.40
   2  10  -3    3.00    3.80
   2  10  -3    5.90    4.70
  -2 -10   3    4.20    3.70
  -2 -10   3   10.70    4.40
   1  10  -3   16.90    5.50
   1  10  -3    5.90    4.30
  -1 -10   3   17.80    5.40
   0  10  -3   14.80    5.10
   0  10  -3    8.00    5.80
   0 -10   3   16.00    5.20
  -1  10  -3  226.18   14.70
  -1  10  -3  246.48   13.90
   1 -10   3  246.18   13.70
  -2  10  -3    7.40    3.70
  -2  10  -3    1.60    3.30
  -2  10  -3    6.00    5.10
   2 -10   3   -1.70    2.80
  -3  10  -3    4.00    3.40
  -3  10  -3    1.00    4.00
  -3  10  -3    4.30    3.40
   3 -10   3    9.40    4.00
  -4  10  -3   20.10    5.10
  -4  10  -3   15.70    7.10
  -4  10  -3   14.40    4.80
   4 -10   3   11.50    4.40
  -5  10  -3  184.88   11.40
  -5  10  -3  223.18   12.70
  -5  10  -3  199.58   16.00
   5 -10   3  212.78   12.20
  -6  10  -3   74.59    9.40
  -6  10  -3   68.39    8.50
  -6  10  -3   82.89   13.10
   6 -10   3   78.49    8.90
  -7  10  -3   78.09    9.10
  -7  10  -3   90.99    9.00
  -7  10  -3  107.49   15.20
   7 -10   3   89.99    8.70
  -8  10  -3  103.29   13.70
  -8  10  -3  118.69   10.20
   8 -10   3  118.09   10.60
   8 -10   3  129.09   10.00
  -9  10  -3   59.59   12.00
   9 -10   3   79.99   15.60
   9 -10   3   74.09    9.00
 -10  10  -3   25.70    9.50
  10 -10   3   25.10    6.20
  10 -10   3   11.70    5.70
   9   9  -3    4.90    6.30
  -9  -9   3    4.30    5.40
   8   9  -3   30.50    9.40
  -8  -9   3   26.10    3.40
  -8  -9   3   30.40   11.20
   7   9  -3  103.19   13.60
  -7  -9   3  110.59    6.20
  -7  -9   3  115.69    6.00
  -7  -9   3  130.69   14.30
   6   9  -3    2.20    4.80
  -6  -9   3    2.70    2.20
  -6  -9   3    1.30    4.10
   5   9  -3   10.00    6.00
   5   9  -3    0.80    2.60
  -5  -9   3    5.20    2.80
  -5  -9   3    1.00    3.90
   4   9  -3  402.26   15.10
   4   9  -3  385.76   20.30
  -4  -9   3  396.36   18.40
  -4  -9   3  384.26   14.60
   3   9  -3  256.57   15.80
   3   9  -3  250.57   12.30
  -3  -9   3  245.18   11.70
  -3  -9   3  265.07   14.50
   2   9  -3    0.90    3.60
   2   9  -3    1.20    3.00
  -2  -9   3   -2.30    2.40
  -2  -9   3   -1.70    3.20
   1   9  -3    6.40    3.70
   1   9  -3    1.30    3.40
  -1  -9   3    0.20    2.80
  -1  -9   3   -0.10    2.80
   0   9  -3  339.47   16.30
   0   9  -3  320.47   16.60
   0   9  -3  380.36   17.20
   0  -9   3  344.47   15.40
   0  -9   3  341.07   15.60
  -1   9  -3   72.79   10.10
  -1   9  -3   56.89    7.90
  -1   9  -3   55.89    8.10
   1  -9   3   63.79    7.90
  -2   9  -3   31.40    5.80
  -2   9  -3   17.40    6.20
  -2   9  -3   21.60    5.20
  -2   9  -3   26.10    5.80
   2  -9   3   17.10    4.30
  -3   9  -3    6.10    4.30
  -3   9  -3    9.70    3.80
  -3   9  -3    9.10    3.70
  -3   9  -3   12.40    3.90
   3  -9   3    8.90    3.70
  -4   9  -3  187.28   10.80
  -4   9  -3  180.98   11.00
  -4   9  -3  201.08   11.70
  -4   9  -3  200.88   14.50
   4  -9   3  195.58   11.10
  -5   9  -3   37.00    6.40
  -5   9  -3   39.40    8.50
  -5   9  -3   36.20    6.10
   5  -9   3   38.80    6.30
   5  -9   3   31.00    5.50
  -6   9  -3   70.99   11.40
  -6   9  -3   67.79    8.50
  -6   9  -3   73.29    7.40
   6  -9   3   64.49    7.80
   6  -9   3   72.89    6.60
  -7   9  -3   82.39   13.20
  -7   9  -3   67.59    8.30
   7  -9   3   80.29    6.80
   7  -9   3   85.09   10.20
   7  -9   3   79.19    8.70
  -8   9  -3  145.29   16.70
   8  -9   3  151.48    8.90
   8  -9   3  153.68   10.60
   8  -9   3  162.18   11.90
  -9   9  -3   44.30   10.10
   9  -9   3   37.20    5.40
   9  -9   3   51.09    7.40
 -10   9  -3   -0.30    6.20
  10  -9   3    2.80    3.70
  10  -9   3   -4.60    3.00
  10   8  -3   -2.40    5.50
 -10  -8   3   -3.70    4.40
  -9  -8   3   93.49   16.10
   8   8  -3  329.77   21.30
  -8  -8   3  279.37   11.80
  -8  -8   3  297.17   10.90
  -8  -8   3  313.97   18.10
   7   8  -3   18.40    7.50
  -7  -8   3   22.50    3.00
  -7  -8   3   21.10    6.50
  -7  -8   3   29.00    3.70
   6   8  -3  131.59   15.40
  -6  -8   3  121.69    6.20
  -6  -8   3  112.79    6.60
  -6  -8   3  116.29   12.50
   5   8  -3  171.38   13.90
   5   8  -3  177.68    8.30
  -5  -8   3  185.78   12.60
  -5  -8   3  186.18    8.60
   4   8  -3  110.09    7.10
   4   8  -3  133.49   11.90
  -4  -8   3  129.39    7.50
  -4  -8   3  118.89    9.90
   3   8  -3    0.30    2.20
   3   8  -3   -1.40    3.10
  -3  -8   3   -1.00    2.70
  -3  -8   3   -4.00    2.20
   2   8  -3   17.20    5.00
   2   8  -3   20.60    4.50
  -2  -8   3   24.30    4.50
  -2  -8   3   24.30    5.60
   1   8  -3  251.57   13.70
   1   8  -3  244.98   12.30
  -1  -8   3  220.18   11.10
  -1  -8   3  212.58   12.60
  -1  -8   3  250.07   12.50
   0   8  -3  124.09    9.50
   0   8  -3  113.29    9.10
   0   8  -3  102.39    8.40
   0   8  -3   95.79    8.30
   0  -8   3  118.19    8.60
   0  -8   3  114.39    8.10
  -1   8  -3    1.60    2.50
  -1   8  -3    1.00    2.50
  -1   8  -3   -1.70    2.50
  -1   8  -3    4.10    2.80
   1  -8   3    2.90    2.60
   1  -8   3   -1.30    2.60
  -2   8  -3   15.20    5.40
  -2   8  -3    5.50    3.10
  -2   8  -3    4.50    2.80
  -2   8  -3   13.50    4.30
   2  -8   3    6.50    3.20
  -3   8  -3  654.33   21.50
  -3   8  -3  700.33   25.30
  -3   8  -3  620.54   21.70
  -3   8  -3  647.64   22.00
   3  -8   3  632.74   20.80
  -4   8  -3    0.30    2.50
  -4   8  -3    0.80    2.10
  -4   8  -3   -0.40    3.40
  -4   8  -3   -0.30    2.30
   4  -8   3    0.00    2.20
  -5   8  -3  230.68   15.20
  -5   8  -3  229.48   13.80
  -5   8  -3  254.17   12.80
   5  -8   3  243.88   11.70
   5  -8   3  248.68   11.20
  -6   8  -3   29.30    5.70
  -6   8  -3   16.20    6.00
   6  -8   3   23.00    4.70
   6  -8   3   26.40    4.30
   6  -8   3   28.40    6.00
  -7   8  -3  171.18   10.90
  -7   8  -3  201.18   15.30
   7  -8   3  191.58   10.70
   7  -8   3  194.08   12.30
   7  -8   3  174.68    9.20
  -8   8  -3    0.40    5.40
  -8   8  -3    7.60    4.90
   8  -8   3   15.20    3.80
   8  -8   3    7.70    4.30
   8  -8   3   10.10    3.80
  -9   8  -3   47.60    9.90
   9  -8   3   44.10    8.90
   9  -8   3   49.30    7.10
   9  -8   3   39.70    5.10
 -10   8  -3   81.49   13.00
  10  -8   3   81.19    6.80
  10  -8   3   78.89   10.70
  10  -8   3   89.49    9.60
 -11   8  -3    2.10    5.30
  11  -8   3    4.40    4.80
  11  -8   3   -0.90    3.40
  10   7  -3   86.39   13.80
 -10  -7   3   84.89   12.00
   9   7  -3  229.78   18.50
  -9  -7   3  214.38   15.50
  -9  -7   3  211.18    6.30
  -9  -7   3  217.18    6.30
   8   7  -3   33.80    8.80
  -8  -7   3   34.40    3.10
  -8  -7   3   24.80    6.80
   7   7  -3  220.48   16.60
  -7  -7   3  231.98   14.30
  -7  -7   3  192.38    7.60
   6   7  -3  551.44   24.80
  -6  -7   3  550.94   21.80
  -6  -7   3  553.74   14.60
  -6  -7   3  509.95   15.10
   5   7  -3  292.17   17.10
   5   7  -3  294.47   10.10
  -5  -7   3  282.57   14.80
  -5  -7   3  277.67   10.20
   4   7  -3  140.29   11.70
   4   7  -3  123.69    6.80
  -4  -7   3  133.39    7.00
  -4  -7   3  122.59    9.60
   3   7  -3   19.10    5.30
   3   7  -3   21.50    4.10
  -3  -7   3   18.10    4.30
  -3  -7   3   32.20    4.40
   2   7  -3  403.86   17.40
   2   7  -3  340.07   13.40
   2   7  -3  340.57   16.00
  -2  -7   3  363.66   15.00
  -2  -7   3  352.76   16.30
  -2  -7   3  363.66   13.10
   1   7  -3   30.80    5.30
   1   7  -3   33.80    5.40
   1   7  -3   36.20    5.40
  -1  -7   3   35.10    5.80
  -1  -7   3   39.30    5.90
  -1  -7   3   32.40    4.90
   0   7  -3    0.50    2.50
   0   7  -3    2.00    2.60
   0   7  -3    1.40    2.60
   0   7  -3    0.60    2.50
   0  -7   3    0.20    2.20
   0  -7   3    2.70    2.50
   0  -7   3    0.40    2.30
  -1   7  -3  287.07   13.60
  -1   7  -3  314.47   13.70
  -1   7  -3  311.47   14.10
  -1   7  -3  297.37   13.10
   1  -7   3  292.17   12.40
  -2   7  -3   74.99    6.40
  -2   7  -3   68.99    6.60
  -2   7  -3   82.49    7.00
  -2   7  -3   61.59    7.40
   2  -7   3   72.89    7.80
   2  -7   3   74.29    6.20
  -3   7  -3   80.39    6.90
  -3   7  -3   83.99    9.40
  -3   7  -3   74.59    6.60
  -3   7  -3   69.89    6.00
   3  -7   3   75.39    8.50
   3  -7   3   72.69    6.10
  -4   7  -3  211.78   10.80
  -4   7  -3  200.48    9.70
  -4   7  -3  209.88   11.00
  -4   7  -3  208.98   12.90
   4  -7   3  213.08   10.10
  -5   7  -3    6.10    3.00
  -5   7  -3    3.10    3.90
   5  -7   3    1.40    2.60
   5  -7   3    3.10    2.10
   5  -7   3    1.30    2.20
  -6   7  -3  126.29   11.50
   6  -7   3  148.19   10.20
   6  -7   3  141.39    8.60
   6  -7   3  147.09    7.80
  -7   7  -3   22.20    5.00
  -7   7  -3   20.00    6.50
   7  -7   3   23.80    5.60
   7  -7   3   27.80    5.00
   7  -7   3   26.60    4.10
  -8   7  -3  223.58   16.20
  -8   7  -3  216.28   12.60
   8  -7   3  240.38   14.00
   8  -7   3  213.68    9.60
   8  -7   3  229.48   11.60
  -9   7  -3  100.09   14.00
   9  -7   3  101.19   10.20
   9  -7   3  102.59    8.60
   9  -7   3  102.29    8.50
 -10   7  -3    0.40    5.30
  10  -7   3    0.20    3.10
  10  -7   3    3.40    4.10
  10  -7   3   -0.10    2.40
 -11   7  -3   76.99   12.50
  11  -7   3   77.99    9.20
  11  -7   3   83.99   11.60
 -12   7  -3   85.59   13.10
  12  -7   3  109.59   14.30
  12  -7   3  101.89   10.90
  11   6  -3   86.09   14.00
 -11  -6   3  103.59   12.80
  10   6  -3  292.67   21.00
 -10  -6   3  250.67   16.90
 -10  -6   3  245.98    7.10
 -10  -6   3  250.47    7.00
   9   6  -3   29.90    8.50
  -9  -6   3   31.60    3.00
  -9  -6   3   26.30    3.20
  -9  -6   3   35.60    7.90
   8   6  -3  144.89   14.20
  -8  -6   3  144.29    5.50
  -8  -6   3  150.08   12.20
   7   6  -3   50.89    8.80
  -7  -6   3   59.79    3.70
  -7  -6   3   60.69    8.60
   6   6  -3  187.08   14.10
  -6  -6   3  165.58   11.50
  -6  -6   3  170.58    6.30
  -6  -6   3  168.48    6.80
   5   6  -3  536.65   22.70
  -5  -6   3  511.85   19.80
  -5  -6   3  540.05   14.70
   4   6  -3  277.37    9.50
   4   6  -3  287.97   15.50
  -4  -6   3  271.67   13.20
  -4  -6   3  271.57    9.60
   3   6  -3  227.68   13.10
   3   6  -3  223.88   11.80
   3   6  -3  236.68    9.30
  -3  -6   3  220.58   12.50
  -3  -6   3  223.28    8.80
  -3  -6   3  236.78   11.60
   2   6  -3   54.69    6.30
   2   6  -3   69.99    5.40
   2   6  -3   78.89    9.30
  -2  -6   3   65.19    4.90
  -2  -6   3   67.39    6.40
  -2  -6   3   63.49    7.40
   1   6  -3   51.19    5.90
   1   6  -3   46.90    6.10
   1   6  -3   46.30    6.30
  -1  -6   3   54.19    6.30
  -1  -6   3   42.20    6.20
  -1  -6   3   51.99    5.40
   0   6  -3   64.19    7.50
   0   6  -3   47.20    5.90
   0   6  -3   52.09    6.30
   0  -6   3   47.80    5.80
   0  -6   3   57.19    6.00
   0  -6   3   55.29    5.40
  -1   6  -3  319.87   12.90
  -1   6  -3  343.37   14.00
  -1   6  -3  329.97   13.80
  -1   6  -3  355.06   14.40
   1  -6   3  350.36   12.80
   1  -6   3  329.47   13.40
  -2   6  -3   61.79    5.90
  -2   6  -3   65.69    7.80
  -2   6  -3   78.29    6.50
  -2   6  -3   64.49    5.50
   2  -6   3   67.49    6.20
   2  -6   3   67.99    5.50
  -3   6  -3  116.29    6.90
  -3   6  -3  132.29    8.30
  -3   6  -3  112.69    8.60
  -3   6  -3  127.79    8.00
   3  -6   3  135.89    8.60
   3  -6   3  118.79    6.90
  -4   6  -3   24.50    5.40
  -4   6  -3   22.50    4.40
   4  -6   3   25.30    3.80
   4  -6   3   15.30    3.90
   4  -6   3   20.30    4.10
   4  -6   3   22.30    3.90
  -5   6  -3   71.59    9.50
  -5   6  -3   59.89    7.00
   5  -6   3   62.79    5.40
   5  -6   3   60.19    7.60
   5  -6   3   63.69    4.90
  -6   6  -3   22.10    6.30
  -6   6  -3   30.50    5.30
   6  -6   3   25.70    4.20
   6  -6   3   33.50    4.00
   6  -6   3   28.50    5.30
  -7   6  -3  476.45   21.60
  -7   6  -3  452.45   17.90
   7  -6   3  492.45   19.50
   7  -6   3  454.65   14.50
   7  -6   3  504.15   16.70
  -8   6  -3   58.69    8.10
  -8   6  -3   82.29   11.80
   8  -6   3   63.29    6.90
   8  -6   3   76.99    9.60
   8  -6   3   62.29    5.20
  -9   6  -3  124.69   14.90
   9  -6   3  141.99   11.40
   9  -6   3  118.09    7.30
   9  -6   3  138.59    9.10
 -10   6  -3  257.67   17.80
  10  -6   3  266.77   16.30
  10  -6   3  212.58   10.30
  10  -6   3  222.98   12.20
 -11   6  -3  112.59   14.80
  11  -6   3  145.29   10.30
  11  -6   3  103.59    7.80
  11  -6   3  151.38   13.40
 -12   6  -3   12.90    7.70
  12  -6   3    6.10    4.20
  12  -6   3    9.20    5.70
  11   5  -3  176.28   17.50
 -11  -5   3  159.68    9.90
 -11  -5   3  202.18   24.00
  10   5  -3    2.20    5.00
 -10  -5   3    5.60    5.00
 -10  -5   3    2.60    2.00
   9   5  -3  296.07   19.90
  -9  -5   3  271.67   16.00
  -9  -5   3  276.77    9.50
  -9  -5   3  246.38   10.30
   8   5  -3   43.80    9.30
  -8  -5   3   37.80    7.30
  -8  -5   3   42.10    3.50
   7   5  -3   91.19   11.80
  -7  -5   3  106.89    9.70
  -7  -5   3  100.49    4.60
  -7  -5   3  107.59    6.00
   6   5  -3  137.79   11.60
  -6  -5   3  113.69    4.60
  -6  -5   3  113.29    9.30
  -6  -5   3  120.69    5.20
   5   5  -3  674.73   25.30
  -5  -5   3  665.63   15.90
  -5  -5   3  662.63   16.60
  -5  -5   3  675.73   22.50
   4   5  -3   53.29    3.40
   4   5  -3   50.69    7.80
   4   5  -3   45.30    5.80
  -4  -5   3   66.49    8.70
  -4  -5   3   47.90    6.20
   3   5  -3  147.49   10.10
   3   5  -3  163.58    9.40
  -3  -5   3  147.49    6.30
  -3  -5   3  149.09    9.70
  -3  -5   3  151.38    8.90
   2   5  -3  282.87   12.10
   2   5  -3  307.87   10.40
   2   5  -3  292.27   13.50
  -2  -5   3  293.17   11.90
  -2  -5   3  274.77   13.00
  -2  -5   3  282.27    9.70
   1   5  -3   18.80    3.40
   1   5  -3   15.10    3.50
   1   5  -3   16.40    3.90
  -1  -5   3   12.60    3.40
  -1  -5   3   14.60    3.20
  -1  -5   3   13.00    3.20
   0   5  -3   52.39    6.00
   0   5  -3   44.90    5.30
   0   5  -3   39.80    4.80
   0  -5   3   35.30    4.70
   0  -5   3   61.19    6.50
   0  -5   3   54.49    4.80
  -1   5  -3   11.40    2.80
  -1   5  -3    6.70    3.00
  -1   5  -3    5.20    2.90
  -1   5  -3   11.20    3.20
   1  -5   3    7.90    2.50
   1  -5   3   24.70    5.30
  -2   5  -3  333.57   13.80
  -2   5  -3  351.36   13.50
  -2   5  -3  364.46   13.60
  -2   5  -3  341.17   12.00
   2  -5   3  343.17   13.20
   2  -5   3  340.97   11.60
  -3   5  -3  120.19    7.50
  -3   5  -3  112.89    6.10
  -3   5  -3  129.19    8.50
   3  -5   3  123.29    6.30
   3  -5   3  111.89    7.60
   3  -5   3  116.19    7.50
  -4   5  -3   69.69    8.30
  -4   5  -3   60.29    5.70
   4  -5   3   70.99    6.20
   4  -5   3   73.39    5.00
   4  -5   3   61.99    4.40
   4  -5   3   75.39    7.90
  -5   5  -3    3.80    3.30
  -5   5  -3    2.50    2.40
   5  -5   3    6.50    2.30
   5  -5   3    0.10    2.00
   5  -5   3    5.80    3.00
   5  -5   3    5.60    1.90
  -6   5  -3 1206.78   35.30
  -6   5  -3 1118.79   31.80
   6  -5   3 1155.48   29.20
   6  -5   3 1148.99   27.60
   6  -5   3 1158.98   32.90
  -7   5  -3   25.90    5.10
  -7   5  -3   12.10    4.70
   7  -5   3   23.50    5.30
   7  -5   3   30.30    4.50
   7  -5   3   20.20    3.20
  -8   5  -3   37.60    6.40
  -8   5  -3   58.19    9.70
   8  -5   3   42.10    4.70
   8  -5   3   46.30    8.00
   8  -5   3   40.50    5.70
  -9   5  -3    6.20    5.30
   9  -5   3   11.00    3.10
   9  -5   3   13.60    5.10
   9  -5   3    8.40    3.50
 -10   5  -3  327.87   19.50
  10  -5   3  315.27   17.80
  10  -5   3  308.87   14.10
  10  -5   3  287.07   12.00
 -11   5  -3    5.40    3.20
 -11   5  -3    6.80    5.90
  11  -5   3    0.60    2.70
  11  -5   3    2.50    4.30
 -12   5  -3   31.90    8.60
 -12   5  -3   31.20    6.70
  12  -5   3   31.00    8.30
  12   4  -3   22.90    8.70
 -12  -4   3   25.80    4.80
 -12  -4   3   27.40    7.60
 -12  -4   3   23.10    3.70
  11   4  -3    2.80    5.80
 -11  -4   3    0.90    2.10
 -11  -4   3   -0.70    4.40
 -11  -4   3   -0.80    2.00
  10   4  -3  260.57   19.20
 -10  -4   3  242.28    9.70
 -10  -4   3  269.57    9.80
 -10  -4   3  276.67   16.40
   9   4  -3  106.59   14.30
  -9  -4   3   92.99    5.50
  -9  -4   3   99.49   11.30
  -9  -4   3   90.19    5.50
   8   4  -3   50.49    9.30
  -8  -4   3   46.30    3.80
  -8  -4   3   54.59    8.30
   7   4  -3  142.19   12.20
  -7  -4   3  149.29   10.80
  -7  -4   3  139.29    5.60
  -7  -4   3  123.59    7.30
  -6  -4   3 1013.90   23.20
  -6  -4   3 1021.20   22.60
   5   4  -3  528.65   20.90
  -5  -4   3  507.35   12.10
  -5  -4   3  495.45   12.70
  -5  -4   3  517.05   18.40
   4   4  -3  343.17   15.60
   4   4  -3  331.07   13.80
  -4  -4   3  339.57    9.10
  -4  -4   3  336.37    8.70
  -4  -4   3  326.67   13.40
   3   4  -3  813.82   25.60
   3   4  -3  799.12   23.60
   3   4  -3  830.62   19.10
  -3  -4   3  851.71   23.60
  -3  -4   3  795.92   25.30
  -3  -4   3  827.42   19.10
   2   4  -3   94.09    4.70
   2   4  -3   93.79    7.40
   2   4  -3  100.09    6.50
  -2  -4   3   87.69    4.60
  -2  -4   3   90.79    6.20
  -2  -4   3   90.99    6.90
   1   4  -3  232.08   10.80
   1   4  -3  229.78    9.50
  -1  -4   3  230.38   10.60
  -1  -4   3  221.38    9.20
  -1  -4   3  226.48    8.00
   0   4  -3    8.20    2.80
   0   4  -3    8.40    2.40
   0   4  -3    8.40    2.40
   0  -4   3    7.10    2.10
   0  -4   3    5.10    2.30
   0  -4   3    9.50    2.40
  -1   4  -3  281.07   10.00
  -1   4  -3  284.97   11.40
  -1   4  -3  277.67   11.50
  -1   4  -3  280.67   10.70
   1  -4   3  286.37   10.40
   1  -4   3  297.87    9.70
  -2   4  -3  674.83   20.00
  -2   4  -3  702.73   20.20
  -2   4  -3  676.23   17.80
   2  -4   3  665.33   20.20
   2  -4   3  653.13   18.60
   2  -4   3  676.13   19.20
  -3   4  -3  171.98    8.70
  -3   4  -3  181.28    7.00
  -3   4  -3  158.38    9.10
   3  -4   3  191.98    9.30
   3  -4   3  191.88    7.20
   3  -4   3  183.58    8.90
  -4   4  -3    0.00    2.00
  -4   4  -3    1.10    2.50
   4  -4   3   -0.30    1.30
   4  -4   3    2.30    1.70
   4  -4   3    1.70    2.30
   4  -4   3   -0.20    2.00
  -5   4  -3  720.03   22.20
  -5   4  -3  757.72   24.40
   5  -4   3  733.83   23.00
   5  -4   3  755.42   27.50
   5  -4   3  762.82   19.60
   5  -4   3  759.82   18.50
  -6   4  -3    4.50    2.60
  -6   4  -3    4.50    3.80
   6  -4   3    3.30    2.70
   6  -4   3    2.80    1.60
   6  -4   3    5.80    2.20
   6  -4   3    0.80    2.70
  -7   4  -3   32.80    6.60
  -7   4  -3   39.60    6.00
   7  -4   3   39.40    3.70
   7  -4   3   37.70    6.40
   7  -4   3   49.20    5.10
  -8   4  -3   71.99    5.90
  -8   4  -3   77.59    7.70
  -8   4  -3   63.79    8.70
   8  -4   3   82.19    9.80
   8  -4   3   65.59    5.00
  -9   4  -3  171.18   14.00
  -9   4  -3  188.28    9.70
   9  -4   3  162.38   12.40
   9  -4   3  165.18    8.30
 -10   4  -3    8.00    7.00
 -10   4  -3    8.20    3.40
  10  -4   3    5.80    2.70
  10  -4   3    7.80    5.00
 -11   4  -3   91.19   12.70
 -11   4  -3   88.89    8.00
  11  -4   3   59.99    6.90
  11  -4   3   67.89   10.80
 -12   4  -3  133.89   17.40
 -12   4  -3  170.68   15.70
  12  -4   3  165.28   15.10
 -13   4  -3   51.59    7.60
 -13   4  -3   57.59   10.60
  13  -4   3   70.09   12.70
  12   3  -3   35.50   10.20
 -12  -3   3   35.40    8.70
 -12  -3   3   50.19    6.00
 -12  -3   3   38.70    5.40
  11   3  -3  256.37   19.40
 -11  -3   3  202.98    9.80
 -11  -3   3  250.17   10.50
 -11  -3   3  231.98   15.50
  10   3  -3   78.29   12.20
 -10  -3   3   77.19    9.40
 -10  -3   3   78.49    5.70
 -10  -3   3   70.99    5.80
   9   3  -3  329.87   19.70
  -9  -3   3  320.87   11.50
  -9  -3   3  311.97   11.20
  -9  -3   3  315.87   16.50
   8   3  -3   28.00    7.20
  -8  -3   3   28.10    3.70
  -8  -3   3   28.10    6.40
  -8  -3   3   30.20    3.90
   7   3  -3  685.23   26.40
  -7  -3   3  675.43   17.60
  -7  -3   3  712.23   17.50
  -7  -3   3  705.33   23.60
   6   3  -3  288.07   15.30
  -6  -3   3  297.17    8.80
  -6  -3   3  291.97    8.50
  -6  -3   3  287.27   13.50
   5   3  -3   79.59    9.40
   5   3  -3   63.19    6.00
  -5  -3   3   52.89    7.00
  -5  -3   3   67.09    3.20
  -5  -3   3   73.29    7.80
  -5  -3   3   63.59    3.00
   4   3  -3 2581.44   61.59
  -4  -3   3 2569.34   51.59
  -4  -3   3 2565.04   51.99
  -4  -3   3 2549.65   58.39
   3   3  -3   66.79    5.40
   3   3  -3   73.69    6.70
  -3  -3   3   58.79    2.60
  -3  -3   3   62.99    6.00
  -3  -3   3   59.69    5.30
   2   3  -3  206.98    6.20
   2   3  -3  201.08    8.60
  -2  -3   3  195.48    8.40
  -2  -3   3  189.38    9.50
  -2  -3   3  198.68    5.90
   1   3  -3  231.18    7.50
   1   3  -3  223.58    8.70
   1   3  -3  238.08   10.30
  -1  -3   3  234.68    7.20
  -1  -3   3  227.68   10.00
  -1  -3   3  227.68    8.60
   0   3  -3   48.40    3.70
   0   3  -3   49.90    3.90
   0   3  -3   50.69    4.80
   0  -3   3   47.20    4.50
   0  -3   3   44.00    3.60
   0  -3   3   50.79    3.60
  -1   3  -3   51.69    4.10
  -1   3  -3   46.90    4.10
  -1   3  -3   52.29    4.70
  -1   3  -3   50.49    4.70
   1  -3   3   50.39    4.00
   1  -3   3   52.79    3.50
  -2   3  -3    4.80    2.30
  -2   3  -3    8.40    1.80
  -2   3  -3    9.80    2.70
   2  -3   3    6.70    1.60
   2  -3   3    8.20    2.50
   2  -3   3    6.30    2.30
  -3   3  -3  293.57   11.20
  -3   3  -3  306.87   11.70
   3  -3   3  294.47    8.60
   3  -3   3  303.07   11.60
   3  -3   3  293.77    8.40
   3  -3   3  295.57   11.20
  -4   3  -3  762.22   22.60
  -4   3  -3  759.22   21.80
   4  -3   3  759.52   21.90
   4  -3   3  770.82   18.30
   4  -3   3  741.53   21.90
   4  -3   3  749.73   17.50
  -5   3  -3  754.42   22.60
  -5   3  -3  776.42   23.80
   5  -3   3  765.32   19.00
   5  -3   3  766.82   22.90
   5  -3   3  764.62   18.20
   5  -3   3  779.82   23.40
  -6   3  -3  135.29    8.70
  -6   3  -3  121.79    9.20
  -6   3  -3  151.08    6.80
   6  -3   3  149.69    6.10
   6  -3   3  141.39    8.60
   6  -3   3  150.98    9.50
  -7   3  -3  766.42   24.70
  -7   3  -3  789.22   26.00
  -7   3  -3  737.03   20.80
   7  -3   3  791.32   20.10
   7  -3   3  824.62   26.30
  -8   3  -3  679.13   33.70
  -8   3  -3  730.93   21.00
  -8   3  -3  713.73   24.60
   8  -3   3  787.12   26.70
   8  -3   3  735.53   19.90
  -9   3  -3   13.40    5.40
  -9   3  -3   12.10    3.50
   9  -3   3   19.50    5.70
   9  -3   3   20.00    3.80
 -10   3  -3  193.58   10.40
 -10   3  -3  186.38   14.10
  10  -3   3  162.88    9.00
  10  -3   3  175.18   13.90
 -11   3  -3  100.09   12.00
 -11   3  -3  129.29    9.20
  11  -3   3  106.09    8.10
  11  -3   3  131.99   13.00
 -12   3  -3  183.78   15.50
 -12   3  -3  186.68   13.60
  12  -3   3  205.68   16.40
 -13   3  -3   10.60    6.80
 -13   3  -3    5.60    4.00
  13  -3   3    8.80    6.10
  12   2  -3  213.98   19.70
 -12  -2   3  199.28   14.80
 -12  -2   3  166.68   10.30
 -12  -2   3  172.58    9.90
  11   2  -3   48.60   10.40
 -11  -2   3   45.00    5.70
 -11  -2   3   49.90    9.20
 -11  -2   3   43.70    6.10
  10   2  -3   16.90    7.00
 -10  -2   3   10.50    4.80
 -10  -2   3   10.50    3.20
 -10  -2   3   21.10    4.50
   9   2  -3   28.20    8.10
  -9  -2   3   17.10    5.40
  -9  -2   3   24.30    4.40
  -9  -2   3   24.30    4.00
   8   2  -3  601.84   25.30
  -8  -2   3  590.24   16.70
  -8  -2   3  609.14   22.00
  -8  -2   3  589.14   17.00
   7   2  -3  108.69   10.60
  -7  -2   3  126.89    5.80
  -7  -2   3  119.19   10.70
  -7  -2   3  118.19    6.00
   6   2  -3   98.69    7.50
   6   2  -3  109.59    9.40
  -6  -2   3  107.39    7.90
  -6  -2   3   94.99    8.40
  -6  -2   3  107.19    4.90
   5   2  -3  735.23   23.10
   5   2  -3  834.32   26.30
  -5  -2   3  831.92   18.40
  -5  -2   3  786.22   25.70
  -5  -2   3  812.52   23.80
  -5  -2   3  843.32   18.50
   4   2  -3 2348.07   55.59
   4   2  -3 2496.55   58.69
  -4  -2   3 2454.65   55.99
  -4  -2   3 2474.15   49.90
  -4  -2   3 2557.24   49.80
   3   2  -3  210.78    9.00
  -3  -2   3  206.08    9.00
  -3  -2   3  217.58   10.30
   2   2  -3  717.53   19.40
   2   2  -3  725.73   21.20
   2   2  -3  765.22   15.30
  -2  -2   3  711.73   20.90
  -2  -2   3  769.62   19.60
   1   2  -3    4.50    1.30
   1   2  -3    2.60    1.60
   1   2  -3    0.20    1.80
  -1  -2   3    5.90    1.30
  -1  -2   3    4.90    2.20
  -1  -2   3    6.20    2.00
   0   2  -3  367.86   12.40
   0   2  -3  389.86   10.30
   0  -2   3  354.36   12.10
   0  -2   3  385.46   10.20
   0  -2   3  396.36   10.60
  -1   2  -3   76.49    4.60
  -1   2  -3   80.09    5.40
  -1   2  -3   73.19    3.60
   1  -2   3   85.09    4.50
   1  -2   3   80.79    3.50
   1  -2   3   72.49    5.20
  -3   2  -3   57.69    4.70
  -3   2  -3   57.99    4.80
   3  -2   3   62.19    2.50
   3  -2   3   55.89    5.00
   3  -2   3   61.39    2.80
   3  -2   3   62.49    4.70
  -4   2  -3   67.19    5.30
  -4   2  -3   64.39    3.30
  -4   2  -3   64.09    5.40
   4  -2   3   69.49    5.70
   4  -2   3   64.29    5.10
   4  -2   3   68.19    3.00
  -5   2  -3  650.73   19.90
  -5   2  -3  596.74   15.40
  -5   2  -3  596.54   19.10
   5  -2   3  622.64   20.00
   5  -2   3  628.94   18.90
  -6   2  -3  621.94   16.50
  -6   2  -3  649.93   21.00
  -6   2  -3  605.84   20.30
   6  -2   3  621.84   21.20
   6  -2   3  625.84   16.00
   6  -2   3  587.74   21.40
  -7   2  -3 1100.49   31.10
  -7   2  -3 1039.30   26.10
  -7   2  -3  987.20   30.10
   7  -2   3 1041.70   25.40
   7  -2   3 1031.30   29.40
   7  -2   3 1066.29   31.90
  -8   2  -3   62.29    8.00
  -8   2  -3   71.89    8.90
  -8   2  -3   72.59    5.60
   8  -2   3   66.49    5.20
   8  -2   3   70.29    8.90
  -9   2  -3  635.54   19.70
  -9   2  -3  622.34   24.00
   9  -2   3  629.84   18.90
 -10   2  -3   36.50    7.70
 -10   2  -3   23.80    4.80
  10  -2   3   32.80    8.20
  10  -2   3   21.90    4.40
 -11   2  -3  243.08   15.90
 -11   2  -3  193.58   11.40
  11  -2   3  235.48   16.60
 -12   2  -3   41.30    9.10
 -12   2  -3   31.90    6.10
  12  -2   3   30.80    8.30
 -13   2  -3   35.00    9.00
 -13   2  -3   44.20    7.30
  13  -2   3   53.59   10.90
  12   1  -3  112.59   15.20
 -12  -1   3  102.99    8.50
 -12  -1   3  126.59   12.20
 -12  -1   3  104.89    8.00
  11   1  -3    8.50    5.80
  11   1  -3    3.80    2.40
 -11  -1   3    2.30    2.60
 -11  -1   3    0.60    3.90
  10   1  -3   64.49    6.60
  10   1  -3   61.49   10.00
 -10  -1   3   70.79    7.50
 -10  -1   3   78.09    9.70
   9   1  -3 1028.00   26.90
   9   1  -3 1056.89   36.30
  -9  -1   3 1022.60   27.90
  -9  -1   3 1048.70   32.30
   8   1  -3   29.70    4.10
   8   1  -3   25.80    6.50
  -8  -1   3   22.60    4.50
  -8  -1   3   17.00    4.80
   7   1  -3  300.17   15.60
   7   1  -3  300.57   10.00
  -7  -1   3  302.77   10.80
  -7  -1   3  302.37   13.80
   6   1  -3 1071.19   24.80
   6   1  -3 1037.00   29.30
   6   1  -3 1056.39   31.80
  -6  -1   3 1063.09   29.50
  -6  -1   3 1044.00   31.80
  -6  -1   3 1106.89   28.10
   5   1  -3  452.65   11.50
   5   1  -3  420.86   16.80
   5   1  -3  442.96   17.00
  -5  -1   3  433.56   16.80
  -5  -1   3  436.26   11.80
  -5  -1   3  423.16   15.10
   4   1  -3  142.19    4.50
   4   1  -3  124.49    7.10
   4   1  -3  137.49    8.50
  -4  -1   3  136.69    4.70
  -4  -1   3  134.89    8.10
   3   1  -3  429.06   14.70
   3   1  -3  396.16   12.90
  -3  -1   3  408.86   14.40
  -3  -1   3  423.36    9.20
  -3  -1   3  419.86   13.20
   2   1  -3  248.68    8.80
   2   1  -3  262.87   10.10
  -2  -1   3  230.78    9.60
  -2  -1   3  257.17    9.00
   1   1  -3 2253.07   49.90
  -1  -1   3 2287.17   49.90
   0   1  -3 1990.10   45.10
   0  -1   3 2087.59   42.00
  -1   1  -3 2264.07   49.00
   1  -1   3 2219.48   46.90
  -4   1  -3  281.47   11.10
  -4   1  -3  305.27    7.90
  -4   1  -3  282.87   10.90
   4  -1   3  289.37   11.50
   4  -1   3  295.27   10.70
   4  -1   3  282.97    7.60
  -5   1  -3  367.86   10.30
  -5   1  -3  368.66   13.80
  -5   1  -3  364.66   13.50
   5  -1   3  361.96   14.30
   5  -1   3  379.76   10.50
   5  -1   3  358.26   12.90
  -6   1  -3  539.75   19.10
  -6   1  -3  587.44   18.90
  -6   1  -3  575.54   15.50
   6  -1   3  570.44   15.30
   6  -1   3  578.94   20.20
   6  -1   3  587.64   18.40
  -7   1  -3   47.10    4.30
  -7   1  -3   54.29    7.00
  -7   1  -3   51.19    6.90
   7  -1   3   54.39    7.80
   7  -1   3   47.00    4.20
   7  -1   3   53.19    6.30
  -8   1  -3  103.19    8.60
  -8   1  -3  103.29    6.50
   8  -1   3   91.29    6.10
   8  -1   3   98.09    9.40
   8  -1   3  103.29    7.70
  -9   1  -3  425.76   19.00
  -9   1  -3  432.36   15.20
   9  -1   3  424.66   21.40
   9  -1   3  414.56   14.90
 -10   1  -3   63.79    9.00
 -10   1  -3   58.99    7.00
  10  -1   3   47.90    8.60
  10  -1   3   52.89    6.30
 -11   1  -3  134.59   12.40
 -11   1  -3  142.99    9.80
  11  -1   3  140.69   13.70
 -12   1  -3  294.07   17.60
 -12   1  -3  271.27   14.00
  12  -1   3  298.87   19.70
 -13   1  -3    3.80    3.80
 -13   1  -3    1.20    5.40
  13  -1   3    1.80    5.50
  12   0  -3   50.39   11.20
 -12   0   3   52.49    8.90
 -12   0   3   57.89    8.20
  11   0  -3  147.89   14.20
  11   0  -3  139.29    8.90
 -11   0   3  150.68   12.40
 -11   0   3  145.79    9.90
  10   0  -3  414.76   15.60
  10   0  -3  478.45   23.30
 -10   0   3  462.75   17.50
 -10   0   3  458.95   20.10
   9   0  -3    3.20    4.60
   9   0  -3   -0.70    2.40
  -9   0   3   -1.00    3.40
  -9   0   3   -2.20    3.00
   8   0  -3    0.40    4.40
   8   0  -3    4.00    2.30
  -8   0   3    2.50    3.40
  -8   0   3    3.30    2.90
   7   0  -3  229.38    9.00
   7   0  -3  260.17   14.10
  -7   0   3  229.98   12.90
  -7   0   3  230.98   11.80
  -7   0   3  244.68   10.10
   6   0  -3 1118.79   26.40
   6   0  -3 1067.79   29.60
   6   0  -3 1133.99   32.30
  -6   0   3 1077.09   32.00
  -6   0   3 1128.99   27.30
  -6   0   3 1097.99   30.00
   5   0  -3    7.50    3.10
   5   0  -3   14.50    2.50
   5   0  -3   10.00    2.60
  -5   0   3   10.20    3.20
  -5   0   3    6.30    2.60
   4   0  -3   49.99    5.90
   4   0  -3   44.10    3.00
   4   0  -3   47.20    4.40
  -4   0   3   43.20    5.10
  -4   0   3   51.79    4.80
  -4   0   3   47.30    3.30
   3   0  -3   32.80    2.20
   3   0  -3   33.50    4.10
   3   0  -3   48.00    5.30
  -3   0   3   43.30    5.10
  -3   0   3   23.30    3.10
  -3   0   3   31.70    2.50
   2   0  -3  581.54   15.30
   2   0  -3  581.84   16.30
   2   0  -3  576.04   12.80
  -2   0   3  580.14   16.30
  -2   0   3  592.74   13.10
  -2   0   3  566.24   15.40
   1   0  -3  488.05   13.70
   1   0  -3  493.05   11.20
  -1   0   3  504.85   11.10
  -1   0   3  506.75   12.90
   0   0  -3 1236.98   25.90
   0   0  -3 1202.88   27.80
   0   0  -3 1217.98   25.80
   0   0  -3 1262.77   26.20
   0   0  -3 1194.88   28.00
   0   0   3 1250.47   28.30
   0   0   3 1230.18   26.20
  -1   0  -3  334.97    7.70
  -1   0  -3  339.97   10.20
  -1   0  -3  339.27    9.10
   1   0   3  333.37    7.80
   1   0   3  333.87    9.00
   1   0   3  340.17   10.30
  -2   0  -3 2048.20   43.60
   2   0   3 1912.01   39.60
  -4   0  -3  162.08    5.40
  -4   0  -3  156.18    7.30
  -4   0  -3  144.39    7.70
   4   0   3  152.48    5.40
   4   0   3  158.48    8.30
   4   0   3  148.69    6.90
  -5   0  -3    6.30    2.60
  -5   0  -3    4.60    2.30
  -5   0  -3    4.70    1.80
   5   0   3    8.00    3.20
   5   0   3    9.50    2.00
   5   0   3    5.70    2.20
  -6   0  -3   10.50    3.70
  -6   0  -3   11.60    2.50
  -6   0  -3   11.10    3.20
   6   0   3   11.30    3.00
   6   0   3   11.40    2.40
   6   0   3   14.00    4.20
  -7   0  -3 1179.18   31.20
  -7   0  -3 1154.28   27.90
  -7   0  -3 1067.69   32.10
   7   0   3 1107.29   32.30
   7   0   3 1161.38   34.00
   7   0   3 1062.69   27.60
  -8   0  -3  122.99    7.20
  -8   0  -3  121.49    8.70
   8   0   3  106.19    7.60
   8   0   3  108.69    6.80
   8   0   3  137.89   10.80
  -9   0  -3   -1.30    3.50
  -9   0  -3    3.10    2.50
   9   0   3   -3.90    2.80
   9   0   3   -2.60    1.80
 -10   0  -3    1.70    3.10
 -10   0  -3    2.20    4.60
  10   0   3    4.70    4.80
  10   0   3    0.90    2.80
 -11   0  -3  461.25   20.50
  11   0   3  441.16   23.50
 -12   0  -3  167.18   11.20
 -12   0  -3  162.18   13.60
  12   0   3  152.28   15.10
 -13   0  -3   46.00    7.40
 -13   0  -3   36.50    8.70
  13   0   3   46.70   10.20
  12  -1  -3   81.79   12.90
 -12   1   3   77.39    9.60
 -12   1   3   72.29   10.20
  11  -1  -3  436.26   23.20
 -11   1   3  456.15   18.90
 -11   1   3  416.06   20.20
  10  -1  -3  213.78   15.40
  10  -1  -3  188.58   10.20
 -10   1   3  186.98   13.00
 -10   1   3  205.48   12.00
   9  -1  -3  203.78   10.20
   9  -1  -3  242.48   15.20
  -9   1   3  225.68   13.20
  -9   1   3  213.28   11.80
   8  -1  -3  261.87   11.00
   8  -1  -3  284.07   15.30
  -8   1   3  273.27   12.30
   7  -1  -3   29.20    5.20
   7  -1  -3   36.90    4.70
   7  -1  -3   36.30    6.40
  -7   1   3   30.80    4.70
  -7   1   3   23.40    5.10
  -7   1   3   32.70    5.20
   6  -1  -3   -0.30    1.80
   6  -1  -3    5.10    2.20
   6  -1  -3    3.20    3.00
  -6   1   3    3.00    2.50
  -6   1   3    4.10    3.00
  -6   1   3    6.20    2.60
   5  -1  -3 1317.07   33.10
   5  -1  -3 1320.87   31.10
   5  -1  -3 1350.86   34.70
  -5   1   3 1354.46   32.00
  -5   1   3 1337.77   33.60
  -5   1   3 1337.37   34.60
   4  -1  -3  701.23   19.70
   4  -1  -3  712.93   20.60
   4  -1  -3  736.93   18.10
  -4   1   3  722.43   20.70
  -4   1   3  727.43   20.20
   3  -1  -3   33.50    2.90
   3  -1  -3   35.50    4.00
   3  -1  -3   37.50    4.00
  -3   1   3   38.10    4.40
  -3   1   3   35.80    4.20
  -3   1   3   35.00    3.20
   2  -1  -3  892.91   21.40
   2  -1  -3  902.61   21.70
   2  -1  -3  868.61   20.30
  -2   1   3  911.01   21.80
  -2   1   3  878.11   20.60
   1  -1  -3 1771.32   37.50
  -1   1   3 1774.42   37.40
   0  -1  -3   18.60    2.10
   0  -1  -3   20.40    2.10
   0  -1  -3   22.00    2.40
   0   1   3   25.20    2.60
   0   1   3   19.00    2.00
   0   1   3   18.80    2.10
  -1  -1  -3 1500.05   32.60
  -1  -1  -3 1501.25   31.80
  -1  -1  -3 1492.25   32.90
   1   1   3 1499.85   31.70
   1   1   3 1551.34   32.60
  -2  -1  -3    4.50    1.30
  -2  -1  -3    6.20    1.90
  -2  -1  -3    3.40    1.90
   2   1   3    3.50    1.50
   2   1   3    0.40    1.50
   2   1   3    3.90    1.30
  -3  -1  -3 2325.57   52.49
   3   1   3 2421.86   49.80
   3   1   3 2420.16   51.29
  -4  -1  -3  361.66   11.50
  -4  -1  -3  350.06   10.40
   4   1   3  354.16   10.30
   4   1   3  337.67   11.30
  -5  -1  -3  168.08    6.70
  -5  -1  -3  144.89    7.40
  -5  -1  -3  157.48    8.70
   5   1   3  147.09    6.60
   5   1   3  147.29    8.90
   5   1   3  147.59    7.30
  -6  -1  -3 1274.17   31.60
  -6  -1  -3 1267.27   29.80
  -6  -1  -3 1179.28   33.60
   6   1   3 1213.58   31.30
   6   1   3 1278.57   35.00
   6   1   3 1231.28   30.00
  -7  -1  -3  803.72   23.60
  -7  -1  -3  822.92   21.90
  -7  -1  -3  773.92   25.90
   7   1   3  772.62   23.00
   7   1   3  822.62   27.10
   7   1   3  804.02   22.20
  -8  -1  -3  197.88   10.70
  -8  -1  -3  200.48    9.50
   8   1   3  183.78    9.80
   8   1   3  196.38    9.60
   8   1   3  208.58   13.30
  -9  -1  -3   21.40    5.30
  -9  -1  -3   26.30    5.00
   9   1   3   27.60    7.00
   9   1   3   25.70    4.80
 -10  -1  -3 1069.39   30.30
  10   1   3 1076.29   37.70
 -11  -1  -3   56.29    7.50
 -11  -1  -3   48.20    8.00
  11   1   3   46.60    8.70
 -12  -1  -3    5.00    3.90
 -12  -1  -3   -0.20    4.30
  12   1   3    9.20    5.80
 -13  -1  -3   97.09   12.30
 -13  -1  -3  100.39    9.80
  13   1   3  106.19   14.90
  12  -2  -3   53.59   10.00
 -12   2   3   80.69   10.80
 -12   2   3   63.29   10.00
  11  -2  -3  189.68   15.20
 -11   2   3  185.58   13.60
 -11   2   3  185.18   12.80
  10  -2  -3  276.97   17.00
 -10   2   3  285.17   15.50
 -10   2   3  249.68   14.10
   9  -2  -3   69.19    7.80
  -9   2   3   66.69    8.80
  -9   2   3   65.59    8.90
   8  -2  -3  209.28   12.80
   8  -2  -3  186.18   11.00
  -8   2   3  201.08   11.10
  -8   2   3  201.88   12.10
  -8   2   3  191.98   11.60
   7  -2  -3  133.39    9.50
   7  -2  -3  119.29    8.10
   7  -2  -3  123.59    7.40
  -7   2   3  120.79    8.70
  -7   2   3  116.49    8.60
  -7   2   3  127.09    8.30
   6  -2  -3 1019.30   26.30
   6  -2  -3 1004.30   28.70
   6  -2  -3  988.20   27.30
  -6   2   3  992.20   28.50
  -6   2   3  979.50   28.00
  -6   2   3 1060.79   27.80
   5  -2  -3  469.25   14.60
   5  -2  -3  470.45   15.40
   5  -2  -3  478.35   16.20
  -5   2   3  485.55   15.70
  -5   2   3  473.15   16.00
  -5   2   3  498.75   16.30
   4  -2  -3 1465.35   34.40
   4  -2  -3 1445.66   33.50
   4  -2  -3 1419.66   34.00
  -4   2   3 1425.26   34.20
  -4   2   3 1417.86   34.70
  -4   2   3 1445.56   34.30
   3  -2  -3 2045.70   45.60
   3  -2  -3 2090.09   45.80
   3  -2  -3 2116.79   46.20
  -3   2   3 2017.60   45.50
  -3   2   3 2177.48   46.60
  -3   2   3 2091.49   46.80
   2  -2  -3  880.41   21.90
   2  -2  -3  913.11   22.20
   2  -2  -3  922.21   21.00
  -2   2   3  914.51   22.60
  -2   2   3  915.41   21.00
  -2   2   3  905.41   22.30
   1  -2  -3 1401.06   29.50
   1  -2  -3 1398.56   31.30
   1  -2  -3 1421.46   31.60
  -1   2   3 1387.76   31.50
  -1   2   3 1371.96   29.50
   0  -2  -3   91.19    3.60
   0  -2  -3   92.19    4.70
   0  -2  -3   89.89    4.50
   0  -2  -3   87.19    4.50
   0   2   3   91.59    4.60
   0   2   3   88.39    3.60
  -1  -2  -3   34.00    3.00
  -1  -2  -3   33.50    2.80
   1   2   3   27.60    2.90
   1   2   3   29.80    2.80
  -2  -2  -3  398.86   11.40
  -2  -2  -3  409.76   12.20
  -2  -2  -3  423.46   12.00
   2   2   3  407.76   12.40
   2   2   3  406.66   11.60
  -3  -2  -3  283.87   10.60
  -3  -2  -3  287.87    9.80
  -3  -2  -3  289.97    9.60
   3   2   3  306.27   11.10
   3   2   3  280.47    9.30
  -4  -2  -3  154.58    7.00
  -4  -2  -3  133.49    6.40
  -4  -2  -3  147.49    6.30
  -4  -2  -3  148.49    8.00
   4   2   3  139.29    8.10
   4   2   3  131.49    6.30
  -5  -2  -3 2624.04   62.39
  -5  -2  -3 2737.13   59.59
  -5  -2  -3 2770.22   58.89
   5   2   3 2808.32   63.59
   5   2   3 2715.23   59.99
   5   2   3 2729.03   59.59
  -6  -2  -3  286.17   11.10
  -6  -2  -3  287.07   10.50
  -6  -2  -3  249.28   15.40
   6   2   3  276.47   11.00
   6   2   3  265.67   10.70
   6   2   3  273.07   13.50
  -7  -2  -3   63.59    6.90
  -7  -2  -3   45.50    6.40
  -7  -2  -3   47.50    5.20
   7   2   3   49.70    6.00
   7   2   3   39.80    6.60
   7   2   3   45.70    5.30
  -8  -2  -3   22.60    4.80
  -8  -2  -3   20.00    4.20
   8   2   3   11.60    4.50
   8   2   3   19.30    4.10
   8   2   3   14.10    3.40
  -9  -2  -3  539.35   18.50
  -9  -2  -3  518.55   19.20
   9   2   3  523.25   18.80
   9   2   3  507.35   18.90
   9   2   3  519.65   23.40
 -10  -2  -3   91.69    8.70
  10   2   3  104.39   12.20
 -11  -2  -3   67.39    8.30
 -11  -2  -3   67.99    8.60
  11   2   3   69.59   11.00
 -12  -2  -3   70.39    9.00
 -12  -2  -3   62.29    8.70
  12   2   3   81.49   13.30
 -13  -2  -3   69.59   10.00
 -13  -2  -3   71.99    9.50
  13   2   3   70.49   20.20
  12  -3  -3   14.70    6.00
 -12   3   3   18.80    6.30
 -12   3   3   21.70    6.60
  11  -3  -3  154.28   13.50
 -11   3   3  137.69   12.10
 -11   3   3  158.58   12.20
  10  -3  -3  234.68   15.10
 -10   3   3  208.08   15.80
 -10   3   3  211.28   13.80
   9  -3  -3   75.89   10.10
  -9   3   3   68.99    8.80
  -9   3   3   69.29    8.40
   8  -3  -3   69.49    9.00
   8  -3  -3   80.79    8.60
  -8   3   3   85.89    9.60
  -8   3   3   65.59    8.30
  -8   3   3   61.49    8.50
   7  -3  -3 1362.26   35.80
   7  -3  -3 1404.56   37.60
  -7   3   3 1370.76   37.30
  -7   3   3 1399.76   37.50
  -7   3   3 1352.26   36.80
   6  -3  -3 1281.77   33.10
   6  -3  -3 1206.68   31.50
   6  -3  -3 1233.68   31.90
  -6   3   3 1232.98   33.30
  -6   3   3 1213.18   33.10
  -6   3   3 1218.98   32.30
   5  -3  -3   50.49    5.60
   5  -3  -3   34.80    4.30
   5  -3  -3   48.50    5.80
  -5   3   3   41.90    5.30
  -5   3   3   43.80    5.00
  -5   3   3   53.79    6.30
   4  -3  -3  196.78    8.20
   4  -3  -3  191.28    8.50
   4  -3  -3  193.28    8.50
  -4   3   3  183.98    9.10
  -4   3   3  201.38    9.30
  -4   3   3  190.48    7.90
   3  -3  -3  273.07    8.70
   3  -3  -3  274.97   10.20
   3  -3  -3  271.17   10.00
  -3   3   3  273.37   10.60
  -3   3   3  272.57   10.80
  -3   3   3  289.77    8.80
   2  -3  -3 1372.76   33.10
   2  -3  -3 1399.06   32.80
   2  -3  -3 1439.46   29.70
  -2   3   3 1410.56   29.70
  -2   3   3 1422.06   33.70
   1  -3  -3  361.16   11.70
   1  -3  -3  359.06    8.10
   1  -3  -3  352.36   11.50
   1  -3  -3  370.26   11.80
   1  -3  -3  374.26    8.10
  -1   3   3  362.16   11.90
   0  -3  -3  206.28    8.10
   0  -3  -3  207.38    5.80
   0  -3  -3  205.88    8.20
   0   3   3  204.38    5.80
   0   3   3  200.68    7.90
   0   3   3  203.98    8.20
  -1  -3  -3   30.80    2.90
  -1  -3  -3   29.80    3.80
  -1  -3  -3   30.00    3.70
   1   3   3   30.20    3.80
   1   3   3   21.60    3.00
   1   3   3   33.10    3.30
  -2  -3  -3   98.09    5.40
  -2  -3  -3   96.89    5.50
  -2  -3  -3   83.79    5.20
   2   3   3  100.39    6.40
   2   3   3  102.49    5.60
   2   3   3   74.09    4.80
  -3  -3  -3  144.99    7.60
  -3  -3  -3  155.78    7.10
  -3  -3  -3  165.08    7.40
   3   3   3  158.08    7.00
   3   3   3  152.78    7.20
   3   3   3  154.28    7.90
  -4  -3  -3   21.10    3.20
  -4  -3  -3   16.50    3.50
  -4  -3  -3   18.40    3.10
  -4  -3  -3   21.70    3.50
   4   3   3   25.10    3.60
   4   3   3   12.20    3.20
  -5  -3  -3 2667.73   59.89
  -5  -3  -3 2625.14   62.49
  -5  -3  -3 2735.23   59.29
  -5  -3  -3 2770.52   59.49
   5   3   3 2645.54   60.09
   5   3   3 2757.42   63.59
  -6  -3  -3   23.40    3.90
  -6  -3  -3   15.30    3.70
  -6  -3  -3   29.30    4.30
  -6  -3  -3   22.80    4.10
   6   3   3   16.20    4.40
   6   3   3   20.80    3.70
  -7  -3  -3  407.16   14.60
  -7  -3  -3  416.56   15.10
  -7  -3  -3  412.06   14.70
   7   3   3  422.06   18.80
   7   3   3  398.76   17.00
  -8  -3  -3  513.45   18.20
  -8  -3  -3  534.15   18.20
  -8  -3  -3  540.35   18.20
   8   3   3  503.05   18.70
   8   3   3  549.95   23.30
  -9  -3  -3    8.20    3.50
  -9  -3  -3    8.10    3.50
  -9  -3  -3    2.50    2.60
   9   3   3   11.40    5.50
 -10  -3  -3  172.68   11.00
 -10  -3  -3  175.98   10.90
  10   3   3  172.78   14.50
 -11  -3  -3  227.88   13.30
 -11  -3  -3  228.38   13.20
  11   3   3  242.08   17.80
 -12  -3  -3  214.38   13.30
 -12  -3  -3  232.08   13.90
  12   3   3  253.87   19.00
 -13  -3  -3   13.10    5.90
 -13  -3  -3    5.00    4.60
  13   3   3   13.20    7.10
  12  -4  -3  202.88   15.80
 -12   4   3  191.38   14.40
 -12   4   3  180.78   14.30
  11  -4  -3  121.89   11.90
 -11   4   3  116.69   11.30
 -11   4   3  106.59   12.40
  10  -4  -3  124.59   11.30
 -10   4   3  117.49   10.70
 -10   4   3   96.19   11.40
   9  -4  -3   37.00    7.00
  -9   4   3   33.20    6.50
   8  -4  -3  423.06   17.50
  -8   4   3  395.26   17.70
  -8   4   3  399.66   16.60
  -8   4   3  361.36   17.20
   7  -4  -3  230.58   11.10
   7  -4  -3  223.28   11.20
   7  -4  -3  236.68   11.80
  -7   4   3  216.48   11.00
  -7   4   3  248.48   12.60
  -7   4   3  233.38   12.80
   6  -4  -3    0.30    2.50
   6  -4  -3    1.50    2.40
   6  -4  -3   -0.20    1.60
  -6   4   3    2.00    2.60
  -6   4   3   -0.70    2.50
  -6   4   3    0.20    1.80
   5  -4  -3   32.10    4.20
   5  -4  -3   33.00    4.90
   5  -4  -3   33.40    4.60
  -5   4   3   44.20    4.90
  -5   4   3   20.40    4.00
  -5   4   3   33.30    5.80
   4  -4  -3 1846.52   46.60
   4  -4  -3 2018.70   44.00
   4  -4  -3 1984.50   46.20
  -4   4   3 2080.99   48.00
  -4   4   3 2104.39   48.90
  -4   4   3 2007.20   43.90
   3  -4  -3   77.39    3.70
   3  -4  -3   71.69    5.20
   3  -4  -3   75.49    5.70
  -3   4   3   75.99    3.60
  -3   4   3   76.09    6.10
  -3   4   3   80.49    6.00
   2  -4  -3  190.38    8.80
   2  -4  -3  189.58    8.40
   2  -4  -3  186.28    8.70
   2  -4  -3  193.88    4.50
  -2   4   3  187.98    9.10
   1  -4  -3  373.86   13.00
   1  -4  -3  387.96   13.00
   1  -4  -3  410.46   13.40
  -1   4   3  388.16   13.40
   0  -4  -3   59.09    4.90
   0  -4  -3   61.49    2.90
   0   4   3   55.59    2.80
   0   4   3   49.60    4.70
   0   4   3   66.09    5.00
  -1  -4  -3    0.30    1.70
  -1  -4  -3    4.60    1.70
  -1  -4  -3    1.20    1.60
   1   4   3    1.60    1.80
   1   4   3    0.70    1.70
   1   4   3    5.10    1.80
  -2  -4  -3    7.80    2.60
  -2  -4  -3    7.50    2.30
  -2  -4  -3    5.90    2.40
   2   4   3    7.60    2.40
   2   4   3    6.10    2.40
   2   4   3    6.50    2.30
  -3  -4  -3  317.87   12.00
  -3  -4  -3  340.47   12.00
  -3  -4  -3  333.37   12.00
   3   4   3  331.37   12.40
   3   4   3  342.47   11.70
   3   4   3  310.67   11.90
  -4  -4  -3 1321.77   32.00
  -4  -4  -3 1247.08   31.50
  -4  -4  -3 1232.08   33.00
   4   4   3 1242.28   32.10
   4   4   3 1282.57   31.00
   4   4   3 1265.57   33.50
  -5  -4  -3  626.54   21.30
  -5  -4  -3  625.14   19.20
  -5  -4  -3  649.34   19.50
  -5  -4  -3  661.93   18.70
   5   4   3  666.13   22.20
   5   4   3  600.84   19.50
  -6  -4  -3  333.27   13.30
  -6  -4  -3  362.56   13.60
  -6  -4  -3  372.06   13.10
  -6  -4  -3  329.17   15.30
   6   4   3  366.36   16.50
  -7  -4  -3 1610.44   39.60
  -7  -4  -3 1495.65   39.10
  -7  -4  -3 1557.74   38.00
   7   4   3 1489.45   40.10
   7   4   3 1570.54   44.40
  -8  -4  -3   82.19    7.40
  -8  -4  -3   79.89    6.70
  -8  -4  -3   87.89    7.10
   8   4   3   71.09    9.40
  -9  -4  -3  271.67   12.90
  -9  -4  -3  285.17   13.60
  -9  -4  -3  301.07   14.10
   9   4   3  321.37   18.60
 -10  -4  -3   83.49    9.20
 -10  -4  -3   90.59    9.90
  10   4   3   66.79   10.40
 -11  -4  -3  251.77   13.60
 -11  -4  -3  235.38   13.70
  11   4   3  214.18   17.40
 -12  -4  -3   51.19    8.10
 -12  -4  -3   39.00    7.20
  12   4   3   57.79   11.80
 -13  -4  -3   54.69    8.70
 -13  -4  -3   69.39    9.40
  13   4   3   58.69   12.00
  12  -5  -3   82.09   11.70
 -12   5   3   98.79   13.20
 -12   5   3   88.99   11.60
  11  -5  -3    8.70    4.80
 -11   5   3   12.40    5.70
 -11   5   3    0.50    3.60
  10  -5  -3    0.80    4.30
 -10   5   3    2.80    4.20
 -10   5   3   -1.80    3.40
   9  -5  -3  181.08   12.10
  -9   5   3  180.48   11.50
  -9   5   3  189.58   12.80
  -9   5   3  221.68   14.40
   8  -5  -3  138.89    9.90
  -8   5   3  135.09   10.80
   7  -5  -3  209.28   10.70
  -7   5   3  203.18   11.90
  -7   5   3  208.98   12.70
  -7   5   3  195.28   10.10
   6  -5  -3   14.90    3.50
   6  -5  -3   19.30    4.90
   6  -5  -3   18.10    3.70
  -6   5   3   21.00    3.80
  -6   5   3   15.30    3.80
  -6   5   3   20.20    5.60
   5  -5  -3 1967.00   49.50
   5  -5  -3 2047.30   46.00
  -5   5   3 2079.79   50.49
  -5   5   3 2190.88   52.49
  -5   5   3 2016.60   45.70
   4  -5  -3   28.20    4.20
   4  -5  -3   28.40    2.80
   4  -5  -3   35.90    5.70
  -4   5   3   29.50    5.70
  -4   5   3   26.90    4.80
  -4   5   3   30.60    2.80
   3  -5  -3  262.37   11.00
   3  -5  -3  263.87   11.80
   3  -5  -3  279.17   11.90
   3  -5  -3  276.87    7.20
  -3   5   3  268.67   12.40
  -3   5   3  277.27    7.00
   2  -5  -3  462.05   16.00
   2  -5  -3  491.85   16.00
   2  -5  -3  482.65   16.30
  -2   5   3  495.35   17.10
   1  -5  -3  135.89    7.80
   1  -5  -3  139.49    7.90
  -1   5   3  135.79    8.10
  -1   5   3  139.99    7.60
   0  -5  -3   64.29    3.40
   0  -5  -3   58.89    5.30
   0  -5  -3   64.19    5.50
   0   5   3   65.39    3.50
   0   5   3   76.69    6.00
   0   5   3   57.49    5.10
  -1  -5  -3   27.20    4.10
  -1  -5  -3   32.30    4.80
  -1  -5  -3   35.20    3.60
   1   5   3   35.30    5.10
   1   5   3   20.30    3.50
   1   5   3   25.30    3.90
  -2  -5  -3  169.88    7.90
  -2  -5  -3  187.08    8.90
  -2  -5  -3  185.78    9.10
   2   5   3  171.58    8.10
   2   5   3  154.98    8.50
   2   5   3  169.08    8.50
  -3  -5  -3  783.72   22.70
  -3  -5  -3  794.12   22.90
  -3  -5  -3  805.22   22.70
   3   5   3  837.82   22.60
   3   5   3  766.22   23.00
   3   5   3  785.02   22.90
  -4  -5  -3  716.73   21.30
  -4  -5  -3  681.53   22.00
  -4  -5  -3  711.33   21.40
   4   5   3  722.93   20.60
   4   5   3  711.83   22.50
   4   5   3  701.13   21.90
  -5  -5  -3 1036.30   28.40
  -5  -5  -3  970.80   29.90
  -5  -5  -3 1002.90   28.00
  -5  -5  -3 1041.90   27.00
   5   5   3 1060.19   30.90
   5   5   3 1031.20   27.10
   5   5   3 1004.40   31.30
  -6  -5  -3  577.64   21.90
  -6  -5  -3  611.34   19.80
  -6  -5  -3  631.34   18.90
  -6  -5  -3  630.84   20.30
   6   5   3  582.34   20.60
   6   5   3  594.74   22.70
  -7  -5  -3  651.33   21.30
  -7  -5  -3  623.34   21.00
  -7  -5  -3  620.74   19.60
   7   5   3  613.14   26.70
  -8  -5  -3  235.58   12.00
  -8  -5  -3  229.68   11.10
  -8  -5  -3  267.57   15.10
   8   5   3  267.57   16.30
  -9  -5  -3  112.69    8.30
  -9  -5  -3  103.29    8.50
  -9  -5  -3  132.79   10.00
   9   5   3  131.49   12.90
 -10  -5  -3   56.39    7.50
 -10  -5  -3   73.39    9.90
  10   5   3   83.09   12.90
 -11  -5  -3   62.19    9.20
 -11  -5  -3   70.79    8.50
  11   5   3   66.09   11.90
 -12  -5  -3   57.79    8.40
 -12  -5  -3   57.19    9.00
  12   5   3   37.80   11.70
 -13  -5  -3  113.79   12.90
 -13  -5  -3  121.29   10.50
  13   5   3  110.89   16.60
  12  -6  -3   23.10    6.90
 -12   6   3   18.70    6.30
 -12   6   3   25.40    7.70
  11  -6  -3    1.60    4.10
 -11   6   3   -1.00    4.50
 -11   6   3    0.20    3.80
  10  -6  -3  226.08   14.10
 -10   6   3  247.48   15.60
 -10   6   3  252.97   16.90
   9  -6  -3  248.98   13.60
  -9   6   3  243.88   14.80
  -9   6   3  251.57   16.40
  -9   6   3  229.48   12.50
   8  -6  -3  179.08   10.50
  -8   6   3  157.08    9.50
  -8   6   3  152.98   11.50
  -8   6   3  138.69   12.00
   7  -6  -3  125.39    8.00
  -7   6   3  128.69    7.80
  -7   6   3  142.69   13.40
  -7   6   3  127.29   10.10
   6  -6  -3  858.41   25.40
   6  -6  -3  858.91   23.10
  -6   6   3  842.22   22.80
  -6   6   3  862.81   29.20
  -6   6   3  868.31   27.50
   5  -6  -3  102.99    6.30
   5  -6  -3   97.19    7.00
   5  -6  -3  109.49    8.50
   5  -6  -3  106.69    8.10
  -5   6   3  107.99    5.40
  -5   6   3  106.89    9.10
   4  -6  -3  126.99    8.60
   4  -6  -3  117.39    4.80
   4  -6  -3  113.49    8.00
   4  -6  -3  133.69    8.70
  -4   6   3  116.29    4.60
   3  -6  -3    5.00    2.60
   3  -6  -3    6.10    3.00
  -3   6   3    5.30    3.40
   2  -6  -3  196.58    9.70
   2  -6  -3  178.08    9.80
   2  -6  -3  160.78    9.40
  -2   6   3  163.98    9.90
   1  -6  -3 1208.48   33.40
   1  -6  -3 1288.37   33.80
  -1   6   3 1298.77   26.70
  -1   6   3 1278.67   33.20
  -1   6   3 1292.77   34.50
  -1   6   3 1270.07   26.80
   0  -6  -3    7.70    3.30
   0  -6  -3   13.00    3.60
   0  -6  -3   12.20    2.10
   0   6   3   14.20    3.50
   0   6   3   11.00    3.50
   0   6   3   15.10    2.40
  -1  -6  -3   69.09    6.30
  -1  -6  -3   65.69    6.00
  -1  -6  -3   59.19    4.50
   1   6   3   70.59    4.90
   1   6   3   72.19    6.20
   1   6   3   73.89    7.80
  -2  -6  -3 1034.90   28.00
  -2  -6  -3  989.20   25.90
  -2  -6  -3  946.11   27.30
   2   6   3  971.50   27.90
   2   6   3  989.80   26.00
   2   6   3  943.91   27.00
  -3  -6  -3   25.30    4.80
  -3  -6  -3   22.40    4.30
  -3  -6  -3   26.00    4.50
   3   6   3   31.10    5.10
   3   6   3   34.80    5.40
   3   6   3   16.40    3.60
  -4  -6  -3  220.78   11.00
  -4  -6  -3  258.67   12.30
  -4  -6  -3  264.27   12.20
   4   6   3  254.67   12.30
   4   6   3  290.57   11.70
   4   6   3  257.67   12.70
  -5  -6  -3  176.18   10.70
  -5  -6  -3  159.38    9.60
  -5  -6  -3  186.08    9.90
   5   6   3  169.48    8.90
   5   6   3  154.68    9.90
   5   6   3  156.18   10.80
  -6  -6  -3  622.84   19.70
  -6  -6  -3  691.43   22.10
  -6  -6  -3  616.94   21.00
   6   6   3  597.74   23.50
  -7  -6  -3  413.36   16.60
  -7  -6  -3  434.16   15.60
   7   6   3  431.16   20.40
  -8  -6  -3   52.99    6.60
  -8  -6  -3   53.19    7.90
  -8  -6  -3   50.79    7.50
   8   6   3   56.09    9.90
  -9  -6  -3  129.29   11.00
  -9  -6  -3  147.69   11.00
  -9  -6  -3  149.39    9.30
   9   6   3  138.49   13.70
 -10  -6  -3   39.30    7.30
 -10  -6  -3   48.00    7.10
  10   6   3   39.10    9.80
 -11  -6  -3  278.47   14.00
 -11  -6  -3  295.47   16.70
  11   6   3  285.17   20.70
 -12  -6  -3   61.19    8.60
 -12  -6  -3   56.49    9.10
  12   6   3   70.99   13.20
  11  -7  -3  232.68   15.00
 -11   7   3  229.08   17.60
 -11   7   3  226.08   16.00
  10  -7  -3  107.19    9.60
 -10   7   3   77.09   10.50
 -10   7   3  100.29    9.00
 -10   7   3   99.79   12.70
   9  -7  -3   10.80    4.20
  -9   7   3   25.50    6.60
  -9   7   3    5.00    5.20
   8  -7  -3   54.69    8.60
   8  -7  -3   60.99    7.20
  -8   7   3   49.80    9.50
  -8   7   3   51.79    8.30
  -8   7   3   50.49    6.20
   7  -7  -3  450.05   19.70
   7  -7  -3  413.16   14.80
  -7   7   3  407.46   14.30
  -7   7   3  448.56   21.10
   6  -7  -3   82.59    9.50
   6  -7  -3   72.89    5.20
  -6   7   3   72.29    5.00
  -6   7   3   82.79   10.90
   5  -7  -3  735.93   24.50
   5  -7  -3  688.83   22.30
   5  -7  -3  699.33   17.70
  -5   7   3  693.13   17.30
   4  -7  -3   22.40    5.00
   4  -7  -3    8.00    3.80
   4  -7  -3   20.10    4.30
  -4   7   3   24.40    6.00
  -4   7   3   19.00    1.80
   3  -7  -3  171.58    9.80
   3  -7  -3  157.08   10.00
   3  -7  -3  168.28   10.20
  -3   7   3  168.68   11.00
   2  -7  -3    4.30    2.80
   2  -7  -3    3.40    2.50
   2  -7  -3    3.70    2.60
  -2   7   3    3.60    2.90
  -2   7   3    4.70    2.90
   1  -7  -3  290.37   13.40
   1  -7  -3  276.77   14.90
  -1   7   3  296.47    8.40
  -1   7   3  308.77    8.70
  -1   7   3  288.07   12.90
   0  -7  -3  369.06   15.40
   0  -7  -3  381.36   15.30
   0  -7  -3  382.26   11.60
   0   7   3  397.96   11.70
   0   7   3  367.06   15.20
   0   7   3  383.96   15.80
  -1  -7  -3   78.49    7.00
  -1  -7  -3  116.09    8.30
  -1  -7  -3   97.09    5.90
   1   7   3  101.79    6.30
   1   7   3  105.49    8.00
  -2  -7  -3  164.58    9.70
  -2  -7  -3  170.68   10.00
  -2  -7  -3  170.98    8.70
   2   7   3  157.98    9.50
   2   7   3  178.88    9.20
   2   7   3  162.08   10.00
  -3  -7  -3  281.47   13.00
  -3  -7  -3  247.48   11.50
  -3  -7  -3  256.47   12.20
   3   7   3  241.78   11.90
   3   7   3  234.88   11.60
   3   7   3  256.27   12.80
  -4  -7  -3   26.80    5.90
  -4  -7  -3   41.70    6.30
  -4  -7  -3   23.70    4.60
   4   7   3   16.40    3.90
   4   7   3   36.20    5.70
   4   7   3   23.20    5.00
  -5  -7  -3  360.06   16.50
  -5  -7  -3  374.06   16.20
  -5  -7  -3  383.96   17.80
   5   7   3  378.86   14.70
   5   7   3  385.16   17.40
  -6  -7  -3  429.06   17.10
  -6  -7  -3  452.55   18.30
   6   7   3  439.76   16.10
   6   7   3  418.86   19.50
  -7  -7  -3  790.82   23.80
  -7  -7  -3  785.72   26.30
  -7  -7  -3  727.33   25.00
   7   7   3  800.72   29.60
  -8  -7  -3    2.50    3.70
  -8  -7  -3    3.10    2.90
  -8  -7  -3    3.60    3.00
   8   7   3    8.20    5.50
  -9  -7  -3    8.90    4.50
  -9  -7  -3   13.60    4.40
   9   7   3    6.20    5.30
 -10  -7  -3  310.37   16.90
 -10  -7  -3  297.07   14.30
  10   7   3  317.37   21.10
 -11  -7  -3  218.48   15.00
 -11  -7  -3  211.28   12.20
  11   7   3  228.38   19.00
 -12  -7  -3    0.10    3.50
 -12  -7  -3    2.60    5.40
  12   7   3    4.10    6.40
  11  -8  -3  166.58   12.30
  11  -8  -3  191.88   15.80
 -11   8   3  226.88   18.20
  10  -8  -3   10.60    6.10
  10  -8  -3   17.90    5.20
 -10   8   3    8.70    4.00
 -10   8   3   18.30    7.50
   9  -8  -3  187.78   14.00
   9  -8  -3  154.78   10.00
  -9   8   3  160.28   14.50
  -9   8   3  139.49    9.20
   8  -8  -3   30.90    7.10
   8  -8  -3   25.00    4.80
  -8   8   3   26.90    7.50
  -8   8   3   22.80    4.40
   7  -8  -3   -1.70    2.80
   7  -8  -3    2.30    2.10
  -7   8   3   -0.50    1.80
  -7   8   3    2.90    4.50
   6  -8  -3  294.27   15.50
   6  -8  -3  263.37   11.50
  -6   8   3  273.07    9.80
   5  -8  -3  179.08   11.70
  -5   8   3  201.08   13.60
  -5   8   3  169.98    5.70
   4  -8  -3   11.80    4.50
   4  -8  -3    9.60    3.60
  -4   8   3    9.00    5.20
   3  -8  -3   -0.20    2.30
   3  -8  -3    0.50    2.00
  -3   8   3    1.20    2.90
   2  -8  -3  283.47   13.90
   2  -8  -3  272.87   13.70
  -2   8   3  281.27   14.80
  -2   8   3  268.57    7.00
  -2   8   3  265.47    7.00
  -2   8   3  255.07   12.70
   1  -8  -3  125.99    9.10
   1  -8  -3  126.49    9.30
  -1   8   3  136.79   10.10
  -1   8   3  136.79    5.80
  -1   8   3  133.19    5.60
  -1   8   3  131.19    9.10
   0  -8  -3   26.70    5.30
   0  -8  -3   31.60    5.70
   0  -8  -3   37.00    3.60
   0   8   3   35.10    6.10
   0   8   3   32.60    5.90
   0   8   3   32.30    4.10
  -1  -8  -3  111.79    8.90
  -1  -8  -3  107.09    6.60
  -1  -8  -3  127.29    8.90
   1   8   3  114.49    8.80
   1   8   3  112.49    7.00
   1   8   3  106.29    8.60
  -2  -8  -3  204.58   10.00
  -2  -8  -3  201.78   11.60
  -2  -8  -3  204.88   11.40
   2   8   3  201.18   11.80
   2   8   3  206.58   10.60
   2   8   3  210.78   11.60
  -3  -8  -3   72.49    8.20
  -3  -8  -3   65.29    8.00
  -3  -8  -3   61.89    6.30
   3   8   3   65.59    7.70
   3   8   3   88.99    9.40
  -4  -8  -3   87.49    8.00
  -4  -8  -3  101.89    8.80
  -4  -8  -3  115.29    8.50
   4   8   3  118.19    9.40
   4   8   3  111.99    8.20
  -5  -8  -3  512.15   20.20
  -5  -8  -3  490.15   19.10
   5   8   3  510.35   21.10
   5   8   3  491.55   18.20
  -6  -8  -3  907.11   28.80
  -6  -8  -3  929.41   30.00
   6   8   3  910.31   27.30
   6   8   3  946.61   32.30
  -7  -8  -3   91.99    8.40
  -7  -8  -3  105.49    9.90
  -7  -8  -3   88.69    7.50
   7   8   3  122.69   12.00
  -8  -8  -3   37.00    5.80
  -8  -8  -3   55.99    8.90
   8   8   3   38.40    8.50
  -9  -8  -3  456.35   17.70
  -9  -8  -3  454.75   20.90
   9   8   3  467.15   24.90
 -10  -8  -3  280.67   15.80
 -10  -8  -3  270.27   16.40
  10   8   3  286.87   20.50
 -11  -8  -3   17.10    6.30
 -11  -8  -3    2.30    3.30
  11   8   3    5.40    6.60
  10  -9  -3   69.59    8.10
  10  -9  -3   79.09   11.90
 -10   9   3   85.59   14.20
 -10   9   3   64.59    7.90
   9  -9  -3   14.80    5.90
   9  -9  -3   18.00    4.20
  -9   9   3   16.40    3.90
  -9   9   3   36.20   10.10
   8  -9  -3    2.80    4.00
   8  -9  -3    2.30    2.20
  -8   9   3   -5.90    4.00
  -8   9   3    1.90    2.20
   7  -9  -3  240.98   15.10
   7  -9  -3  219.58   10.10
  -7   9   3  221.78   16.50
  -7   9   3  209.98    8.20
   6  -9  -3   13.30    5.10
  -6   9   3   12.90    2.10
  -6   9   3   16.50    7.00
  -6   9   3   12.50    2.00
   5  -9  -3  459.45   25.50
  -5   9   3  439.06   21.70
   4  -9  -3  208.78   13.10
  -4   9   3  202.88   14.10
   3  -9  -3 1026.70   32.10
  -3   9   3  966.50   33.30
   2  -9  -3   58.29    8.00
  -2   9   3   70.99   12.00
  -2   9   3   60.99    3.30
  -2   9   3   55.39    3.30
   1  -9  -3   20.10    5.30
  -1   9   3   17.70    2.90
  -1   9   3   21.50    6.20
  -1   9   3   16.80    2.90
   0  -9  -3  128.59   10.00
   0  -9  -3  133.09    7.00
   0   9   3  123.39   10.00
   0   9   3  132.19    7.10
  -1  -9  -3  712.83   21.10
  -1  -9  -3  672.63   25.40
  -1  -9  -3  712.13   25.00
   1   9   3  695.93   24.90
   1   9   3  732.83   21.40
  -2  -9  -3    2.50    3.10
  -2  -9  -3    2.20    2.40
  -2  -9  -3   -0.10    2.70
   2   9   3    2.60    3.00
   2   9   3   -0.30    2.70
  -3  -9  -3    4.00    2.90
  -3  -9  -3    1.80    2.30
  -3  -9  -3   12.20    4.30
   3   9   3    5.40    3.40
   3   9   3    5.60    3.50
  -4  -9  -3  677.33   24.50
  -4  -9  -3  722.43   25.60
  -4  -9  -3  673.83   24.40
   4   9   3  745.03   25.70
   4   9   3  741.13   24.50
  -5  -9  -3  159.48   11.60
  -5  -9  -3  140.79   10.20
   5   9   3  149.79   13.70
   5   9   3  147.29    9.90
  -6  -9  -3   29.90    6.10
   6   9   3   34.70    6.00
   6   9   3   34.70    7.70
  -7  -9  -3  147.09   12.00
  -7  -9  -3  154.88   10.00
   7   9   3  162.08   13.90
  -8  -9  -3   95.99   11.40
  -8  -9  -3   82.09    8.70
   8   9   3   52.09    9.70
  -9  -9  -3  280.27   16.90
   9   9   3  237.28   18.70
 -10  -9  -3   14.30    5.60
 -10  -9  -3   11.80    4.30
  10   9   3   16.40    7.30
 -11  -9  -3   27.70    6.10
 -11  -9  -3   36.10    8.60
  11   9   3   22.10    8.80
  10 -10  -3    6.00    3.10
  10 -10  -3   14.50    7.10
 -10  10   3    6.80    6.90
 -10  10   3    6.70    3.20
   9 -10  -3   78.09   11.80
   9 -10  -3   62.19    5.50
  -9  10   3   58.39   11.40
  -9  10   3   51.99    5.00
   8 -10  -3  156.38   13.50
  -8  10   3  173.58   16.20
  -8  10   3  131.39    7.10
   7 -10  -3  333.97   18.40
  -7  10   3  324.07   20.40
  -7  10   3  290.57    7.90
  -7  10   3  297.07    8.00
   6 -10  -3   -0.70    3.40
  -6  10   3    3.20    4.50
   5 -10  -3  201.28   13.80
  -5  10   3  209.98   15.90
   4 -10  -3   33.60    7.30
  -4  10   3   41.60    8.50
   3 -10  -3   44.40    7.40
  -3  10   3   40.50    7.40
   2 -10  -3  113.29   10.30
  -2  10   3  106.79    5.00
  -2  10   3  107.39    5.00
   1 -10  -3   11.30    4.90
  -1  10   3   11.80    2.90
  -1  10   3    9.40    2.70
  -1  10   3    7.10    4.80
   0 -10  -3  211.78   13.30
   0 -10  -3  208.08    9.60
   0  10   3  227.58   14.20
   0  10   3  217.78    9.80
  -1 -10  -3   -1.00    2.70
  -1 -10  -3   -2.70    1.60
   1  10   3   -1.10    2.30
   1  10   3    1.10    3.80
  -2 -10  -3   52.59    8.20
  -2 -10  -3   49.30    6.70
   2  10   3   40.70    7.30
   2  10   3   52.49    7.10
  -3 -10  -3   38.90    6.50
  -3 -10  -3   29.20    6.00
   3  10   3   37.60    7.00
   3  10   3   39.80    7.50
  -4 -10  -3   99.49   11.60
   4  10   3   75.89    9.70
   4  10   3   79.59    9.00
  -5 -10  -3  323.57   17.20
   5  10   3  326.17   18.00
   5  10   3  330.37   15.50
  -6 -10  -3   85.99    9.80
   6  10   3  106.29   12.40
   6  10   3  108.69   13.50
  -7 -10  -3  208.38   14.40
   7  10   3  198.38   13.50
   7  10   3  220.28   16.40
  -8 -10  -3   86.29   11.10
  -8 -10  -3   88.09    8.30
   8  10   3  121.09   15.70
  -9 -10  -3   79.69   11.00
  -9 -10  -3   93.99    8.50
   9  10   3   95.49   14.00
 -10 -10  -3   61.69    8.00
 -10 -10  -3   45.90    8.80
  10  10   3   52.39   11.20
   9 -11  -3   30.50    8.80
  -9  11   3   21.80    7.90
   8 -11  -3  159.98   14.20
  -8  11   3  148.99   17.60
   7 -11  -3    4.00    4.60
  -7  11   3    4.30    5.40
   6 -11  -3   15.90    5.80
  -6  11   3   20.60    7.80
   5 -11  -3  142.49   12.40
  -5  11   3  111.39   13.10
   4 -11  -3  233.58   15.20
  -4  11   3  217.98   16.70
   3 -11  -3  159.98   12.60
  -3  11   3  159.28   13.80
   2 -11  -3   27.70    6.70
  -2  11   3   18.50    6.70
  -2  11   3   23.90    3.20
   1 -11  -3   73.69   10.50
  -1  11   3   62.19    5.20
  -1  11   3   48.60    9.00
  -1  11   3   69.19    5.50
   0 -11  -3    9.00    4.40
   0 -11  -3    4.40    2.30
   0  11   3    0.70    3.90
   0  11   3    4.40    2.90
  -1 -11  -3   15.10    4.10
  -1 -11  -3    7.70    4.80
   1  11   3   19.30    6.10
   1  11   3    9.50    4.00
  -2 -11  -3   20.30    5.50
  -2 -11  -3   17.00    4.60
   2  11   3   17.50    6.10
   2  11   3   20.80    5.50
  -3 -11  -3  524.15   23.10
   3  11   3  567.84   22.20
   3  11   3  564.84   22.90
  -4 -11  -3   47.00    7.90
   4  11   3   51.39    8.60
   4  11   3   54.79   10.10
  -5 -11  -3  163.38   13.00
   5  11   3  161.58   11.50
   5  11   3  186.58   14.10
  -6 -11  -3  242.08   15.90
   6  11   3  274.17   17.80
   6  11   3  258.17   14.20
  -7 -11  -3  191.18   14.70
   7  11   3  191.38   12.10
   7  11   3  229.48   16.80
  -8 -11  -3  188.48   14.80
  -8 -11  -3  164.88   11.20
   8  11   3  182.48   16.60
  -9 -11  -3  114.99    9.50
  -9 -11  -3   90.69   12.20
   9  11   3  102.59   16.40
   8 -12  -3    2.60    4.60
  -8  12   3   18.50    8.60
   7 -12  -3   28.20    8.30
  -7  12   3   22.80    9.20
   6 -12  -3  294.07   18.10
  -6  12   3  268.97   20.10
   5 -12  -3  174.48   14.20
  -5  12   3  157.68   18.70
   4 -12  -3  172.38   13.80
  -4  12   3  176.58   15.70
   3 -12  -3   75.99   10.80
  -3  12   3   59.59   10.00
   2 -12  -3   40.90    8.40
  -2  12   3   45.80    4.10
  -2  12   3   51.79   10.00
   1 -12  -3   -1.90    3.40
  -1  12   3   -1.40    2.20
  -1  12   3    2.10    2.10
  -1  12   3    3.30    4.70
   0 -12  -3   22.00    6.90
   0  12   3   19.30    4.50
   0  12   3   23.60    4.80
   0  12   3   20.30    6.20
  -1 -12  -3   31.90    6.90
   1  12   3   40.30    6.70
   1  12   3   35.40    8.00
  -2 -12  -3  278.77   14.50
  -2 -12  -3  339.87   18.40
   2  12   3  298.77   15.20
   2  12   3  285.27   17.10
  -3 -12  -3   27.80    7.40
   3  12   3    9.60    5.00
   3  12   3   13.40    5.80
  -4 -12  -3  148.59   12.80
   4  12   3  143.19   12.30
   4  12   3  131.79   11.30
  -5 -12  -3  332.47   18.80
   5  12   3  294.77   18.10
   5  12   3  303.37   16.30
  -6 -12  -3  126.89   13.70
   6  12   3  102.79    9.80
   6  12   3  145.49   16.00
  -7 -12  -3   -2.00    4.40
   7  12   3    0.70    3.40
   7  12   3   -1.60    5.00
  -8 -12  -3  232.38   13.60
  -8 -12  -3  209.18   25.30
   8  12   3  226.48   18.80
   7 -13  -3  106.69   13.80
  -7  13   3   77.39   13.80
   6 -13  -3   34.90    8.30
  -6  13   3   43.40   12.30
   5 -13  -3   37.70    9.10
  -5  13   3   14.10    7.00
   4 -13  -3   38.00    8.80
  -4  13   3   22.40    7.30
   3 -13  -3    8.60    5.20
  -3  13   3    8.00    5.70
   2 -13  -3   63.19   10.50
  -2  13   3   65.49    4.80
  -2  13   3   83.49    6.80
  -2  13   3   62.29   10.80
   1 -13  -3  195.78   14.70
  -1  13   3  160.98   14.80
  -1  13   3  159.58    8.90
  -1  13   3  169.88    9.00
   0 -13  -3  133.99   12.70
   0  13   3  150.08    9.70
   0  13   3  150.68   14.00
   0  13   3  152.08    9.60
  -1 -13  -3   27.10    7.50
  -1 -13  -3   31.20    6.00
   1  13   3   25.50    7.10
   1  13   3   41.20    7.00
  -2 -13  -3   21.10    7.00
   2  13   3   14.40    6.10
   2  13   3   20.20    6.00
  -3 -13  -3  138.89   15.40
   3  13   3  120.19   14.10
   3  13   3  105.39   10.70
  -4 -13  -3   91.79   12.60
   4  13   3   84.69   11.50
   4  13   3  122.79   14.10
  -5 -13  -3   83.69   11.90
   5  13   3   62.29    9.50
   5  13   3   95.39   13.10
  -6 -13  -3   10.90    6.00
   6  13   3   14.30    6.30
   6  13   3   10.00    4.60
  -7 -13  -3  130.99   15.20
   7  13   3  110.29   15.30
   7  13   3  122.29   10.70
   6 -14  -3   41.30    9.60
  -6  14   3   18.30    7.80
   5 -14  -3   15.70    6.70
  -5  14   3   19.70    9.40
   4 -14  -3   16.50    6.70
  -4  14   3   14.10    9.40
   3 -14  -3   71.39   11.50
  -3  14   3   48.50   10.10
   2 -14  -3  103.59   13.70
  -2  14   3   96.09    5.60
  -2  14   3  103.79   14.10
  -2  14   3   94.89    6.20
   1 -14  -3   50.89    9.90
  -1  14   3   56.59    6.50
  -1  14   3   69.49   13.00
  -1  14   3   60.09    6.00
   0 -14  -3    6.20    5.20
   0  14   3   -1.00    4.80
   0  14   3    1.80    3.30
  -1 -14  -3   16.00    6.60
   1  14   3   21.40    5.50
   1  14   3   20.40    5.40
   1  14   3    7.00    5.80
  -2 -14  -3  256.47   17.80
   2  14   3  248.78   17.20
  -3 -14  -3    5.10    4.90
   3  14   3   -1.10    4.20
   3  14   3    2.30    4.50
  -4 -14  -3   -2.50    4.10
   4  14   3   -0.40    4.20
   4  14   3   -1.40    4.30
  -5 -14  -3    6.50    5.90
   5  14   3   14.10    6.10
   5  14   3    1.00    4.70
   3 -15  -3   64.19   10.60
  -3  15   3   65.49   12.80
   2 -15  -3   43.00    9.30
  -2  15   3   40.10    9.40
  -2  15   3   42.60    4.10
   1 -15  -3   15.30    6.90
  -1  15   3    5.80    3.20
  -1  15   3    3.10    7.00
  -1  15   3    8.00    3.60
   0 -15  -3    9.70    6.60
   0  15   3    5.30    3.60
   0  15   3   -2.20    4.70
   0  15   3    3.10    3.70
  -1 -15  -3  129.79   20.40
   1  15   3  115.99   15.00
   1  15   3  119.19   10.20
  -2 -15  -3   19.10    6.90
   2  15   3   22.10    6.50
   2  15   3   28.30    8.50
  -3 -15  -3    6.80    5.30
   3  15   3    0.30    4.30
   3  15   3   12.50    5.90
   3  13  -4   18.90    5.80
   3  13  -4   14.10    7.20
  -3 -13   4   14.90    7.00
   2  13  -4  127.09   11.60
   2  13  -4  133.99   15.80
  -2 -13   4  101.59   12.10
   1  13  -4   42.10    8.70
   1  13  -4   20.90    7.10
  -1 -13   4   25.00    7.00
   0  13  -4   30.80    7.80
   0  13  -4   29.30    7.80
   0 -13   4   28.60    7.20
  -1  13  -4   87.39   12.20
  -1  13  -4   84.49   11.60
   1 -13   4  106.29   11.80
  -2  13  -4   65.19   11.20
  -2  13  -4   63.99   10.10
   2 -13   4   78.89   10.70
  -3  13  -4   70.99   10.10
  -3  13  -4   96.09   14.30
   3 -13   4   98.69   11.60
  -4  13  -4   23.00    6.60
  -4  13  -4   24.60    8.90
   4 -13   4   18.00    6.00
  -5  13  -4   42.70    8.10
  -5  13  -4   49.99   11.10
   5 -13   4   86.09   10.50
   5  12  -4   33.70    5.90
   5  12  -4   38.30   12.90
  -5 -12   4   37.30    8.70
   4  12  -4   35.70    6.70
   4  12  -4   32.60    8.90
  -4 -12   4   36.70    8.60
   3  12  -4    0.10    3.60
   3  12  -4   -0.90    4.60
  -3 -12   4   -2.20    4.20
   2  12  -4    4.80    4.40
   2  12  -4    9.30    5.80
  -2 -12   4   18.90    6.80
   1  12  -4   65.29   10.10
   1  12  -4   88.39   11.30
  -1 -12   4   73.79   10.30
   0  12  -4    0.80    4.40
   0  12  -4   -1.10    3.80
   0 -12   4   -1.00    4.20
  -1  12  -4   33.90    8.10
  -1  12  -4   49.50    9.00
   1 -12   4   43.70    8.20
  -2  12  -4    0.60    4.20
  -2  12  -4    3.70    4.20
   2 -12   4    1.20    3.80
  -3  12  -4   36.40    7.60
  -3  12  -4   57.49   11.60
   3 -12   4   51.69    8.20
  -4  12  -4    7.50    6.00
  -4  12  -4   13.90    5.40
   4 -12   4   23.60    6.00
  -5  12  -4   55.29   12.60
  -5  12  -4   52.89    8.70
   5 -12   4   42.90    7.40
  -6  12  -4    4.70    4.50
   6 -12   4    5.10    4.50
  -7  12  -4   67.39   13.70
  -7  12  -4   62.59    9.20
   7 -12   4   74.39    9.30
   6  11  -4   60.79   15.70
   6  11  -4   49.30    5.60
  -6 -11   4   60.09   10.50
  -6 -11   4   39.80    5.50
   5  11  -4   40.80    9.50
   5  11  -4   37.80    6.00
  -5 -11   4   30.70    6.40
  -5 -11   4   42.50    8.80
   4  11  -4  161.58   10.20
   4  11  -4  185.08   15.80
  -4 -11   4  146.99    9.90
  -4 -11   4  165.98   13.60
   3  11  -4    3.30    3.70
   3  11  -4    1.10    4.70
  -3 -11   4    0.50    4.00
   2  11  -4  530.25   24.50
   2  11  -4  484.35   23.80
  -2 -11   4  511.65   22.30
   1  11  -4    7.50    4.80
   1  11  -4   13.50    5.20
  -1 -11   4    7.70    4.70
   0  11  -4    2.30    4.10
   0  11  -4    0.10    3.70
   0 -11   4   -4.70    3.10
  -1  11  -4   24.30    6.40
  -1  11  -4   32.20    8.40
   1 -11   4   24.90    5.80
  -2  11  -4   37.90    8.10
  -2  11  -4   42.80    7.60
   2 -11   4   51.79    8.00
  -3  11  -4   23.20    7.70
  -3  11  -4   31.40    7.90
   3 -11   4   27.70    6.20
  -4  11  -4   66.29   10.50
  -4  11  -4   95.69    9.60
   4 -11   4   92.89   11.30
  -5  11  -4  254.57   18.70
  -5  11  -4  221.18   13.90
   5 -11   4  218.38   14.80
  -6  11  -4   89.09   10.80
  -6  11  -4   83.79   12.60
   6 -11   4   94.59    9.10
  -7  11  -4    2.70    6.50
   7 -11   4    4.80    3.80
  -8  11  -4    5.40    4.70
  -8  11  -4    2.80    5.80
   8 -11   4    3.60    3.80
  -7 -10   4  128.39   14.30
  -7 -10   4  105.79    5.50
   6  10  -4   94.29   13.60
  -6 -10   4   70.99    9.90
  -6 -10   4   71.69    6.10
   5  10  -4  228.98   17.40
   5  10  -4  215.28   10.20
  -5 -10   4  204.08   10.10
  -5 -10   4  199.28   14.70
   4  10  -4   73.59    7.00
   4  10  -4   93.09   13.40
  -4 -10   4   91.19   11.20
   3  10  -4  305.37   14.20
   3  10  -4  280.97   17.90
  -3 -10   4  317.87   16.80
  -3 -10   4  283.37   13.40
   2  10  -4    1.30    3.30
   2  10  -4    1.60    4.60
  -2 -10   4    2.90    3.70
  -2 -10   4    3.70    4.00
   1  10  -4   26.90    7.10
   1  10  -4   25.10    6.10
  -1 -10   4   31.10    6.40
   0  10  -4    1.40    3.90
   0 -10   4   -2.00    3.00
  -1  10  -4  139.99   13.30
  -1  10  -4  174.98   12.80
   1 -10   4  160.28   11.00
  -2  10  -4   10.20    4.70
  -2  10  -4    8.40    5.60
   2 -10   4   -0.40    2.90
  -3  10  -4    1.50    4.50
  -3  10  -4    2.10    3.60
   3 -10   4    0.30    3.00
  -4  10  -4   28.20    6.50
  -4  10  -4   12.40    6.20
   4 -10   4   25.10    5.40
  -5  10  -4  271.47   18.40
  -5  10  -4  288.57   15.30
   5 -10   4  291.17   13.90
   5 -10   4  239.28   12.80
  -6  10  -4  249.78   18.20
  -6  10  -4  246.68   14.40
   6 -10   4  233.78   11.90
   6 -10   4  250.17   12.90
  -7  10  -4    0.60    3.90
  -7  10  -4    5.30    5.90
   7 -10   4    7.30    3.90
   7 -10   4    9.10    3.30
  -8  10  -4  128.29   17.00
  -8  10  -4  142.69   20.00
   8 -10   4  136.39    8.60
   8 -10   4  165.38   10.60
  -9  10  -4   52.39   12.30
   9 -10   4   42.00    6.70
   9 -10   4   33.00    5.10
   9 -10   4   47.10    8.70
   8   9  -4   61.89   11.70
  -8  -9   4   46.90    8.80
   7   9  -4  137.69   16.80
  -7  -9   4  122.99    4.90
  -7  -9   4  132.69   12.50
   6   9  -4   73.59   11.70
  -6  -9   4   69.69    5.30
  -6  -9   4   84.49    5.10
  -6  -9   4   89.69   11.60
   5   9  -4   55.69    5.10
   5   9  -4   59.69   10.80
  -5  -9   4   44.80    7.90
  -5  -9   4   57.59    6.00
   4   9  -4  211.18   10.30
   4   9  -4  191.78   15.20
  -4  -9   4  242.78   14.60
  -4  -9   4  213.48   10.30
   3   9  -4  150.08    9.30
   3   9  -4  145.89   12.90
  -3  -9   4  145.99    8.90
  -3  -9   4  165.48   11.80
   2   9  -4   55.29    7.40
   2   9  -4   49.00    8.30
  -2  -9   4   55.49    7.80
  -2  -9   4   46.00    6.40
   1   9  -4    1.80    3.50
   1   9  -4    3.30    3.50
  -1  -9   4    3.20    3.30
  -1  -9   4    2.80    3.50
   0   9  -4  381.26   17.20
   0   9  -4  376.16   18.00
   0  -9   4  380.06   16.60
   0  -9   4  348.37   15.70
  -1   9  -4   74.09    9.60
  -1   9  -4   78.19   10.00
   1  -9   4   84.49    8.00
  -2   9  -4   25.10    5.80
  -2   9  -4   19.30    5.60
  -2   9  -4   22.70    5.60
  -2   9  -4   22.50    5.30
   2  -9   4   40.20    6.00
  -3   9  -4   18.40    5.10
  -3   9  -4   14.20    4.30
  -3   9  -4   26.70    7.40
  -3   9  -4   14.60    4.80
   3  -9   4   17.50    4.50
  -4   9  -4  254.87   13.90
  -4   9  -4  313.07   17.70
  -4   9  -4  271.87   14.40
  -4   9  -4  254.67   12.60
   4  -9   4  261.07   12.70
  -5   9  -4    1.40    3.20
  -5   9  -4    1.20    4.60
  -5   9  -4    0.70    2.90
   5  -9   4    2.80    2.50
   5  -9   4    4.80    3.30
  -6   9  -4    3.60    3.80
  -6   9  -4    5.30    5.50
  -6   9  -4    0.80    3.20
   6  -9   4   -0.40    2.50
   6  -9   4   -0.80    2.00
  -7   9  -4   53.99   11.30
   7  -9   4   64.09    6.20
   7  -9   4   54.79    6.90
   7  -9   4   59.29    8.90
  -8   9  -4   46.90   10.90
   8  -9   4   50.39    6.80
   8  -9   4   47.00    5.60
  -9   9  -4   96.69   13.30
   9  -9   4   67.19    6.10
   9  -9   4   69.69    8.00
   9  -9   4   75.09   10.70
 -10   9  -4    6.90    6.20
  10  -9   4   -2.10    3.00
  10  -9   4    2.10    4.20
  10  -9   4   -1.10    2.30
   9   8  -4   89.09   13.80
  -9  -8   4   83.69   12.30
   8   8  -4  161.48   16.20
  -8  -8   4  152.68   13.50
   7   8  -4    4.20    5.30
  -7  -8   4    4.40    4.20
  -7  -8   4    0.70    1.20
  -7  -8   4    1.70    1.40
   6   8  -4   -4.20    4.30
  -6  -8   4    1.00    2.30
  -6  -8   4    1.60    4.40
   5   8  -4  136.29    6.80
   5   8  -4  153.58   13.90
  -5  -8   4  149.59    7.60
  -5  -8   4  153.28   12.00
   4   8  -4   -1.30    2.00
   4   8  -4    1.50    4.50
  -4  -8   4    2.50    3.70
  -4  -8   4    4.00    2.80
   3   8  -4    6.80    2.90
   3   8  -4   18.20    6.50
  -3  -8   4   12.60    3.50
  -3  -8   4    8.40    4.20
   2   8  -4  148.99    9.20
  -2  -8   4  171.48   10.90
  -2  -8   4  173.58    9.60
   1   8  -4  677.73   22.60
   1   8  -4  664.53   24.90
  -1  -8   4  661.73   21.20
  -1  -8   4  707.83   22.90
   0   8  -4  189.48   11.30
   0   8  -4  183.08   12.00
   0   8  -4  187.38   12.40
   0   8  -4  188.98   11.30
   0  -8   4  186.78   10.40
   0  -8   4  191.68   10.70
  -1   8  -4   -5.60    2.20
  -1   8  -4    1.20    2.60
  -1   8  -4    2.70    2.80
  -1   8  -4    2.70    3.10
   1  -8   4    2.40    2.70
   1  -8   4   -0.40    2.80
  -2   8  -4    0.10    2.20
  -2   8  -4    2.00    3.00
  -2   8  -4   -1.50    2.50
  -2   8  -4    5.80    3.70
   2  -8   4    8.30    3.40
  -3   8  -4  567.74   19.90
  -3   8  -4  607.14   21.90
  -3   8  -4  581.64   21.60
   3  -8   4  612.64   19.60
  -4   8  -4    3.80    2.60
  -4   8  -4   -1.10    2.90
  -4   8  -4    1.20    3.90
  -4   8  -4    3.40    2.90
   4  -8   4    3.20    2.80
  -5   8  -4   85.09    8.00
  -5   8  -4  104.09   12.90
  -5   8  -4   99.59    8.80
   5  -8   4   93.19    6.90
   5  -8   4   88.59    7.10
  -6   8  -4   21.30    6.80
  -6   8  -4   23.80    5.50
   6  -8   4   26.60    5.90
   6  -8   4   25.90    4.50
   6  -8   4   32.10    4.60
  -7   8  -4  204.78   15.90
   7  -8   4  231.48   13.90
   7  -8   4  209.38    9.50
   7  -8   4  205.08   10.60
  -8   8  -4   51.89    9.90
   8  -8   4   75.59   10.30
   8  -8   4   69.19    5.70
   8  -8   4   78.89    8.10
  -9   8  -4   30.40    8.00
   9  -8   4   46.50    5.40
   9  -8   4   32.10    5.60
   9  -8   4   34.90    7.60
 -10   8  -4  141.39   17.60
  10  -8   4  164.48   10.20
  10  -8   4  152.38    8.60
  10  -8   4  144.89   12.80
 -11   8  -4   10.30    6.60
  11  -8   4   11.80    4.40
  11  -8   4   10.70    3.60
  11  -8   4   10.90    5.20
  10   7  -4   65.69   13.40
 -10  -7   4   35.40    8.30
   9   7  -4   80.69   13.80
  -9  -7   4   82.49   11.70
   8   7  -4   12.70    6.90
  -8  -7   4   -1.40    3.50
   7   7  -4   54.99    9.80
  -7  -7   4   75.59    9.80
   6   7  -4  477.65   23.80
  -6  -7   4  466.35   12.30
  -6  -7   4  458.55   11.60
  -6  -7   4  479.55   20.70
   5   7  -4   74.69    4.50
   5   7  -4   78.69   11.60
  -5  -7   4   72.89    5.00
  -5  -7   4   81.39    9.80
   4   7  -4  158.18    7.30
   4   7  -4  151.18   12.40
  -4  -7   4  159.58    7.40
  -4  -7   4  177.28   11.40
   3   7  -4   11.90    3.10
  -3  -7   4   18.80    6.10
  -3  -7   4    8.30    2.80
   2   7  -4  425.86   19.00
   2   7  -4  424.96   15.10
  -2  -7   4  424.36   14.30
  -2  -7   4  432.26   16.90
   1   7  -4   17.10    4.20
   1   7  -4   27.70    6.20
   1   7  -4    9.80    3.40
  -1  -7   4   10.60    3.80
  -1  -7   4   10.50    3.30
  -1  -7   4    9.20    3.30
   0   7  -4   53.09    7.60
   0   7  -4   45.80    6.20
   0   7  -4   52.59    7.00
   0   7  -4   56.39    8.30
   0  -7   4   58.09    6.50
   0  -7   4   44.40    5.60
  -1   7  -4  137.29    9.70
  -1   7  -4  147.79    9.10
  -1   7  -4  143.99    9.60
  -1   7  -4  144.59    9.80
   1  -7   4  136.89    8.30
   1  -7   4  147.39    9.00
  -2   7  -4  104.09    8.30
  -2   7  -4   89.19    8.10
  -2   7  -4   94.49    7.10
   2  -7   4   87.99    7.30
   2  -7   4   91.49    6.70
  -3   7  -4    3.20    2.90
  -3   7  -4    4.70    3.40
  -3   7  -4   11.10    4.10
  -3   7  -4    6.40    2.70
   3  -7   4    6.20    2.50
  -4   7  -4  376.26   16.00
  -4   7  -4  360.36   17.30
  -4   7  -4  331.07   13.00
   4  -7   4  370.26   13.30
  -5   7  -4  166.98   10.30
  -5   7  -4  169.68   12.40
   5  -7   4  148.19    7.90
   5  -7   4  159.68    8.50
   5  -7   4  158.68   10.90
  -6   7  -4  562.04   20.80
  -6   7  -4  612.84   24.90
   6  -7   4  567.94   18.00
   6  -7   4  549.35   16.80
   6  -7   4  554.44   21.70
  -7   7  -4   -2.70    2.40
  -7   7  -4    1.80    4.30
   7  -7   4    4.00    2.10
   7  -7   4    0.10    2.20
   7  -7   4   -5.20    2.00
  -8   7  -4  133.39   15.20
   8  -7   4  137.69   11.20
   8  -7   4  126.79    8.30
   8  -7   4  122.29    6.90
  -9   7  -4  206.88   16.50
   9  -7   4  153.38    8.00
   9  -7   4  174.08   13.20
   9  -7   4  180.98   10.10
 -10   7  -4    0.90    4.90
  10  -7   4    2.40    2.90
  10  -7   4    8.90    5.10
  10  -7   4    2.20    3.00
 -11   7  -4   36.80   11.00
  11  -7   4   29.00    4.70
  11  -7   4   19.30    4.80
  11  -7   4   36.50    8.70
 -12   7  -4   39.70   10.40
  12  -7   4   42.30    7.10
  12  -7   4   33.10    8.40
  10   6  -4   81.69   13.70
 -10  -6   4   70.99   11.50
   9   6  -4   14.20    7.50
  -9  -6   4   14.00    5.70
   8   6  -4  191.98   16.20
  -8  -6   4  190.88   14.00
   7   6  -4  346.77   20.30
  -7  -6   4  358.26   17.80
   6   6  -4  224.88   15.60
  -6  -6   4  214.18    5.90
  -6  -6   4  224.08   13.40
  -6  -6   4  203.38    5.60
   5   6  -4  128.09   11.50
  -5  -6   4  121.69    9.70
  -5  -6   4  107.49    5.00
  -5  -6   4  112.69    4.50
   4   6  -4   41.80    9.30
  -4  -6   4   37.70    7.30
  -4  -6   4   35.40    3.70
   3   6  -4  810.12   21.00
   3   6  -4  807.22   27.80
  -3  -6   4  806.72   25.10
  -3  -6   4  789.42   20.40
   2   6  -4   85.09    7.30
   2   6  -4   95.39    6.10
   2   6  -4   91.99    8.60
  -2  -6   4  107.39    7.70
  -2  -6   4   90.59    5.70
  -2  -6   4   80.69    7.80
   1   6  -4    8.10    3.70
   1   6  -4    6.70    2.90
   1   6  -4    8.80    3.50
  -1  -6   4    5.00    2.90
  -1  -6   4    4.80    2.50
  -1  -6   4    2.90    2.40
   0   6  -4  174.38   10.60
   0   6  -4  181.18   12.60
   0   6  -4  179.08    9.50
   0   6  -4  185.18    9.60
   0  -6   4  190.48    9.30
   0  -6   4  183.78    8.90
  -1   6  -4  261.67   12.70
  -1   6  -4  246.38   11.00
  -1   6  -4  276.27   13.10
  -1   6  -4  257.27   11.90
   1  -6   4  237.88   10.90
   1  -6   4  259.77   10.70
  -2   6  -4   -2.00    1.40
  -2   6  -4    1.70    1.90
  -2   6  -4   -0.20    2.20
  -2   6  -4   -0.80    2.40
   2  -6   4    1.00    1.90
  -3   6  -4  146.49   10.00
  -3   6  -4  156.88    8.00
  -3   6  -4  186.38   10.40
  -3   6  -4  160.38    9.60
   3  -6   4  154.48    7.70
   3  -6   4  139.69    8.90
  -4   6  -4   84.29    7.10
  -4   6  -4   72.79    5.20
  -4   6  -4   65.49    8.30
   4  -6   4   82.49    7.60
   4  -6   4   81.59   10.00
   4  -6   4   76.59    5.40
  -5   6  -4  724.83   25.70
  -5   6  -4  687.63   23.20
   5  -6   4  717.23   24.30
   5  -6   4  682.93   19.10
   5  -6   4  742.03   20.10
  -6   6  -4    2.70    3.70
  -6   6  -4    4.00    2.80
   6  -6   4    0.70    1.50
   6  -6   4   -1.70    2.40
   6  -6   4   -2.40    1.70
  -7   6  -4   42.20    6.60
  -7   6  -4   35.00    7.70
   7  -6   4   34.90    4.80
   7  -6   4   36.40    4.00
   7  -6   4   51.29    8.00
  -8   6  -4   51.89    9.30
   8  -6   4   54.79    4.70
   8  -6   4   63.29    5.90
   8  -6   4   64.99    9.40
  -9   6  -4  112.89   14.10
   9  -6   4   82.69    5.90
   9  -6   4  105.99    7.70
   9  -6   4  108.19   10.70
 -10   6  -4  264.87   18.30
  10  -6   4  267.57   16.50
  10  -6   4  219.88    9.90
  10  -6   4  233.28   11.70
 -11   6  -4   48.80    9.80
  11  -6   4   33.80    4.90
  11  -6   4   53.39    6.90
  11  -6   4   55.99   10.20
 -12   6  -4    9.60    8.30
  12  -6   4    6.50    3.90
  12  -6   4    0.70    4.70
  12  -6   4    1.50    3.20
  11   5  -4  141.59   18.30
 -11  -5   4  169.98   14.60
  10   5  -4    2.40    5.40
 -10  -5   4    0.50    4.60
   9   5  -4  118.09   15.50
  -9  -5   4  105.69   12.20
   8   5  -4  147.19   14.10
  -8  -5   4  154.28   12.20
   7   5  -4  186.28   14.70
  -7  -5   4  196.28   13.00
   6   5  -4    6.10    4.60
  -6  -5   4    7.90    3.80
   5   5  -4    9.80    5.00
  -5  -5   4   10.80    4.30
  -5  -5   4   12.10    1.40
  -5  -5   4   13.60    1.60
   4   5  -4    5.30    3.40
   4   5  -4    2.10    1.30
  -4  -5   4    3.50    1.50
  -4  -5   4    6.50    3.40
   3   5  -4    8.30    3.60
   3   5  -4   10.80    2.20
   3   5  -4   15.50    4.20
  -3  -5   4   11.80    3.60
  -3  -5   4    7.00    3.10
   2   5  -4  366.66   11.80
   2   5  -4  366.46   16.00
  -2  -5   4  360.86   15.70
  -2  -5   4  371.26   14.00
  -2  -5   4  359.96   11.10
   1   5  -4   55.09    6.60
   1   5  -4   58.59    6.40
   1   5  -4   59.59    4.80
  -1  -5   4   61.09    4.80
  -1  -5   4   59.69    5.40
  -1  -5   4   50.89    6.50
   0   5  -4  326.67   14.50
   0   5  -4  346.07   14.30
   0   5  -4  336.47   12.30
   0   5  -4  314.57   12.20
   0  -5   4  310.67   13.60
   0  -5   4  336.07   12.00
   0  -5   4  330.97   11.70
  -1   5  -4    0.10    1.90
  -1   5  -4   -0.20    1.50
  -1   5  -4    1.70    2.40
  -1   5  -4   -1.20    2.10
   1  -5   4    0.90    1.90
   1  -5   4   -1.50    1.50
  -2   5  -4  756.62   23.20
  -2   5  -4  724.73   22.90
  -2   5  -4  723.13   20.20
  -2   5  -4  761.22   22.70
   2  -5   4  741.53   19.60
   2  -5   4  713.13   21.30
  -3   5  -4   39.40    3.80
  -3   5  -4   33.00    6.00
  -3   5  -4   34.40    5.30
   3  -5   4   43.00    6.30
   3  -5   4   28.30    5.30
   3  -5   4   40.20    3.80
  -4   5  -4   29.30    5.50
  -4   5  -4   27.50    4.70
   4  -5   4   32.80    3.70
   4  -5   4   41.70    6.10
   4  -5   4   29.20    5.20
   4  -5   4   35.40    3.40
  -5   5  -4   37.20    5.70
  -5   5  -4   30.20    6.10
   5  -5   4   23.60    5.10
   5  -5   4   32.70    3.50
   5  -5   4   32.80    3.90
   5  -5   4   37.00    6.20
  -6   5  -4  463.55   19.50
  -6   5  -4  431.46   19.00
   6  -5   4  429.76   17.90
   6  -5   4  448.46   13.70
   6  -5   4  420.76   12.40
  -7   5  -4   -0.40    3.70
  -7   5  -4    4.90    3.30
   7  -5   4    4.40    2.30
   7  -5   4    1.00    1.50
   7  -5   4    7.10    3.60
  -8   5  -4   25.40    7.40
   8  -5   4   23.50    3.30
   8  -5   4   27.60    6.60
   8  -5   4   30.40    4.40
  -9   5  -4  204.88   15.10
   9  -5   4  177.08    8.30
   9  -5   4  207.78   10.10
   9  -5   4  210.78   15.50
 -10   5  -4  274.17   18.30
  10  -5   4  243.68   10.30
  10  -5   4  252.27   16.50
  10  -5   4  259.57   12.10
 -11   5  -4    7.10    6.10
  11  -5   4    6.00    3.50
  11  -5   4    6.80    3.00
  11  -5   4    4.00    4.60
 -12   5  -4   -4.30    4.90
  12  -5   4    0.70    2.90
  12  -5   4    2.80    3.40
  12  -5   4   -0.90    4.10
  11   4  -4   30.00   12.70
  10   4  -4   80.99   13.40
 -10  -4   4   72.69   10.70
   9   4  -4   16.00    6.60
  -9  -4   4   12.60    5.00
   8   4  -4   26.40    7.40
  -8  -4   4   25.30    5.90
   7   4  -4   80.09   10.60
  -7  -4   4   79.69    8.90
   6   4  -4  153.48   12.10
  -6  -4   4  139.39   10.30
   5   4  -4   58.49    8.70
  -5  -4   4   56.79    7.30
   4   4  -4   86.19    9.90
   4   4  -4   67.79    6.50
  -4  -4   4   74.89    6.90
  -4  -4   4   80.49    9.40
  -4  -4   4   74.49    2.30
  -4  -4   4   76.19    2.50
   3   4  -4 1135.09   33.10
   3   4  -4 1143.99   24.50
   3   4  -4 1102.99   30.40
  -3  -4   4 1100.29   32.60
  -3  -4   4 1127.29   24.20
  -3  -4   4 1147.19   30.10
   2   4  -4  840.82   25.80
   2   4  -4  835.22   19.90
   2   4  -4  813.42   23.30
  -2  -4   4  860.41   23.20
  -2  -4   4  820.22   19.30
  -2  -4   4  773.22   25.00
   1   4  -4   85.59    5.90
   1   4  -4   81.09    5.70
   1   4  -4   93.69    7.50
  -1  -4   4  100.09    6.20
  -1  -4   4   93.99    7.10
   0   4  -4   45.90    4.20
   0   4  -4   44.30    5.90
   0   4  -4   45.50    5.70
   0   4  -4   57.39    4.50
   0  -4   4   47.60    4.30
   0  -4   4   49.80    6.10
   0  -4   4   51.09    4.10
  -1   4  -4 1282.27   31.50
  -1   4  -4 1268.37   33.70
  -1   4  -4 1255.77   30.30
  -1   4  -4 1264.07   33.40
   1  -4   4 1266.87   30.70
   1  -4   4 1309.67   29.80
  -2   4  -4   34.10    4.50
  -2   4  -4   31.70    3.70
  -2   4  -4   33.60    4.90
  -2   4  -4   32.80    4.90
   2  -4   4   33.50    3.20
   2  -4   4   45.10    6.30
   2  -4   4   39.40    4.90
  -3   4  -4   14.40    3.70
  -3   4  -4   11.10    2.50
   3  -4   4    9.80    3.10
   3  -4   4   10.30    3.50
   3  -4   4    7.90    2.00
  -4   4  -4  185.38    9.70
  -4   4  -4  163.48    9.90
   4  -4   4  179.58    6.70
   4  -4   4  178.68    7.90
   4  -4   4  176.78    9.90
  -5   4  -4  904.31   26.50
   5  -4   4  895.91   21.60
   5  -4   4  907.31   22.60
   5  -4   4  880.61   26.90
   5  -4   4  874.51   26.30
  -6   4  -4   65.09    8.90
  -6   4  -4   63.09    8.30
   6  -4   4   80.99    9.30
   6  -4   4   62.69    3.70
   6  -4   4   58.39    7.40
  -7   4  -4    0.50    2.50
   7  -4   4    0.60    1.40
   7  -4   4    3.10    2.10
   7  -4   4    0.90    3.00
  -8   4  -4  169.88   13.00
   8  -4   4  170.08    8.20
   8  -4   4  159.78   11.70
   8  -4   4  155.18    7.00
  -9   4  -4  292.37   11.90
  -9   4  -4  315.17   18.00
   9  -4   4  304.57   19.40
   9  -4   4  273.67   10.50
 -10   4  -4   10.40    3.50
 -10   4  -4   13.20    6.90
  10  -4   4    8.20    5.50
  10  -4   4   11.60    3.10
 -11   4  -4    0.30    2.60
 -11   4  -4   -2.10    5.00
  11  -4   4   -0.70    4.00
  11  -4   4   -0.60    2.40
 -12   4  -4  164.08   15.50
 -12   4  -4  139.29    9.80
  12  -4   4  159.78   15.10
  12  -4   4  115.09    9.20
 -13   4  -4    0.50    5.00
 -13   4  -4    0.00   10.00
  13  -4   4    3.10    5.40
  12   3  -4   -1.10    5.50
 -12  -3   4    2.50    2.00
 -12  -3   4    4.10    4.80
 -12  -3   4   -1.50    1.90
  11   3  -4   76.39   13.20
 -11  -3   4   69.09    4.90
 -11  -3   4   52.39    9.50
 -11  -3   4   60.39    4.60
  10   3  -4   -1.40    5.20
 -10  -3   4    4.10    2.00
 -10  -3   4    1.70    4.20
   9   3  -4  170.28   15.20
  -9  -3   4  183.98   13.00
  -9  -3   4  172.58    8.10
  -9  -3   4  184.48    7.20
   8   3  -4  160.58   13.50
  -8  -3   4  147.39    5.70
  -8  -3   4  152.68    5.80
  -8  -3   4  147.29   11.10
   7   3  -4  568.24   24.30
  -7  -3   4  603.24   22.00
  -7  -3   4  579.54   13.60
  -7  -3   4  576.64   13.50
   6   3  -4  329.77   18.70
   5   3  -4   14.90    4.50
   5   3  -4   15.40    5.10
  -5  -3   4   12.10    3.70
  -5  -3   4   11.60    4.10
   4   3  -4 2763.02   64.79
   4   3  -4 2954.80   68.49
  -4  -3   4 2857.11   64.89
   3   3  -4  408.26   14.70
   3   3  -4  434.06   17.10
  -3  -3   4  443.06   16.80
  -3  -3   4  459.15   15.20
   2   3  -4   33.90    2.30
   2   3  -4   32.20    4.40
   2   3  -4   26.90    4.50
  -2  -3   4   35.00    2.20
  -2  -3   4   32.50    5.00
  -2  -3   4   27.80    3.70
   1   3  -4   92.89    4.40
   1   3  -4   93.89    5.60
   1   3  -4   90.59    6.80
  -1  -3   4   95.69    6.80
  -1  -3   4   85.69    5.40
  -1  -3   4   84.89    4.00
   0   3  -4  385.96   12.00
   0   3  -4  392.66   14.40
   0   3  -4  407.76   14.90
   0  -3   4  403.26   11.50
   0  -3   4  411.86   12.00
   0  -3   4  391.36   14.10
  -1   3  -4    2.60    2.10
  -1   3  -4    4.10    1.60
  -1   3  -4    1.50    1.90
  -1   3  -4    2.90    1.80
   1  -3   4   -0.20    1.40
   1  -3   4    0.60    1.40
  -2   3  -4    8.00    1.80
  -2   3  -4   11.50    3.00
  -2   3  -4    7.70    2.60
   2  -3   4    6.50    2.10
   2  -3   4   10.90    1.80
   2  -3   4    7.00    2.50
  -3   3  -4   49.30    6.00
  -3   3  -4   56.79    6.50
  -3   3  -4   40.50    2.70
   3  -3   4   41.90    2.60
   3  -3   4   54.69    5.90
   3  -3   4   38.50    5.00
  -4   3  -4 1224.58   32.20
  -4   3  -4 1224.28   32.70
   4  -3   4 1215.88   26.80
   4  -3   4 1251.87   32.90
   4  -3   4 1250.47   26.30
  -5   3  -4 1958.70   48.70
  -5   3  -4 1941.91   48.00
   5  -3   4 2070.99   49.40
   5  -3   4 2014.80   41.40
   5  -3   4 2024.90   42.40
   5  -3   4 1919.31   47.70
  -6   3  -4 1015.50   30.00
  -6   3  -4 1035.10   29.30
   6  -3   4 1030.60   24.00
   6  -3   4 1026.40   30.30
   6  -3   4  950.90   28.40
   6  -3   4 1002.30   23.00
  -7   3  -4  314.17   14.50
  -7   3  -4  329.27   10.90
  -7   3  -4  322.07   15.40
   7  -3   4  314.97    9.90
   7  -3   4  326.67   15.60
  -8   3  -4  562.14   22.50
  -8   3  -4  562.94   17.00
   8  -3   4  594.34   23.10
   8  -3   4  594.44   16.10
  -9   3  -4    3.80    4.50
  -9   3  -4    1.70    2.20
   9  -3   4   -1.60    1.90
   9  -3   4   -3.30    3.30
 -10   3  -4   73.19   10.10
 -10   3  -4   82.89    6.70
  10  -3   4   72.79    5.90
  10  -3   4   88.39   12.30
 -11   3  -4   67.39   11.10
 -11   3  -4   55.79    6.90
  11  -3   4   61.29   10.60
  11  -3   4   45.10    5.70
 -12   3  -4  107.29   13.50
 -12   3  -4   90.19    8.20
  12  -3   4  137.09   16.90
 -13   3  -4   17.40    7.50
 -13   3  -4   22.30    5.40
  13  -3   4   25.80    8.30
  12   2  -4   90.49   14.80
 -12  -2   4   46.10    8.80
 -12  -2   4   54.59    6.10
 -12  -2   4   63.19    5.90
  11   2  -4   -4.40    4.30
 -11  -2   4    0.70    2.10
 -11  -2   4   -1.50    4.10
 -11  -2   4   -1.70    1.90
  10   2  -4   67.09   11.90
 -10  -2   4   52.39    4.60
 -10  -2   4   58.69    5.20
 -10  -2   4   57.29    8.80
   9   2  -4    6.60    5.40
  -9  -2   4    6.20    4.50
  -9  -2   4    6.90    2.40
  -9  -2   4    6.80    3.00
   8   2  -4  416.96   21.00
  -8  -2   4  448.06   18.90
  -8  -2   4  426.66   12.40
   7   2  -4  801.62   28.50
  -7  -2   4  765.22   18.70
  -7  -2   4  757.22   19.90
  -7  -2   4  769.12   25.30
   6   2  -4   30.00    6.50
  -6  -2   4   31.00    5.70
  -6  -2   4   25.20    2.30
  -6  -2   4   27.10    2.20
   5   2  -4   66.19    7.30
   5   2  -4   74.69    9.10
  -5  -2   4   45.30    6.30
  -5  -2   4   60.89    8.40
  -5  -2   4   54.39    2.10
   4   2  -4  384.46   15.80
   4   2  -4  372.36   15.50
  -4  -2   4  384.06   14.10
  -4  -2   4  378.26   15.80
   3   2  -4   37.90    6.00
   3   2  -4   43.60    5.20
  -3  -2   4   30.90    4.60
  -3  -2   4   32.80    4.20
   2   2  -4  120.39    6.30
   2   2  -4  104.99    7.30
  -2  -2   4  111.59    7.20
  -2  -2   4  115.39    6.30
   1   2  -4    3.30    2.10
   1   2  -4    5.50    1.30
   1   2  -4    5.40    2.00
  -1  -2   4    9.50    2.80
  -1  -2   4    5.60    1.30
  -1  -2   4    5.90    2.00
   0   2  -4  319.87    9.70
   0   2  -4  324.47   12.10
   0   2  -4  341.47   12.70
   0   2  -4  323.77    9.40
   0  -2   4  319.57    9.10
  -1   2  -4  297.97   11.60
  -1   2  -4  312.87    9.90
  -1   2  -4  307.17    8.60
   1  -2   4  324.77    8.60
   1  -2   4  307.17   11.90
   1  -2   4  296.77    9.60
  -2   2  -4  148.39    7.80
  -2   2  -4  160.08    7.20
  -2   2  -4  159.48    5.00
   2  -2   4  162.28    4.70
   2  -2   4  150.88    8.00
   2  -2   4  160.38    7.00
  -3   2  -4    6.60    2.40
  -3   2  -4   11.60    3.00
   3  -2   4   11.00    3.10
   3  -2   4    9.00    1.00
   3  -2   4   10.30    1.00
   3  -2   4    9.20    2.60
  -4   2  -4  790.72   22.40
  -4   2  -4  769.02   22.60
   4  -2   4  779.22   23.10
   4  -2   4  765.12   21.70
   4  -2   4  788.42   17.00
   4  -2   4  780.82   16.50
  -5   2  -4   57.99    5.80
  -5   2  -4   50.79    6.60
  -5   2  -4   48.80    3.00
   5  -2   4   58.69    6.30
   5  -2   4   43.30    5.70
   5  -2   4   52.79    2.80
  -6   2  -4   47.30    6.00
  -6   2  -4   46.20    6.40
  -6   2  -4   48.20    3.50
   6  -2   4   46.20    6.00
   6  -2   4   59.59    7.70
   6  -2   4   49.60    3.30
  -7   2  -4  710.93   18.40
  -7   2  -4  653.73   22.90
  -7   2  -4  674.93   23.10
   7  -2   4  683.83   22.30
   7  -2   4  697.43   17.70
   7  -2   4  719.53   24.60
  -8   2  -4   14.40    3.10
  -8   2  -4   25.10    5.50
   8  -2   4   14.50    2.90
   8  -2   4   15.60    4.90
  -9   2  -4  604.04   18.50
  -9   2  -4  616.64   23.70
   9  -2   4  623.24   25.60
   9  -2   4  610.04   18.00
 -10   2  -4   16.70    6.00
 -10   2  -4   13.20    3.90
  10  -2   4   22.40    6.80
  10  -2   4   13.20    3.60
 -11   2  -4   65.29    7.40
 -11   2  -4   68.49   10.90
  11  -2   4   75.69   11.30
  11  -2   4   67.09    7.10
 -12   2  -4   34.00    8.50
 -12   2  -4   15.30    4.50
  12  -2   4   18.30    7.20
 -13   2  -4   -3.80    4.80
 -13   2  -4    4.20    3.30
  13  -2   4   -3.30    4.30
  12   1  -4   20.80    7.80
 -12  -1   4   27.80    5.20
 -12  -1   4   31.40    8.40
 -12  -1   4   24.00    4.90
  11   1  -4   49.20   10.10
 -11  -1   4   42.90    6.00
 -11  -1   4   37.80    5.30
 -11  -1   4   44.20    8.20
  10   1  -4    1.30    4.30
 -10  -1   4   -0.90    3.30
 -10  -1   4   -1.00    2.30
   9   1  -4  787.62   21.70
   9   1  -4  871.81   32.10
  -9  -1   4  834.62   28.40
  -9  -1   4  811.02   22.90
   8   1  -4   42.50    8.00
   8   1  -4   43.80    4.40
  -8  -1   4   47.90    5.20
  -8  -1   4   38.20    6.50
   7   1  -4    0.80    3.20
   7   1  -4    0.90    1.30
  -7  -1   4    0.40    1.90
  -7  -1   4   -1.30    3.90
   6   1  -4  475.55   19.60
   6   1  -4  510.95   25.30
  -6  -1   4  499.85   18.10
  -6  -1   4  514.05   13.60
  -6  -1   4  494.45   19.70
   5   1  -4    5.70    1.30
   5   1  -4    7.30    2.90
   5   1  -4    2.70    2.80
  -5  -1   4    5.40    2.70
  -5  -1   4    5.50    1.60
  -5  -1   4    3.90    2.80
   4   1  -4  221.38   11.20
   4   1  -4  228.08    5.60
   4   1  -4  219.28    9.80
  -4  -1   4  227.98    5.90
  -4  -1   4  219.38   10.00
  -4  -1   4  214.68   11.00
   3   1  -4  188.08    8.40
   3   1  -4  192.98    9.80
  -3  -1   4  192.68    8.60
  -3  -1   4  187.78    9.40
   2   1  -4 1872.41   43.10
   2   1  -4 1771.92   40.70
  -2  -1   4 1796.72   42.70
  -2  -1   4 1807.32   40.90
   1   1  -4  199.48    5.40
   1   1  -4  199.38    8.90
   1   1  -4  185.68    7.20
  -1  -1   4  207.38    7.50
  -1  -1   4  199.78    8.70
  -3   1  -4   90.29    6.00
  -3   1  -4   89.89    5.60
   3  -1   4   84.09    6.10
   3  -1   4   80.79    5.20
  -4   1  -4   75.39    5.80
  -4   1  -4   76.69    2.80
   4  -1   4   81.59    2.80
   4  -1   4   68.99    6.10
   4  -1   4   78.29    5.40
  -5   1  -4   32.50    5.10
  -5   1  -4   28.40    2.40
  -5   1  -4   33.60    5.00
   5  -1   4   30.70    4.80
   5  -1   4   24.40    4.40
   5  -1   4   31.80    2.40
  -6   1  -4  258.97   11.80
  -6   1  -4  213.68   11.30
  -6   1  -4  255.57   11.40
   6  -1   4  249.18    8.00
   6  -1   4  254.27   12.70
  -7   1  -4    7.60    2.10
  -7   1  -4    9.80    3.60
  -7   1  -4    7.30    3.30
   7  -1   4    7.70    3.20
   7  -1   4    8.30    2.20
   7  -1   4    9.20    4.20
  -8   1  -4  583.24   21.20
  -8   1  -4  598.04   17.30
   8  -1   4  621.24   23.80
   8  -1   4  583.84   17.00
  -9   1  -4  448.36   15.00
  -9   1  -4  463.95   19.30
   9  -1   4  433.66   20.80
   9  -1   4  419.16   14.50
 -10   1  -4  439.86   19.80
 -10   1  -4  392.56   15.00
  10  -1   4  390.66   14.80
  10  -1   4  402.06   21.20
 -11   1  -4  404.06   19.70
 -11   1  -4  369.66   15.10
  11  -1   4  407.66   22.30
  11  -1   4  360.46   15.00
 -12   1  -4   78.19   11.30
  12  -1   4   76.49   12.60
 -13   1  -4    0.90    3.20
 -13   1  -4    1.50    5.60
  13  -1   4    3.70    6.00
  12   0  -4   -1.00    2.90
  12   0  -4    0.30    5.20
 -12   0   4   -2.10    2.80
 -12   0   4    0.50    4.60
  11   0  -4   29.40    5.00
  11   0  -4   20.10    7.20
 -11   0   4   33.00    7.20
 -11   0   4   34.80    6.20
  10   0  -4  177.48   14.60
  10   0  -4  152.08    8.60
 -10   0   4  173.68    9.90
 -10   0   4  169.88   12.70
   9   0  -4   28.40    7.30
   9   0  -4   31.20    4.70
  -9   0   4   26.80    5.00
  -9   0   4   28.80    6.70
   8   0  -4    7.90    4.50
   8   0  -4    2.40    2.10
  -8   0   4    2.60    3.60
  -8   0   4   -2.50    2.30
   7   0  -4  400.46   12.40
   7   0  -4  403.36   18.20
  -7   0   4  421.66   13.70
  -7   0   4  414.66   16.70
   6   0  -4  303.17   14.70
   6   0  -4  328.37   10.10
   6   0  -4  307.57   13.20
  -6   0   4  319.77   13.60
  -6   0   4  327.87   14.80
  -6   0   4  315.37   10.70
   5   0  -4  598.64   19.00
   5   0  -4  592.44   20.40
   5   0  -4  637.44   16.30
  -5   0   4  535.45   19.60
  -5   0   4  595.84   19.00
  -5   0   4  616.74   15.90
   4   0  -4  876.41   19.60
   4   0  -4  862.01   23.50
   4   0  -4  874.11   25.10
  -4   0   4  853.91   23.70
  -4   0   4  860.71   20.10
  -4   0   4  854.01   25.00
   3   0  -4  309.27   11.90
   3   0  -4  298.47   10.80
   3   0  -4  298.87    7.70
  -3   0   4  291.57   10.80
  -3   0   4  299.37    8.10
  -3   0   4  301.87   11.80
   1   0  -4  207.08    8.30
   1   0  -4  191.08    5.80
   1   0  -4  199.68    7.20
  -1   0   4  199.78    5.60
  -1   0   4  198.18    8.20
  -1   0   4  203.48    7.30
  -1   0  -4 2357.16   51.49
  -2   0  -4   65.09    4.20
  -2   0  -4   66.39    2.40
  -2   0  -4   68.49    2.60
  -2   0  -4   64.19    4.90
   2   0   4   70.29    4.30
   2   0   4   61.59    5.00
  -4   0  -4  702.33   20.80
  -4   0  -4  702.13   19.80
  -4   0  -4  720.23   16.00
   4   0   4  731.93   16.40
   4   0   4  730.33   19.70
   4   0   4  702.83   21.20
  -5   0  -4 1048.40   23.60
  -5   0  -4 1069.19   27.60
  -5   0  -4 1023.50   28.60
   5   0   4 1058.59   29.60
   5   0   4 1037.50   27.10
  -6   0  -4  661.23   16.70
  -6   0  -4  650.93   20.40
  -6   0  -4  617.44   21.20
   6   0   4  625.74   19.60
   6   0   4  655.83   17.00
   6   0   4  676.83   22.50
  -7   0  -4   78.89    5.00
  -7   0  -4   86.29    7.20
  -7   0  -4   64.19    7.60
   7   0   4   81.89    8.30
   7   0   4   71.99    6.10
   7   0   4   59.39    4.60
  -8   0  -4  654.03   18.80
  -8   0  -4  695.63   22.90
   8   0   4  638.84   19.00
   8   0   4  664.43   22.00
   8   0   4  659.43   25.10
  -9   0  -4   22.20    5.90
  -9   0  -4   18.60    3.80
   9   0   4   17.80    3.90
   9   0   4   16.00    5.10
 -10   0  -4   17.90    5.90
 -10   0  -4   16.80    4.20
  10   0   4   14.50    3.90
  10   0   4   30.70    8.30
 -11   0  -4  242.18   12.40
 -11   0  -4  270.47   15.90
  11   0   4  271.67   18.30
 -12   0  -4   59.49    7.70
 -12   0  -4   54.89    9.40
  12   0   4   47.50   10.20
 -13   0  -4   32.20    8.80
 -13   0  -4   43.10    7.10
  13   0   4   19.30    7.60
  12  -1  -4    3.30    5.10
 -12   1   4   -3.30    3.70
 -12   1   4    7.00    4.20
  11  -1  -4  203.38   16.20
 -11   1   4  207.48   12.30
 -11   1   4  235.48   15.30
  10  -1  -4   34.30    5.20
  10  -1  -4   49.20    9.70
 -10   1   4   38.80    6.60
 -10   1   4   45.90    8.30
   9  -1  -4   86.19   11.20
   9  -1  -4   59.49    5.60
  -9   1   4   86.59   10.00
  -9   1   4   79.49    8.30
   8  -1  -4  851.71   29.00
   8  -1  -4  807.42   22.60
  -8   1   4  797.52   26.70
  -8   1   4  821.72   24.30
   7  -1  -4  245.98    9.70
   7  -1  -4  254.67   13.90
  -7   1   4  238.68   12.40
  -7   1   4  242.28   13.20
  -7   1   4  242.28   10.70
   6  -1  -4    3.20    2.20
   6  -1  -4    1.70    2.70
   6  -1  -4    2.10    1.80
  -6   1   4   -1.60    3.80
  -6   1   4    1.70    2.40
  -6   1   4    1.30    1.90
   5  -1  -4  191.18   10.10
   5  -1  -4  184.28    7.40
  -5   1   4  181.08    9.50
  -5   1   4  188.98    8.10
  -5   1   4  202.88   10.20
   4  -1  -4  131.49    5.70
   4  -1  -4  125.39    7.10
   4  -1  -4  144.09    8.00
  -4   1   4  145.69    7.20
  -4   1   4  134.09    7.70
  -4   1   4  142.79    7.80
   3  -1  -4  235.38    9.30
   3  -1  -4  252.67    7.90
   3  -1  -4  250.07   10.00
  -3   1   4  252.47    8.30
  -3   1   4  261.57   10.10
   2  -1  -4   68.19    4.50
   2  -1  -4   69.39    3.80
   2  -1  -4   69.39    4.80
  -2   1   4   73.29    3.90
  -2   1   4   72.89    4.80
  -2   1   4   66.39    4.80
   1  -1  -4  221.18    7.20
   1  -1  -4  211.18    7.50
   1  -1  -4  220.28    8.00
  -1   1   4  221.08    7.80
  -1   1   4  226.08    7.10
   0  -1  -4  697.63   16.60
   0  -1  -4  679.83   17.50
   0  -1  -4  677.93   16.70
   0   1   4  684.93   17.70
   0   1   4  688.23   16.60
   0   1   4  696.73   16.80
  -1  -1  -4  342.17    9.10
  -1  -1  -4  327.77    9.70
  -1  -1  -4  327.47    9.10
  -1  -1  -4  342.97   10.90
   1   1   4  340.57   10.70
  -2  -1  -4  293.37    9.30
  -2  -1  -4  285.07    8.10
   2   1   4  277.67   10.20
   2   1   4  290.67    8.00
   2   1   4  294.07    9.40
  -3  -1  -4  461.55   11.40
  -3  -1  -4  443.36   13.30
  -3  -1  -4  435.66   14.30
   3   1   4  459.05   13.40
   3   1   4  457.05   11.70
   3   1   4  476.55   15.00
  -4  -1  -4  611.44   14.80
  -4  -1  -4  613.74   17.20
  -4  -1  -4  606.34   18.50
   4   1   4  619.04   17.30
   4   1   4  597.44   16.20
   4   1   4  583.54   18.80
  -5  -1  -4  733.73   20.80
  -5  -1  -4  759.72   18.30
  -5  -1  -4  733.33   22.50
   5   1   4  725.53   18.70
   5   1   4  753.72   20.80
   5   1   4  733.63   23.10
  -6  -1  -4    3.80    2.60
  -6  -1  -4    0.80    2.40
  -6  -1  -4    1.50    1.70
   6   1   4    3.20    2.40
   6   1   4    3.30    3.20
   6   1   4    2.80    1.80
  -7  -1  -4   47.10    7.20
  -7  -1  -4   39.20    5.30
  -7  -1  -4   41.10    4.50
   7   1   4   30.80    4.10
   7   1   4   31.70    4.60
   7   1   4   29.00    5.80
  -8  -1  -4  421.56   16.50
  -8  -1  -4  401.36   13.90
   8   1   4  400.36   14.30
   8   1   4  401.56   19.00
   8   1   4  404.56   15.70
  -9  -1  -4    3.40    2.80
  -9  -1  -4    4.10    3.70
   9   1   4    7.10    4.20
   9   1   4    3.40    2.60
 -10  -1  -4  804.32   26.80
 -10  -1  -4  795.22   23.80
  10   1   4  811.62   31.60
  10   1   4  714.63   23.80
 -11  -1  -4    6.10    3.90
 -11  -1  -4    5.30    4.40
  11   1   4   -0.70    3.90
 -12  -1  -4   19.20    5.00
 -12  -1  -4   18.60    6.40
  12   1   4   23.20    8.00
 -13  -1  -4  137.39   14.70
 -13  -1  -4  126.79   10.50
  13   1   4  107.69   14.90
  12  -2  -4   24.50    7.70
 -12   2   4   12.50    5.60
 -12   2   4   32.10    6.90
  11  -2  -4  112.89   13.30
 -11   2   4  102.89   11.50
 -11   2   4   91.69   10.30
  10  -2  -4   64.69   10.10
 -10   2   4   82.19    9.60
 -10   2   4   89.39   10.80
   9  -2  -4   67.49    7.40
   9  -2  -4   62.39    8.90
  -9   2   4   51.69    7.50
  -9   2   4   66.59    8.20
   8  -2  -4  530.95   17.30
   8  -2  -4  514.75   20.90
  -8   2   4  507.75   20.10
  -8   2   4  513.15   18.70
   7  -2  -4   45.60    5.50
   7  -2  -4   47.60    6.90
  -7   2   4   45.90    6.90
  -7   2   4   48.40    7.10
  -7   2   4   58.49    7.30
   6  -2  -4   54.29    6.90
   6  -2  -4   41.90    5.40
   6  -2  -4   46.30    5.00
  -6   2   4   58.79    7.20
  -6   2   4   47.30    6.30
  -6   2   4   53.59    6.40
   5  -2  -4    4.80    2.90
   5  -2  -4   12.80    3.00
   5  -2  -4    8.50    3.20
  -5   2   4    5.00    2.50
  -5   2   4   11.00    3.10
  -5   2   4   10.10    3.30
   4  -2  -4  120.99    7.00
   4  -2  -4  128.69    7.10
   4  -2  -4  133.39    6.40
  -4   2   4  125.89    7.00
  -4   2   4  134.49    7.60
  -4   2   4  125.99    6.80
   3  -2  -4 2248.58   49.50
   3  -2  -4 2235.78   49.00
   3  -2  -4 2215.88   49.90
  -3   2   4 2240.38   50.69
  -3   2   4 2356.36   49.80
  -3   2   4 2210.68   49.50
   2  -2  -4  106.49    5.40
   2  -2  -4  107.79    5.20
   2  -2  -4  105.39    5.60
  -2   2   4  113.19    6.00
  -2   2   4  109.29    6.40
  -2   2   4  104.19    5.90
   1  -2  -4  239.78    7.80
   1  -2  -4  236.08    8.30
   1  -2  -4  229.68    8.40
   1  -2  -4  222.58    7.50
  -1   2   4  237.28    8.70
  -1   2   4  244.68    8.40
  -2  -2  -4    5.50    2.10
  -2  -2  -4    7.90    2.20
  -2  -2  -4    6.70    1.90
   2   2   4    9.20    2.20
   2   2   4    6.60    2.10
   2   2   4    5.40    2.00
  -3  -2  -4  121.59    6.70
  -3  -2  -4  119.39    6.00
  -3  -2  -4  135.09    6.50
  -3  -2  -4  123.09    5.50
   3   2   4  114.49    5.50
   3   2   4  114.19    6.70
  -4  -2  -4  634.94   17.90
  -4  -2  -4  679.53   16.90
  -4  -2  -4  618.84   19.30
  -4  -2  -4  649.34   18.30
   4   2   4  629.84   17.10
   4   2   4  655.73   20.10
  -5  -2  -4  683.73   19.40
  -5  -2  -4  702.83   18.10
  -5  -2  -4  650.93   21.20
   5   2   4  675.63   18.70
   5   2   4  690.23   19.70
   5   2   4  675.73   22.00
  -6  -2  -4   88.29    7.50
  -6  -2  -4  104.59    6.00
  -6  -2  -4  106.69    6.80
   6   2   4  103.69    8.40
   6   2   4  104.79    6.30
   6   2   4   93.59    6.40
  -7  -2  -4   19.80    4.00
  -7  -2  -4   16.70    3.40
  -7  -2  -4   11.10    4.10
   7   2   4   22.30    4.50
   7   2   4   10.90    4.10
   7   2   4   20.10    3.90
  -8  -2  -4   14.50    3.50
  -8  -2  -4   13.90    3.90
   8   2   4    9.60    3.20
   8   2   4   12.50    3.60
   8   2   4   11.70    5.10
  -9  -2  -4 1093.19   29.90
  -9  -2  -4 1132.39   32.30
   9   2   4 1161.18   37.70
   9   2   4 1043.20   30.70
 -10  -2  -4  130.69    9.00
 -10  -2  -4  140.39   10.60
  10   2   4  134.99   13.00
 -11  -2  -4   62.69    8.60
 -11  -2  -4   64.19    7.90
  11   2   4   58.89   10.20
 -12  -2  -4   78.99    9.10
 -12  -2  -4   90.59   10.90
  12   2   4   99.49   15.00
 -13  -2  -4   25.10    7.60
 -13  -2  -4   23.80    5.60
  13   2   4   42.60   14.70
  12  -3  -4    5.10    5.70
 -12   3   4   -1.50    3.30
 -12   3   4    1.70    4.40
  11  -3  -4   28.30    7.30
 -11   3   4   29.30    7.00
 -11   3   4   26.20    6.70
  10  -3  -4   25.00    7.10
 -10   3   4   31.40    7.20
 -10   3   4   34.60    7.00
   9  -3  -4   63.19    9.30
  -9   3   4   51.09    8.20
  -9   3   4   57.99    8.30
   8  -3  -4   16.20    4.00
   8  -3  -4   21.20    5.40
  -8   3   4   10.80    4.00
  -8   3   4   10.40    4.00
  -8   3   4   16.30    4.60
   7  -3  -4  797.92   24.20
   7  -3  -4  866.01   26.50
  -7   3   4  865.01   26.90
  -7   3   4  856.51   26.20
  -7   3   4  793.22   28.60
   6  -3  -4  245.58   10.70
   6  -3  -4  231.58   11.40
   6  -3  -4  243.78   11.10
  -6   3   4  230.38   11.10
  -6   3   4  256.67   11.90
  -6   3   4  249.08   12.20
   5  -3  -4  200.78    9.50
   5  -3  -4  208.78    9.50
  -5   3   4  208.58   10.50
  -5   3   4  189.48    9.80
  -5   3   4  197.68    9.30
   4  -3  -4 3376.76   72.39
   4  -3  -4 3311.37   73.09
   4  -3  -4 3386.96   73.59
  -4   3   4 3396.46   72.39
  -4   3   4 3447.95   75.09
  -4   3   4 3450.15   74.49
   3  -3  -4  970.30   25.00
   3  -3  -4  952.10   25.10
   3  -3  -4  987.90   23.40
  -3   3   4  994.10   26.10
  -3   3   4  981.90   25.80
  -3   3   4  994.00   26.10
   2  -3  -4  642.44   17.90
   2  -3  -4  618.84   17.60
   2  -3  -4  631.04   15.20
  -2   3   4  607.54   15.20
  -2   3   4  654.33   18.30
   1  -3  -4    3.10    1.90
   1  -3  -4    2.40    1.70
   1  -3  -4    2.30    1.20
   1  -3  -4    2.10    1.10
  -1   3   4    3.20    2.00
  -1   3   4   -1.60    1.60
   0  -3  -4  912.01   22.90
   0  -3  -4  898.51   23.20
   0  -3  -4  909.21   20.50
   0  -3  -4  925.21   23.10
   0   3   4  909.41   20.60
  -1  -3  -4  513.05   15.00
  -1  -3  -4  494.75   13.30
  -1  -3  -4  498.85   14.70
   1   3   4  505.35   14.50
   1   3   4  499.45   14.70
   1   3   4  493.25   13.40
  -2  -3  -4  158.58    7.30
  -2  -3  -4  160.48    7.10
  -2  -3  -4  146.99    6.90
   2   3   4  156.58    7.10
   2   3   4  155.28    7.10
   2   3   4  149.19    7.00
  -3  -3  -4  106.09    6.30
  -3  -3  -4  106.19    6.10
  -3  -3  -4  108.39    5.90
   3   3   4  107.29    6.00
   3   3   4  107.79    6.00
   3   3   4  109.69    6.70
  -4  -3  -4  658.33   19.00
  -4  -3  -4  643.34   18.30
  -4  -3  -4  630.04   19.70
  -4  -3  -4  651.33   18.00
   4   3   4  657.23   18.50
   4   3   4  644.04   20.30
  -5  -3  -4 2111.19   52.59
  -5  -3  -4 2215.98   50.19
  -5  -3  -4 2278.07   49.60
  -5  -3  -4 2235.78   50.99
   5   3   4 2126.19   49.99
   5   3   4 2285.07   53.99
  -6  -3  -4  283.67   11.50
  -6  -3  -4  301.47   14.00
  -6  -3  -4  281.27   11.80
  -6  -3  -4  296.47   11.20
   6   3   4  296.07   14.40
   6   3   4  265.17   11.40
  -7  -3  -4  265.77   11.20
  -7  -3  -4  285.67   13.80
  -7  -3  -4  256.07   11.40
   7   3   4  263.97   14.60
   7   3   4  281.17   12.10
  -8  -3  -4 1428.86   36.20
  -8  -3  -4 1459.85   37.40
  -8  -3  -4 1379.46   37.50
   8   3   4 1399.16   37.40
   8   3   4 1432.46   43.50
  -9  -3  -4   96.29    8.20
  -9  -3  -4   91.59    7.70
   9   3   4  121.69   14.00
 -10  -3  -4   22.50    5.40
  10   3   4   16.40    5.90
 -11  -3  -4  229.58   13.00
 -11  -3  -4  263.27   14.40
  11   3   4  250.07   18.10
 -12  -3  -4  179.78   12.60
 -12  -3  -4  194.18   12.40
  12   3   4  189.78   16.80
 -13  -3  -4   12.40    5.00
 -13  -3  -4   10.70    5.10
  13   3   4    8.10    6.10
  12  -4  -4  105.89   13.70
 -12   4   4   79.59   11.90
 -12   4   4   81.09   11.00
  11  -4  -4   11.90    5.70
 -11   4   4    3.00    4.20
 -11   4   4   -4.40    3.30
  10  -4  -4   31.00    7.30
 -10   4   4   33.60    7.50
 -10   4   4   31.30    6.90
   9  -4  -4    4.70    3.80
  -9   4   4    5.00    3.90
  -9   4   4    2.50    4.00
   8  -4  -4  450.85   18.50
  -8   4   4  454.55   19.20
  -8   4   4  440.76   17.90
  -8   4   4  433.36   18.90
   7  -4  -4  361.16   14.70
   7  -4  -4  380.56   15.60
  -7   4   4  407.26   17.10
  -7   4   4  371.36   16.50
  -7   4   4  366.46   15.00
   6  -4  -4   39.90    5.40
   6  -4  -4   31.50    4.70
  -6   4   4   41.10    5.80
  -6   4   4   43.50    6.50
  -6   4   4   50.99    6.10
   5  -4  -4  238.18   10.70
   5  -4  -4  236.88   10.90
   5  -4  -4  244.78   10.10
  -5   4   4  270.57   12.30
  -5   4   4  269.77   12.40
  -5   4   4  233.58    9.70
   4  -4  -4 1959.20   47.20
   4  -4  -4 2030.30   47.20
  -4   4   4 2010.30   48.40
  -4   4   4 2006.80   44.30
  -4   4   4 2075.69   48.90
   3  -4  -4  141.79    7.70
   3  -4  -4  139.49    7.40
   3  -4  -4  139.49    5.40
  -3   4   4  130.19    8.00
  -3   4   4  141.39    8.10
  -3   4   4  137.39    5.30
   2  -4  -4  109.39    3.70
   2  -4  -4  107.29    6.40
   2  -4  -4  115.59    6.80
  -2   4   4  110.39    7.00
  -2   4   4  111.49    7.00
   1  -4  -4  278.87    6.60
   1  -4  -4  278.57   10.90
   1  -4  -4  274.47    6.60
   1  -4  -4  279.27   10.70
   1  -4  -4  281.47   11.00
  -1   4   4  265.27   10.90
   0  -4  -4  126.19    7.10
   0  -4  -4  137.79    7.30
   0  -4  -4  133.79    4.70
   0   4   4  134.79    7.00
   0   4   4  127.29    7.10
   0   4   4  132.79    4.80
  -1  -4  -4  356.46   12.80
  -1  -4  -4  367.96   10.70
  -1  -4  -4  356.36   12.70
   1   4   4  383.56   12.80
   1   4   4  376.76   10.90
  -2  -4  -4   50.49    4.60
  -2  -4  -4   49.00    4.20
  -2  -4  -4   46.80    4.80
   2   4   4   51.39    4.60
   2   4   4   49.60    4.30
   2   4   4   52.39    4.70
  -3  -4  -4  674.13   19.50
  -3  -4  -4  676.93   19.90
  -3  -4  -4  717.63   20.10
   3   4   4  680.43   19.50
   3   4   4  651.83   19.60
   3   4   4  705.33   20.20
  -4  -4  -4 1990.40   46.80
  -4  -4  -4 1942.91   47.60
  -4  -4  -4 2031.00   46.30
   4   4   4 1962.40   45.80
   4   4   4 2042.60   48.30
   4   4   4 1974.90   46.60
  -5  -4  -4    5.10    2.70
  -5  -4  -4   14.10    3.60
  -5  -4  -4    4.40    2.50
  -5  -4  -4    9.60    3.10
   5   4   4    8.40    3.40
   5   4   4    4.70    2.40
  -6  -4  -4  185.98    9.40
  -6  -4  -4  178.58   10.90
  -6  -4  -4  202.48    9.50
  -6  -4  -4  190.78    9.70
   6   4   4  192.28    9.90
   6   4   4  199.18   11.90
  -7  -4  -4 1105.49   29.90
  -7  -4  -4 1115.39   31.30
  -7  -4  -4 1120.59   30.20
   7   4   4 1102.19   31.40
   7   4   4 1144.49   35.30
  -8  -4  -4   87.79    7.10
  -8  -4  -4   71.09    8.00
  -8  -4  -4   80.79    7.10
   8   4   4   72.79    7.10
   8   4   4   81.19   10.60
  -9  -4  -4   62.89    7.80
  -9  -4  -4   38.40    7.00
   9   4   4   45.00    8.60
 -10  -4  -4   70.89    8.60
  10   4   4   58.09    9.50
 -11  -4  -4  140.29   11.00
 -11  -4  -4  180.48   11.90
  11   4   4  155.68   15.00
 -12  -4  -4    7.20    4.40
 -12  -4  -4   13.40    4.90
  12   4   4    6.40    6.40
 -13  -4  -4   65.29    9.40
 -13  -4  -4   58.79    9.20
  13   4   4   52.99   10.80
  12  -5  -4   12.50    6.10
 -12   5   4   18.40    6.50
 -12   5   4   21.20    7.20
  11  -5  -4    5.20    4.60
 -11   5   4    0.90    3.70
 -11   5   4    7.80    5.20
 -10   5   4   -0.80    3.10
 -10   5   4   -3.70    3.20
   9  -5  -4  164.88   11.40
  -9   5   4  145.29   10.50
  -9   5   4  128.89   11.50
  -9   5   4  135.79   11.50
   8  -5  -4  297.87   14.10
  -8   5   4  288.07   16.70
  -8   5   4  285.77   15.40
   7  -5  -4   -0.10    2.30
  -7   5   4    2.60    3.30
  -7   5   4    2.50    2.50
  -7   5   4   -2.10    2.80
   6  -5  -4    1.10    2.00
   6  -5  -4   -3.90    1.80
   6  -5  -4    3.30    2.20
  -6   5   4    0.00    3.00
  -6   5   4    0.40    2.70
  -6   5   4    3.30    2.20
   5  -5  -4  714.93   21.80
   5  -5  -4  709.33   19.40
   5  -5  -4  672.73   22.10
  -5   5   4  714.33   23.40
  -5   5   4  732.63   19.40
  -5   5   4  745.73   24.30
   4  -5  -4   -0.10    2.40
   4  -5  -4    2.70    1.60
   4  -5  -4    2.70    2.00
  -4   5   4    0.20    2.50
  -4   5   4    2.20    1.40
  -4   5   4    1.40    2.20
   3  -5  -4   10.90    3.40
   3  -5  -4   12.80    3.10
   3  -5  -4   13.60    3.40
   3  -5  -4   13.50    1.60
  -3   5   4   13.40    3.50
  -3   5   4   17.40    1.70
  -3   5   4   14.10    3.90
   2  -5  -4  460.05   16.30
   2  -5  -4  480.25   16.00
   2  -5  -4  472.95   16.40
  -2   5   4  484.85   17.00
   1  -5  -4   55.49    5.30
   1  -5  -4   65.39    5.50
   1  -5  -4   58.39    5.40
  -1   5   4   58.89    5.60
   0  -5  -4   10.30    1.60
   0  -5  -4    5.80    2.50
   0  -5  -4   11.00    3.30
   0   5   4    6.90    2.40
   0   5   4   10.00    1.70
   0   5   4   10.90    3.10
  -1  -5  -4   13.20    3.10
  -1  -5  -4    9.20    2.80
  -1  -5  -4    9.50    2.30
   1   5   4    5.30    2.40
   1   5   4    6.90    2.70
   1   5   4    9.40    2.20
  -2  -5  -4   30.70    4.70
  -2  -5  -4   28.20    4.00
  -2  -5  -4   22.90    3.70
   2   5   4   35.80    5.10
   2   5   4   32.70    4.20
   2   5   4   26.60    4.00
  -3  -5  -4 1062.39   28.10
  -3  -5  -4 1078.19   28.60
  -3  -5  -4 1060.79   28.70
   3   5   4 1066.29   28.10
   3   5   4 1094.59   28.60
   3   5   4 1017.00   28.50
  -4  -5  -4   74.89    6.20
  -4  -5  -4   63.19    5.70
  -4  -5  -4   70.89    6.30
   4   5   4   57.29    5.30
   4   5   4   72.79    8.00
   4   5   4   47.30    5.60
  -5  -5  -4   28.10    7.00
  -5  -5  -4   21.00    4.00
  -5  -5  -4   27.00    4.90
  -5  -5  -4   33.10    5.30
   5   5   4   24.30    4.20
   5   5   4   22.80    5.00
   5   5   4   37.10    5.80
  -6  -5  -4   72.49    6.00
  -6  -5  -4   81.69    8.20
  -6  -5  -4   69.89    8.70
  -6  -5  -4   77.29    6.50
   6   5   4   52.59    6.40
   6   5   4   84.69   10.20
  -7  -5  -4   29.20    4.90
  -7  -5  -4   25.80    4.60
  -7  -5  -4   26.60    5.10
   7   5   4   28.80    7.10
   7   5   4   28.20    5.40
  -8  -5  -4  255.67   12.00
  -8  -5  -4  253.77   12.90
  -8  -5  -4  260.47   13.00
   8   5   4  278.57   16.70
  -9  -5  -4  202.48   11.20
  -9  -5  -4  219.98   12.30
   9   5   4  206.48   15.50
 -10  -5  -4  139.19   10.60
  10   5   4  148.59   14.20
 -11  -5  -4   -0.80    3.30
 -11  -5  -4    2.00    3.80
  11   5   4   -0.70    4.70
 -12  -5  -4   18.40    6.00
 -12  -5  -4   15.70    5.50
  12   5   4    9.30    5.90
 -13  -5  -4   49.20    8.30
 -13  -5  -4   56.69    9.30
  13   5   4   40.50   10.90
  12  -6  -4    7.60    5.20
 -12   6   4    9.00    5.20
 -12   6   4   12.90    5.90
  11  -6  -4   -2.70    3.20
 -11   6   4    1.60    4.50
 -11   6   4    0.60    4.10
  10  -6  -4  115.99   10.40
 -10   6   4  103.79   12.70
 -10   6   4   99.19   11.60
   9  -6  -4  143.79   10.40
  -9   6   4  124.59    9.60
  -9   6   4  158.18   13.00
  -9   6   4  129.79   11.60
   8  -6  -4   42.70    6.50
  -8   6   4   28.70    5.20
  -8   6   4   32.80    6.30
  -8   6   4   34.50    7.20
   7  -6  -4   31.20    5.10
  -7   6   4   38.60    5.20
   6  -6  -4  472.15   15.10
  -6   6   4  464.15   15.00
  -6   6   4  521.25   20.90
  -6   6   4  485.75   19.60
   5  -6  -4  235.88    8.50
   5  -6  -4  233.88   11.20
   5  -6  -4  216.48   11.60
  -5   6   4  233.68   13.20
  -5   6   4  247.68    9.00
  -5   6   4  222.88   12.30
   4  -6  -4  576.14   13.70
   4  -6  -4  532.65   19.50
   4  -6  -4  596.64   20.70
   4  -6  -4  571.14   19.00
  -4   6   4  569.74   13.50
  -4   6   4  570.54   21.20
   3  -6  -4  624.74   21.00
   3  -6  -4  623.44   20.20
  -3   6   4  634.44   22.00
   2  -6  -4  276.87   12.60
   2  -6  -4  278.77   12.20
   2  -6  -4  282.77   12.70
  -2   6   4  280.37   13.20
   1  -6  -4 1008.80   28.90
   1  -6  -4 1084.99   29.50
  -1   6   4 1012.60   28.30
  -1   6   4 1017.20   29.50
   0  -6  -4   16.60    3.70
   0  -6  -4   26.80    2.70
   0  -6  -4   30.70    5.20
   0   6   4   24.50    5.00
   0   6   4   20.40    4.00
   0   6   4   21.90    2.50
  -1  -6  -4  236.38    8.60
  -1  -6  -4  234.58   11.20
  -1  -6  -4  220.08   10.80
   1   6   4  214.08   10.70
   1   6   4  227.58   11.00
  -2  -6  -4 1464.75   38.20
  -2  -6  -4 1502.95   38.20
  -2  -6  -4 1462.75   35.50
   2   6   4 1487.75   35.90
   2   6   4 1474.55   38.30
   2   6   4 1506.95   37.90
  -3  -6  -4  193.58   10.10
  -3  -6  -4  189.28    9.50
  -3  -6  -4  202.78   10.40
   3   6   4  172.58    9.50
   3   6   4  184.68   10.10
   3   6   4  189.68    9.80
  -4  -6  -4  209.88   11.00
  -4  -6  -4  230.68   11.30
  -4  -6  -4  237.78   11.40
   4   6   4  244.08   11.80
   4   6   4  229.58   11.80
   4   6   4  230.38   10.80
  -5  -6  -4  220.08   12.10
  -5  -6  -4  247.38   12.00
  -5  -6  -4  241.28   11.80
   5   6   4  263.87   11.50
   5   6   4  239.38   12.30
   5   6   4  245.28   13.20
  -6  -6  -4  159.78    9.80
  -6  -6  -4  174.78    9.40
  -6  -6  -4  154.38    9.80
   6   6   4  156.98   11.50
   6   6   4  144.39   11.20
  -7  -6  -4  544.05   20.30
  -7  -6  -4  572.64   20.60
  -7  -6  -4  608.64   19.70
   7   6   4  581.24   24.00
  -8  -6  -4  257.07   13.60
  -8  -6  -4  298.67   14.40
  -8  -6  -4  297.47   13.20
   8   6   4  277.77   17.30
  -9  -6  -4  559.64   21.40
  -9  -6  -4  525.15   19.20
   9   6   4  529.75   25.40
 -10  -6  -4   27.50    5.90
 -10  -6  -4   31.30    5.90
  10   6   4   48.30   10.50
 -11  -6  -4  320.47   15.50
 -11  -6  -4  321.27   17.20
  11   6   4  333.37   21.80
 -12  -6  -4   22.70    6.50
 -12  -6  -4   21.90    5.90
  12   6   4   31.30    9.00
  11  -7  -4  146.39   12.80
 -11   7   4  133.29   15.90
 -11   7   4  149.09   13.70
  10  -7  -4   28.50    6.20
 -10   7   4   23.30    6.90
 -10   7   4   22.80    5.50
 -10   7   4   26.60    8.00
   9  -7  -4   37.10    6.40
  -9   7   4   60.19   10.60
  -9   7   4   48.50    8.70
   8  -7  -4   11.50    3.70
  -8   7   4   10.00    3.40
  -8   7   4   13.80    5.50
  -8   7   4   18.10    6.20
   7  -7  -4  715.63   26.00
   7  -7  -4  673.33   20.20
  -7   7   4  721.23   27.60
  -7   7   4  683.33   25.70
  -7   7   4  643.64   19.60
   6  -7  -4    3.90    2.10
   6  -7  -4    5.90    3.80
  -6   7   4    6.30    2.10
  -6   7   4   11.70    4.70
   5  -7  -4 1040.00   31.20
   5  -7  -4  954.20   22.40
  -5   7   4  966.30   22.10
  -5   7   4  970.30   32.10
   4  -7  -4  222.28   12.40
   4  -7  -4  218.68   11.30
   4  -7  -4  214.08   15.10
  -4   7   4  230.78   13.40
   3  -7  -4 1010.10   30.30
   3  -7  -4  998.60   29.40
   3  -7  -4 1008.70   30.40
  -3   7   4 1096.59   32.40
   2  -7  -4   86.59    7.80
   2  -7  -4   92.79    7.60
   2  -7  -4   96.19    7.50
  -2   7   4   95.29    8.30
   1  -7  -4   27.90    4.90
   1  -7  -4   19.20    4.10
  -1   7   4   25.80    1.60
  -1   7   4   32.60    6.20
  -1   7   4   24.80    1.60
   0  -7  -4  791.32   19.30
   0  -7  -4  772.32   24.90
   0   7   4  825.72   25.70
   0   7   4  802.82   19.40
  -1  -7  -4  251.57   12.40
  -1  -7  -4  232.28   11.90
  -1  -7  -4  263.17    9.60
   1   7   4  263.47   15.80
   1   7   4  250.87    9.60
   1   7   4  257.57   12.50
  -2  -7  -4  242.78   12.30
  -2  -7  -4  249.18   12.30
  -2  -7  -4  261.97   10.70
   2   7   4  274.37   12.60
   2   7   4  246.78   12.40
   2   7   4  259.37   10.90
  -3  -7  -4  744.93   22.70
  -3  -7  -4  755.02   24.20
  -3  -7  -4  761.42   24.30
   3   7   4  724.13   24.30
   3   7   4  757.52   23.70
   3   7   4  753.32   23.10
  -4  -7  -4  272.47   13.10
  -4  -7  -4  242.98   13.80
   4   7   4  251.27   13.00
   4   7   4  247.98   12.70
   4   7   4  245.18   11.70
  -5  -7  -4  849.32   26.50
  -5  -7  -4  790.82   26.80
  -5  -7  -4  851.01   26.60
   5   7   4  841.22   25.30
   5   7   4  865.11   28.00
  -6  -7  -4  153.98   13.30
  -6  -7  -4  132.79    9.40
   6   7   4  146.29    9.10
   6   7   4  137.49   11.30
  -7  -7  -4  640.04   22.50
  -7  -7  -4  626.84   20.70
  -7  -7  -4  530.05   21.10
   7   7   4  606.74   25.30
  -8  -7  -4  124.39    8.80
  -8  -7  -4  124.39   10.20
   8   7   4  122.89   14.20
  -9  -7  -4    3.70    3.10
  -9  -7  -4    4.90    3.90
   9   7   4    3.70    4.70
 -10  -7  -4  155.98   12.20
 -10  -7  -4  154.08   10.40
  10   7   4  135.09   15.80
 -11  -7  -4  139.79   10.40
 -11  -7  -4  137.49   12.20
  11   7   4  126.99   15.80
 -12  -7  -4   -0.80    4.10
 -12  -7  -4    3.80    4.00
  12   7   4    3.20    5.90
  11  -8  -4   46.50    8.10
  11  -8  -4   68.19   11.70
 -11   8   4   51.49   10.80
  10  -8  -4   54.69   10.40
  10  -8  -4   62.59    8.00
 -10   8   4   41.50    6.60
 -10   8   4   43.30    8.70
   9  -8  -4  156.18   13.50
   9  -8  -4  141.19    9.20
  -9   8   4  112.09    8.10
  -9   8   4  109.69   12.80
   8  -8  -4  129.39    8.00
   8  -8  -4  153.68   12.70
  -8   8   4  122.99   14.00
  -8   8   4  140.89    7.90
   7  -8  -4   27.20    6.70
   7  -8  -4   38.60    4.50
  -7   8   4   30.70    3.90
  -7   8   4   32.70    8.70
   6  -8  -4  118.99   10.60
   6  -8  -4  117.39    5.30
  -6   8   4  100.29   12.20
  -6   8   4  114.09    5.00
   5  -8  -4  229.18   13.60
  -5   8   4  221.18   14.40
   4  -8  -4   37.90    6.70
  -4   8   4   19.60    8.90
   3  -8  -4    1.20    2.30
   3  -8  -4   -0.60    2.30
  -3   8   4   -1.50    2.70
   2  -8  -4  100.69    8.20
   2  -8  -4  114.09    9.10
   2  -8  -4  135.99   12.30
  -2   8   4  106.29    9.30
   1  -8  -4  101.99    8.40
   1  -8  -4  120.59    9.10
  -1   8   4  111.99    9.20
  -1   8   4  108.89    4.20
  -1   8   4  104.19    8.20
  -1   8   4  105.39    4.00
   0  -8  -4  445.36   18.00
   0  -8  -4  447.86   13.10
   0  -8  -4  463.35   18.60
   0   8   4  467.75   18.20
   0   8   4  455.25   13.20
   0   8   4  487.15   19.20
  -1  -8  -4  219.78    9.30
  -1  -8  -4  233.78   12.70
  -1  -8  -4  230.88   12.40
   1   8   4  246.48   12.90
   1   8   4  230.28   12.50
   1   8   4  255.07    9.90
  -2  -8  -4  156.98   10.30
  -2  -8  -4  146.59    8.20
  -2  -8  -4  153.08   10.00
   2   8   4  151.48    8.60
   2   8   4  155.48   10.20
   2   8   4  144.39   10.00
  -3  -8  -4    9.90    3.20
  -3  -8  -4    6.90    3.40
  -3  -8  -4    5.80    3.00
   3   8   4   14.90    4.00
   3   8   4   12.20    4.10
  -4  -8  -4  510.65   19.40
  -4  -8  -4  480.35   19.20
  -4  -8  -4  478.25   18.60
   4   8   4  465.15   18.20
   4   8   4  479.25   18.90
  -5  -8  -4   17.50    4.90
  -5  -8  -4   24.70    5.10
   5   8   4   29.40    5.60
   5   8   4   15.40    4.90
  -6  -8  -4  265.87   14.00
  -6  -8  -4  265.27   14.40
   6   8   4  285.77   13.30
   6   8   4  278.07   16.40
  -7  -8  -4   25.30    5.20
  -7  -8  -4   29.60    5.90
   7   8   4   23.70    6.70
  -8  -8  -4   38.00    7.30
  -8  -8  -4   38.50    6.60
   8   8   4   44.20    8.70
  -9  -8  -4  442.56   20.40
  -9  -8  -4  423.06   20.00
   9   8   4  477.55   24.90
 -10  -8  -4  204.18   12.10
 -10  -8  -4  244.98   15.50
  10   8   4  211.18   17.90
 -11  -8  -4    0.50    3.50
 -11  -8  -4   -0.70    3.50
  10  -9  -4   37.40    8.60
  10  -9  -4   35.50    6.00
 -10   9   4   25.70    8.40
 -10   9   4   29.50    5.30
   9  -9  -4   64.29   10.30
   9  -9  -4   54.09    6.20
  -9   9   4   45.60    5.50
  -9   9   4   58.69   11.00
   8  -9  -4   -0.60    3.60
   8  -9  -4    0.60    1.80
  -8   9   4   -5.40    3.60
  -8   9   4    1.20    1.80
   7  -9  -4   91.29    4.80
   7  -9  -4  111.49   12.70
  -7   9   4   81.79   13.30
  -7   9   4   91.09    4.50
   6  -9  -4   51.89    8.50
  -6   9   4   35.60    7.70
   5  -9  -4  253.87   14.90
  -5   9   4  237.08   15.90
   4  -9  -4   21.40    6.30
  -4   9   4   35.30    7.80
   3  -9  -4  690.43   25.50
  -3   9   4  714.53   27.20
   2  -9  -4   11.50    4.40
   1  -9  -4  107.89    9.30
  -1   9   4  109.39    9.80
  -1   9   4  108.09    4.70
  -1   9   4  105.49    4.70
   0  -9  -4  128.29   10.00
   0  -9  -4  119.69    6.10
   0   9   4  111.19    9.70
   0   9   4  111.89    6.10
  -1  -9  -4  594.44   18.10
  -1  -9  -4  600.14   22.70
   1   9   4  589.84   18.10
   1   9   4  568.04   22.20
  -2  -9  -4    8.80    4.00
  -2  -9  -4   13.30    3.50
   2   9   4    1.60    2.80
   2   9   4    5.60    3.10
  -3  -9  -4   58.19    7.80
  -3  -9  -4   54.49    8.10
  -3  -9  -4   64.99   10.80
   3   9   4   65.69    8.40
   3   9   4   52.59    7.00
  -4  -9  -4  667.23   24.40
  -4  -9  -4  749.82   26.20
   4   9   4  756.02   25.50
   4   9   4  741.73   25.00
  -5  -9  -4   18.00    5.60
   5   9   4   17.30    5.90
   5   9   4   20.20    5.50
  -6  -9  -4  328.57   16.80
   6   9   4  325.87   18.00
   6   9   4  311.17   14.80
  -7  -9  -4   15.30    4.50
  -7  -9  -4   21.60    6.30
   7   9   4   21.00    5.40
   7   9   4   24.00    7.50
  -8  -9  -4  173.08   13.00
  -8  -9  -4  180.18   11.30
   8   9   4  202.08   15.90
  -9  -9  -4  406.76   17.30
  -9  -9  -4  384.76   19.70
   9   9   4  397.66   23.30
 -10  -9  -4    0.80    3.50
 -10  -9  -4    3.80    4.30
  10   9   4   -1.80    4.70
 -11  -9  -4   34.00    6.90
 -11  -9  -4   28.50    7.70
  11   9   4   24.90    8.90
  10 -10  -4    9.60    6.70
  10 -10  -4    1.90    2.60
 -10  10   4    7.80    3.00
 -10  10   4   20.50    9.20
   9 -10  -4   25.90    3.90
   9 -10  -4   13.10    6.20
  -9  10   4   35.40   10.00
  -9  10   4   26.40    3.50
   8 -10  -4  175.38   14.50
  -8  10   4  144.99    5.20
  -8  10   4  185.08   16.50
   7 -10  -4  167.28   13.80
  -7  10   4  161.18   18.80
   6 -10  -4   13.00    5.90
  -6  10   4   10.50    5.90
   5 -10  -4  391.86   19.80
  -5  10   4  392.36   21.50
   4 -10  -4  529.45   22.80
  -4  10   4  539.25   24.90
   3 -10  -4  129.99   11.10
  -3  10   4  129.29   11.90
   2 -10  -4   74.79    9.20
  -2  10   4   64.49    8.70
   1 -10  -4   -1.20    2.60
  -1  10   4    3.10    2.10
  -1  10   4    6.70    1.90
  -1  10   4    5.10    4.00
   0 -10  -4  368.46   12.60
   0 -10  -4  364.86   17.90
   0  10   4  361.36   18.20
   0  10   4  378.76   12.70
  -1 -10  -4    2.40    3.40
  -1 -10  -4    2.30    2.10
   1  10   4   -1.50    2.30
   1  10   4   -1.50    3.20
  -2 -10  -4    8.40    4.50
  -2 -10  -4    3.80    2.50
   2  10   4    2.80    3.00
  -3 -10  -4  244.58   12.80
  -3 -10  -4  284.47   15.70
   3  10   4  273.27   13.90
   3  10   4  269.97   18.60
  -4 -10  -4  134.99   11.30
   4  10   4  128.49   10.50
  -5 -10  -4  248.28   15.00
   5  10   4  234.18   15.20
   5  10   4  246.28   15.20
  -6 -10  -4   36.70    7.50
   6  10   4   27.90    6.00
   6  10   4   40.20    8.70
  -7 -10  -4  425.76   20.40
   7  10   4  416.26   17.90
   7  10   4  416.46   22.10
  -8 -10  -4  274.37   14.40
  -8 -10  -4  286.57   17.00
   8  10   4  273.97   19.00
  -9 -10  -4   24.10    5.70
  -9 -10  -4   28.40    7.40
   9  10   4   33.30    9.40
 -10 -10  -4   12.10    4.80
 -10 -10  -4   17.30    6.20
  10  10   4   21.10   11.50
   9 -11  -4   66.79   11.50
  -9  11   4   57.79   13.30
   8 -11  -4   90.39   12.70
  -8  11   4  122.69   17.40
   7 -11  -4   65.19   11.10
  -7  11   4   90.09   14.90
   6 -11  -4   23.10    6.40
  -6  11   4   37.30    8.50
   5 -11  -4  199.68   14.70
  -5  11   4  175.48   15.70
   4 -11  -4  246.88   15.80
  -4  11   4  243.58   17.20
   3 -11  -4   70.19   10.10
  -3  11   4   64.39   11.10
   2 -11  -4   37.00    7.60
  -2  11   4   26.40    6.50
   1 -11  -4  270.27   15.60
  -1  11   4  227.48   10.00
  -1  11   4  200.88    8.20
  -1  11   4  229.98   15.50
   0 -11  -4    0.60    1.80
   0 -11  -4   -0.20    3.20
   0  11   4   -0.60    3.70
   0  11   4    2.80    2.60
  -1 -11  -4   53.39    9.20
  -1 -11  -4   58.19    6.80
   1  11   4   50.49    6.50
   1  11   4   48.30    9.00
  -2 -11  -4   70.59   10.30
   2  11   4   59.89    7.70
   2  11   4   49.40    8.70
  -3 -11  -4  638.54   23.00
  -3 -11  -4  651.23   25.90
   3  11   4  654.83   25.30
   3  11   4  622.14   23.20
  -4 -11  -4    1.90    3.30
   4  11   4   -2.40    3.30
   4  11   4    4.20    4.10
  -5 -11  -4   18.10    6.10
   5  11   4   15.60    5.90
   5  11   4   15.00    5.20
  -6 -11  -4  173.08   13.60
   6  11   4  155.48   11.20
   6  11   4  155.68   13.80
  -7 -11  -4  337.27   18.70
   7  11   4  326.27   16.10
   7  11   4  297.97   19.40
  -8 -11  -4  144.69   10.80
  -8 -11  -4  139.59   13.00
   8  11   4  134.89   15.40
  -9 -11  -4   41.90    7.30
  -9 -11  -4   41.30    8.80
   9  11   4   51.69   11.20
   8 -12  -4    3.80    4.70
  -8  12   4   -2.00    5.50
   7 -12  -4   -0.20    4.10
  -7  12   4   -0.70    5.50
   6 -12  -4  205.78   15.80
  -6  12   4  212.18   18.30
   5 -12  -4  130.99   14.80
  -5  12   4  113.09   15.90
   4 -12  -4   43.70    8.50
  -4  12   4   69.59   11.80
   3 -12  -4   32.00    6.90
  -3  12   4   43.80    8.90
   2 -12  -4   47.40    8.80
  -2  12   4   64.29   10.50
   1 -12  -4   49.30    8.10
  -1  12   4   67.19    4.90
  -1  12   4   72.09    5.10
  -1  12   4   66.49   11.30
   0 -12  -4    0.30    3.70
   0  12   4    2.20    2.50
   0  12   4   -2.80    3.40
   0  12   4   -0.40    2.10
  -1 -12  -4   70.09   10.30
  -1 -12  -4   56.89    7.00
   1  12   4   57.89    7.10
   1  12   4   43.60    8.30
  -2 -12  -4  349.17   18.90
  -2 -12  -4  302.97   14.60
   2  12   4  332.07   18.40
   2  12   4  352.86   15.90
  -3 -12  -4   20.60    6.70
   3  12   4   29.60    7.10
   3  12   4   26.60    6.30
  -4 -12  -4   23.00    6.70
   4  12   4   22.10    6.40
   4  12   4   31.90    7.00
  -5 -12  -4  146.49   13.00
   5  12   4  169.28   12.30
   5  12   4  157.78   13.50
  -6 -12  -4   66.09   10.00
   6  12   4   56.09   10.40
   6  12   4   54.09    8.70
  -7 -12  -4   41.90    9.30
   7  12   4   46.30    9.70
   7  12   4   37.40    7.10
  -8 -12  -4  195.78   12.80
  -8 -12  -4  209.18   16.00
   8  12   4  210.98   17.70
   7 -13  -4   80.89   12.40
  -7  13   4   82.09   15.20
   6 -13  -4   29.50    8.00
  -6  13   4   26.30    9.60
   5 -13  -4   64.89   10.60
  -5  13   4   83.69   14.50
   4 -13  -4  102.09   12.60
  -4  13   4  114.29   16.60
   3 -13  -4  135.49   13.20
  -3  13   4  153.18   18.40
   2 -13  -4   76.49   11.30
  -2  13   4   71.29   12.50
   1 -13  -4   41.50    8.70
  -1  13   4   42.60    9.90
  -1  13   4   38.30    4.60
  -1  13   4   40.30    4.50
   0 -13  -4   74.29   10.70
   0  13   4   73.09   11.10
   0  13   4   74.39    6.50
   0  13   4   76.99    6.70
  -1 -13  -4   85.89   13.70
  -1 -13  -4   83.09   11.30
   1  13   4   92.99    8.10
   1  13   4   86.69   11.80
  -2 -13  -4   36.70    6.50
  -2 -13  -4   40.50    9.00
   2  13   4   50.09    9.70
   2  13   4   44.60    7.20
  -3 -13  -4   64.19   10.70
   3  13   4   65.59   10.20
   3  13   4   65.89   10.80
  -4 -13  -4   93.49   11.50
   4  13   4  127.09   11.60
   4  13   4   96.09   11.70
  -5 -13  -4   58.59   10.30
   5  13   4   53.99    8.80
   5  13   4   73.69   11.30
   6  13   4  107.39   11.90
   6  13   4  131.79   15.10
  -7 -13  -4  171.58   14.90
   7  13   4  179.38   16.30
   7  13   4  146.29   11.90
   6 -14  -4   40.40   10.10
  -6  14   4   58.49   12.80
   5 -14  -4   24.00    7.50
  -5  14   4   12.80    7.50
   4 -14  -4   65.19   10.60
  -4  14   4   98.09   21.80
   3 -14  -4   75.89   11.40
  -3  14   4   81.59   14.30
   2 -14  -4   44.60    9.50
  -2  14   4   44.50    9.60
   1 -14  -4   55.99    9.90
  -1  14   4   58.49    5.00
  -1  14   4   48.70    4.70
  -1  14   4   55.09   12.00
   0 -14  -4   98.89   13.10
   0  14   4   97.09   12.90
   0  14   4   78.49    7.10
   0  14   4   83.19    7.20
  -1 -14  -4    6.60    3.40
  -1 -14  -4    3.00    4.50
   1  14   4   16.60    6.80
   1  14   4    8.60    4.20
  -2 -14  -4  186.08   15.50
   2  14   4  194.28   12.60
   2  14   4  202.38   15.80
  -3 -14  -4   11.30    5.90
   3  14   4   11.30    5.40
   3  14   4    3.10    4.70
   4  14   4   55.29   10.10
   4  14   4   43.90    8.60
  -5 -14  -4   21.00    7.40
   5  14   4   23.40    7.40
   5  14   4   11.30    5.70
  -6 -14  -4  162.28   15.20
   6  14   4  166.98   15.40
   6  14   4  158.98   13.00
   3 -15  -4   23.40    7.30
  -3  15   4   26.50    9.10
   2 -15  -4   26.80    7.90
  -2  15   4   25.30    9.60
   1 -15  -4   29.90    8.30
  -1  15   4   23.80    3.80
  -1  15   4   31.20    4.10
   0 -15  -4   -0.40    4.80
   0  15   4    1.20    2.70
   0  15   4    3.00    5.50
   0  15   4   -0.20    2.60
   1  15   4   81.49   12.20
   1  15   4   95.49    8.80
   1  15   4   89.89    8.90
  -2 -15  -4   12.10    6.20
   2  15   4   14.10    6.80
  -3 -15  -4   -1.30    4.20
   3  15   4   -2.80    3.50
   3  15   4   -1.10    4.20
   1  13  -5   37.50    8.50
   1  13  -5   29.70    8.70
  -1 -13   5   25.70    7.40
   0  13  -5   -4.80    3.50
   0  13  -5    1.30    4.30
   0 -13   5    9.40    5.30
  -1  13  -5  132.49   13.30
  -1  13  -5  133.39   14.80
   1 -13   5  164.18   13.40
  -2  13  -5   71.69   11.50
  -2  13  -5   59.39   10.10
   2 -13   5   81.59   10.60
  -3  13  -5   88.69   11.90
  -3  13  -5   73.39   12.00
   3 -13   5   80.89   10.10
  -4  13  -5    9.40    5.50
  -4  13  -5   26.30   14.00
   4 -13   5   18.40    6.00
   4  12  -5  173.68   16.60
   4  12  -5  148.89   10.20
  -4 -12   5  167.38   14.70
   3  12  -5   18.80    5.90
   3  12  -5   23.70    8.00
  -3 -12   5   29.20    8.00
   2  12  -5   11.50    6.30
   2  12  -5   25.70    6.40
  -2 -12   5   37.80    8.10
   1  12  -5   22.90    7.60
   1  12  -5   29.50    7.40
  -1 -12   5   16.00    6.00
   0  12  -5   34.60    7.80
   0  12  -5   30.70    7.80
   0 -12   5   30.30    7.20
  -1  12  -5   66.59   10.60
  -1  12  -5   57.99   10.60
   1 -12   5   72.59    9.70
  -2  12  -5    3.20    4.70
  -2  12  -5    8.30    5.10
   2 -12   5    8.40    4.50
  -3  12  -5   13.50    6.10
  -3  12  -5   27.80    8.40
   3 -12   5   28.20    6.10
  -4  12  -5   24.00    6.80
  -4  12  -5   22.30    8.00
   4 -12   5   34.20    6.80
  -5  12  -5   15.90    8.30
  -5  12  -5    6.70    4.70
   5 -12   5   18.20    5.40
  -6  12  -5    2.00    5.50
  -6  12  -5   -0.40    3.80
   6 -12   5    2.00    4.10
   6  11  -5   26.10    8.80
  -6 -11   5   33.00    3.90
  -6 -11   5   31.60    5.20
  -6 -11   5   35.20    8.20
   5  11  -5   45.40   10.30
   5  11  -5   52.69    6.00
  -5 -11   5   52.89    6.00
   4  11  -5  241.88   12.10
   4  11  -5  262.97   19.00
  -4 -11   5  255.17   16.50
  -4 -11   5  236.98   11.50
   3  11  -5   75.69   12.70
   3  11  -5   77.59    9.00
  -3 -11   5   51.69    8.50
  -3 -11   5   51.69    8.60
   2  11  -5  195.38   12.80
   2  11  -5  193.48   15.70
  -2 -11   5  181.38   13.50
   1  11  -5   25.80    7.20
   1  11  -5   47.70    8.30
  -1 -11   5   38.90    7.40
   0  11  -5   26.00    6.90
   0  11  -5   35.70    7.90
   0 -11   5   21.20    5.80
  -1  11  -5   14.10    5.70
  -1  11  -5   16.30    6.10
   1 -11   5    7.40    4.60
  -2  11  -5    5.90    5.00
  -2  11  -5    5.90    4.40
   2 -11   5   -0.50    3.20
  -3  11  -5   63.29   10.00
  -3  11  -5   69.79   12.10
   3 -11   5   61.69    8.30
  -4  11  -5  109.79   13.60
  -4  11  -5  128.99   11.60
   4 -11   5  121.19   16.80
  -5  11  -5  167.68   13.00
  -5  11  -5  183.58   16.50
   5 -11   5  152.88   10.80
  -6  11  -5   25.10    6.40
  -6  11  -5   36.90    9.40
   6 -11   5   27.20    5.60
  -7  11  -5    5.20    4.60
   7 -11   5    0.00    3.20
  -8  11  -5   15.60    5.80
  -8  11  -5   33.30   10.10
   8 -11   5   14.80    4.60
   7  10  -5   40.60   10.50
  -7 -10   5   38.00    8.90
   6  10  -5   15.90    7.50
  -6 -10   5   11.40    3.00
  -6 -10   5   19.10    7.30
  -6 -10   5   11.60    2.50
   5  10  -5  132.59    7.40
   5  10  -5  115.59   14.60
  -5 -10   5  115.39    6.90
  -5 -10   5  153.38   12.90
   4  10  -5   75.09   12.40
   4  10  -5   62.79    7.10
  -4 -10   5   32.20    7.00
  -4 -10   5   43.40    5.80
   3  10  -5  378.06   21.10
   3  10  -5  364.66   15.40
  -3 -10   5  331.67   14.30
  -3 -10   5  392.96   19.00
   2  10  -5    9.00    5.10
   2  10  -5   10.50    4.40
  -2 -10   5   11.70    4.90
  -2 -10   5   12.70    4.40
   1  10  -5  129.59   10.40
   1  10  -5  115.99   11.80
  -1 -10   5  116.39   10.40
   0  10  -5    2.90    4.40
   0 -10   5    6.80    4.20
  -1  10  -5   99.09   11.70
  -1  10  -5  125.69   11.40
   1 -10   5  141.09   10.30
  -2  10  -5   12.50    5.60
  -2  10  -5    9.40    5.00
   2 -10   5    3.10    3.70
  -3  10  -5    1.40    4.00
  -3  10  -5    5.70    5.10
   3 -10   5    8.70    4.00
  -4  10  -5   21.70    7.30
   4 -10   5   33.60    5.80
  -5  10  -5   56.09   10.00
   5 -10   5   46.20    6.70
   5 -10   5   59.89    7.30
  -6  10  -5  116.99   11.10
  -6  10  -5   93.89   13.70
   6 -10   5  123.29    9.10
   6 -10   5  120.89    8.60
  -7  10  -5   -0.60    4.80
  -7  10  -5    2.10    4.40
   7 -10   5    2.20    2.50
   7 -10   5    0.80    3.30
  -8  10  -5  107.69   16.00
  -8  10  -5  141.39   12.30
   8 -10   5  150.48    9.50
   8 -10   5  119.89    7.90
  -9  10  -5   43.00   10.90
   9 -10   5   26.70    5.00
   9 -10   5   23.60    6.90
   9 -10   5   22.50    4.10
   8   9  -5   19.90    7.90
  -8  -9   5   16.40    6.90
   7   9  -5   18.70    7.80
  -7  -9   5    9.70    6.40
   6   9  -5   51.69   10.70
  -6  -9   5   46.50    3.00
  -6  -9   5   42.30    8.20
   5   9  -5    0.80    2.10
   5   9  -5   -0.20    4.40
  -5  -9   5   -1.90    1.80
  -5  -9   5   -1.70    4.00
   4   9  -5  298.27   12.00
   4   9  -5  294.37   18.90
  -4  -9   5  295.37   16.40
  -4  -9   5  314.37   11.90
   3   9  -5  277.67   12.50
   3   9  -5  300.47   18.30
  -3  -9   5  266.77   11.90
  -3  -9   5  312.07   16.20
   2   9  -5  107.99   13.30
   2   9  -5  104.19    8.40
  -2  -9   5   89.39    8.60
  -2  -9   5  101.89    9.60
   1   9  -5    3.80    4.10
   1   9  -5   12.60    4.50
  -1  -9   5   10.60    4.00
  -1  -9   5    8.10    4.10
   0   9  -5  221.58   14.40
   0   9  -5  214.88   12.90
   0  -9   5  201.68   13.50
   0  -9   5  236.68   18.80
  -1   9  -5  133.59   11.00
   1  -9   5  156.08   10.10
  -2   9  -5   47.90    8.10
  -2   9  -5   52.39    7.40
  -2   9  -5   46.70    8.00
   2  -9   5   60.39    7.60
  -3   9  -5  132.79   10.80
  -3   9  -5  108.09   11.90
  -3   9  -5  100.69    8.40
   3  -9   5   99.19    8.10
  -4   9  -5  101.19   12.20
  -4   9  -5   88.09    7.60
  -4   9  -5  105.49   10.00
   4  -9   5  114.89    8.30
  -5   9  -5    4.50    5.10
  -5   9  -5   11.80    4.90
   5  -9   5    9.00    3.40
  -6   9  -5    6.50    5.80
  -6   9  -5   29.80    7.10
   6  -9   5   25.60    5.00
   6  -9   5   21.00    4.30
  -7   9  -5  265.47   18.70
   7  -9   5  240.28   10.70
   7  -9   5  266.67   16.00
   7  -9   5  246.48   11.70
  -8   9  -5   82.79   12.80
   8  -9   5   59.69    9.80
   8  -9   5   50.59    6.30
   8  -9   5   43.40    5.10
  -9   9  -5    3.30    6.60
   9  -9   5    9.90    3.00
   9  -9   5    5.70    3.50
   9  -9   5   15.30    5.90
 -10   9  -5    0.40    6.00
  10  -9   5   -1.30    2.20
  10  -9   5    0.90    2.80
  10  -9   5   -1.20    4.10
   9   8  -5   56.89   12.00
  -9  -8   5   81.39   11.60
   7   8  -5    5.00    6.20
  -7  -8   5    9.30    5.40
   6   8  -5    1.60    5.10
  -6  -8   5    6.90    5.00
   5   8  -5  661.73   16.90
   5   8  -5  679.73   29.00
  -5  -8   5  622.84   16.40
  -5  -8   5  657.83   25.30
   4   8  -5  166.08    7.90
   4   8  -5  145.59   13.40
  -4  -8   5  165.08    7.70
  -4  -8   5  171.18   12.20
   3   8  -5  260.87   11.20
   3   8  -5  274.57   16.80
  -3  -8   5  278.67   14.60
  -3  -8   5  238.28   10.40
   2   8  -5   10.00    3.60
   2   8  -5    6.60    4.40
  -2  -8   5    3.20    3.50
  -2  -8   5    6.10    3.10
   1   8  -5  541.85   23.60
   1   8  -5  495.75   18.80
  -1  -8   5  544.85   19.70
  -1  -8   5  480.65   17.50
   0   8  -5    1.30    3.00
   0   8  -5    7.90    4.30
   0  -8   5    8.40    3.70
   0  -8   5    2.50    3.20
  -1   8  -5   62.79    7.60
  -1   8  -5   74.49    8.90
  -1   8  -5   82.59   10.00
   1  -8   5   64.59    7.40
   1  -8   5   72.79    7.00
  -2   8  -5    2.10    2.50
  -2   8  -5    1.30    3.40
  -2   8  -5    3.40    4.00
  -2   8  -5    3.70    3.60
   2  -8   5    3.60    2.70
  -3   8  -5  603.34   22.70
  -3   8  -5  580.44   23.70
  -3   8  -5  539.05   21.80
  -3   8  -5  570.94   19.90
   3  -8   5  585.24   18.90
  -4   8  -5    1.20    2.80
  -4   8  -5    5.10    3.80
  -4   8  -5    3.70    4.80
  -4   8  -5    2.20    2.50
   4  -8   5    1.90    2.60
  -5   8  -5    7.60    5.50
  -5   8  -5   12.30    4.80
   5  -8   5   10.30    3.30
   5  -8   5   11.00    3.30
  -6   8  -5   83.49   10.70
   6  -8   5   84.99    6.20
   6  -8   5   79.69   10.00
   6  -8   5   84.99    6.70
  -7   8  -5  144.69   13.90
   7  -8   5  154.08    7.80
   7  -8   5  177.48   13.10
   7  -8   5  163.28    8.80
  -8   8  -5   22.40    8.10
   8  -8   5   20.30    3.60
   8  -8   5   26.50    4.70
   8  -8   5   14.40    5.50
  -9   8  -5    5.90    6.40
   9  -8   5    1.10    2.00
   9  -8   5    4.20    3.90
   9  -8   5    0.40    2.50
 -10   8  -5  259.17   33.30
  10  -8   5  186.28    9.80
  10  -8   5  159.98    8.00
  10  -8   5  180.38   14.40
 -11   8  -5   44.50   10.10
  11  -8   5   43.50    9.10
  11  -8   5   22.90    4.60
  11  -8   5   27.00    5.00
   9   7  -5   11.40    8.30
  -9  -7   5   16.80    7.10
   8   7  -5    3.40    5.60
  -8  -7   5    6.50    4.90
   7   7  -5    2.10    4.80
  -7  -7   5    1.50    3.90
   6   7  -5  356.16   20.80
  -6  -7   5  355.46   18.10
   5   7  -5   53.69   10.00
  -5  -7   5   47.10    7.20
  -5  -7   5   49.70    3.00
  -5  -7   5   45.30    3.00
   4   7  -5   38.30    8.20
   4   7  -5   35.20    3.80
  -4  -7   5   35.90    3.80
  -4  -7   5   26.70    6.00
   3   7  -5    5.30    4.50
   3   7  -5    1.80    2.20
  -3  -7   5    3.20    3.10
  -3  -7   5    3.00    2.60
   2   7  -5  480.45   16.30
  -2  -7   5  510.25   18.70
  -2  -7   5  470.25   15.30
   1   7  -5   71.09    8.00
   1   7  -5   90.19    7.00
   1   7  -5   68.29    8.50
  -1  -7   5   62.29    5.70
  -1  -7   5   83.59    7.40
   0   7  -5    2.20    2.30
   0   7  -5    3.00    3.40
   0   7  -5   -1.10    2.60
   0   7  -5    5.20    3.10
   0  -7   5    5.40    3.00
   0  -7   5    0.70    2.50
  -1   7  -5   65.39    8.50
  -1   7  -5   70.49    8.60
  -1   7  -5   62.29    8.10
  -1   7  -5   91.39   10.30
   1  -7   5   68.59    6.10
   1  -7   5   66.49    6.20
  -2   7  -5   97.39    8.60
  -2   7  -5  120.49    9.60
  -2   7  -5  101.79    8.80
  -2   7  -5  112.69    7.80
   2  -7   5  112.19    7.30
   2  -7   5  118.59    8.20
  -3   7  -5   -1.10    2.00
  -3   7  -5    1.80    2.10
  -3   7  -5    5.60    3.30
  -3   7  -5   -2.90    2.70
   3  -7   5    5.30    2.50
  -4   7  -5  144.59   10.30
  -4   7  -5  161.48   11.00
  -4   7  -5  143.89    8.00
   4  -7   5  168.18    8.30
  -5   7  -5   76.19    8.80
  -5   7  -5   80.99   11.00
   5  -7   5   80.29    6.00
   5  -7   5   66.09    5.40
   5  -7   5   78.49    9.70
  -6   7  -5  242.88   15.70
  -6   7  -5  251.47   13.80
   6  -7   5  264.67   14.80
   6  -7   5  253.17   10.20
   6  -7   5  231.38    9.40
  -7   7  -5   16.50    5.80
   7  -7   5   17.70    3.00
   7  -7   5   26.00    4.20
   7  -7   5   17.90    5.60
  -8   7  -5   15.60    7.00
   8  -7   5    9.90    3.10
   8  -7   5    9.50    4.80
   8  -7   5    9.70    2.50
  -9   7  -5  164.88   15.20
   9  -7   5  153.08   12.90
   9  -7   5  143.69    7.10
   9  -7   5  157.68    8.70
 -10   7  -5   15.70    7.10
  10  -7   5    7.60    2.80
  10  -7   5   18.30    6.60
  10  -7   5   13.50    3.90
 -11   7  -5   -0.40    6.30
  11  -7   5   10.90    6.00
  11  -7   5    4.10    2.90
  11  -7   5    2.90    2.60
  10   6  -5   19.80    9.10
 -10  -6   5    5.20    5.20
   9   6  -5    3.60    5.80
  -9  -6   5   -0.20    3.90
   8   6  -5   50.79   10.50
  -8  -6   5   47.30    8.70
   7   6  -5  217.18   16.80
  -7  -6   5  220.58   14.60
   6   6  -5   26.60    7.40
  -6  -6   5   37.20    6.40
   5   6  -5  130.09   12.30
  -5  -6   5  106.49    9.60
   4   6  -5   32.00    6.70
   4   6  -5   47.30    3.20
  -4  -6   5   57.49    8.00
  -4  -6   5   50.89    3.20
   3   6  -5 1131.69   27.30
  -3  -6   5 1114.89   26.50
  -3  -6   5 1186.28   32.70
   2   6  -5   73.19    8.50
   2   6  -5   70.19    5.30
   2   6  -5   71.29    9.60
  -2  -6   5   57.29    6.60
  -2  -6   5   66.99    4.80
   1   6  -5   20.40    3.90
   1   6  -5   30.20    6.10
   1   6  -5   18.60    4.20
  -1  -6   5   15.20    4.10
  -1  -6   5   27.10    4.70
  -1  -6   5   27.90    4.00
   0   6  -5  167.88    9.30
   0   6  -5  174.28   11.30
   0   6  -5  167.98    9.10
   0   6  -5  164.28   10.80
   0  -6   5  158.78    8.20
   0  -6   5  165.38    8.80
  -1   6  -5  326.27   13.60
  -1   6  -5  318.67   14.80
  -1   6  -5  302.57   12.50
  -1   6  -5  292.87   14.70
   1  -6   5  300.37   11.60
   1  -6   5  286.47   12.00
  -2   6  -5    3.40    2.00
  -2   6  -5    1.40    2.60
  -2   6  -5    2.40    2.80
  -2   6  -5    1.10    2.50
   2  -6   5    1.30    2.30
   2  -6   5    1.70    1.80
  -3   6  -5  311.47   14.60
  -3   6  -5  286.97   15.90
  -3   6  -5  314.57   14.80
  -3   6  -5  307.27   11.80
   3  -6   5  316.87   13.70
   3  -6   5  333.67   11.40
  -4   6  -5   23.30    4.90
  -4   6  -5   21.70    5.10
  -4   6  -5   36.10    4.30
   4  -6   5   31.60    6.10
   4  -6   5   25.10    3.60
  -5   6  -5   38.90    6.40
   5  -6   5   40.70    4.30
   5  -6   5   42.50    4.10
   5  -6   5   25.40    5.30
  -6   6  -5  412.46   19.60
  -6   6  -5  378.36   17.10
   6  -6   5  393.56   12.00
   6  -6   5  396.96   12.80
   6  -6   5  456.95   19.00
  -7   6  -5   33.80    7.90
   7  -6   5   28.20    6.40
   7  -6   5   34.70    4.30
   7  -6   5   31.90    3.50
  -8   6  -5  169.68   14.10
   8  -6   5  149.19   13.90
   8  -6   5  156.28    7.90
   8  -6   5  151.28    6.70
  -9   6  -5  142.59   16.00
   9  -6   5  110.49    7.00
   9  -6   5  106.69   12.60
   9  -6   5  104.79    5.90
 -10   6  -5  120.79   14.20
  10  -6   5  146.69   13.10
  10  -6   5  117.19    7.70
  10  -6   5  123.99    6.70
 -11   6  -5   38.10    9.70
  11  -6   5   29.90    4.30
  11  -6   5   32.40    8.30
  11  -6   5   28.10    5.10
 -12   6  -5    6.50    6.50
  12  -6   5    8.50    6.10
  12  -6   5   12.90    4.00
  12  -6   5    4.00    3.80
   9   5  -5   41.00    9.60
  -9  -5   5   41.60    8.40
   8   5  -5   51.09    9.50
  -8  -5   5   56.99    8.60
   7   5  -5   49.50   10.00
  -7  -5   5   50.59    8.50
   6   5  -5  222.48   15.50
  -6  -5   5  222.98   13.50
   5   5  -5  208.68   14.20
  -5  -5   5  165.68   11.10
  -4  -5   5 1170.78   33.00
  -4  -5   5 1159.68   23.80
   3   5  -5  258.87   12.60
   3   5  -5  288.07   15.20
   3   5  -5  288.97    8.70
  -3  -5   5  264.17   12.50
  -3  -5   5  277.87    8.10
   2   5  -5    2.10    1.90
   2   5  -5    3.30    2.50
   2   5  -5    1.10    2.90
  -2  -5   5    3.60    2.50
  -2  -5   5    0.50    2.00
  -2  -5   5    0.90    1.60
   1   5  -5  137.69    7.10
   1   5  -5  137.09    9.80
   1   5  -5  139.69    8.20
  -1  -5   5  125.99    9.00
  -1  -5   5  129.99    7.80
  -1  -5   5  124.69    6.20
   0   5  -5  970.30   25.90
   0   5  -5  955.00   29.30
   0   5  -5  960.10   26.30
   0  -5   5 1020.40   25.90
   0  -5   5  955.80   24.80
  -1   5  -5    4.70    2.20
  -1   5  -5    3.00    2.70
  -1   5  -5    1.90    2.80
   1  -5   5    4.30    2.30
   1  -5   5    7.60    2.50
  -2   5  -5  683.63   23.10
  -2   5  -5  728.23   20.00
  -2   5  -5  713.83   22.20
  -2   5  -5  744.93   23.70
   2  -5   5  703.13   18.90
   2  -5   5  671.63   20.90
  -3   5  -5  365.76   15.30
  -3   5  -5  368.06   12.10
  -3   5  -5  379.66   15.30
   3  -5   5  363.16   11.30
   3  -5   5  354.26   14.30
   3  -5   5  354.16   15.70
  -4   5  -5   64.39    6.50
  -4   5  -5   54.79    4.00
  -4   5  -5   51.19    7.30
   4  -5   5   56.79    4.00
   4  -5   5   65.99    7.80
   4  -5   5   57.09    7.30
  -5   5  -5  181.58   11.60
  -5   5  -5  164.48   10.20
   5  -5   5  164.88    9.40
   5  -5   5  156.08    6.20
   5  -5   5  159.18   10.60
  -6   5  -5  410.46   17.40
  -6   5  -5  442.16   22.10
   6  -5   5  423.56   11.70
   6  -5   5  470.35   19.10
  -7   5  -5   71.29    8.50
  -7   5  -5   75.39   10.30
   7  -5   5   74.79    4.20
   7  -5   5   75.99    9.80
   7  -5   5   68.59    4.80
  -8   5  -5  104.69   12.00
   8  -5   5  115.89   10.60
   8  -5   5  113.99    5.60
   8  -5   5  125.79    6.70
  -9   5  -5   90.39   12.70
   9  -5   5   87.69    6.20
   9  -5   5   92.69   11.80
   9  -5   5   84.99    5.20
 -10   5  -5  135.59   15.50
  10  -5   5  144.39   13.00
  10  -5   5  128.29    6.90
  10  -5   5  150.28    8.40
 -11   5  -5   83.29   12.50
  11  -5   5   97.69    6.50
  11  -5   5  110.19    7.80
  11  -5   5   77.49   11.70
 -12   5  -5   12.30    7.10
  12  -5   5    2.10    3.30
  12  -5   5    0.50    4.40
  11   4  -5    7.20    6.90
 -11  -4   5    2.90    4.90
  10   4  -5    4.60    6.80
 -10  -4   5   11.40    5.30
   9   4  -5   15.20    6.60
  -9  -4   5   27.50    7.10
   8   4  -5    3.50    4.50
  -8  -4   5    0.90    3.80
   7   4  -5   38.60    8.40
  -7  -4   5   29.20    5.80
   6   4  -5   25.90    6.50
  -6  -4   5   27.00    5.90
   5   4  -5  633.04   25.30
  -5  -4   5  661.43   26.10
   4   4  -5  961.40   31.30
  -4  -4   5  963.90   28.20
   3   4  -5   33.60    4.80
   3   4  -5   54.09    8.00
   3   4  -5   47.90    2.40
  -3  -4   5   30.30    4.70
  -3  -4   5   50.69    2.20
  -3  -4   5   53.39    7.50
   2   4  -5  271.67    8.50
   2   4  -5  255.67   13.20
   2   4  -5  261.37   11.40
  -2  -4   5  266.57   13.20
  -2  -4   5  268.97    8.00
  -2  -4   5  259.87   11.20
   1   4  -5  490.55   18.60
   1   4  -5  501.05   16.10
   1   4  -5  510.75   14.50
  -1  -4   5  500.75   18.50
  -1  -4   5  499.05   13.70
  -1  -4   5  514.55   15.90
   0   4  -5   86.19    7.40
   0   4  -5  104.79    8.00
   0   4  -5  101.39    6.10
   0   4  -5   95.59    5.90
   0  -4   5   93.69    5.80
   0  -4   5   87.49    5.30
  -1   4  -5  244.88    9.40
  -1   4  -5  260.27   10.80
  -1   4  -5  250.77   12.30
  -1   4  -5  255.07   12.20
   1  -4   5  266.17    9.30
   1  -4   5  243.88    9.80
  -2   4  -5    9.60    3.30
  -2   4  -5    8.00    3.40
  -2   4  -5    9.60    2.20
  -2   4  -5    7.40    3.00
   2  -4   5    9.30    2.00
   2  -4   5    6.90    2.50
  -3   4  -5  121.59    8.20
  -3   4  -5  126.89    8.30
   3  -4   5  123.39    5.20
   3  -4   5  119.39    7.50
   3  -4   5  116.09    8.40
  -4   4  -5  495.55   18.50
  -4   4  -5  483.95   17.90
   4  -4   5  513.15   17.60
   4  -4   5  495.25   12.60
   4  -4   5  496.85   18.60
   4  -4   5  495.75   12.70
  -5   4  -5  914.71   28.60
  -5   4  -5  945.61   28.40
   5  -4   5  957.00   21.50
   5  -4   5  938.71   20.90
   5  -4   5  959.60   29.10
   5  -4   5  903.71   27.20
  -6   4  -5   28.30    5.80
  -6   4  -5   33.00    5.90
   6  -4   5   20.50    5.00
   6  -4   5   30.60    2.50
   6  -4   5   32.40    3.20
  -7   4  -5   41.10    6.60
  -7   4  -5   46.50    8.20
   7  -4   5   53.19    3.50
   7  -4   5   49.60    7.40
   7  -4   5   56.69    4.30
  -8   4  -5   48.50    8.40
   8  -4   5   44.80    7.80
   8  -4   5   44.60    3.60
   8  -4   5   45.40    4.20
  -9   4  -5   64.79   10.50
   9  -4   5   77.19    5.70
   9  -4   5   77.49    5.00
   9  -4   5   77.59   10.60
 -10   4  -5   57.09    9.70
  10  -4   5   56.09    9.80
  10  -4   5   61.99    6.00
  10  -4   5   63.99    5.10
 -11   4  -5  135.89   14.90
  11  -4   5   97.79    6.70
  11  -4   5  112.39    8.10
  11  -4   5  135.49   16.30
 -12   4  -5  168.68    9.90
 -12   4  -5  173.38   16.00
  12  -4   5  126.79    8.20
  12  -4   5  148.09   14.70
 -13   4  -5   20.40    4.80
 -13   4  -5   38.70   10.20
  13  -4   5   24.60    7.70
  11   3  -5   61.09   20.10
  10   3  -5    9.40    6.30
 -10  -3   5   -0.90    4.20
   9   3  -5   47.80    9.90
  -9  -3   5   61.39    9.90
   8   3  -5  115.19   14.60
  -8  -3   5  104.19   11.40
   7   3  -5   48.80    9.30
  -7  -3   5   57.79    8.50
   6   3  -5  219.38   14.20
  -6  -3   5  218.98   12.30
   5   3  -5   28.80    5.90
  -5  -3   5   34.00    5.90
   4   3  -5 1929.21   49.99
   4   3  -5 1830.52   46.20
  -4  -3   5 1827.12   49.20
  -4  -3   5 1992.20   47.00
  -3  -3   5  726.73   21.40
  -3  -3   5  679.63   23.30
   2   3  -5   13.00    3.70
   2   3  -5   18.30    2.00
   2   3  -5   12.70    2.90
  -2  -3   5   19.20    3.80
  -2  -3   5   17.50    1.70
  -2  -3   5   15.70    3.90
   1   3  -5  193.98   10.50
   1   3  -5  199.58    7.00
   1   3  -5  199.18    8.60
  -1  -3   5  199.88    8.60
  -1  -3   5  201.38    6.60
  -1  -3   5  223.88   10.90
   0   3  -5  177.78    7.20
   0   3  -5  171.48    9.60
   0   3  -5  167.08    7.30
   0   3  -5  195.18   10.30
   0  -3   5  180.18    7.40
   0  -3   5  169.08    6.70
  -1   3  -5   25.10    3.00
  -1   3  -5   33.30    5.30
  -1   3  -5   28.00    5.00
  -1   3  -5   34.10    4.20
   1  -3   5   25.50    3.30
   1  -3   5   30.90    3.20
  -2   3  -5   51.79    6.40
  -2   3  -5   34.60    4.60
  -2   3  -5   34.70    3.00
   2  -3   5   35.40    4.10
   2  -3   5   41.30    2.90
   2  -3   5   24.50    4.20
  -3   3  -5   18.20    4.10
  -3   3  -5   14.10    3.70
  -3   3  -5   18.30    2.10
   3  -3   5   18.70    1.90
   3  -3   5    9.10    2.60
   3  -3   5   12.20    3.50
  -4   3  -5   97.99    7.60
  -4   3  -5   83.69    6.90
   4  -3   5   92.99    3.20
   4  -3   5   83.69    7.20
   4  -3   5   94.49    3.30
  -5   3  -5  280.57   13.50
  -5   3  -5  296.67   13.30
   5  -3   5  289.97    7.10
   5  -3   5  279.47   13.50
   5  -3   5  281.37   12.40
   5  -3   5  295.87    7.60
  -6   3  -5    7.70    4.10
  -6   3  -5    2.40    2.60
   6  -3   5    1.50    1.30
   6  -3   5    2.80    3.10
   6  -3   5    2.50    2.50
   6  -3   5    0.50    1.10
  -7   3  -5  468.65   18.40
  -7   3  -5  434.46   18.70
   7  -3   5  449.86   12.70
   7  -3   5  453.95   19.30
   7  -3   5  437.46   12.50
  -8   3  -5  276.47   15.20
  -8   3  -5  288.47   10.00
   8  -3   5  295.17   15.90
   8  -3   5  258.57    8.90
  -9   3  -5    2.20    4.60
  -9   3  -5    0.60    2.00
   9  -3   5    2.70    3.90
   9  -3   5    2.70    2.00
 -10   3  -5   10.80    6.50
 -10   3  -5    6.50    2.70
  10  -3   5    0.30    3.90
  10  -3   5   -4.20    1.50
 -11   3  -5   47.00    6.00
 -11   3  -5   51.99    9.50
  11  -3   5   40.50    5.30
  11  -3   5   32.30    8.70
 -12   3  -5   59.99    7.20
 -12   3  -5   65.59   11.00
  12  -3   5   43.50    9.50
  12  -3   5   33.30    5.40
 -13   3  -5    7.50    3.70
 -13   3  -5    3.00    6.50
  13  -3   5   -1.40    5.00
  12   2  -5  106.99   15.70
 -12  -2   5   79.59    5.50
 -12  -2   5   88.59    6.80
 -12  -2   5   96.39   12.80
  11   2  -5    2.60    6.00
 -11  -2   5    1.90    1.80
 -11  -2   5    8.60    5.40
 -11  -2   5    3.00    2.40
  10   2  -5   10.30    6.10
 -10  -2   5    3.60    4.50
 -10  -2   5    3.70    1.80
   9   2  -5   31.10    8.10
  -9  -2   5   44.70    8.00
  -9  -2   5   26.80    3.20
   8   2  -5   46.30    8.30
  -8  -2   5   40.50    2.80
  -8  -2   5   42.60    7.40
  -8  -2   5   41.70    3.00
   7   2  -5  276.47   16.40
  -7  -2   5  276.17   14.40
   6   2  -5   11.50    4.80
   5   2  -5  854.41   29.20
   5   2  -5  983.40   30.50
  -5  -2   5  971.60   27.70
  -5  -2   5  930.21   29.90
   4   2  -5 1816.92   46.60
   4   2  -5 1762.82   43.40
  -4  -2   5 1718.93   45.80
  -4  -2   5 1799.42   43.60
   3   2  -5  351.46   15.20
   3   2  -5  379.56   13.60
  -3  -2   5  354.46   15.00
  -3  -2   5  398.26   13.80
   2   2  -5  171.48    4.10
   2   2  -5  159.58    9.40
   2   2  -5  166.08    4.20
   2   2  -5  156.58    7.70
  -2  -2   5  167.28    9.30
  -2  -2   5  156.88    7.80
   1   2  -5  260.77    7.50
   1   2  -5  259.27    9.40
   1   2  -5  257.17   11.60
  -1  -2   5  264.17    9.60
  -1  -2   5  249.97   11.30
  -1  -2   5  255.27    7.10
   0   2  -5  162.08    6.50
   0   2  -5  159.98    6.10
   0  -2   5  163.88    6.00
   0  -2   5  152.28    6.40
  -1   2  -5    2.20    1.80
  -1   2  -5    4.50    2.60
  -1   2  -5    2.60    2.40
   1  -2   5    5.00    1.50
   1  -2   5    1.10    1.50
   1  -2   5    1.80    2.30
  -2   2  -5  914.71   23.20
  -2   2  -5  871.41   24.90
  -2   2  -5  904.41   19.80
   2  -2   5  881.61   19.40
   2  -2   5  894.11   25.50
   2  -2   5  876.61   22.60
  -3   2  -5  472.65   16.40
  -3   2  -5  482.95   15.60
   3  -2   5  499.25   10.10
   3  -2   5  478.35   16.80
   3  -2   5  457.35   14.80
  -4   2  -5   89.99    6.80
  -4   2  -5   91.79    6.90
   4  -2   5   90.39    7.20
   4  -2   5   88.39    6.20
  -5   2  -5  137.89    8.70
  -5   2  -5  133.39    8.60
   5  -2   5  128.89    8.90
   5  -2   5  131.99    3.90
   5  -2   5  123.89    3.50
  -6   2  -5 2324.57   54.59
  -6   2  -5 2258.47   55.39
  -6   2  -5 2242.88   46.60
   6  -2   5 2233.78   55.59
   6  -2   5 2218.48   46.00
   6  -2   5 2127.29   52.99
  -7   2  -5  945.51   29.00
  -7   2  -5  949.90   27.10
  -7   2  -5  919.61   28.90
   7  -2   5  926.41   21.70
   7  -2   5  947.91   30.30
  -8   2  -5    4.30    4.00
  -8   2  -5    4.60    2.00
   8  -2   5    2.30    1.80
   8  -2   5    3.40    3.60
  -9   2  -5  188.58   13.20
  -9   2  -5  170.88    8.20
   9  -2   5  180.98    8.00
   9  -2   5  191.08   13.90
 -10   2  -5   46.80    5.50
 -10   2  -5   50.29    8.90
  10  -2   5   43.80    5.20
  10  -2   5   48.00    8.80
 -11   2  -5   61.29   10.20
 -11   2  -5   73.69    6.70
  11  -2   5   86.59   12.30
 -12   2  -5   -3.40    5.30
 -12   2  -5    6.60    3.40
  12  -2   5   -2.50    2.70
  12  -2   5    8.10    6.20
 -13   2  -5   -4.40    5.00
 -13   2  -5    0.00    3.00
  13  -2   5   -2.30    4.40
  12   1  -5   20.50   11.50
 -12  -1   5   12.40    3.60
 -12  -1   5   20.40    7.20
 -12  -1   5   13.10    3.50
  11   1  -5   66.39   11.80
 -11  -1   5   69.39   10.30
 -11  -1   5   66.49    5.40
 -11  -1   5   77.69    6.30
  10   1  -5   18.00    6.70
 -10  -1   5   20.70    6.10
 -10  -1   5   14.50    2.90
 -10  -1   5   20.70    3.80
   9   1  -5  237.48   16.60
  -9  -1   5  200.88   13.60
  -9  -1   5  203.78    9.00
   8   1  -5    4.40    4.40
  -8  -1   5   10.10    4.20
  -8  -1   5   12.10    2.90
   7   1  -5   10.10    4.60
  -7  -1   5   10.20    2.40
  -7  -1   5    7.00    4.00
   6   1  -5  358.76    9.40
   6   1  -5  366.16   17.10
  -6  -1   5  380.86   15.70
  -6  -1   5  355.96    9.90
   5   1  -5 1316.07   35.10
   5   1  -5 1372.96   38.00
  -5  -1   5 1325.17   37.60
  -5  -1   5 1392.56   35.80
  -5  -1   5 1332.67   27.90
   4   1  -5 1100.29   33.50
   4   1  -5 1133.09   31.80
  -4  -1   5 1073.99   31.20
  -4  -1   5 1086.89   29.30
   3   1  -5 1017.60   28.30
   3   1  -5  988.90   25.80
  -3  -1   5  939.41   27.50
  -3  -1   5  958.60   25.80
   2   1  -5 1726.23   42.50
   2   1  -5 1727.33   34.90
   2   1  -5 1782.72   34.70
   2   1  -5 1706.83   39.80
  -2  -1   5 1724.43   42.20
  -2  -1   5 1728.33   39.90
   1   1  -5  749.23   19.40
   1   1  -5  767.82   17.00
   1   1  -5  773.22   17.00
   1   1  -5  784.42   22.20
  -1  -1   5  765.42   19.60
  -1  -1   5  736.73   21.70
   0   1  -5 2937.51   62.19
   0   1  -5 2957.80   65.99
   0   1  -5 3058.29   66.69
   0  -1   5 3011.20   61.49
  -2   1  -5 1319.67   30.90
  -2   1  -5 1288.77   32.80
  -2   1  -5 1325.77   27.10
   2  -1   5 1302.67   30.50
   2  -1   5 1305.17   33.20
   2  -1   5 1342.37   27.10
  -3   1  -5  319.97   11.40
  -3   1  -5  317.77   12.40
   3  -1   5  326.97   12.80
   3  -1   5  313.87   11.00
  -4   1  -5  283.07   11.40
  -4   1  -5  264.97   11.70
   4  -1   5  271.77   10.60
   4  -1   5  270.47   12.20
  -5   1  -5  555.74   18.60
  -5   1  -5  527.45   18.80
  -5   1  -5  564.94   12.80
   5  -1   5  591.84   20.10
   5  -1   5  572.44   17.90
   5  -1   5  573.74   12.80
  -6   1  -5  736.43   28.00
  -6   1  -5  651.33   15.80
   6  -1   5  636.64   20.40
   6  -1   5  652.03   15.80
   6  -1   5  659.93   23.00
  -7   1  -5    2.50    1.70
  -7   1  -5    2.60    3.00
  -7   1  -5    1.00    2.60
   7  -1   5   11.50    4.00
   7  -1   5    6.00    1.80
   7  -1   5    4.50    2.90
  -8   1  -5   59.09    4.50
  -8   1  -5   64.89    8.00
   8  -1   5   59.89    4.50
   8  -1   5   80.39   10.10
  -9   1  -5  129.39    7.20
  -9   1  -5  143.99   10.90
   9  -1   5  133.19   11.90
   9  -1   5  118.89    6.90
 -10   1  -5  835.72   23.70
 -10   1  -5  848.32   29.40
  10  -1   5  882.11   33.10
  10  -1   5  818.92   23.60
 -11   1  -5  144.99   14.50
 -11   1  -5  119.29    8.10
  11  -1   5  129.09   15.60
  11  -1   5   95.89    7.50
 -12   1  -5    4.00    5.00
 -12   1  -5    6.30    3.50
  12  -1   5    6.70    5.90
 -13   1  -5   36.10    6.20
 -13   1  -5   25.40    8.30
  13  -1   5   52.59   11.70
  12   0  -5    9.80    6.60
 -12   0   5    1.30    2.80
 -12   0   5   -1.10    4.60
  11   0  -5   54.59   10.80
  11   0  -5   36.20    5.50
 -11   0   5   20.00    6.60
 -11   0   5   42.60    6.30
  10   0  -5  115.29    7.00
  10   0  -5  116.89   13.80
 -10   0   5  134.29   11.90
 -10   0   5  123.29    8.30
   9   0  -5  253.17   10.10
   9   0  -5  245.48   16.40
  -9   0   5  265.37   11.40
  -9   0   5  267.37   15.30
   8   0  -5   80.39   10.50
   8   0  -5   81.19    5.20
  -8   0   5   76.09    9.10
  -8   0   5   80.79    6.10
   7   0  -5  129.19   10.60
   7   0  -5  138.89    6.10
  -7   0   5  131.59    6.80
  -7   0   5  127.19    9.70
   6   0  -5  125.69    5.50
   6   0  -5  137.89   10.00
  -6   0   5  133.09    9.00
  -6   0   5  125.69    9.40
   5   0  -5    4.40    3.00
   5   0  -5    1.90    2.30
   5   0  -5    4.30    1.40
  -5   0   5    4.70    2.50
  -5   0   5    6.00    1.70
   4   0  -5   50.29    2.80
   4   0  -5   37.40    5.30
  -4   0   5   49.20    6.00
  -4   0   5   49.60    3.10
  -4   0   5   48.30    5.90
   3   0  -5  284.47    7.40
   3   0  -5  268.77   10.70
   3   0  -5  298.67   12.30
  -3   0   5  280.37    7.60
  -3   0   5  283.57   11.00
  -3   0   5  276.57   11.80
   2   0  -5 3605.44   72.49
  -2   0   5 3523.95   77.69
  -2   0   5 3626.44   72.19
   1   0  -5   11.00    1.70
   1   0  -5    7.80    2.60
   1   0  -5   11.20    1.90
   1   0  -5   15.70    2.60
  -1   0   5   12.90    2.40
  -1   0   5   12.90    3.00
   0   0  -5   46.90    5.20
   0   0  -5   41.90    3.00
   0   0  -5   42.00    2.90
   0   0  -5   40.80    3.20
   0   0  -5   45.10    5.10
   0   0   5   36.50    3.20
  -1   0  -5 1633.94   34.00
  -1   0  -5 1566.94   38.00
   1   0   5 1636.34   34.30
   1   0   5 1611.24   38.20
   1   0   5 1615.14   35.40
  -2   0  -5   10.20    1.30
  -2   0  -5   11.50    1.50
  -2   0  -5    9.30    2.20
  -2   0  -5   12.90    3.20
   2   0   5   10.70    3.20
   2   0   5    5.00    1.90
  -3   0  -5 1220.98   31.10
  -3   0  -5 1216.78   25.20
  -3   0  -5 1247.18   25.10
   3   0   5 1220.38   31.70
   3   0   5 1234.88   29.60
  -4   0  -5 1037.10   28.10
  -4   0  -5 1042.00   26.90
  -4   0  -5 1055.09   21.90
   4   0   5 1015.80   26.60
   4   0   5 1051.69   28.70
   4   0   5 1044.30   22.30
  -5   0  -5   66.39    6.20
  -5   0  -5   64.49    3.30
  -5   0  -5   72.09    5.90
   5   0   5   77.89    7.00
   5   0   5   69.99    5.60
   5   0   5   71.59    3.50
  -6   0  -5    4.70    2.90
  -6   0  -5    5.10    2.80
   6   0   5    4.80    3.40
   6   0   5    7.10    3.10
   6   0   5    1.70    1.40
  -7   0  -5   50.19    6.60
  -7   0  -5   57.59    4.20
  -7   0  -5   75.79    9.00
   7   0   5   61.99    7.30
   7   0   5   61.69    4.40
   7   0   5   58.99    7.60
  -8   0  -5  107.29    8.90
  -8   0  -5   97.59    5.90
   8   0   5  106.29   10.10
   8   0   5  102.99    6.20
  -9   0  -5   15.40    5.20
  -9   0  -5   23.30    3.90
   9   0   5   20.50    3.80
   9   0   5   16.00    5.80
 -10   0  -5   41.40    5.50
 -10   0  -5   47.50    8.40
  10   0   5   54.89   10.40
 -11   0  -5   -5.50    3.00
 -11   0  -5    3.70    2.90
  11   0   5   -5.30    3.60
  11   0   5   -0.20    2.70
 -12   0  -5   59.59    9.40
 -12   0  -5   52.79    6.90
  12   0   5   38.90    8.80
 -13   0  -5   95.79    8.70
 -13   0  -5   90.09   12.10
  13   0   5   93.99   14.50
  12  -1  -5   87.79   13.90
 -12   1   5   58.49    7.90
 -12   1   5   62.99   11.40
  11  -1  -5  190.48   10.30
  11  -1  -5  203.08   16.30
 -11   1   5  210.78   12.10
 -11   1   5  230.78   15.50
  10  -1  -5    2.50    2.80
  10  -1  -5   10.80    6.00
 -10   1   5    4.00    4.40
 -10   1   5    8.40    3.90
   9  -1  -5  172.38   13.60
   9  -1  -5  144.69    8.00
  -9   1   5  163.08   12.20
  -9   1   5  148.79    9.30
   8  -1  -5  230.18    9.70
  -8   1   5  243.68   11.20
  -8   1   5  240.38   13.70
   7  -1  -5   75.19    5.20
   7  -1  -5   84.09    8.50
  -7   1   5   82.39   10.40
  -7   1   5   68.19    5.70
  -7   1   5   74.59    9.30
   6  -1  -5  117.29    9.10
   6  -1  -5  128.59    6.30
  -6   1   5  133.49    9.20
  -6   1   5  125.29    6.90
  -6   1   5  123.29    8.70
   5  -1  -5  107.99    7.40
   5  -1  -5  117.59    5.60
   5  -1  -5  113.99    8.20
  -5   1   5  120.39    8.10
  -5   1   5  109.99    7.90
  -5   1   5  124.19    6.30
   4  -1  -5  595.04   19.30
   4  -1  -5  631.74   15.80
   4  -1  -5  591.94   18.40
  -4   1   5  619.34   19.10
  -4   1   5  628.54   16.40
  -4   1   5  562.34   19.00
   3  -1  -5  819.92   22.70
   3  -1  -5  805.22   19.20
  -3   1   5  780.42   19.40
  -3   1   5  806.32   22.20
  -3   1   5  789.82   22.40
   2  -1  -5   17.60    2.70
   2  -1  -5   18.30    3.30
   2  -1  -5   29.50    3.10
  -2   1   5   18.90    3.10
  -2   1   5   23.30    2.70
  -2   1   5   27.10    3.90
   1  -1  -5   68.09    5.00
   1  -1  -5   65.89    4.20
   1  -1  -5   61.09    3.80
   1  -1  -5   61.19    4.70
  -1   1   5   56.59    4.30
  -1   1   5   64.89    4.60
  -1   1   5   61.29    3.70
   0  -1  -5 2370.76   53.09
   0   1   5 2452.85   51.19
   0   1   5 2449.85   53.59
  -1  -1  -5    7.20    2.00
  -1  -1  -5    4.50    1.50
  -1  -1  -5    3.90    1.70
  -1  -1  -5    2.80    1.80
   1   1   5    5.40    2.20
   1   1   5    4.10    1.60
  -2  -1  -5 1898.71   39.40
  -2  -1  -5 1816.32   41.10
  -2  -1  -5 1933.61   41.70
  -2  -1  -5 1918.81   39.60
  -2  -1  -5 1821.12   42.60
   2   1   5 1800.42   42.80
  -3  -1  -5  266.97    7.80
  -3  -1  -5  276.67    9.80
  -3  -1  -5  258.57   10.60
   3   1   5  280.67   11.20
   3   1   5  262.47    7.80
   3   1   5  278.67    9.90
  -4  -1  -5   12.70    3.40
  -4  -1  -5    6.10    2.40
  -4  -1  -5   10.80    1.70
   4   1   5    6.50    2.50
   4   1   5   11.10    2.60
   4   1   5    6.80    1.70
  -5  -1  -5  483.25   16.00
  -5  -1  -5  495.55   14.10
  -5  -1  -5  486.15   17.30
   5   1   5  507.75   13.70
   5   1   5  497.85   16.10
   5   1   5  507.95   18.40
  -6  -1  -5 1781.32   46.60
  -6  -1  -5 1882.41   44.70
  -6  -1  -5 1828.92   40.30
   6   1   5 1862.31   41.30
   6   1   5 1806.02   44.50
   6   1   5 1887.51   48.00
  -7  -1  -5  218.98   12.40
  -7  -1  -5  252.57   11.90
  -7  -1  -5  261.17    9.40
   7   1   5  236.98    9.60
   7   1   5  247.78   11.50
   7   1   5  242.38   13.70
  -8  -1  -5  272.87   10.50
  -8  -1  -5  270.57   13.20
   8   1   5  265.87   15.50
   8   1   5  266.77   11.00
  -9  -1  -5   15.20    3.50
   9   1   5   15.30    5.90
   9   1   5   12.20    3.30
 -10  -1  -5  252.57   11.50
 -10  -1  -5  274.17   14.80
  10   1   5  227.58   16.60
  10   1   5  225.78   11.60
 -11  -1  -5    9.20    3.90
 -11  -1  -5   12.10    5.20
  11   1   5    7.20    5.10
 -12  -1  -5   45.80    8.10
 -12  -1  -5   57.79    7.60
  12   1   5   58.99   10.90
 -13  -1  -5  129.59   13.90
 -13  -1  -5  127.99   10.20
  13   1   5  142.49   18.10
  12  -2  -5   78.99   12.70
 -12   2   5   43.50    8.40
 -12   2   5   58.99    8.90
  11  -2  -5   37.60    8.60
 -11   2   5   49.30    9.10
 -11   2   5   48.70    7.90
  10  -2  -5   16.60    6.00
  10  -2  -5    4.30    2.90
 -10   2   5    9.00    4.00
 -10   2   5    7.00    4.60
   9  -2  -5   90.99    7.00
   9  -2  -5  108.19   12.00
  -9   2   5  103.49    8.50
  -9   2   5  115.89   10.50
   8  -2  -5  146.79   11.40
   8  -2  -5  122.29    7.60
  -8   2   5  140.39   10.80
  -8   2   5  134.49    9.10
   7  -2  -5   81.29    9.20
   7  -2  -5   74.89    5.80
  -7   2   5   85.79    6.80
  -7   2   5   81.39    9.30
   6  -2  -5  144.29   10.00
   6  -2  -5  141.69    9.30
   6  -2  -5  138.79    7.10
  -6   2   5  123.89    8.60
  -6   2   5  142.19    9.40
  -6   2   5  141.29    8.00
   5  -2  -5 1078.99   26.70
   5  -2  -5 1095.79   29.60
   5  -2  -5 1032.20   28.60
  -5   2   5 1127.99   28.10
  -5   2   5 1053.19   29.50
  -5   2   5 1042.30   29.70
   4  -2  -5 3739.43   79.99
   4  -2  -5 3611.54   79.69
   4  -2  -5 3626.64   77.49
  -4   2   5 3788.12   78.79
  -4   2   5 3663.03   80.09
   3  -2  -5   64.49    5.00
   3  -2  -5   57.39    4.80
   3  -2  -5   59.09    4.20
  -3   2   5   51.59    5.00
  -3   2   5   56.09    4.50
  -3   2   5   66.19    5.00
   2  -2  -5  357.36   12.10
   2  -2  -5  402.56   12.30
   2  -2  -5  392.76   11.90
  -2   2   5  383.46   13.10
  -2   2   5  363.36   11.90
  -2   2   5  376.86   12.70
   1  -2  -5   53.59    4.00
   1  -2  -5   44.80    3.60
   1  -2  -5   42.40    3.80
   1  -2  -5   47.90    3.90
  -1   2   5   47.80    4.20
   0  -2  -5  523.35   14.90
   0  -2  -5  528.35   14.50
   0   2   5  537.75   14.90
   0   2   5  543.05   15.00
   0   2   5  514.65   14.70
  -1  -2  -5 1748.13   38.20
  -1  -2  -5 1669.33   39.60
  -1  -2  -5 1719.23   38.90
  -1  -2  -5 1764.02   39.20
   1   2   5 1759.92   38.90
  -2  -2  -5   65.29    4.90
  -2  -2  -5   64.09    4.20
   2   2   5   70.09    5.20
   2   2   5   67.49    4.70
   2   2   5   83.79    5.00
  -3  -2  -5  391.46   12.80
  -3  -2  -5  381.06   11.30
  -3  -2  -5  364.36   12.20
  -3  -2  -5  388.06   13.30
   3   2   5  385.06   13.60
   3   2   5  386.36   11.40
  -4  -2  -5    0.40    1.70
  -4  -2  -5   -0.80    1.30
  -4  -2  -5    1.30    1.40
  -4  -2  -5   -0.30    1.90
   4   2   5    0.10    1.90
   4   2   5    4.10    1.80
  -5  -2  -5 3133.69   72.19
  -5  -2  -5 3276.97   70.09
  -5  -2  -5 3173.38   67.19
   5   2   5 3213.98   73.29
   5   2   5 3218.08   70.29
   5   2   5 3139.19   68.09
  -6  -2  -5  257.87   12.80
  -6  -2  -5  266.07   11.40
  -6  -2  -5  276.37    9.80
   6   2   5  278.67   10.40
   6   2   5  266.47   11.50
   6   2   5  272.17   13.80
  -7  -2  -5   92.39    5.90
  -7  -2  -5   81.39    7.80
  -7  -2  -5   84.39    6.90
   7   2   5   93.19    6.90
   7   2   5   88.69    6.10
   7   2   5   92.79    8.90
  -8  -2  -5    5.20    3.30
  -8  -2  -5   -0.60    1.90
   8   2   5    3.60    2.70
   8   2   5    4.00    3.90
   8   2   5    3.10    2.40
  -9  -2  -5  529.25   17.60
  -9  -2  -5  532.55   20.00
   9   2   5  521.95   18.50
   9   2   5  535.95   24.10
 -10  -2  -5  181.58   10.20
 -10  -2  -5  182.68   12.20
  10   2   5  162.58   10.40
  10   2   5  225.38   16.20
 -11  -2  -5   65.69    9.60
  11   2   5   40.10    9.50
 -12  -2  -5  124.39   11.20
 -12  -2  -5  129.09    9.60
  12   2   5   98.69   14.00
 -13  -2  -5   37.50    7.90
 -13  -2  -5   66.29    8.80
  13   2   5   57.39   14.40
  12  -3  -5   -4.50    3.50
 -12   3   5    8.90    5.70
 -12   3   5    1.90    3.90
  11  -3  -5   10.50    5.60
 -11   3   5    9.80    5.10
 -11   3   5   17.60    5.70
  10  -3  -5    9.00    5.30
 -10   3   5   11.50    4.70
 -10   3   5   17.10    5.60
   9  -3  -5   27.00    5.30
   9  -3  -5   33.60    8.30
  -9   3   5   33.70    7.00
  -9   3   5   36.10    6.70
   8  -3  -5   54.79    8.10
   8  -3  -5   49.30    6.70
  -8   3   5   37.30    6.50
  -8   3   5   54.99    7.70
  -8   3   5   40.60    6.70
   7  -3  -5   83.39    8.00
   7  -3  -5   81.79    6.40
  -7   3   5   67.89    6.90
  -7   3   5   88.69    7.60
   6  -3  -5  191.78   10.60
   6  -3  -5  211.58   12.30
   6  -3  -5  192.58    9.30
  -6   3   5  190.58   10.20
  -6   3   5  196.58   10.40
  -6   3   5  184.38   11.00
   5  -3  -5  996.60   27.80
   5  -3  -5 1060.99   27.90
   5  -3  -5 1011.90   26.80
  -5   3   5 1021.30   27.80
  -5   3   5 1052.29   28.40
  -5   3   5 1020.30   29.30
   4  -3  -5  519.65   15.90
   4  -3  -5  505.75   15.90
   4  -3  -5  501.55   16.50
  -4   3   5  533.85   17.00
  -4   3   5  527.85   16.00
  -4   3   5  500.55   17.50
   3  -3  -5    5.90    2.30
   3  -3  -5    5.60    2.00
   3  -3  -5    5.70    2.20
  -3   3   5    6.30    2.70
  -3   3   5    5.40    2.40
  -3   3   5    6.20    2.00
   2  -3  -5 1069.89   25.10
   2  -3  -5 1068.49   27.00
   2  -3  -5 1032.90   26.90
  -2   3   5 1072.39   27.90
  -2   3   5 1083.39   27.40
  -2   3   5 1123.79   26.20
   1  -3  -5  419.36   13.30
   1  -3  -5  417.96   11.50
   1  -3  -5  429.36   11.80
   1  -3  -5  416.66   13.50
  -1   3   5  415.26   13.40
  -1   3   5  415.96   13.70
   0  -3  -5    7.40    2.20
   0  -3  -5    7.30    2.40
   0  -3  -5    3.20    2.10
   0  -3  -5    6.20    1.80
   0   3   5    4.20    2.00
   0   3   5    5.00    1.70
  -1  -3  -5   38.50    4.50
  -1  -3  -5   40.10    4.40
  -1  -3  -5   40.60    3.40
   1   3   5   34.90    3.80
   1   3   5   36.20    3.50
   1   3   5   45.00    4.10
  -2  -3  -5   20.10    3.30
  -2  -3  -5   21.00    3.20
  -2  -3  -5   24.50    4.10
   2   3   5   20.30    3.10
   2   3   5   18.10    3.20
   2   3   5   20.90    3.50
  -3  -3  -5    5.30    2.30
  -3  -3  -5    3.60    1.80
  -3  -3  -5    4.30    2.20
   3   3   5    0.70    1.70
   3   3   5    4.60    2.00
   3   3   5    4.40    2.30
  -4  -3  -5 1275.57   32.10
  -4  -3  -5 1222.98   32.60
  -4  -3  -5 1291.07   30.50
  -4  -3  -5 1262.77   31.40
   4   3   5 1294.77   33.60
   4   3   5 1243.88   30.80
  -5  -3  -5  789.82   25.40
  -5  -3  -5  913.31   23.20
  -5  -3  -5  904.81   24.40
  -5  -3  -5  909.51   25.10
   5   3   5  880.11   23.80
   5   3   5  902.41   27.10
  -6  -3  -5  563.24   18.60
  -6  -3  -5  565.34   16.80
  -6  -3  -5  576.84   18.20
  -6  -3  -5  517.55   19.70
   6   3   5  564.54   21.00
   6   3   5  547.35   17.50
  -7  -3  -5  217.28   10.70
  -7  -3  -5  221.78    9.80
  -7  -3  -5  213.08   10.90
   7   3   5  225.48   10.50
   7   3   5  214.78   13.20
  -8  -3  -5  602.94   21.40
  -8  -3  -5  671.83   21.70
  -8  -3  -5  655.23   20.00
   8   3   5  632.94   21.10
   8   3   5  650.73   25.70
  -9  -3  -5   17.20    5.00
  -9  -3  -5   19.80    4.50
   9   3   5   11.40    3.80
   9   3   5    9.50    5.10
 -10  -3  -5  107.69    8.60
 -10  -3  -5  115.69    9.70
  10   3   5  116.39   14.20
 -11  -3  -5   29.70    5.70
 -11  -3  -5   15.20    5.20
  11   3   5   19.60    7.80
 -12  -3  -5  155.28   10.90
 -12  -3  -5  159.78   12.40
  12   3   5  160.88   16.00
 -13  -3  -5    3.30    3.70
 -13  -3  -5    1.20    4.00
  13   3   5    0.90    5.90
  12  -4  -5  115.09   14.30
 -12   4   5  112.49   13.60
 -12   4   5  111.59   13.30
  11  -4  -5    7.20    4.70
 -11   4   5    4.80    4.60
 -11   4   5    9.50    5.20
  10  -4  -5    6.30    4.20
 -10   4   5    4.60    4.00
 -10   4   5    4.10    4.10
   9  -4  -5   26.70    6.40
  -9   4   5   13.60    5.30
  -9   4   5   15.80    5.50
   8  -4  -5  169.28   11.30
   8  -4  -5  159.08    9.90
  -8   4   5  174.18   12.10
  -8   4   5  167.38   11.40
  -8   4   5  156.38   10.40
   7  -4  -5    2.30    2.80
   7  -4  -5    0.60    2.20
  -7   4   5    3.80    2.80
  -7   4   5    5.00    5.60
  -7   4   5    1.50    2.90
   6  -4  -5  145.59    8.70
   6  -4  -5  137.69    9.80
  -6   4   5  134.29    9.30
  -6   4   5  139.29    9.80
  -6   4   5  138.99    8.20
   5  -4  -5   58.49    6.30
   5  -4  -5   58.49    5.60
   5  -4  -5   55.49    5.20
  -5   4   5   53.99    4.90
  -5   4   5   58.59    7.10
  -5   4   5   64.79    7.90
   4  -4  -5 1187.98   31.30
   4  -4  -5 1238.78   29.20
  -4   4   5 1193.68   29.00
  -4   4   5 1197.28   32.80
  -4   4   5 1216.78   32.60
   3  -4  -5   15.90    3.20
   3  -4  -5   19.50    2.70
   3  -4  -5   20.30    4.20
  -3   4   5   22.60    2.90
  -3   4   5   21.30    4.40
  -3   4   5   16.40    3.60
   2  -4  -5  177.78    8.60
   2  -4  -5  176.08    8.60
   2  -4  -5  174.48    5.90
   2  -4  -5  178.98    6.20
  -2   4   5  176.38    9.00
  -2   4   5  177.48    9.10
   1  -4  -5 1128.69   29.00
   1  -4  -5 1105.19   24.30
   1  -4  -5 1127.99   28.50
   1  -4  -5 1094.99   28.80
   1  -4  -5 1110.39   24.30
  -1   4   5 1079.09   28.80
   0  -4  -5  236.88   10.20
   0  -4  -5  245.98   10.40
   0  -4  -5  250.47   10.20
   0  -4  -5  250.77    7.70
   0   4   5  258.37    7.90
   0   4   5  260.17   10.50
  -1  -4  -5    1.80    1.90
  -1  -4  -5    3.80    2.10
  -1  -4  -5    2.00    1.60
   1   4   5    2.50    2.00
   1   4   5    1.50    1.50
   1   4   5    0.90    1.50
  -2  -4  -5   17.50    3.40
  -2  -4  -5   21.10    3.50
  -2  -4  -5   21.00    3.90
   2   4   5   15.40    3.10
   2   4   5   17.80    3.20
   2   4   5   16.40    3.20
  -3  -4  -5  457.25   15.70
  -3  -4  -5  470.35   15.50
  -3  -4  -5  494.95   15.60
   3   4   5  502.15   15.70
   3   4   5  487.05   15.90
   3   4   5  446.96   15.20
  -4  -4  -5  175.88    9.30
  -4  -4  -5  179.08    8.60
  -4  -4  -5  174.18    9.00
   4   4   5  177.58    8.80
   4   4   5  185.38    9.90
   4   4   5  173.68    8.70
  -5  -4  -5  334.77   14.20
  -5  -4  -5  328.17   12.80
  -5  -4  -5  358.26   13.60
  -5  -4  -5  337.77   12.60
   5   4   5  323.87   14.50
   5   4   5  333.87   13.00
  -6  -4  -5  145.89    9.90
  -6  -4  -5  158.78    8.70
  -6  -4  -5  155.48    8.40
   6   4   5  176.78   11.30
   6   4   5  149.39    8.70
  -7  -4  -5 1861.01   44.50
  -7  -4  -5 1887.21   45.30
  -7  -4  -5 1795.72   46.20
   7   4   5 1796.72   45.70
   7   4   5 1836.62   50.09
  -8  -4  -5   13.50    3.80
  -8  -4  -5    8.30    3.20
  -8  -4  -5   15.10    4.10
   8   4   5   18.70    4.60
   8   4   5   15.90    5.70
  -9  -4  -5   -1.90    2.60
  -9  -4  -5    3.00    2.90
   9   4   5    2.50    3.90
 -10  -4  -5    8.90    4.50
 -10  -4  -5   14.60    4.60
  10   4   5    8.40    5.50
 -11  -4  -5   51.29    8.30
 -11  -4  -5   46.50    7.30
  11   4   5   51.09   10.60
 -12  -4  -5    5.20    3.90
 -12  -4  -5    8.10    4.60
  12   4   5   -0.90    4.50
 -13  -4  -5   11.80    5.60
 -13  -4  -5   17.50    5.50
  13   4   5   14.70    7.60
  12  -5  -5   63.79   10.80
 -12   5   5   67.29   11.00
 -12   5   5   75.49   11.30
  11  -5  -5    3.30    4.20
 -11   5   5   -1.30    3.60
 -11   5   5   -1.20    3.40
  10  -5  -5   17.10    5.60
 -10   5   5   17.10    5.60
 -10   5   5   14.50    5.80
   9  -5  -5  137.99   10.60
  -9   5   5  133.59   10.10
  -9   5   5  126.59   11.20
  -9   5   5  132.59   11.80
   8  -5  -5   98.19    8.40
  -8   5   5   84.79    9.70
  -8   5   5   90.69   10.50
  -8   5   5   85.89    7.90
   7  -5  -5    0.10    2.60
  -7   5   5    0.50    3.00
  -7   5   5    0.30    2.00
  -7   5   5    2.10    3.00
   6  -5  -5   86.59    7.30
   6  -5  -5   99.89    6.90
  -6   5   5   89.69    6.30
  -6   5   5  100.69    8.70
  -6   5   5   87.19    8.30
   5  -5  -5 1028.20   29.10
   5  -5  -5 1003.40   29.20
   5  -5  -5 1061.09   26.60
  -5   5   5 1047.00   26.40
  -5   5   5 1073.59   31.30
  -5   5   5 1096.39   31.70
   4  -5  -5  774.02   19.20
   4  -5  -5  772.42   23.50
   4  -5  -5  787.62   23.00
  -4   5   5  735.83   24.30
  -4   5   5  766.02   24.30
   3  -5  -5  692.23   21.30
   3  -5  -5  722.73   16.50
   3  -5  -5  696.63   21.70
  -3   5   5  711.23   16.50
  -3   5   5  707.73   22.50
  -3   5   5  716.73   22.80
   2  -5  -5  666.43   21.10
   2  -5  -5  671.43   20.40
   2  -5  -5  680.33   14.30
   2  -5  -5  637.54   20.70
   2  -5  -5  670.33   14.20
  -2   5   5  688.13   21.60
   1  -5  -5   76.49    2.80
   1  -5  -5   71.89    6.10
   1  -5  -5   80.59    2.90
   1  -5  -5   75.59    6.30
   1  -5  -5   70.09    5.90
  -1   5   5   74.39    6.30
   0  -5  -5   69.19    6.00
   0  -5  -5   71.39    3.60
   0  -5  -5   73.79    6.10
   0   5   5   73.79    6.10
   0   5   5   69.09    5.70
   0   5   5   72.89    3.70
  -1  -5  -5  841.22   24.40
  -1  -5  -5  866.91   24.40
  -1  -5  -5  845.02   21.10
   1   5   5  860.31   21.20
   1   5   5  836.22   23.90
  -2  -5  -5  438.56   15.40
  -2  -5  -5  407.56   14.90
  -2  -5  -5  424.26   13.50
   2   5   5  410.46   13.60
   2   5   5  410.66   14.90
   2   5   5  422.06   15.00
  -3  -5  -5 1181.08   30.80
  -3  -5  -5 1189.18   32.00
  -3  -5  -5 1258.07   31.90
   3   5   5 1180.88   31.60
   3   5   5 1201.28   31.10
   3   5   5 1204.58   31.40
  -4  -5  -5  175.98    9.30
  -4  -5  -5  183.08    9.70
  -4  -5  -5  172.78    9.60
   4   5   5  178.98    9.50
   4   5   5  187.48   10.20
   4   5   5  154.98    8.70
  -5  -5  -5  821.72   23.90
  -5  -5  -5  846.12   24.20
  -5  -5  -5  801.32   24.70
   5   5   5  790.92   24.50
   5   5   5  846.62   26.50
  -6  -5  -5 1891.51   45.70
  -6  -5  -5 1842.22   47.00
  -6  -5  -5 1884.51   45.90
  -6  -5  -5 1821.82   48.50
   6   5   5 1864.21   47.00
   6   5   5 1949.60   50.19
  -7  -5  -5   61.29    8.10
  -7  -5  -5   52.99    6.40
  -7  -5  -5   44.70    6.00
   7   5   5   29.10    6.30
   7   5   5   46.30    6.10
  -8  -5  -5   99.69    8.10
  -8  -5  -5   93.79    7.80
   8   5   5  107.69   12.80
  -9  -5  -5  161.38   10.50
  -9  -5  -5  179.28   10.70
   9   5   5  152.08   13.60
 -10  -5  -5  129.89   10.10
 -10  -5  -5  147.09   10.40
  10   5   5   92.79   12.20
 -11  -5  -5    3.60    3.80
 -11  -5  -5    0.60    3.70
  11   5   5   -3.20    4.40
 -12  -5  -5    5.60    4.20
 -12  -5  -5    0.40    3.80
  12   5   5   -8.10    3.60
 -13  -5  -5   71.19    9.90
 -13  -5  -5   75.49   10.00
  13   5   5   52.99   11.90
  11  -6  -5   -2.00    3.40
 -11   6   5    0.90    4.40
 -11   6   5   -1.00    4.30
  10  -6  -5   66.59    9.20
 -10   6   5   67.49   10.30
 -10   6   5   92.19   12.80
   9  -6  -5   59.29    8.30
  -9   6   5   57.49    9.40
  -9   6   5   60.79   10.00
  -9   6   5   52.19    7.40
   8  -6  -5   41.90    6.40
  -8   6   5   45.10    8.00
  -8   6   5   32.70    6.80
  -8   6   5   33.30    5.80
   7  -6  -5   55.19    6.50
  -7   6   5   47.60    7.30
  -7   6   5   55.59    6.30
  -7   6   5   70.49   14.90
   6  -6  -5  519.05   16.20
  -6   6   5  539.45   21.60
  -6   6   5  510.55   15.90
  -6   6   5  533.55   21.10
   5  -6  -5   52.59    6.50
   5  -6  -5   65.19    5.10
   5  -6  -5   67.59    8.40
  -5   6   5   85.89   10.30
  -5   6   5   62.09    4.20
  -5   6   5   68.39    8.20
   4  -6  -5  355.86   14.70
   4  -6  -5  376.46    9.90
   4  -6  -5  400.56   16.50
   4  -6  -5  359.56   15.30
  -4   6   5  378.06    9.80
  -4   6   5  384.06   16.30
  -4   6   5  374.76   16.60
   3  -6  -5  524.45   19.20
   3  -6  -5  529.45   18.20
   3  -6  -5  520.85   18.90
  -3   6   5  535.75   19.90
   2  -6  -5  653.03   21.80
   2  -6  -5  662.83   21.80
   2  -6  -5  671.83   21.30
  -2   6   5  667.13   22.50
   1  -6  -5  145.49    9.00
   1  -6  -5  150.58    8.90
   1  -6  -5  146.59    8.90
  -1   6   5  128.49    8.70
   0  -6  -5   74.99    6.70
   0  -6  -5   75.19    3.70
   0  -6  -5   79.59    6.70
   0   6   5   62.19    5.90
   0   6   5   71.09    6.50
   0   6   5   74.29    3.70
  -1  -6  -5  272.47    9.50
  -1  -6  -5  287.47   12.80
  -1  -6  -5  296.17   12.90
   1   6   5  269.47   12.40
   1   6   5  275.97   12.20
  -2  -6  -5  718.83   22.40
  -2  -6  -5  699.53   19.70
  -2  -6  -5  666.23   22.00
   2   6   5  678.93   21.80
   2   6   5  735.53   22.60
   2   6   5  705.43   20.00
  -3  -6  -5  174.58    9.70
  -3  -6  -5  165.28    8.70
  -3  -6  -5  174.38    9.70
   3   6   5  153.08    9.30
   3   6   5  151.78    9.00
   3   6   5  174.58    9.20
  -4  -6  -5  618.14   20.40
  -4  -6  -5  587.14   20.00
  -4  -6  -5  615.24   20.70
   4   6   5  588.24   20.40
   4   6   5  611.04   19.90
   4   6   5  597.94   22.70
  -5  -6  -5 1797.22   46.30
  -5  -6  -5 1744.53   46.60
  -5  -6  -5 1904.21   46.00
   5   6   5 1850.81   45.10
   5   6   5 1852.41   47.70
   5   6   5 1759.22   46.10
  -6  -6  -5  222.78   11.60
  -6  -6  -5  231.08   12.00
  -6  -6  -5  215.28   10.90
   6   6   5  230.78   13.60
   6   6   5  211.78   11.90
  -7  -6  -5   96.29    8.20
  -7  -6  -5   99.39    7.70
  -7  -6  -5   84.89    7.70
   7   6   5  101.79   10.30
  -8  -6  -5  119.49    9.50
  -8  -6  -5  127.49    9.10
   8   6   5  151.58   15.80
  -9  -6  -5  728.13   25.20
   9   6   5  713.23   29.90
 -10  -6  -5   -1.10    3.20
 -10  -6  -5    3.40    3.50
  10   6   5    2.90    4.80
 -11  -6  -5   48.20    7.80
 -11  -6  -5   63.99    8.50
  11   6   5   54.19   11.50
 -12  -6  -5   10.50    5.00
 -12  -6  -5    1.10    3.80
  12   6   5   17.50    9.90
  11  -7  -5  128.29   11.70
 -11   7   5  121.69   14.60
 -11   7   5  125.49   15.10
  10  -7  -5   -1.60    2.80
 -10   7   5   -2.00    3.70
 -10   7   5   -0.40    3.10
 -10   7   5   -0.50    4.10
   9  -7  -5   51.29    7.30
  -9   7   5   47.50    9.10
  -9   7   5   56.79    9.70
   8  -7  -5    1.90    2.90
  -8   7   5    0.10    3.80
  -8   7   5    1.40    2.40
  -8   7   5   -0.60    3.70
   7  -7  -5  507.35   16.40
  -7   7   5  502.45   22.60
  -7   7   5  507.85   21.90
  -7   7   5  495.75   16.00
   6  -7  -5    2.20    3.80
   6  -7  -5    5.50    2.20
  -6   7   5    5.80    2.10
  -6   7   5    5.40    4.10
  -6   7   5    2.90    3.50
   5  -7  -5   45.00    3.00
   5  -7  -5   52.79    7.90
  -5   7   5   48.80    3.00
  -5   7   5   48.10    7.10
   4  -7  -5    4.20    2.70
   4  -7  -5    9.00    3.90
  -4   7   5    7.20    4.10
   3  -7  -5  665.53   22.20
   3  -7  -5  707.53   23.80
   3  -7  -5  665.23   23.00
  -3   7   5  656.43   24.00
   2  -7  -5    5.70    3.00
   2  -7  -5    3.80    2.60
   2  -7  -5    1.90    2.60
  -2   7   5    2.60    3.20
   1  -7  -5   -0.30    2.10
   1  -7  -5   -0.90    1.80
   1  -7  -5    3.80    3.00
  -1   7   5    6.90    2.70
  -1   7   5    0.80    2.20
   0  -7  -5  409.86   11.20
   0  -7  -5  428.16   16.90
   0  -7  -5  388.86   16.40
   0   7   5  412.56   16.30
   0   7   5  425.56   17.00
   0   7   5  418.66   11.30
  -1  -7  -5  157.98   11.30
  -1  -7  -5  172.08    7.30
  -1  -7  -5  154.58    9.90
   1   7   5  172.68    7.40
   1   7   5  153.18    9.60
  -2  -7  -5  333.97   14.90
  -2  -7  -5  359.26   12.70
  -2  -7  -5  348.57   17.00
   2   7   5  351.26   12.80
   2   7   5  354.16   15.00
   2   7   5  345.77   15.00
  -3  -7  -5  142.49    8.40
  -3  -7  -5  146.89    9.60
  -3  -7  -5  150.98    9.50
   3   7   5  144.89    9.50
   3   7   5  144.89    9.20
   3   7   5  132.59    8.50
  -4  -7  -5   96.49    8.10
  -4  -7  -5   99.49    7.70
  -4  -7  -5  109.29    8.30
   4   7   5   93.29    8.00
   4   7   5   91.49    8.00
   4   7   5   91.69    7.40
  -5  -7  -5  174.48   10.90
  -5  -7  -5  186.88   11.10
  -5  -7  -5  199.18   11.40
   5   7   5  181.58   10.30
   5   7   5  204.68   12.30
  -6  -7  -5  419.96   17.70
  -6  -7  -5  420.56   17.60
   6   7   5  429.06   16.70
   6   7   5  425.56   19.50
  -7  -7  -5  320.37   15.20
  -7  -7  -5  313.27   14.10
   7   7   5  289.37   17.00
  -8  -7  -5  362.56   16.80
  -8  -7  -5  372.16   15.90
   8   7   5  353.76   19.90
  -9  -7  -5    3.50    3.50
  -9  -7  -5   -1.20    3.30
   9   7   5   13.10    6.20
 -10  -7  -5   12.80    4.60
 -10  -7  -5   18.10    5.40
  10   7   5   13.50    6.90
 -11  -7  -5    1.10    3.40
 -11  -7  -5    4.90    4.50
  11   7   5    8.40    6.20
 -12  -7  -5    6.60    4.50
 -12  -7  -5   14.50    5.90
  12   7   5   10.30    6.00
  11  -8  -5   40.70    7.30
  11  -8  -5   52.99   11.20
 -11   8   5   23.20    7.60
 -11   8   5   31.60    8.30
  10  -8  -5   53.89   10.20
  10  -8  -5   55.89    7.70
 -10   8   5   43.40    6.70
 -10   8   5   65.99   10.50
 -10   8   5   33.30    8.40
   9  -8  -5  153.88    9.40
   9  -8  -5  175.38   14.50
  -9   8   5  125.49    8.50
  -9   8   5  162.48   14.60
   8  -8  -5  127.09   12.30
   8  -8  -5  114.49    7.30
  -8   8   5  113.69   13.70
  -8   8   5   95.89    6.60
   7  -8  -5    2.60    4.20
   7  -8  -5    1.90    1.90
  -7   8   5    2.90    2.00
  -7   8   5    3.50    4.50
   6  -8  -5  159.48    5.80
   6  -8  -5  156.28   12.30
  -6   8   5  157.38    5.50
  -6   8   5  186.98   13.80
   5  -8  -5  312.87   21.00
  -5   8   5  286.97   16.60
   4  -8  -5  262.97   14.60
   3  -8  -5   23.00    5.20
  -3   8   5   27.80    6.80
   2  -8  -5   13.20    3.80
   2  -8  -5   25.70    5.50
  -2   8   5   35.80    7.10
   1  -8  -5  353.16   16.20
   1  -8  -5  350.86   16.00
  -1   8   5  370.66   16.80
  -1   8   5  328.07   15.00
   0  -8  -5  479.95   19.20
   0  -8  -5  519.95   19.90
   0  -8  -5  507.75   13.50
   0   8   5  472.55   18.80
   0   8   5  514.65   13.40
   0   8   5  451.65   19.10
  -1  -8  -5  484.45   19.00
  -1  -8  -5  485.35   14.50
  -1  -8  -5  446.46   18.40
   1   8   5  446.96   18.20
   1   8   5  452.95   14.30
   1   8   5  480.65   19.00
  -2  -8  -5  381.46   13.90
  -2  -8  -5  372.46   16.50
  -2  -8  -5  399.16   17.10
   2   8   5  362.36   16.50
   2   8   5  391.36   14.20
   2   8   5  411.96   17.00
  -3  -8  -5    5.70    3.30
  -3  -8  -5    6.00    3.00
  -3  -8  -5    6.00    3.20
   3   8   5    5.70    3.20
   3   8   5    5.40    3.40
  -4  -8  -5   39.40    5.90
  -4  -8  -5   48.40    7.20
  -4  -8  -5   44.10    7.20
   4   8   5   35.80    6.10
   4   8   5   46.20    7.00
  -5  -8  -5  114.89    9.30
  -5  -8  -5  122.49    9.60
  -5  -8  -5  139.19   11.70
   5   8   5  135.89    9.40
   5   8   5  147.79   11.00
  -6  -8  -5  983.30   31.20
   6   8   5  985.20   29.70
  -7  -8  -5  144.99   11.00
  -7  -8  -5  153.98   10.20
   7   8   5  139.99   12.60
  -8  -8  -5   19.40    5.60
  -8  -8  -5   13.80    5.00
   8   8   5   28.80    8.10
  -9  -8  -5  330.87   15.40
  -9  -8  -5  291.47   16.30
   9   8   5  316.27   20.20
 -10  -8  -5  107.69   12.00
 -10  -8  -5   92.69    9.80
  10   8   5   96.49   15.00
 -11  -8  -5   10.00    4.90
 -11  -8  -5    3.70    4.10
  11   8   5    8.70    7.70
 -12  -8  -5   26.30    6.40
  12   8   5   26.20    8.60
  10  -9  -5   17.80    6.80
  10  -9  -5   17.40    4.40
 -10   9   5   29.20    9.20
 -10   9   5   14.60    4.10
   9  -9  -5   97.99    6.90
   9  -9  -5  108.99   13.40
  -9   9   5  122.29   16.50
  -9   9   5   97.79    6.60
   8  -9  -5   31.20    4.40
   8  -9  -5   30.70    7.70
  -8   9   5   33.30    3.90
  -8   9   5   43.70   10.10
   7  -9  -5   73.29   10.60
   7  -9  -5   67.49    3.30
  -7   9   5   71.69    3.30
  -7   9   5   97.29   13.20
   6  -9  -5    9.00    4.90
  -6   9   5   16.90    5.80
   5  -9  -5  485.25   21.60
  -5   9   5  483.45   23.00
   4  -9  -5  363.86   18.20
  -4   9   5  378.06   19.50
   3  -9  -5  217.68   20.00
  -3   9   5  237.58   14.90
   2  -9  -5   97.49    9.40
  -2   9   5   90.59   11.90
   1  -9  -5  426.56   18.40
  -1   9   5  397.46   18.40
  -1   9   5  358.96    8.60
  -1   9   5  347.67    8.90
   0  -9  -5  229.08   13.50
   0  -9  -5  229.98    8.40
   0   9   5  228.98    8.20
   0   9   5  236.68   13.80
  -1  -9  -5  926.01   30.20
  -1  -9  -5  915.31   24.30
   1   9   5  927.61   24.50
   1   9   5  899.31   30.00
  -2  -9  -5   21.80    5.30
  -2  -9  -5   21.20    4.20
   2   9   5   17.90    5.40
   2   9   5   20.70    4.00
  -3  -9  -5   21.70    4.60
  -3  -9  -5   25.30    5.70
   3   9   5   17.80    4.40
   3   9   5   17.20    4.40
  -4  -9  -5 1909.41   49.99
  -4  -9  -5 1754.32   47.50
   4   9   5 1852.51   48.60
   4   9   5 1837.32   48.30
  -5  -9  -5  425.86   19.00
   5   9   5  394.56   17.40
   5   9   5  416.56   19.00
  -6  -9  -5   15.20    5.60
   6   9   5   14.40    5.20
   6   9   5   15.60    5.40
  -7  -9  -5   62.39    7.90
  -7  -9  -5   81.29   10.50
   7   9   5   71.79   11.00
   7   9   5   65.49    8.10
  -8  -9  -5  109.09   11.90
  -8  -9  -5   94.09    9.90
   8   9   5   90.39   12.20
  -9  -9  -5  280.97   14.50
  -9  -9  -5  262.67   16.10
   9   9   5  255.57   18.80
 -10  -9  -5   58.49    9.20
 -10  -9  -5   87.29   10.10
  10   9   5   47.50   10.30
 -11  -9  -5    7.30    4.40
 -11  -9  -5   12.00    6.60
  11   9   5   15.20    7.50
  10 -10  -5   18.40    3.70
  10 -10  -5   21.00    8.10
 -10  10   5   20.00    9.50
 -10  10   5   13.70    3.30
   9 -10  -5    0.30    1.60
   9 -10  -5    7.60    5.60
  -9  10   5    4.90    5.10
  -9  10   5    2.50    1.70
   8 -10  -5  164.98   14.40
  -8  10   5  122.09   14.90
   7 -10  -5   51.09    8.90
  -7  10   5   49.20   10.60
   6 -10  -5  158.18   13.30
  -6  10   5  149.59   14.30
   5 -10  -5   41.00    7.60
  -5  10   5   25.90    6.80
   4 -10  -5   93.79   10.80
  -4  10   5  132.89   15.60
   3 -10  -5    9.20    4.40
  -3  10   5   -3.00    3.30
   2 -10  -5  464.15   20.80
  -2  10   5  448.46   21.50
   1 -10  -5    5.50    3.50
  -1  10   5   -1.30    3.20
  -1  10   5    5.80    1.30
  -1  10   5    5.90    1.30
   0 -10  -5  273.37   15.40
   0 -10  -5  263.37    9.60
   0  10   5  285.77   10.30
   0  10   5  277.37   15.90
  -1 -10  -5   13.30    5.00
  -1 -10  -5   10.40    2.90
   1  10   5    9.00    4.30
   1  10   5    9.70    3.10
  -2 -10  -5    3.90    4.00
  -2 -10  -5    2.10    2.10
   2  10   5    1.60    2.60
   2  10   5   -0.20    3.40
  -3 -10  -5  412.56   17.00
  -3 -10  -5  444.56   20.00
   3  10   5  443.26   17.80
   3  10   5  449.16   19.50
  -4 -10  -5   87.49   11.00
  -4 -10  -5   76.89    7.80
   4  10   5   94.49   10.50
   4  10   5   71.29    8.90
  -5 -10  -5  217.08   14.10
   5  10   5  205.98   12.80
  -6 -10  -5   -3.20    2.90
   6  10   5    1.10    4.00
   6  10   5   -3.50    2.70
  -7 -10  -5  458.35   21.00
   7  10   5  395.66   17.90
   7  10   5  399.56   21.70
  -8 -10  -5  279.57   16.70
  -8 -10  -5  289.57   15.10
   8  10   5  276.17   19.00
  -9 -10  -5   -0.40    3.30
  -9 -10  -5   11.10    5.20
   9  10   5   13.20    6.80
 -10 -10  -5   10.70    6.60
 -10 -10  -5    6.00    4.10
  10  10   5   14.00    7.70
   9 -11  -5   55.09   11.10
  -9  11   5   54.49   12.60
   8 -11  -5   34.20    8.40
  -8  11   5   19.10    9.00
   7 -11  -5  122.29   14.90
  -7  11   5  103.69   15.20
   6 -11  -5  100.29   12.80
  -6  11   5   81.39   12.30
   5 -11  -5  183.48   14.40
  -5  11   5  182.58   15.70
   4 -11  -5  174.28   13.90
  -4  11   5  158.78   14.40
   3 -11  -5   -3.90    2.90
  -3  11   5   -0.70    4.20
   2 -11  -5   66.49   10.00
  -2  11   5   75.89   11.70
   1 -11  -5  436.26   20.80
  -1  11   5  434.96   11.00
  -1  11   5  443.96   21.80
  -1  11   5  433.36   11.10
   0 -11  -5   21.00    5.50
   0 -11  -5   23.90    3.60
   0  11   5   23.40    3.80
   0  11   5   26.80    7.00
  -1 -11  -5   69.89    9.70
  -1 -11  -5   85.19    6.40
   1  11   5   99.99    7.20
   1  11   5   95.29   12.00
  -2 -11  -5  151.18   12.40
  -2 -11  -5  148.89    9.30
   2  11   5  169.38   12.70
   2  11   5  147.99    9.60
  -3 -11  -5  258.97   13.40
  -3 -11  -5  262.77   16.10
   3  11   5  268.37   15.60
   3  11   5  269.27   14.10
  -4 -11  -5    3.70    3.70
   4  11   5    1.50    3.80
   4  11   5    2.70    3.10
  -5 -11  -5   43.30    7.60
   5  11   5   48.60    8.40
   5  11   5   35.70    6.70
  -6 -11  -5  271.77   16.80
   6  11   5  291.87   15.60
   6  11   5  266.57   17.00
  -7 -11  -5  470.85   22.20
   7  11   5  406.56   18.90
   7  11   5  424.26   22.70
  -8 -11  -5  132.89   14.20
  -8 -11  -5  113.89   10.10
   8  11   5  123.69   15.90
  -9 -11  -5   -2.50    3.30
   9  11   5    0.60    5.20
 -10 -11  -5   22.00    5.60
 -10 -11  -5    9.10    5.50
  10  11   5   16.80    8.40
   8 -12  -5    4.80    5.80
  -8  12   5   -6.10    4.50
   7 -12  -5   22.30    7.70
  -7  12   5   22.70    8.50
   6 -12  -5  196.48   15.70
  -6  12   5  193.48   17.40
   5 -12  -5   91.49   13.00
  -5  12   5  107.49   14.50
   4 -12  -5   -4.80    3.20
  -4  12   5    1.40    4.50
   3 -12  -5   29.00    7.60
  -3  12   5   37.20    8.70
   2 -12  -5  187.98   14.40
  -2  12   5  179.78   15.00
   1 -12  -5  107.19   13.10
  -1  12   5  101.09   13.30
  -1  12   5  102.79    4.40
  -1  12   5   90.79    4.30
   0 -12  -5    2.20    3.70
   0  12   5   -4.20    3.60
   0  12   5    0.90    2.00
   0  12   5    1.30    2.10
  -1 -12  -5    4.60    2.80
  -1 -12  -5    9.10    4.60
   1  12   5   10.40    3.70
   1  12   5    5.10    4.70
  -2 -12  -5  492.45   22.80
   2  12   5  498.45   23.00
   2  12   5  455.85   18.10
  -3 -12  -5    6.90    3.90
  -3 -12  -5    8.80    5.00
   3  12   5    8.70    4.80
   3  12   5    3.50    4.00
  -4 -12  -5   77.29   11.00
   4  12   5   78.39   10.10
  -5 -12  -5  456.75   22.60
   5  12   5  474.55   21.30
   5  12   5  477.25   22.20
  -6 -12  -5  269.87   17.40
   6  12   5  286.67   18.00
   6  12   5  244.88   15.10
  -7 -12  -5    9.60    5.50
   7  12   5    3.20    5.30
   7  12   5   11.30    4.80
  -8 -12  -5  109.59   11.80
  -8 -12  -5  115.69   14.50
   8  12   5  105.99   14.80
  -9 -12  -5  216.08   16.60
  -9 -12  -5  190.48   13.10
   7 -13  -5   92.89   13.80
  -7  13   5   97.49   16.70
   6 -13  -5   59.49   10.50
  -6  13   5   62.99   12.60
   5 -13  -5   -0.70    3.80
  -5  13   5   -0.30    5.50
   4 -13  -5   16.20    6.20
  -4  13   5    1.40    5.40
   3 -13  -5  174.78   14.60
  -3  13   5  187.78   16.60
   2 -13  -5   26.70    7.80
  -2  13   5   12.30    6.00
   1 -13  -5    0.50    3.70
  -1  13   5    2.30    4.70
  -1  13   5    3.00    1.50
  -1  13   5   -1.10    1.20
   0 -13  -5   78.39   10.50
   0  13   5   95.19    6.60
   0  13   5  119.39   14.90
   0  13   5  107.19    6.70
  -1 -13  -5  165.28    9.60
  -1 -13  -5  147.19   13.50
   1  13   5  166.38   14.40
   1  13   5  181.18   10.10
  -2 -13  -5   69.99    8.40
  -2 -13  -5   70.29   11.00
   2  13   5   76.09    8.80
   2  13   5   76.19   11.60
  -3 -13  -5   58.69    9.00
   3  13   5   69.89    9.50
   3  13   5   68.79   10.90
  -4 -13  -5  274.97   17.80
   4  13   5  282.57   16.20
   4  13   5  253.37   16.40
  -5 -13  -5  152.78   13.70
   5  13   5  152.58   12.60
   5  13   5  132.29   12.70
  -6 -13  -5   52.39   13.30
   6  13   5   53.59    9.50
   6  13   5   59.89   10.30
  -7 -13  -5   82.79   15.30
   7  13   5   65.59   11.30
   7  13   5   64.49    9.60
   6 -14  -5   14.20    7.20
  -6  14   5   20.10    8.10
   5 -14  -5    9.40    6.30
  -5  14   5    8.70    6.10
   4 -14  -5   49.70    9.40
  -4  14   5   63.19   12.80
   3 -14  -5   13.40    6.10
  -3  14   5   16.20    7.30
   2 -14  -5   20.40    7.20
  -2  14   5    7.80    5.90
   1 -14  -5   69.69   11.50
  -1  14   5   61.39    3.50
  -1  14   5   64.09   12.30
  -1  14   5   64.79    3.40
   0 -14  -5  164.38   14.60
   0  14   5  164.08    8.80
   0  14   5  170.98    8.60
   0  14   5  187.18   16.10
  -1 -14  -5   21.50    4.70
  -1 -14  -5   20.50    7.20
   1  14   5   20.70    7.20
   1  14   5   30.70    5.70
  -2 -14  -5  158.18   14.50
  -2 -14  -5  131.09   10.00
   2  14   5  158.38   11.00
   2  14   5  166.78   14.40
  -3 -14  -5   21.50    6.90
   3  14   5   20.20    7.50
  -4 -14  -5   74.89   15.50
   4  14   5   72.09   10.60
   4  14   5   42.70    8.60
  -5 -14  -5   73.59   12.20
   5  14   5   62.09   10.10
   5  14   5   61.39   10.00
  -6 -14  -5  128.19   15.40
   6  14   5  110.09   12.50
   6  14   5  130.59   15.70
  -4  15   5    9.80    7.50
   3 -15  -5    2.50    5.10
  -3  15   5   22.10    8.80
   2 -15  -5   34.90    9.10
  -2  15   5   31.60   10.30
   1 -15  -5  127.89   16.00
  -1  15   5  104.09   22.40
   0 -15  -5    2.90    5.60
   0  15   5    0.80    2.40
   0  15   5    0.20    5.30
   0  15   5   -2.50    1.90
   1  15   5  126.79    9.00
   1  15   5  128.09   14.60
   1  15   5  120.09   14.90
  -2 -15  -5   14.50    6.60
   2  15   5   16.50    5.10
   2  15   5    9.60    6.20
  -3 -15  -5   -1.00    4.50
   3  15   5    4.10    4.30
   3  15   5   -2.20    4.00
  -4 -15  -5    7.40    5.50
   4  15   5   10.50    5.70
   4  15   5   11.80    6.00
  -1  13  -6  177.68   15.20
  -1  13  -6  176.98   15.80
   1 -13   6  212.78   14.80
  -2  13  -6  112.99   14.20
  -2  13  -6   78.09   12.70
   2 -13   6   87.89   10.80
   3  12  -6    9.40    6.90
  -3 -12   6    7.70    5.90
   2  12  -6   17.70    5.80
   2  12  -6    1.80    5.10
  -2 -12   6   10.40    5.70
   1  12  -6    1.50    4.30
   1  12  -6    2.80    5.10
  -1 -12   6    4.50    4.50
   0  12  -6  137.29   12.60
   0  12  -6  118.79   14.20
   0 -12   6  131.29   12.00
  -1  12  -6   76.79   12.00
  -1  12  -6  102.69   13.50
   1 -12   6   81.19   10.10
  -2  12  -6    6.10    5.40
  -2  12  -6   12.60    6.20
   2 -12   6   14.30    5.50
  -3  12  -6   42.30   10.80
  -3  12  -6   21.70    6.80
   3 -12   6   26.60    6.40
  -4  12  -6  127.69   16.20
  -4  12  -6  112.09   13.50
   4 -12   6  117.79   10.40
  -5  12  -6   14.00    6.90
  -5  12  -6    1.80    4.40
   5 -12   6    5.80    4.20
  -6  12  -6    5.50    7.30
  -6  12  -6   -1.40    4.20
   6 -12   6    2.00    3.50
   5  11  -6    8.60    7.20
   5  11  -6   21.30    3.90
  -5 -11   6   23.80    7.40
  -5 -11   6   17.80    3.70
   4  11  -6   90.79    7.30
   4  11  -6   96.39   14.40
  -4 -11   6   74.59   10.30
   3  11  -6   19.00    4.70
   3  11  -6   21.00    7.20
  -3 -11   6   14.50    4.40
  -3 -11   6   32.60    7.60
   2  11  -6  142.39   14.20
   2  11  -6  131.19   10.50
  -2 -11   6  144.39   12.50
   1  11  -6  184.88   12.80
   1  11  -6  172.08   15.00
  -1 -11   6  192.08   13.60
   0  11  -6   68.19   11.60
   0  11  -6   61.79    9.50
   0 -11   6   77.89    9.50
  -1  11  -6   17.60    6.50
  -1  11  -6   13.10    5.40
   1 -11   6   16.50    5.50
  -2  11  -6    6.40    4.90
  -2  11  -6   -1.90    4.10
   2 -11   6    1.10    3.50
  -3  11  -6   64.29   10.30
  -3  11  -6   77.29   10.90
   3 -11   6   90.99    9.70
  -4  11  -6   82.49   12.10
  -4  11  -6   79.79   12.30
  -5  11  -6  239.48   18.60
  -5  11  -6  236.28   15.90
   5 -11   6  249.68   12.90
  -6  11  -6   48.10    8.90
  -6  11  -6   48.80   10.80
   6 -11   6   50.39    6.80
  -7  11  -6   15.20    6.10
  -7  11  -6   16.80    8.40
   7 -11   6   12.20    3.60
   7 -11   6    9.40    4.10
   6  10  -6   -0.30    5.60
  -6 -10   6   -0.30    4.90
   5  10  -6   70.79    5.10
   5  10  -6   67.79   11.70
  -5 -10   6   67.19    4.70
  -5 -10   6   75.39   10.50
   4  10  -6   34.30    9.60
   4  10  -6   26.80    4.60
  -4 -10   6   21.80    4.10
  -4 -10   6   19.80    6.60
   3  10  -6  217.68   11.60
   3  10  -6  248.18   17.90
  -3 -10   6  220.38   15.40
  -3 -10   6  246.68   15.30
   2  10  -6   97.99    8.80
   2  10  -6  117.69   15.10
  -2 -10   6   74.89    7.30
  -2 -10   6  119.89   11.00
   1  10  -6  211.88   15.90
   1  10  -6  254.97   14.20
  -1 -10   6  267.37   14.80
   0  10  -6    5.20    4.60
   0  10  -6    8.50    4.80
   0 -10   6    6.70    4.40
  -1  10  -6   80.99   11.30
  -1  10  -6   75.59   10.70
   1 -10   6   79.49    9.10
  -2  10  -6   58.59    9.70
  -2  10  -6   53.79    9.50
  -3  10  -6   27.10    7.20
  -3  10  -6   26.10    6.80
   3 -10   6   16.40    4.50
  -4  10  -6   77.49   10.40
  -4  10  -6   87.49   11.70
  -4  10  -6  103.89   13.60
   4 -10   6   81.49    7.80
  -5  10  -6   86.09   11.90
  -5  10  -6  114.29   13.00
   5 -10   6  120.49    8.80
   5 -10   6   97.19    8.20
  -6  10  -6  183.98   13.90
  -6  10  -6  183.88   16.20
   6 -10   6  164.88    9.80
   6 -10   6  174.68   10.10
  -7  10  -6    9.60    6.90
  -7  10  -6    2.30    4.30
   7 -10   6    2.90    3.20
  -8  10  -6   90.59   13.90
  -8  10  -6  111.29   13.40
   8 -10   6   95.59    7.50
   8 -10   6   95.39    6.60
  -9  10  -6   13.10    6.10
  -9  10  -6   14.60    8.30
   9 -10   6    1.10    4.80
   9 -10   6    4.80    3.10
   7   9  -6   19.70    8.70
  -7  -9   6   22.40    7.30
   6   9  -6    2.50    6.40
  -6  -9   6   10.80    5.10
   5   9  -6    6.20    6.00
  -5  -9   6   -0.50    3.80
  -5  -9   6    0.90    1.60
   4   9  -6  115.79    6.80
   4   9  -6   91.99   12.10
  -4  -9   6   93.69    6.00
  -4  -9   6   78.29   10.00
   3   9  -6  171.28   14.60
   3   9  -6  161.08    9.20
  -3  -9   6  174.38   12.60
  -3  -9   6  146.39    8.20
   2   9  -6   49.60    9.30
   2   9  -6   50.79    7.00
  -2  -9   6   64.39    8.90
   1   9  -6   30.70    7.60
   1   9  -6   29.00    6.00
  -1  -9   6   40.60    7.10
  -1  -9   6   29.80    5.30
   0   9  -6  118.49   10.00
   0   9  -6  126.29   11.80
   0  -9   6  109.49    9.40
  -1   9  -6  281.17   16.10
  -1   9  -6  318.27   17.70
   1  -9   6  317.37   14.50
  -2   9  -6   23.80    6.20
  -2   9  -6   14.80    5.80
   2  -9   6   14.40    4.30
  -3   9  -6  310.07   14.80
  -3   9  -6  330.77   17.50
  -3   9  -6  314.47   17.80
   3  -9   6  337.27   14.20
  -4   9  -6  134.89   11.80
  -4   9  -6  138.09    9.30
  -4   9  -6  163.98   13.50
   4  -9   6  161.58    9.40
  -5   9  -6   87.49   11.80
  -5   9  -6   93.19   11.30
   5  -9   6   96.29    7.40
   5  -9   6   86.09    7.30
  -6   9  -6    7.80    6.10
  -6   9  -6    3.10    4.20
   6  -9   6   -3.40    2.20
   6  -9   6   -0.70    2.30
  -7   9  -6  228.28   15.20
  -7   9  -6  237.48   17.80
   7  -9   6  212.18    9.60
   7  -9   6  244.88   10.80
  -8   9  -6   39.50   10.60
   8  -9   6   28.90    4.00
   8  -9   6   31.70    7.70
   8  -9   6   27.20    4.30
  -9   9  -6    2.90    6.60
   9  -9   6    1.70    2.20
   9  -9   6   -1.80    3.50
   9  -9   6   -2.30    2.10
 -10   9  -6   -4.40    4.90
  10  -9   6    0.50    2.20
  10  -9   6   -4.30    2.10
  10  -9   6    2.60    4.80
   8   8  -6   19.80    8.20
  -8  -8   6   13.50    5.80
   7   8  -6    8.70    7.60
  -7  -8   6   16.70    6.30
   6   8  -6    5.00    5.50
  -6  -8   6    2.70    4.40
   5   8  -6  242.18   17.70
  -5  -8   6  235.68   14.80
  -5  -8   6  223.68    6.10
   4   8  -6   43.00    8.60
   4   8  -6   47.70    4.20
  -4  -8   6   41.50    7.30
  -4  -8   6   38.80    4.00
   3   8  -6  187.78   14.60
   3   8  -6  177.48    8.90
  -3  -8   6  166.38    8.00
  -3  -8   6  159.98   11.80
   2   8  -6   34.00    7.70
   2   8  -6   45.60    6.20
  -2  -8   6   37.20    6.40
  -2  -8   6   33.00    4.80
   1   8  -6  402.66   16.40
   1   8  -6  408.16   20.20
  -1  -8   6  437.66   19.30
  -1  -8   6  386.96   15.00
   0   8  -6  105.29   12.20
   0   8  -6   96.69    8.50
   0  -8   6   79.99    7.00
   0  -8   6  104.89    8.60
  -1   8  -6   49.70    7.80
  -1   8  -6   47.00    7.10
   1  -8   6   42.00    6.30
   1  -8   6   48.00    6.40
  -2   8  -6   28.40    5.50
  -2   8  -6   25.10    6.50
  -2   8  -6   21.90    6.30
   2  -8   6   25.70    4.80
  -3   8  -6  401.86   16.30
  -3   8  -6  434.66   19.80
  -3   8  -6  411.36   19.40
   3  -8   6  424.36   15.30
  -4   8  -6   -2.30    1.80
  -4   8  -6   -2.00    4.00
  -4   8  -6   -1.10    3.40
   4  -8   6    3.30    2.40
  -5   8  -6    1.00    3.70
  -5   8  -6    6.00    4.60
   5  -8   6    2.40    2.50
   5  -8   6    4.60    2.60
  -6   8  -6  358.46   20.20
   6  -8   6  318.97   18.10
   6  -8   6  326.87   12.00
   6  -8   6  340.97   12.50
  -7   8  -6  116.99   14.30
   7  -8   6  108.69    6.20
   7  -8   6  126.29   11.60
   7  -8   6  130.59    7.20
  -8   8  -6   -2.80    4.30
   8  -8   6    3.90    2.00
   8  -8   6    3.80    4.30
   8  -8   6    4.40    2.40
  -9   8  -6   13.90    6.30
   9  -8   6   10.30    5.70
   9  -8   6   14.60    3.30
   9  -8   6   10.20    2.50
 -10   8  -6   62.19   12.90
  10  -8   6   58.69    4.60
  10  -8   6   53.69    5.00
  10  -8   6   51.19    9.90
 -11   8  -6   -4.00    5.30
  11  -8   6   -1.20    2.10
  11  -8   6   -3.40    3.20
  11  -8   6    3.00    5.00
   9   7  -6   40.50   10.50
  -9  -7   6   42.80    9.00
   8   7  -6   28.00    8.90
  -8  -7   6   24.40    7.10
   7   7  -6    9.30    6.20
  -7  -7   6    5.40    5.30
   6   7  -6  226.48   17.30
  -6  -7   6  208.18   14.30
   5   7  -6    8.10    5.60
  -5  -7   6    0.00    3.70
   4   7  -6    9.70    5.20
   4   7  -6   13.50    2.40
  -4  -7   6   18.30    5.40
   3   7  -6   77.59    5.40
   3   7  -6   72.69   10.90
  -3  -7   6   75.49    5.00
  -3  -7   6   71.99    8.50
   2   7  -6  901.31   25.20
   2   7  -6  941.61   32.50
  -2  -7   6  907.21   23.90
   1   7  -6  238.28   11.50
   1   7  -6  261.17   15.80
  -1  -7   6  249.88   12.40
  -1  -7   6  240.88   10.40
   0   7  -6   44.80    6.70
   0   7  -6   36.90    5.80
   0   7  -6   37.00    7.00
   0  -7   6   43.10    5.90
   0  -7   6   41.50    5.50
  -1   7  -6  196.08   12.90
  -1   7  -6  183.78   11.00
  -1   7  -6  173.08   10.20
   1  -7   6  200.28   10.00
   1  -7   6  194.08   10.20
  -2   7  -6  194.18   10.30
  -2   7  -6  213.18   12.30
  -2   7  -6  208.58   12.90
   2  -7   6  191.18    9.40
   2  -7   6  174.28   10.40
  -3   7  -6    3.40    3.90
  -3   7  -6    5.20    2.70
  -3   7  -6    4.20    3.60
   3  -7   6    8.50    2.90
  -4   7  -6  121.29   10.30
  -4   7  -6  126.69   10.90
  -4   7  -6  120.39    7.30
   4  -7   6  119.99    7.00
  -5   7  -6  308.77   17.20
   5  -7   6  324.47   11.30
   5  -7   6  303.17   11.30
   5  -7   6  319.17   16.90
  -6   7  -6  420.66   20.80
   6  -7   6  395.16   12.50
   6  -7   6  405.36   12.90
   6  -7   6  385.76   19.10
  -7   7  -6   -2.60    4.40
   7  -7   6   -1.00    1.40
   7  -7   6    0.30    2.00
   7  -7   6   -2.60    3.20
  -8   7  -6   -1.00    5.50
   8  -7   6   -1.00    1.90
   8  -7   6    0.20    1.70
   8  -7   6    0.80    4.00
  -9   7  -6  137.69   16.60
   9  -7   6  116.09    6.40
   9  -7   6  127.19   12.30
   9  -7   6  123.19    5.80
 -10   7  -6    4.20    5.90
  10  -7   6    1.40    4.50
  10  -7   6    2.10    1.90
  10  -7   6    4.70    2.40
 -11   7  -6   13.60    6.80
  11  -7   6    5.80    2.40
  11  -7   6   19.70    7.30
  11  -7   6    7.60    2.70
  10   6  -6   38.00   11.10
 -10  -6   6   45.00    8.70
   9   6  -6    8.00    7.50
  -9  -6   6   18.50    8.50
   8   6  -6   37.30   10.20
  -8  -6   6   35.60    8.10
   7   6  -6  124.49   16.00
  -7  -6   6   78.09   10.00
   6   6  -6   14.50    6.30
  -6  -6   6   18.40    5.60
   5   6  -6  107.49   13.80
  -5  -6   6  107.59   10.00
   4   6  -6    0.90    1.10
   4   6  -6    7.00    4.70
  -4  -6   6    1.70    0.90
  -4  -6   6    0.80    3.30
   3   6  -6  519.55   22.70
  -3  -6   6  510.35   22.00
  -3  -6   6  494.25   13.40
   2   6  -6   89.19    5.90
  -2  -6   6   99.19    5.50
  -2  -6   6   82.99    7.50
   1   6  -6  107.99    8.00
   1   6  -6   97.49    9.40
   1   6  -6  106.79    6.90
  -1  -6   6   99.59    7.60
  -1  -6   6  106.19    6.40
   0   6  -6  185.48    9.70
   0   6  -6  191.08   12.30
   0   6  -6  172.18   13.60
   0  -6   6  182.28    9.00
   0  -6   6  195.38    9.70
  -1   6  -6  538.55   18.80
  -1   6  -6  548.95   21.30
  -1   6  -6  516.65   17.80
  -1   6  -6  529.35   21.40
   1  -6   6  553.94   17.20
   1  -6   6  527.45   17.70
  -2   6  -6   -2.30    2.40
  -2   6  -6    2.90    2.80
  -2   6  -6    0.30    1.90
  -2   6  -6   -1.00    2.50
   2  -6   6   -1.20    2.10
   2  -6   6    2.00    2.10
  -3   6  -6  361.36   13.20
  -3   6  -6  379.56   16.50
  -3   6  -6  356.06   16.80
  -3   6  -6  376.16   16.90
   3  -6   6  372.06   12.30
   3  -6   6  395.06   15.70
  -4   6  -6  335.67   12.00
  -4   6  -6  357.66   16.50
  -4   6  -6  387.96   17.30
   4  -6   6  370.36   17.50
   4  -6   6  356.36   11.50
  -5   6  -6  381.26   18.00
  -5   6  -6  350.16   16.40
   5  -6   6  351.76   11.30
   5  -6   6  349.27   17.30
   5  -6   6  381.86   11.40
  -6   6  -6   81.89   10.30
   6  -6   6   80.19   10.50
   6  -6   6   70.99    5.10
   6  -6   6   76.69    4.30
  -7   6  -6    9.90    6.00
   7  -6   6    9.80    4.40
   7  -6   6   10.10    2.10
  -8   6  -6  260.77   17.30
   8  -6   6  263.97   16.10
   8  -6   6  241.58    7.90
  -9   6  -6   53.59   10.40
   9  -6   6   77.39    4.40
   9  -6   6   84.99    5.40
   9  -6   6   74.79   11.00
 -10   6  -6   51.89   10.50
  10  -6   6   56.79    9.90
  10  -6   6   61.99    5.00
  10  -6   6   55.99    4.30
 -11   6  -6    9.90    7.40
  11  -6   6    4.20    4.50
  11  -6   6    5.70    2.60
  11  -6   6    2.80    2.10
 -12   6  -6   -1.10    5.90
  12  -6   6   11.00    6.50
  12  -6   6    7.70    2.80
  12  -6   6    6.70    2.90
  10   5  -6   -3.60    5.10
 -10  -5   6    3.00    4.90
   9   5  -6   -0.30    5.20
  -9  -5   6    0.90    4.40
   8   5  -6   44.20   10.60
  -8  -5   6   21.30    6.90
   7   5  -6   12.60    5.90
  -7  -5   6   12.20    5.30
   6   5  -6  285.77   17.90
  -6  -5   6  282.37   15.50
   5   5  -6   57.99    9.20
  -5  -5   6   53.39    7.40
   4   5  -6  372.26   19.00
  -4  -5   6  422.06   17.10
   3   5  -6   81.89   10.80
   3   5  -6   95.79    4.30
  -3  -5   6   98.89    3.90
  -3  -5   6  105.69    8.30
   2   5  -6   59.99    6.60
   2   5  -6   66.69    4.70
   2   5  -6   83.79   10.20
  -2  -5   6   60.99    3.90
  -2  -5   6   72.49    6.70
   1   5  -6  416.36   13.60
   1   5  -6  396.66   17.90
  -1  -5   6  376.96   17.20
  -1  -5   6  422.36   12.80
  -1  -5   6  431.86   15.10
   0   5  -6 1449.15   35.20
   0   5  -6 1370.86   35.50
   0   5  -6 1423.46   40.60
   0   5  -6 1411.46   39.80
   0  -5   6 1401.16   34.10
   0  -5   6 1453.05   35.00
  -1   5  -6    0.60    1.80
  -1   5  -6    1.60    2.50
  -1   5  -6   -1.10    2.40
  -1   5  -6   -1.10    2.30
   1  -5   6   -0.60    1.80
   1  -5   6   -1.70    1.60
  -2   5  -6  566.04   21.40
  -2   5  -6  608.64   22.00
  -2   5  -6  596.44   17.70
  -2   5  -6  616.04   20.10
   2  -5   6  582.04   18.90
   2  -5   6  604.34   16.80
  -3   5  -6  480.05   19.20
  -3   5  -6  484.45   14.80
  -3   5  -6  479.55   19.10
  -3   5  -6  495.05   18.40
   3  -5   6  491.85   17.40
   3  -5   6  509.95   14.00
   3  -5   6  490.35   20.00
  -4   5  -6  276.57   13.90
  -4   5  -6  276.97   13.90
  -4   5  -6  280.67    9.40
   4  -5   6  294.07   13.20
   4  -5   6  289.07   14.80
  -5   5  -6   88.49    8.10
  -5   5  -6   85.09    9.30
   5  -5   6   71.49    8.60
   5  -5   6   85.49    4.30
  -6   5  -6   81.79   10.00
  -6   5  -6   56.49    7.80
   6  -5   6   73.29    9.80
   6  -5   6   75.49    3.80
   6  -5   6   67.99    3.40
  -7   5  -6  230.38   15.00
   7  -5   6  239.48   14.50
   7  -5   6  237.88    7.10
   7  -5   6  231.78    7.50
  -8   5  -6  188.28   14.60
   8  -5   6  152.58    6.30
   8  -5   6  156.48   12.50
  -9   5  -6   22.10    8.10
   9  -5   6    8.40    2.10
   9  -5   6   13.20    5.60
 -10   5  -6    3.20    5.70
  10  -5   6    1.70    1.90
  10  -5   6    3.30    2.20
  10  -5   6    4.00    4.50
 -11   5  -6   21.10    8.10
  11  -5   6   17.70    3.60
  11  -5   6   15.90    3.10
  11  -5   6   35.00    8.70
 -12   5  -6    5.50    8.40
  12  -5   6    2.00    4.60
  12  -5   6   -3.50    2.10
  12  -5   6    3.80    2.70
  10   4  -6    3.30    7.00
   9   4  -6  177.68   16.20
  -9  -4   6  193.98   14.20
   8   4  -6   -0.20    4.20
  -8  -4   6    2.60    3.90
   7   4  -6   65.19   10.30
  -7  -4   6   63.69    9.10
   6   4  -6   -0.50    3.80
  -6  -4   6    2.30    3.60
   5   4  -6  129.79   11.40
  -5  -4   6  145.69   10.30
   4   4  -6   65.09    9.30
  -4  -4   6   67.19    7.30
   3   4  -6  206.78   13.00
   3   4  -6  230.68   11.30
  -3  -4   6  201.88   10.80
   2   4  -6  617.74   20.20
   2   4  -6  672.73   16.50
   2   4  -6  647.94   23.70
  -2  -4   6  689.13   20.70
  -2  -4   6  617.14   23.00
  -2  -4   6  675.53   15.60
   1   4  -6 1516.25   37.90
   1   4  -6 1576.44   35.50
   1   4  -6 1567.64   42.20
  -1  -4   6 1572.04   37.70
  -1  -4   6 1569.04   34.50
  -1  -4   6 1496.95   41.50
   0   4  -6   43.90    8.70
   0   4  -6   41.30    6.30
   0   4  -6   35.80    4.50
   0   4  -6   30.50    4.10
   0  -4   6   38.90    4.40
   0  -4   6   37.40    4.10
  -1   4  -6  246.68    9.70
  -1   4  -6  280.37   11.10
  -1   4  -6  265.07   13.30
  -1   4  -6  251.27   12.80
   1  -4   6  275.07    9.60
   1  -4   6  242.08    9.90
  -2   4  -6  177.18    7.50
  -2   4  -6  149.79    9.90
  -2   4  -6  169.58   10.40
  -2   4  -6  185.18    9.70
   2  -4   6  167.58    8.50
   2  -4   6  170.28    6.90
  -3   4  -6  196.08   11.10
  -3   4  -6  188.18    7.50
  -3   4  -6  201.98   10.80
   3  -4   6  198.78    6.70
   3  -4   6  183.58   11.20
   3  -4   6  189.88    9.50
  -4   4  -6  821.42   25.90
  -4   4  -6  891.31   32.30
   4  -4   6  850.51   18.80
   4  -4   6  810.92   26.80
   4  -4   6  786.32   24.30
  -5   4  -6 1457.45   40.50
  -5   4  -6 1489.85   40.40
   5  -4   6 1503.25   31.00
   5  -4   6 1550.14   41.90
   5  -4   6 1498.15   30.90
   5  -4   6 1439.66   39.30
  -6   4  -6   70.39    9.60
  -6   4  -6   54.59    7.30
   6  -4   6   53.49    7.70
   6  -4   6   67.59    2.60
   6  -4   6   62.19    2.70
  -7   4  -6  188.68   13.00
   7  -4   6  201.28    5.80
   7  -4   6  214.88   13.40
   7  -4   6  207.28    6.30
  -8   4  -6   24.10    6.40
   8  -4   6   21.60    2.70
   8  -4   6   26.50    2.70
   8  -4   6   12.00    7.70
  -9   4  -6    4.70    5.20
   9  -4   6    4.30    4.20
   9  -4   6    9.80    2.20
 -10   4  -6    4.20    5.70
  10  -4   6    0.90    1.80
  10  -4   6    7.50    5.10
  10  -4   6    0.50    2.00
 -11   4  -6   19.20    7.70
  11  -4   6   22.80    4.10
  11  -4   6   13.00    3.10
  11  -4   6   15.20    6.20
 -12   4  -6  194.48   17.20
  12  -4   6  174.38    9.40
  12  -4   6  149.59    8.20
  12  -4   6  182.48   16.40
 -13   4  -6    6.30    7.00
  13  -4   6   -0.10    2.70
  13  -4   6    1.20    5.00
  11   3  -6    4.20    6.30
 -11  -3   6   13.80    5.90
  10   3  -6   55.09   11.30
 -10  -3   6   38.60    8.10
   9   3  -6  215.18   17.10
  -9  -3   6  206.68   14.70
   8   3  -6   28.90    8.60
  -8  -3   6   21.30    6.30
   7   3  -6    8.90    5.30
  -7  -3   6   14.90    4.70
   6   3  -6  130.99   11.80
  -6  -3   6  118.89    9.60
   4   3  -6  897.91   29.90
  -4  -3   6  913.91   27.00
   3   3  -6  360.06   16.50
   3   3  -6  360.26   14.10
  -3  -3   6  384.46   14.50
  -3  -3   6  344.07   15.90
   2   3  -6  321.67   12.50
   2   3  -6  325.57    8.60
   2   3  -6  318.27   14.90
  -2  -3   6  319.77    8.00
  -2  -3   6  329.67   12.70
  -2  -3   6  307.37   14.40
   1   3  -6  698.23   23.10
   1   3  -6  702.93   17.30
   1   3  -6  692.73   19.70
  -1  -3   6  691.63   19.70
  -1  -3   6  675.53   22.70
   0   3  -6  384.46   12.10
   0   3  -6  377.26   15.60
   0   3  -6  383.96   16.00
   0   3  -6  360.36   12.10
   0  -3   6  359.96   11.20
   0  -3   6  392.26   12.40
  -1   3  -6    5.70    3.10
  -1   3  -6    3.80    1.80
  -1   3  -6    3.60    2.50
  -1   3  -6    3.10    2.50
   1  -3   6    6.70    2.40
   1  -3   6    3.70    1.80
  -2   3  -6  604.24   18.80
  -2   3  -6  633.94   21.10
  -2   3  -6  607.14   15.80
   2  -3   6  622.84   21.30
   2  -3   6  619.94   18.00
   2  -3   6  608.54   15.20
  -3   3  -6  440.56   11.30
  -3   3  -6  454.75   17.00
  -3   3  -6  444.06   15.70
   3  -3   6  412.46   14.70
   3  -3   6  446.36   10.70
   3  -3   6  430.96   17.20
  -4   3  -6  114.89    8.40
  -4   3  -6  112.39    8.30
   4  -3   6  116.09    3.10
   4  -3   6  117.19    3.10
   4  -3   6  112.99    8.70
  -5   3  -6  497.25   19.20
  -5   3  -6  533.75   19.30
   5  -3   6  545.95   20.50
  -6   3  -6  379.46   16.50
  -6   3  -6  364.36   16.00
   6  -3   6  343.47   16.50
  -7   3  -6  431.26   21.80
   7  -3   6  427.06   10.10
   7  -3   6  427.06   10.60
   7  -3   6  422.86   19.10
  -8   3  -6  402.26   19.10
   8  -3   6  389.36   12.30
   8  -3   6  396.46   11.30
   8  -3   6  403.66   22.50
  -9   3  -6   -2.00    4.40
   9  -3   6    2.80    1.80
   9  -3   6    1.60    3.90
   9  -3   6    0.50    1.50
 -10   3  -6    1.80    2.00
 -10   3  -6    4.30    6.00
  10  -3   6    1.60    2.00
  10  -3   6    3.50    4.10
 -11   3  -6  164.88   14.90
 -11   3  -6  153.28    8.40
  11  -3   6  152.58    7.90
  11  -3   6  163.78   14.90
 -12   3  -6    8.70    3.40
 -12   3  -6   21.50    7.80
  12  -3   6   23.70    8.10
  12  -3   6   13.50    3.70
 -13   3  -6   -1.30    2.70
  13  -3   6    5.20    6.00
  13  -3   6   -1.20    3.00
  11   2  -6    5.40    6.30
 -11  -2   6    2.40    4.90
  10   2  -6   55.89   11.10
 -10  -2   6   52.29    8.90
   9   2  -6   -6.70    3.60
  -9  -2   6   -2.30    3.70
   8   2  -6   72.19   11.10
  -8  -2   6   74.59    9.80
   7   2  -6   47.80    8.50
  -7  -2   6   58.59    8.40
   6   2  -6   14.00    5.30
  -6  -2   6   11.80    4.60
   5   2  -6  676.23   25.00
  -5  -2   6  685.63   22.70
   4   2  -6 1016.90   31.20
   4   2  -6  954.10   27.90
  -4  -2   6  954.60   30.40
  -4  -2   6 1042.00   28.50
   3   2  -6  124.99    9.20
  -3  -2   6  135.29    8.10
  -3  -2   6  127.19    9.00
   2   2  -6   56.69    6.10
   2   2  -6   36.10    2.00
   2   2  -6   47.20    6.90
   2   2  -6   38.20    2.10
  -2  -2   6   57.19    6.10
  -2  -2   6   56.79    7.30
   1   2  -6  516.65   12.80
   1   2  -6  494.15   15.10
   1   2  -6  484.85   17.90
  -1  -2   6  517.05   15.40
  -1  -2   6  492.85   17.80
  -1  -2   6  515.45   12.50
   0   2  -6  706.33   22.60
   0   2  -6  715.93   19.10
   0   2  -6  669.83   21.80
   0   2  -6  687.53   18.20
   0  -2   6  716.63   18.40
   0  -2   6  694.43   17.20
  -1   2  -6   51.09    3.50
  -1   2  -6   57.09    4.40
  -1   2  -6   60.19    5.90
  -1   2  -6   70.09    7.70
   1  -2   6   61.69    4.20
  -2   2  -6 1421.16   30.60
  -2   2  -6 1451.25   37.30
  -2   2  -6 1446.56   34.40
   2  -2   6 1421.56   30.30
   2  -2   6 1401.16   33.50
   2  -2   6 1409.86   37.30
  -3   2  -6  706.13   22.40
  -3   2  -6  673.03   20.50
  -3   2  -6  721.33   15.20
   3  -2   6  677.23   19.90
   3  -2   6  701.43   22.60
   3  -2   6  729.23   14.80
  -4   2  -6  364.16   14.70
  -4   2  -6  327.77   13.50
   4  -2   6  348.57   13.10
   4  -2   6  334.17   14.70
  -5   2  -6 1024.10   33.10
   5  -2   6 1049.89   28.80
   5  -2   6 1063.99   31.20
  -6   2  -6  526.65   19.20
  -6   2  -6  514.15   19.50
   6  -2   6  523.95   20.40
   6  -2   6  478.45   17.70
  -7   2  -6  964.70   29.60
  -7   2  -6  916.41   29.70
   7  -2   6  946.71   21.00
   7  -2   6  967.80   31.30
  -8   2  -6   78.09    9.20
   8  -2   6   65.19    3.90
   8  -2   6   63.19    8.90
  -9   2  -6   11.70    5.10
  -9   2  -6   11.30    2.60
   9  -2   6    6.00    4.50
   9  -2   6    6.70    2.20
 -10   2  -6   17.30    3.50
 -10   2  -6   27.30    7.30
  10  -2   6   14.90    6.50
  10  -2   6   12.00    3.00
 -11   2  -6    2.90    2.80
 -11   2  -6    6.30    5.50
  11  -2   6   -0.90    2.20
  11  -2   6   -3.00    4.40
 -12   2  -6    6.30    3.40
 -12   2  -6    5.00    6.10
  12  -2   6    0.40    2.90
  12  -2   6    8.40    5.90
 -13   2  -6   -3.60    5.50
 -13   2  -6    6.40    3.50
  13  -2   6   10.60    6.70
  13  -2   6    0.50    3.10
  11   1  -6   54.29   10.90
 -11  -1   6   41.70    4.20
 -11  -1   6   38.80    4.50
 -11  -1   6   52.19    9.70
  10   1  -6   15.20    7.20
 -10  -1   6   14.90    5.90
 -10  -1   6   20.20    2.90
   9   1  -6  109.29   13.10
  -9  -1   6  127.49   11.40
  -9  -1   6   94.69    7.00
  -9  -1   6  117.19    5.70
   8   1  -6   13.70    5.70
  -8  -1   6   24.30    2.90
  -8  -1   6   17.30    4.90
  -8  -1   6   19.10    2.30
   7   1  -6  282.87   16.10
  -7  -1   6  272.87   14.40
  -7  -1   6  271.17    7.20
  -7  -1   6  275.17    7.50
   6   1  -6  418.36   19.00
  -6  -1   6  425.36   17.50
   5   1  -6  149.09   10.50
  -5  -1   6  168.68    9.90
  -5  -1   6  130.49    9.70
   4   1  -6  105.19    8.50
   4   1  -6   94.39    7.00
  -4  -1   6   97.89    7.50
  -4  -1   6   89.19    7.70
   3   1  -6    6.90    2.60
   3   1  -6   12.60    3.80
  -3  -1   6    9.30    3.40
  -3  -1   6    7.70    2.60
   2   1  -6 1758.62   35.30
   2   1  -6 1737.53   43.50
   2   1  -6 1719.33   40.30
   2   1  -6 1728.63   35.60
  -2  -1   6 1715.13   43.20
  -2  -1   6 1723.23   40.60
   1   1  -6  298.27    8.30
   1   1  -6  286.37   10.20
   1   1  -6  301.67   12.60
   1   1  -6  292.47    8.20
  -1  -1   6  294.47   10.40
  -1  -1   6  275.27   12.00
   0   1  -6   13.10    3.70
   0   1  -6   10.90    2.10
   0   1  -6   21.80    4.50
   0   1  -6   13.40    2.40
   0  -1   6    9.50    1.90
   0  -1   6   10.80    2.30
  -1   1  -6  283.67   12.20
  -1   1  -6  274.87    9.50
  -1   1  -6  289.27    9.30
   1  -1   6  302.67    9.60
   1  -1   6  300.97    8.70
  -2   1  -6  258.17    6.90
  -2   1  -6  273.17   11.60
  -2   1  -6  239.98    9.40
   2  -1   6  259.67    7.00
   2  -1   6  250.77   11.40
   2  -1   6  246.68    9.20
  -3   1  -6  316.87   13.00
  -3   1  -6  321.17   11.90
   3  -1   6  316.97   11.40
   3  -1   6  328.07   13.60
  -4   1  -6   82.49    6.80
  -4   1  -6   72.29    6.10
   4  -1   6   80.99    5.90
   4  -1   6   76.39    7.00
  -5   1  -6 1457.95   38.80
  -5   1  -6 1481.25   38.00
   5  -1   6 1508.35   40.10
  -6   1  -6  937.71   28.70
  -6   1  -6  964.50   28.20
  -6   1  -6  957.50   20.40
   6  -1   6  913.11   26.80
   6  -1   6  950.70   29.80
   6  -1   6  932.61   20.50
  -7   1  -6  271.27   13.60
  -7   1  -6  271.57    8.10
  -7   1  -6  266.67   13.80
   7  -1   6  258.87    9.70
   7  -1   6  284.77   15.00
  -8   1  -6    3.90    4.80
  -8   1  -6   11.90    2.40
   8  -1   6   15.20    5.30
   8  -1   6   10.90    2.30
  -9   1  -6   41.70    8.00
  -9   1  -6   33.10    4.10
   9  -1   6   34.90    7.60
   9  -1   6   28.60    3.90
 -10   1  -6  338.57   12.10
 -10   1  -6  313.47   17.10
  10  -1   6  324.17   19.30
  10  -1   6  294.37   11.80
 -11   1  -6  399.56   20.30
 -11   1  -6  386.76   14.20
  11  -1   6  354.16   14.00
  11  -1   6  390.36   22.40
 -12   1  -6    3.90    3.10
 -12   1  -6   -2.30    5.00
  12  -1   6   -2.30    2.40
  12  -1   6    6.40    5.50
 -13   1  -6   32.60    9.20
 -13   1  -6   35.50    5.90
  13  -1   6   53.79   12.00
 -12   0   6   62.49   11.20
 -12   0   6   45.10    6.20
  11   0  -6   48.50    5.40
  11   0  -6   50.69   10.50
 -11   0   6   54.29    9.80
 -11   0   6   54.79    6.50
  10   0  -6  199.18   16.00
  10   0  -6  181.28    8.20
 -10   0   6  193.58   14.20
 -10   0   6  173.08    9.00
   9   0  -6   25.50    7.30
   9   0  -6   18.10    3.10
  -9   0   6   21.50    3.90
  -9   0   6   26.70    6.70
   8   0  -6  260.07    9.20
   8   0  -6  280.77   16.60
  -8   0   6  260.27   10.10
  -8   0   6  270.57   15.00
   7   0  -6  235.68    7.90
  -7   0   6  223.08   10.50
  -7   0   6  237.78   13.40
   6   0  -6   85.39    8.60
  -6   0   6   50.79    7.50
  -6   0   6   51.19    8.00
  -6   0   6   69.89    4.20
   5   0  -6   85.79    8.10
   5   0  -6   93.69    3.90
   5   0  -6   84.69    6.90
  -5   0   6   86.89    7.70
  -5   0   6   95.49    4.30
  -5   0   6   88.89    7.40
   4   0  -6   11.10    1.60
   4   0  -6    7.40    3.20
   4   0  -6   12.30    3.20
  -4   0   6    5.10    2.70
  -4   0   6    5.60    3.10
  -4   0   6    7.50    1.50
   3   0  -6 1005.20   26.50
   3   0  -6  996.20   28.20
   3   0  -6  982.40   21.60
  -3   0   6  979.30   28.00
  -3   0   6 1009.40   21.60
  -3   0   6  975.30   26.50
   2   0  -6 4357.86   86.39
   2   0  -6 4232.48   89.79
  -2   0   6 4197.28   92.19
   1   0  -6  889.11   25.20
   1   0  -6  862.61   19.90
   1   0  -6  870.11   22.10
   1   0  -6  859.41   24.40
   1   0  -6  894.91   20.50
  -1   0   6  866.71   24.20
  -1   0   6  876.21   22.30
   0   0  -6  106.59    6.80
   0   0  -6   79.49    4.50
   0   0  -6   86.39    4.40
   0   0  -6   98.39    4.70
   0   0   6  101.09    5.10
  -2   0  -6  594.54   13.70
  -2   0  -6  599.24   18.60
  -2   0  -6  609.94   16.60
   2   0   6  591.64   14.10
   2   0   6  581.34   16.40
  -3   0  -6  427.76    9.50
  -3   0  -6  400.66   13.40
  -3   0  -6  403.96   14.80
  -3   0  -6  422.76    9.80
   3   0   6  431.86   13.60
   3   0   6  395.86   15.10
  -4   0  -6 1839.82   45.60
  -4   0  -6 1925.01   44.10
  -4   0  -6 1848.02   37.60
   4   0   6 1854.11   46.30
   4   0   6 1876.11   43.70
  -5   0  -6  435.56   10.30
  -5   0  -6  416.16   16.30
  -5   0  -6  451.65   15.70
   5   0   6  429.26   15.10
   5   0   6  433.06   17.20
   5   0   6  439.06   10.80
  -6   0  -6   33.90    2.60
  -6   0  -6   26.00    5.10
  -6   0  -6   29.40    5.20
   6   0   6   32.00    2.80
   6   0   6   27.60    4.40
   6   0   6   32.30    5.50
  -7   0  -6   75.59    7.40
  -7   0  -6   57.29    7.10
  -7   0  -6   62.59    4.00
   7   0   6   67.89    9.00
   7   0   6   71.49    4.40
   7   0   6   70.49    6.50
  -8   0  -6  198.38   11.90
  -8   0  -6  193.18    7.70
   8   0   6  192.68    8.20
   8   0   6  204.98   13.70
  -9   0  -6   61.39    8.00
  -9   0  -6   89.69    5.80
   9   0   6   75.69    5.70
   9   0   6   97.29   12.30
 -10   0  -6   71.69    6.00
 -10   0  -6   77.09    9.70
  10   0   6   71.39    6.10
  10   0   6   85.69   12.20
 -11   0  -6   -1.00    4.20
 -11   0  -6    0.50    2.50
  11   0   6   -1.30    4.00
  11   0   6   -1.90    2.00
 -12   0  -6  113.19   13.20
 -12   0  -6  106.59    8.00
  12   0   6  107.99   15.30
 -13   0  -6   40.60    6.40
 -13   0  -6   35.20    8.70
  13   0   6   42.80   10.80
  12  -1  -6    3.50    5.10
 -12   1   6    2.30    3.30
 -12   1   6   11.30    5.60
  11  -1  -6  157.98   14.80
  11  -1  -6  147.39    8.70
 -11   1   6  183.28   10.60
 -11   1   6  166.98   14.10
  10  -1  -6    5.10    2.90
  10  -1  -6    9.50    5.70
 -10   1   6    5.20    3.00
 -10   1   6    4.70    4.60
   9  -1  -6   28.30    4.30
   9  -1  -6   34.50    7.80
  -9   1   6   35.10    7.60
  -9   1   6   30.40    5.10
   8  -1  -6   39.80    4.80
   8  -1  -6   38.60    7.60
  -8   1   6   45.30    5.70
  -8   1   6   35.20    6.80
   7  -1  -6   39.30    4.40
   7  -1  -6   35.00    7.10
  -7   1   6   41.30    7.20
  -7   1   6   37.40    5.00
   6  -1  -6  495.65   19.40
   6  -1  -6  490.25   14.10
  -6   1   6  469.55   19.10
  -6   1   6  504.65   19.00
  -6   1   6  498.55   15.20
   5  -1  -6  313.97    9.90
   5  -1  -6  303.07   13.00
   5  -1  -6  321.37   14.30
  -5   1   6  309.17   10.60
  -5   1   6  313.17   13.70
  -5   1   6  324.07   16.20
   4  -1  -6  259.37    8.40
   4  -1  -6  268.07   12.20
   4  -1  -6  247.98   11.00
  -4   1   6  248.98    8.80
  -4   1   6  257.17   11.80
  -4   1   6  255.37   11.50
   3  -1  -6   94.89    6.90
   3  -1  -6  102.89    6.50
   3  -1  -6   99.99    5.50
  -3   1   6  116.09    7.30
  -3   1   6   95.59    6.80
  -3   1   6  106.89    5.10
   2  -1  -6  666.53   19.00
   2  -1  -6  691.53   20.40
   2  -1  -6  706.23   17.60
  -2   1   6  687.73   17.10
  -2   1   6  688.93   20.20
  -2   1   6  696.03   19.70
   1  -1  -6  149.99    7.70
   1  -1  -6  143.69    6.90
   1  -1  -6  133.79    7.50
   1  -1  -6  139.99    6.50
  -1   1   6  131.29    6.60
  -1   1   6  137.79    5.70
   0  -1  -6 1617.94   36.50
   0  -1  -6 1616.04   36.10
   0  -1  -6 1620.74   38.70
   0   1   6 1664.83   37.70
   0   1   6 1632.34   39.10
   0   1   6 1623.04   36.60
  -1  -1  -6 1237.68   30.90
  -1  -1  -6 1207.38   27.60
  -1  -1  -6 1237.08   28.80
  -1  -1  -6 1263.47   29.20
   1   1   6 1239.18   28.30
   1   1   6 1230.08   31.00
  -2  -1  -6 2155.78   50.19
  -2  -1  -6 2176.28   48.40
  -2  -1  -6 2203.68   46.20
  -2  -1  -6 2185.28   46.50
  -2  -1  -6 2226.38   48.80
   2   1   6 2263.77   50.89
  -3  -1  -6 1663.53   35.20
  -3  -1  -6 1645.64   38.20
  -3  -1  -6 1611.54   39.70
   3   1   6 1658.03   38.30
   3   1   6 1607.04   40.30
  -4  -1  -6  211.08   10.30
  -4  -1  -6  226.18    9.50
  -4  -1  -6  222.38    6.80
   4   1   6  222.88    9.60
   4   1   6  218.68    7.10
   4   1   6  215.28   10.80
  -5  -1  -6   44.10    3.00
  -5  -1  -6   55.19    6.80
   5   1   6   42.90    5.80
   5   1   6   47.90    5.60
  -6  -1  -6   29.40    5.20
  -6  -1  -6   36.30    5.90
  -6  -1  -6   26.30    3.00
   6   1   6   29.50    3.50
   6   1   6   23.60    4.30
   6   1   6   16.90    4.30
  -7  -1  -6  262.27    9.20
  -7  -1  -6  264.57   12.50
  -7  -1  -6  246.98   13.50
   7   1   6  263.67   14.60
   7   1   6  263.97   12.30
   7   1   6  264.27    9.80
  -8  -1  -6  858.81   22.20
  -8  -1  -6  878.21   27.00
   8   1   6  808.42   22.90
  -9  -1  -6    9.30    4.40
  -9  -1  -6    6.60    2.60
   9   1   6    2.70    2.20
   9   1   6   -0.40    4.00
 -10  -1  -6  138.69    8.30
 -10  -1  -6  154.68   11.80
  10   1   6  159.68   14.10
 -11  -1  -6   40.90    8.20
 -11  -1  -6   28.80    5.00
  11   1   6   23.20    7.30
  11   1   6   19.00    4.60
 -12  -1  -6   77.99    8.30
 -12  -1  -6   82.29   11.30
  12   1   6   88.89   12.90
 -13  -1  -6   95.99    8.60
 -13  -1  -6   75.29   10.70
  13   1   6   90.29   15.00
  12  -2  -6   30.80    8.80
 -12   2   6   32.60    8.40
 -12   2   6   23.50    5.90
  11  -2  -6   14.90    6.60
 -11   2   6   12.80    4.80
 -11   2   6   19.40    6.60
  10  -2  -6   67.59   10.70
  10  -2  -6   38.50    5.80
 -10   2   6   49.50    7.40
 -10   2   6   38.60    7.50
   9  -2  -6   62.09    9.90
  -9   2   6   59.59    8.70
  -9   2   6   70.69    8.10
   8  -2  -6   10.40    3.10
   8  -2  -6    7.00    5.20
  -8   2   6   16.40    5.30
  -8   2   6   12.50    4.10
   7  -2  -6  298.47   15.00
   7  -2  -6  286.17   11.30
  -7   2   6  316.37   12.90
  -7   2   6  291.17   14.70
  -7   2   6  286.47   14.70
   6  -2  -6  339.17   15.00
   6  -2  -6  311.67   11.40
  -6   2   6  336.27   12.80
  -6   2   6  325.07   14.70
  -6   2   6  324.07   14.80
   5  -2  -6  286.37   10.40
   5  -2  -6  286.87   12.30
   5  -2  -6  281.97   12.80
  -5   2   6  285.57   12.70
  -5   2   6  287.67   11.20
  -5   2   6  273.87   12.90
   4  -2  -6  834.22   21.80
   4  -2  -6  858.11   24.40
   4  -2  -6  884.71   24.70
  -4   2   6  875.81   22.90
  -4   2   6  812.42   24.20
  -4   2   6  867.51   25.10
   3  -2  -6   45.30    4.00
   3  -2  -6   49.70    5.70
   3  -2  -6   53.29    5.50
  -3   2   6   42.90    4.60
  -3   2   6   34.90    4.70
  -3   2   6   44.60    5.10
   2  -2  -6  321.17   11.70
   2  -2  -6  329.07   11.60
   2  -2  -6  334.57   11.00
  -2   2   6  315.97   10.80
  -2   2   6  345.57   12.30
  -2   2   6  324.17   11.60
   1  -2  -6 1115.29   27.80
   1  -2  -6 1136.39   27.50
   1  -2  -6 1136.29   28.20
   1  -2  -6 1114.09   27.30
  -1   2   6 1105.69   28.00
  -1   2   6 1153.48   27.20
   0  -2  -6  254.17    9.70
   0  -2  -6  263.97    9.10
   0  -2  -6  257.77    9.50
   0   2   6  252.77    9.90
   0   2   6  249.88    9.50
   0   2   6  248.98    9.10
  -1  -2  -6 1419.16   32.50
  -1  -2  -6 1418.06   33.60
  -1  -2  -6 1389.76   33.20
  -1  -2  -6 1430.46   32.20
   1   2   6 1403.66   33.90
   1   2   6 1387.96   32.90
  -2  -2  -6  689.13   18.80
  -2  -2  -6  679.83   19.20
  -2  -2  -6  657.23   19.40
  -2  -2  -6  710.43   17.80
   2   2   6  707.93   20.10
  -3  -2  -6  697.33   20.40
  -3  -2  -6  695.63   17.90
  -3  -2  -6  679.53   19.20
   3   2   6  689.13   17.70
   3   2   6  694.63   20.80
  -4  -2  -6   66.69    4.80
  -4  -2  -6   66.09    5.30
  -4  -2  -6   68.49    5.90
  -4  -2  -6   70.19    5.40
   4   2   6   57.59    5.90
   4   2   6   63.99    4.30
  -5  -2  -6 1136.59   26.30
  -5  -2  -6 1089.69   30.80
  -5  -2  -6 1122.29   29.70
  -5  -2  -6 1132.89   29.30
   5   2   6 1070.39   29.10
   5   2   6 1096.69   26.90
   5   2   6 1126.79   32.10
  -6  -2  -6   33.10    4.80
  -6  -2  -6   41.80    6.20
  -6  -2  -6   44.70    3.90
   6   2   6   54.89    7.50
   6   2   6   39.60    4.50
   6   2   6   40.90    5.50
  -7  -2  -6  544.75   18.70
  -7  -2  -6  520.15   15.30
   7   2   6  535.65   21.50
   7   2   6  495.75   16.10
   7   2   6  499.85   18.20
  -8  -2  -6  164.38   10.30
  -8  -2  -6  159.18    8.00
   8   2   6  158.48   14.10
   8   2   6  156.98    8.50
  -9  -2  -6   36.70    5.00
  -9  -2  -6   37.80    6.20
   9   2   6   31.10    5.10
   9   2   6   44.80    8.70
 -10  -2  -6   64.19    8.40
 -10  -2  -6   67.29    7.20
  10   2   6   55.99    7.10
  10   2   6   40.60    8.50
 -11  -2  -6    0.00    3.80
 -11  -2  -6    2.70    3.10
  11   2   6    0.20    4.30
 -12  -2  -6  171.18   13.20
 -12  -2  -6  160.88   10.30
  12   2   6  171.38   16.20
 -13  -2  -6   16.40    4.90
 -13  -2  -6   22.20    6.50
  12  -3  -6   -0.70    5.00
 -12   3   6   -2.80    4.00
 -12   3   6    1.30    3.90
  11  -3  -6    5.20    5.40
 -11   3   6   -3.90    3.20
  10  -3  -6   32.80    7.90
 -10   3   6   45.70    7.90
 -10   3   6   40.60    8.30
   9  -3  -6  244.38   14.80
   9  -3  -6  215.28   11.10
  -9   3   6  215.38   14.50
  -9   3   6  230.58   12.90
   8  -3  -6   16.40    4.00
   8  -3  -6   29.60    6.50
  -8   3   6   33.10    6.10
  -8   3   6   26.20    6.00
   7  -3  -6   52.69    7.50
   7  -3  -6   57.39    6.30
  -7   3   6   52.59    7.20
  -7   3   6   53.89    7.70
  -7   3   6   58.99    7.30
   6  -3  -6  393.06   14.10
   6  -3  -6  412.16   16.10
  -6   3   6  401.26   17.10
  -6   3   6  413.76   15.60
  -6   3   6  394.76   15.90
   5  -3  -6  406.56   13.90
   5  -3  -6  417.16   15.20
   5  -3  -6  396.36   15.10
  -5   3   6  407.86   16.40
  -5   3   6  399.96   15.00
  -5   3   6  409.06   15.10
   4  -3  -6 1709.23   40.80
   4  -3  -6 1722.23   42.00
   4  -3  -6 1771.12   41.40
  -4   3   6 1743.73   41.80
  -4   3   6 1737.23   43.50
  -4   3   6 1718.03   41.20
   3  -3  -6  517.35   16.30
   3  -3  -6  525.05   16.80
   3  -3  -6  536.65   15.90
  -3   3   6  539.45   16.80
  -3   3   6  526.25   15.90
  -3   3   6  539.85   17.90
   2  -3  -6 1152.38   27.30
   2  -3  -6 1138.09   28.70
   2  -3  -6 1119.99   28.40
  -2   3   6 1117.19   29.50
  -2   3   6 1102.49   28.40
   1  -3  -6 1650.33   39.10
   1  -3  -6 1676.53   37.70
   1  -3  -6 1707.03   39.20
  -1   3   6 1628.34   38.90
  -1   3   6 1651.23   39.60
   0  -3  -6   32.20    4.10
   0  -3  -6   26.60    3.90
   0  -3  -6   29.60    3.60
   0  -3  -6   23.10    3.40
   0   3   6   27.60    4.00
   0   3   6   30.10    4.20
   0   3   6   19.30    3.10
  -1  -3  -6   93.59    5.70
  -1  -3  -6   88.99    5.20
  -1  -3  -6   91.99    5.50
  -1  -3  -6   88.69    5.80
   1   3   6   80.49    5.30
  -2  -3  -6   57.19    4.90
  -2  -3  -6   53.59    4.50
  -2  -3  -6   54.49    4.50
   2   3   6   54.19    4.70
   2   3   6   51.49    4.20
   2   3   6   57.89    5.00
  -3  -3  -6  333.67   11.40
  -3  -3  -6  330.87   12.40
  -3  -3  -6  331.37   12.00
   3   3   6  334.07   12.10
   3   3   6  331.87   11.40
   3   3   6  333.37   12.80
  -4  -3  -6 2060.19   49.90
  -4  -3  -6 2069.99   48.80
  -4  -3  -6 2156.38   49.80
  -4  -3  -6 2129.09   47.40
   4   3   6 2111.39   47.80
   4   3   6 2203.68   51.29
  -5  -3  -6  295.77   10.60
  -5  -3  -6  292.17   12.30
  -5  -3  -6  262.37   12.60
  -5  -3  -6  298.67   12.00
   5   3   6  297.67   13.80
   5   3   6  304.77   11.30
  -6  -3  -6 1529.65   38.40
  -6  -3  -6 1460.75   40.50
  -6  -3  -6 1576.94   36.20
  -6  -3  -6 1479.25   38.90
   6   3   6 1578.64   42.40
   6   3   6 1490.85   37.10
  -7  -3  -6    3.80    2.90
  -7  -3  -6    4.30    2.40
  -7  -3  -6    4.50    2.30
   7   3   6    3.00    3.30
   7   3   6    3.60    2.40
  -8  -3  -6  150.08    9.80
  -8  -3  -6  145.79    8.20
   8   3   6  146.49   12.00
   8   3   6  143.49    8.70
  -9  -3  -6    3.10    2.80
  -9  -3  -6    2.10    3.40
   9   3   6    4.00    2.70
   9   3   6    7.60    4.40
 -10  -3  -6   36.80    7.00
 -10  -3  -6   36.80    5.90
  10   3   6   34.10    8.10
 -11  -3  -6  197.88   13.40
 -11  -3  -6  210.28   11.60
  11   3   6  230.28   17.70
 -12  -3  -6  106.39    9.00
 -12  -3  -6  130.89   11.60
  12   3   6   77.29   12.20
 -13  -3  -6    7.90    5.20
 -13  -3  -6    0.80    3.50
  13   3   6    0.80    5.50
  12  -4  -6    2.10    4.90
 -12   4   6    5.20    6.10
 -12   4   6    0.30    4.10
  11  -4  -6   18.60    6.40
 -11   4   6    5.00    4.70
 -11   4   6   13.80    6.00
  10  -4  -6   46.40    8.60
 -10   4   6   50.09    8.80
 -10   4   6   41.80    7.70
   9  -4  -6    9.70    5.10
  -9   4   6   19.30    5.90
  -9   4   6   10.10    5.30
   8  -4  -6    0.60    3.10
   8  -4  -6    1.40    2.80
  -8   4   6   -1.20    3.00
  -8   4   6    3.20    3.60
  -8   4   6   -0.40    2.80
   7  -4  -6   10.60    3.90
   7  -4  -6    7.40    4.00
  -7   4   6    8.50    4.00
  -7   4   6    6.90    3.90
   6  -4  -6  348.67   14.10
   6  -4  -6  316.97   13.50
  -6   4   6  358.76   15.30
  -6   4   6  321.87   15.60
  -6   4   6  344.57   14.00
   5  -4  -6 1092.39   29.90
   5  -4  -6 1150.18   29.50
   5  -4  -6 1123.99   30.80
  -5   4   6 1105.69   29.20
  -5   4   6 1133.69   31.70
  -5   4   6 1132.09   32.60
   4  -4  -6  445.76   16.10
   4  -4  -6  472.85   14.60
   4  -4  -6  453.95   15.90
  -4   4   6  482.05   14.70
  -4   4   6  473.75   17.00
  -4   4   6  465.65   17.60
   3  -4  -6  611.54   19.10
   3  -4  -6  589.24   18.80
   3  -4  -6  598.84   17.80
  -3   4   6  617.14   16.70
  -3   4   6  617.54   20.30
  -3   4   6  637.54   19.90
   2  -4  -6  764.82   19.40
   2  -4  -6  782.02   22.10
   2  -4  -6  769.82   19.00
   2  -4  -6  744.33   22.00
  -2   4   6  737.93   22.70
  -2   4   6  795.92   22.70
   1  -4  -6  683.73   17.20
   1  -4  -6  701.83   17.30
   1  -4  -6  679.13   20.60
   1  -4  -6  693.23   20.10
   1  -4  -6  651.73   20.20
  -1   4   6  704.13   20.60
  -1   4   6  680.53   20.70
   0  -4  -6  784.02   22.00
   0  -4  -6  775.52   22.30
   0  -4  -6  789.62   20.60
   0  -4  -6  790.42   22.60
   0   4   6  772.82   22.20
   0   4   6  806.52   19.80
  -1  -4  -6  395.06   13.90
  -1  -4  -6  386.66   12.00
  -1  -4  -6  391.96   14.10
   1   4   6  398.36   12.60
   1   4   6  379.76   13.20
   1   4   6  382.76   13.70
  -2  -4  -6   79.39    6.00
  -2  -4  -6   80.89    5.30
  -2  -4  -6   76.99    5.70
   2   4   6   84.89    5.90
   2   4   6   84.69    5.70
   2   4   6   90.79    5.90
  -3  -4  -6 2238.78   51.19
  -3  -4  -6 2217.58   51.39
  -3  -4  -6 2226.68   52.29
   3   4   6 2270.07   51.79
   3   4   6 2156.78   50.99
   3   4   6 2333.67   52.29
  -4  -4  -6  118.09    7.90
  -4  -4  -6  132.39    8.00
  -4  -4  -6  128.99    7.60
  -4  -4  -6  124.49    7.20
   4   4   6  121.69    7.30
   4   4   6  139.59    8.70
   4   4   6  127.29    7.60
  -5  -4  -6   52.49    6.10
  -5  -4  -6   43.90    5.30
  -5  -4  -6   45.00    5.30
  -5  -4  -6   51.89    6.50
   5   4   6   44.00    5.30
   5   4   6   36.30    5.60
  -6  -4  -6    9.00    3.80
  -6  -4  -6    8.20    3.20
  -6  -4  -6    5.60    2.40
  -6  -4  -6    5.20    2.40
   6   4   6    5.80    2.50
   6   4   6   11.20    4.40
  -7  -4  -6 1151.48   31.70
  -7  -4  -6 1101.59   32.30
  -7  -4  -6 1227.68   30.60
   7   4   6 1159.08   36.10
   7   4   6 1061.39   31.90
  -8  -4  -6   10.20    3.20
  -8  -4  -6   10.10    3.50
   8   4   6    5.80    4.20
   8   4   6    5.20    2.90
  -9  -4  -6   72.49    7.90
  -9  -4  -6   77.59    9.40
   9   4   6   50.49    9.60
 -10  -4  -6   43.20    7.60
  10   4   6   31.70    8.30
 -11  -4  -6  149.79   10.70
 -11  -4  -6  167.28   12.00
  11   4   6  154.78   15.10
 -12  -4  -6    1.20    3.60
 -12  -4  -6    0.80    4.20
  12   4   6    6.70    6.10
 -13  -4  -6    8.60    4.10
 -13  -4  -6    9.10    5.10
  13   4   6   -0.10    4.80
  11  -5  -6   17.80    6.20
 -11   5   6    4.50    4.60
 -11   5   6    9.40    5.30
  10  -5  -6    1.10    3.90
 -10   5   6   -4.10    2.90
 -10   5   6    2.00    4.10
   9  -5  -6    7.30    4.20
  -9   5   6    2.40    3.60
  -9   5   6    8.40    4.80
   8  -5  -6   -1.70    3.00
  -8   5   6    3.40    3.60
  -8   5   6    1.50    3.10
  -8   5   6    0.20    3.40
   7  -5  -6    0.60    3.10
   7  -5  -6    1.30    2.70
  -7   5   6    2.30    2.50
  -7   5   6    3.50    3.40
  -7   5   6   -1.00    2.80
   6  -5  -6  314.97   13.90
   6  -5  -6  309.57   12.60
  -6   5   6  320.57   15.40
  -6   5   6  330.27   12.70
   5  -5  -6  626.84   21.10
   5  -5  -6  682.73   19.20
  -5   5   6  696.43   23.70
  -5   5   6  665.53   18.90
  -5   5   6  620.64   22.50
   4  -5  -6  289.77   12.80
   4  -5  -6  306.47   11.50
   4  -5  -6  294.27   12.80
  -4   5   6  322.97   14.50
  -4   5   6  294.47   10.00
  -4   5   6  297.67   13.80
   3  -5  -6  251.37   11.40
   3  -5  -6  256.27    8.10
   3  -5  -6  257.67   11.80
   3  -5  -6  251.37    8.40
  -3   5   6  262.17   12.40
  -3   5   6  245.38   12.30
   2  -5  -6  966.50   21.60
   2  -5  -6  954.90   27.80
   2  -5  -6  953.20   27.30
   2  -5  -6  960.50   26.90
   2  -5  -6  987.60   21.90
  -2   5   6  938.11   27.70
  -2   5   6  997.10   28.00
   1  -5  -6  223.28    6.80
   1  -5  -6  209.28   10.40
   1  -5  -6  214.38   10.70
   1  -5  -6  220.08   10.30
   1  -5  -6  220.28    6.70
  -1   5   6  213.68   10.60
   0  -5  -6  344.37   14.00
   0  -5  -6  367.36   10.40
   0  -5  -6  368.76   13.80
   0   5   6  362.56   10.60
  -1  -5  -6  423.46   15.60
  -1  -5  -6  416.16   15.30
  -1  -5  -6  429.26   12.70
   1   5   6  425.36   15.00
  -2  -5  -6 1458.65   36.90
  -2  -5  -6 1469.55   37.50
  -2  -5  -6 1421.56   34.60
   2   5   6 1510.05   37.20
   2   5   6 1394.86   36.20
   2   5   6 1473.25   35.10
  -3  -5  -6 1400.96   35.00
  -3  -5  -6 1367.76   35.50
  -3  -5  -6 1334.77   33.80
   3   5   6 1332.57   34.30
   3   5   6 1284.97   34.50
   3   5   6 1355.16   34.80
  -4  -5  -6   53.39    6.20
  -4  -5  -6   66.49    7.40
  -4  -5  -6   51.79    6.70
   4   5   6   55.39    7.00
   4   5   6   51.19    6.10
   4   5   6   53.49    6.30
  -5  -5  -6   26.60    4.70
  -5  -5  -6   24.90    4.40
  -5  -5  -6   20.00    4.50
  -5  -5  -6   17.50    4.00
   5   5   6   17.90    4.00
   5   5   6   19.70    4.70
  -6  -5  -6 1093.99   32.30
  -6  -5  -6 1215.38   31.80
  -6  -5  -6 1146.39   31.00
  -6  -5  -6 1067.79   33.30
   6   5   6 1142.89   34.60
   6   5   6 1174.28   34.90
  -7  -5  -6   27.30    5.10
  -7  -5  -6   24.50    4.80
  -7  -5  -6   20.60    4.30
   7   5   6   22.30    4.70
   7   5   6   28.60    5.90
  -8  -5  -6   89.79    7.70
  -8  -5  -6  102.59    8.20
   8   5   6  102.69   12.90
  -9  -5  -6   23.60    5.20
   9   5   6   14.30    5.90
 -10  -5  -6   27.60    6.10
 -10  -5  -6   28.00    5.90
  10   5   6   18.70    6.30
 -11  -5  -6   11.60    4.80
 -11  -5  -6   12.60    4.80
  11   5   6    7.00    5.20
 -12  -5  -6    3.20    4.10
 -12  -5  -6    1.00    3.80
  12   5   6    1.40    5.10
 -13  -5  -6   60.69   10.30
 -13  -5  -6   62.69    9.00
  13   5   6   54.59   12.30
  11  -6  -6   -1.70    3.60
 -11   6   6    2.10    4.90
 -11   6   6    4.30    4.60
  10  -6  -6   20.40    5.80
 -10   6   6   27.10    7.40
 -10   6   6   22.50    7.30
   9  -6  -6   30.00    6.50
  -9   6   6   18.70    5.10
  -9   6   6   17.30    5.80
  -9   6   6   32.40    8.10
   8  -6  -6    1.60    2.90
  -8   6   6    2.90    4.20
  -8   6   6   -1.50    2.30
  -8   6   6    4.10    4.20
   7  -6  -6  204.98   10.30
  -7   6   6  180.28    9.70
  -7   6   6  200.28   13.40
  -7   6   6  215.88   16.00
   6  -6  -6  470.85   15.20
  -6   6   6  466.85   20.00
  -6   6   6  445.06   14.70
  -6   6   6  466.45   20.00
   5  -6  -6   38.60    3.90
   5  -6  -6   42.40    6.20
  -5   6   6   41.60    7.30
  -5   6   6   39.10    4.20
  -5   6   6   45.30    7.10
   4  -6  -6   30.20    2.90
   4  -6  -6   27.50    4.60
   4  -6  -6   29.70    5.10
  -4   6   6   25.80    2.60
  -4   6   6   33.60    6.10
  -4   6   6   10.80    3.90
   3  -6  -6 1897.61   38.20
   3  -6  -6 1886.41   38.10
   3  -6  -6 1824.82   46.90
   3  -6  -6 1840.02   46.30
   3  -6  -6 1899.21   48.10
  -3   6   6 1842.22   48.10
   2  -6  -6  942.81   27.20
   2  -6  -6  901.11   30.10
   2  -6  -6  942.51   28.10
  -2   6   6  918.91   28.10
   1  -6  -6    5.00    2.60
   1  -6  -6    9.50    1.30
   1  -6  -6   12.80    3.70
   1  -6  -6   11.60    1.40
   1  -6  -6   12.10    3.20
  -1   6   6    6.50    2.90
   0  -6  -6   91.59    7.30
   0  -6  -6   87.39    7.30
   0  -6  -6   88.09    4.30
   0   6   6   94.99    7.50
   0   6   6   93.39    4.40
   0   6   6   91.29    6.90
  -1  -6  -6   68.29    4.60
  -1  -6  -6   74.59    6.60
  -1  -6  -6   79.69    6.80
   1   6   6   73.49    6.30
   1   6   6   71.39    5.50
   1   6   6   85.09    6.90
  -2  -6  -6  293.77   11.10
  -2  -6  -6  286.27   13.10
  -2  -6  -6  298.77   13.20
   2   6   6  309.27   11.40
   2   6   6  312.57   13.30
   2   6   6  273.47   12.50
  -3  -6  -6    8.80    3.20
  -3  -6  -6    9.30    2.90
  -3  -6  -6    7.00    2.80
   3   6   6   10.90    3.30
   3   6   6   11.40    3.80
   3   6   6   13.90    3.60
  -4  -6  -6  711.83   23.50
  -4  -6  -6  737.43   23.00
  -4  -6  -6  712.03   22.70
   4   6   6  741.63   23.30
   4   6   6  683.33   22.30
  -5  -6  -6 1813.92   46.60
  -5  -6  -6 1713.73   46.10
  -5  -6  -6 1856.51   45.70
   5   6   6 1797.32   46.20
   5   6   6 1828.22   45.40
   5   6   6 1840.22   47.30
  -6  -6  -6  107.09    8.20
  -6  -6  -6  107.29    8.00
  -6  -6  -6  106.59    8.40
   6   6   6  111.89    9.70
   6   6   6   98.49    8.20
  -7  -6  -6   89.49    7.60
  -7  -6  -6   71.79    7.70
   7   6   6   74.19    9.70
  -8  -6  -6   22.60    5.20
   8   6   6   15.40    5.30
  -9  -6  -6  354.76   16.30
  -9  -6  -6  364.66   16.20
   9   6   6  373.76   20.80
 -10  -6  -6   71.29    9.10
 -10  -6  -6   80.29    9.60
  10   6   6   92.59   13.40
 -11  -6  -6   45.80    8.30
 -11  -6  -6   49.10    7.70
  11   6   6   50.39   11.10
 -12  -6  -6   21.70    5.90
 -12  -6  -6   11.10    5.10
  12   6   6   13.90    9.20
  11  -7  -6   47.00    8.10
 -11   7   6   38.90    8.80
 -11   7   6   49.00    9.70
  10  -7  -6    6.20    4.10
 -10   7   6    3.90    4.40
 -10   7   6    0.90    4.80
 -10   7   6    2.00    3.40
   9  -7  -6   31.30    6.00
  -9   7   6   31.20    7.30
  -9   7   6   27.60    8.40
   8  -7  -6   33.80    5.50
  -8   7   6   33.40    5.40
  -8   7   6   28.50    7.20
  -8   7   6   32.90    8.60
   7  -7  -6  379.96   13.50
  -7   7   6  329.67   12.60
  -7   7   6  381.46   19.40
  -7   7   6  372.86   19.00
   6  -7  -6    1.80    1.80
  -6   7   6    1.40    1.70
  -6   7   6    0.00    3.40
  -6   7   6    5.60    4.30
   5  -7  -6   34.20    2.80
  -5   7   6   25.50    5.70
  -5   7   6   36.00    2.80
   4  -7  -6  554.64   21.50
  -4   7   6  536.05   21.70
   3  -7  -6  948.01   29.70
   3  -7  -6  959.80   30.50
   3  -7  -6  996.20   29.30
  -3   7   6 1050.59   31.90
   2  -7  -6   48.10    6.80
   2  -7  -6   29.70    5.50
   2  -7  -6   31.50    5.60
  -2   7   6   48.00    7.50
   1  -7  -6    2.60    2.50
   1  -7  -6    2.30    2.30
   1  -7  -6    3.20    2.50
  -1   7   6    0.00    2.60
   0  -7  -6  686.23   23.40
   0  -7  -6  669.73   23.30
   0  -7  -6  711.03   17.00
   0   7   6  745.93   24.10
   0   7   6  704.73   17.10
   0   7   6  697.53   22.90
  -1  -7  -6  414.26   12.60
  -1  -7  -6  405.76   16.70
   1   7   6  411.66   12.70
   1   7   6  365.56   15.70
   1   7   6  418.66   16.90
  -2  -7  -6  709.43   20.30
  -2  -7  -6  681.93   23.30
  -2  -7  -6  732.33   23.90
   2   7   6  724.63   20.50
   2   7   6  701.93   23.30
   2   7   6  660.33   22.80
  -3  -7  -6  236.58   12.30
  -3  -7  -6  231.48   10.80
  -3  -7  -6  228.88   12.20
   3   7   6  222.58   10.80
   3   7   6  228.68   11.80
   3   7   6  212.68   11.80
  -4  -7  -6  914.31   28.60
  -4  -7  -6  969.80   28.70
  -4  -7  -6  895.41   27.30
   4   7   6  902.31   27.70
   4   7   6  887.41   28.40
   4   7   6  956.30   28.20
  -5  -7  -6   69.59    8.60
  -5  -7  -6   73.79    8.90
  -5  -7  -6   87.09    9.40
   5   7   6   75.69    9.00
   5   7   6   87.69   11.10
   5   7   6   77.39    7.10
  -6  -7  -6   88.29    8.10
   6   7   6   91.39    7.70
   6   7   6  100.09   11.30
  -7  -7  -6   28.60    5.60
  -7  -7  -6   25.20    5.30
   7   7   6   23.60    6.00
  -8  -7  -6  401.56   17.70
  -8  -7  -6  401.56   18.80
   8   7   6  380.56   20.60
  -9  -7  -6   31.40    6.30
  -9  -7  -6   37.90    6.90
   9   7   6   28.20    7.30
 -10  -7  -6   49.10    8.10
 -10  -7  -6   48.80    7.90
  10   7   6   41.40    9.40
 -11  -7  -6    2.00    4.00
 -11  -7  -6    6.10    4.10
  11   7   6    9.80    6.50
 -12  -7  -6   60.69    9.40
 -12  -7  -6   62.79    9.50
  12   7   6   45.90   11.30
  10  -8  -6    0.70    2.80
 -10   8   6   -2.40    2.70
 -10   8   6   -1.00    4.40
 -10   8   6   -0.90    4.00
   9  -8  -6    4.60    3.00
   9  -8  -6   10.70    5.90
  -9   8   6    8.80    5.70
  -9   8   6    4.70    3.00
  -9   8   6    3.30    4.50
   8  -8  -6   36.90    8.50
   8  -8  -6   36.20    5.00
  -8   8   6   17.60    6.10
  -8   8   6   25.80    7.00
  -8   8   6   28.80    4.50
   7  -8  -6   38.00    4.40
   7  -8  -6   42.70    9.00
  -7   8   6   40.50    4.30
  -7   8   6   35.90    7.70
   6  -8  -6   89.69   10.70
   6  -8  -6   89.79    4.00
  -6   8   6  113.69   12.80
   5  -8  -6  495.65   21.70
  -5   8   6  512.65   22.70
  -4   8   6  214.58   17.60
   3  -8  -6   12.20    4.40
  -3   8   6   11.90    5.00
   2  -8  -6   54.29    7.70
  -2   8   6   60.09    9.10
   1  -8  -6  618.34   25.40
   1  -8  -6  649.43   23.30
   1  -8  -6  640.64   23.30
  -1   8   6  627.44   23.50
   0  -8  -6  654.03   23.70
   0  -8  -6  669.53   24.00
   0  -8  -6  678.13   16.70
   0   8   6  691.63   24.30
   0   8   6  663.93   23.20
   0   8   6  714.93   16.90
  -1  -8  -6  184.48    8.00
  -1  -8  -6  196.58   11.90
  -1  -8  -6  187.58   11.60
   1   8   6  205.68   11.70
   1   8   6  214.18    8.60
   1   8   6  198.08   11.90
  -2  -8  -6  699.83   24.70
  -2  -8  -6  736.93   25.00
  -2  -8  -6  708.93   20.80
   2   8   6  699.03   24.60
   2   8   6  723.43   21.00
   2   8   6  720.53   24.60
  -3  -8  -6  415.76   15.70
  -3  -8  -6  437.56   18.30
  -3  -8  -6  401.86   17.70
   3   8   6  445.66   17.90
   3   8   6  425.16   16.10
  -4  -8  -6   24.80    6.30
  -4  -8  -6   22.00    5.30
  -4  -8  -6   26.00    5.70
   4   8   6   31.70    6.20
   4   8   6   27.20    5.40
  -5  -8  -6    6.20    3.30
   5   8   6    5.90    3.50
   5   8   6    7.90    4.20
  -6  -8  -6  340.37   16.30
   6   8   6  340.87   17.90
   6   8   6  347.47   15.70
  -7  -8  -6  338.47   22.70
  -7  -8  -6  370.66   17.30
   7   8   6  354.66   19.00
  -8  -8  -6   16.20    5.30
  -8  -8  -6   14.40    4.60
   8   8   6   19.00    7.20
  -9  -8  -6   89.89   11.00
  -9  -8  -6   75.29    8.90
   9   8   6   84.79   13.30
 -10  -8  -6   41.10    7.40
 -10  -8  -6   29.30    6.60
  10   8   6   40.80    9.70
 -11  -8  -6   71.39    9.90
 -11  -8  -6   65.89    9.30
  11   8   6   73.69   13.50
 -12  -8  -6   34.10    7.00
 -12  -8  -6   47.60    9.20
  12   8   6   33.60   10.00
  10  -9  -6    7.10    5.60
  10  -9  -6    2.60    2.90
 -10   9   6    4.60    5.90
 -10   9   6    0.70    2.90
   9  -9  -6   36.10    4.90
   9  -9  -6   44.60    9.60
  -9   9   6   43.40    5.10
  -9   9   6   47.50   10.70
   8  -9  -6  161.28   14.10
  -8   9   6  163.98   18.70
   7  -9  -6   65.09   10.30
  -7   9   6   85.69   13.40
   6  -9  -6    4.60    4.50
  -6   9   6   -2.40    3.90
   5  -9  -6  312.57   17.50
  -5   9   6  312.87   18.20
   4  -9  -6  248.88   15.20
  -4   9   6  274.67   16.60
   3  -9  -6  621.34   24.40
  -3   9   6  590.34   24.80
  -2   9   6  493.85   21.70
   1  -9  -6 1307.17   38.10
  -1   9   6 1146.99   41.70
   0  -9  -6  281.77    8.90
   0  -9  -6  282.87   15.20
   0   9   6  286.17   15.30
   0   9   6  274.17    8.90
  -1  -9  -6  933.71   24.30
  -1  -9  -6  930.31   30.60
   1   9   6  964.20   24.50
   1   9   6  918.61   30.60
  -2  -9  -6  363.66   13.80
  -2  -9  -6  375.86   20.10
   2   9   6  392.76   17.70
   2   9   6  384.26   14.20
  -3  -9  -6   11.20    4.50
  -3  -9  -6   10.80    3.50
   3   9   6    7.60    3.20
   3   9   6   16.50    5.10
  -4  -9  -6 1492.25   42.50
  -4  -9  -6 1427.36   39.80
   4   9   6 1488.95   40.60
   4   9   6 1464.25   41.30
  -5  -9  -6  285.37   15.40
   5   9   6  284.47   15.40
  -6  -9  -6   17.40    5.40
   6   9   6   11.10    5.40
   6   9   6   11.10    4.10
  -7  -9  -6  171.98   11.40
  -7  -9  -6  187.78   12.90
   7   9   6  162.88   13.70
   7   9   6  162.78   11.20
  -8  -9  -6   12.70    4.90
  -8  -9  -6   24.50    6.10
   8   9   6   28.40    7.80
  -9  -9  -6   19.10    5.70
  -9  -9  -6   13.60    5.40
   9   9   6   12.80    6.80
 -10  -9  -6   87.89   11.20
 -10  -9  -6  101.89   10.60
  10   9   6   72.89   11.90
 -11  -9  -6   18.80    6.60
 -11  -9  -6   24.50    6.50
  11   9   6   22.60    7.80
   9 -10  -6   -1.50    4.20
  -9  10   6    6.50    6.10
   8 -10  -6   44.20    9.30
  -8  10   6   40.10   10.70
   7 -10  -6   21.10    7.30
  -7  10   6   20.00    7.40
   6 -10  -6  169.98   14.00
  -6  10   6  187.88   15.50
   5 -10  -6   94.09   11.80
  -5  10   6  102.69   14.10
   4 -10  -6  351.86   18.80
  -4  10   6  324.57   19.10
   3 -10  -6   36.20    7.40
  -3  10   6   40.50    8.00
   2 -10  -6  523.25   22.80
  -2  10   6  532.25   23.60
   1 -10  -6   11.20    4.90
  -1  10   6    6.80    4.80
   0 -10  -6  341.67   17.40
   0  10   6  298.27    9.70
   0  10   6  291.17   16.50
  -1 -10  -6   45.20    5.20
  -1 -10  -6   42.00    7.90
   1  10   6   51.19    5.50
   1  10   6   48.70    8.40
  -2 -10  -6    1.10    2.10
  -2 -10  -6    1.60    3.60
   2  10   6   -0.40    3.20
   2  10   6   -1.20    2.30
  -3 -10  -6  686.73   26.30
  -3 -10  -6  697.43   25.60
   3  10   6  749.92   26.70
   3  10   6  710.13   23.50
  -4 -10  -6   83.29    7.90
  -4 -10  -6  107.49   12.10
   4  10   6  104.29    9.50
   4  10   6   86.29    8.80
  -5 -10  -6  352.06   18.10
   5  10   6  355.26   17.20
   5  10   6  371.56   18.30
  -6 -10  -6   18.40    6.00
   6  10   6   14.30    5.30
   6  10   6    7.80    4.90
  -7 -10  -6  126.09   11.60
   7  10   6  121.59   10.00
   7  10   6  127.79   12.80
  -8 -10  -6   38.90    7.30
  -8 -10  -6   28.20    6.30
   8  10   6   23.60    7.10
  -9 -10  -6   23.70    6.30
  -9 -10  -6   25.70    6.60
   9  10   6   21.40    7.90
 -10 -10  -6    1.10    3.60
 -10 -10  -6   -4.90    3.00
  10  10   6    0.50    4.70
   9 -11  -6    2.90    5.20
  -9  11   6   12.50    8.50
   8 -11  -6    4.60    5.30
  -8  11   6    7.40    6.50
   7 -11  -6  146.49   14.20
  -7  11   6  114.79   16.40
   6 -11  -6  108.29   14.00
  -6  11   6   59.09   10.10
   5 -11  -6  267.37   17.50
  -5  11   6  286.17   19.30
   4 -11  -6  221.38   15.60
  -4  11   6  233.78   17.00
   3 -11  -6  193.88   14.40
  -3  11   6  170.18   14.60
   2 -11  -6   65.19   10.70
  -2  11   6   53.49    9.90
   1 -11  -6  413.46   20.60
  -1  11   6  442.46   21.80
   0 -11  -6   13.40    2.60
   0 -11  -6   11.80    5.30
   0  11   6   15.40    3.10
   0  11   6    7.10    4.60
  -1 -11  -6  149.69   12.30
  -1 -11  -6  137.39    7.70
   1  11   6  147.39    8.00
   1  11   6  161.78   12.70
  -2 -11  -6  547.65   23.50
  -2 -11  -6  496.25   18.00
   2  11   6  504.55   22.50
   2  11   6  538.35   18.50
  -3 -11  -6  273.07   13.40
  -3 -11  -6  273.97   16.40
   3  11   6  263.27   15.70
   3  11   6  294.77   14.30
  -4 -11  -6   47.90    8.40
   4  11   6   37.10    7.00
   4  11   6   32.40    7.20
  -5 -11  -6   11.40    5.30
   5  11   6    8.60    5.30
   5  11   6    8.80    5.00
  -6 -11  -6  229.18   15.30
   6  11   6  234.08   15.80
   6  11   6  220.58   13.90
  -7 -11  -6  232.98   15.60
   7  11   6  241.68   17.10
   7  11   6  219.48   13.80
  -8 -11  -6   73.69   10.20
  -8 -11  -6   66.39   10.00
   8  11   6   98.99   14.20
  -9 -11  -6    2.40    3.60
  -9 -11  -6    2.20    4.40
   9  11   6    0.20    4.90
 -10 -11  -6   23.80    7.30
 -10 -11  -6   37.40    7.70
  10  11   6   43.10   11.00
   8 -12  -6   13.50    6.50
  -8  12   6    1.70    5.70
   7 -12  -6   34.00    9.10
  -7  12   6   67.09   13.80
   6 -12  -6  208.68   16.50
  -6  12   6  180.88   17.10
   5 -12  -6  100.89   13.40
  -5  12   6   96.89   15.30
   4 -12  -6   17.80    6.50
  -4  12   6    4.00    5.50
   3 -12  -6   94.59   11.70
  -3  12   6  142.79   16.80
   2 -12  -6  565.14   25.50
  -2  12   6  561.74   26.60
   1 -12  -6   78.29   11.50
  -1  12   6   81.09   12.80
   0 -12  -6    3.30    3.80
   0  12   6    7.00    4.70
  -1 -12  -6    3.20    4.20
  -1 -12  -6   13.00    3.50
   1  12   6    8.10    4.80
   1  12   6   17.90    4.00
  -2 -12  -6  564.94   24.90
  -2 -12  -6  550.54   19.50
   2  12   6  589.54   20.00
   2  12   6  542.25   24.50
  -3 -12  -6   57.09    9.20
  -3 -12  -6   58.79    8.00
   3  12   6   70.49    9.00
   3  12   6   63.29    9.20
  -4 -12  -6   28.00    7.00
   4  12   6   38.10    7.40
   4  12   6   28.10    6.40
  -5 -12  -6  367.66   20.10
   5  12   6  361.26   18.50
   5  12   6  364.16   19.10
  -6 -12  -6  239.88   16.40
   6  12   6  233.88   16.40
   6  12   6  260.87   15.50
  -7 -12  -6   -0.40    4.30
   7  12   6    1.70    4.90
   7  12   6    3.10    3.80
  -8 -12  -6   10.30    5.20
   8  12   6    4.40    5.50
  -9 -12  -6   84.79   11.80
  -9 -12  -6  114.29   10.80
   9  12   6  105.79   15.50
   7 -13  -6   71.59   12.10
  -7  13   6   90.89   14.90
   6 -13  -6   13.40    6.80
  -6  13   6   21.20    8.80
   5 -13  -6   19.10    7.00
  -5  13   6    9.50    7.50
   4 -13  -6   47.10    9.60
  -4  13   6   55.49   12.10
   3 -13  -6  377.16   21.40
  -3  13   6  370.26   22.60
   2 -13  -6   52.69    9.10
  -2  13   6   36.10    8.30
   1 -13  -6   39.40    9.20
  -1  13   6   55.39   11.40
   0 -13  -6  126.19   14.80
   0  13   6   99.99   13.10
   0  13   6  107.69    6.10
   0  13   6  108.49    6.40
  -1 -13  -6  202.98   10.30
  -1 -13  -6  215.98   16.00
   1  13   6  241.88   10.80
   1  13   6  219.68   16.30
  -2 -13  -6   38.70    7.10
  -2 -13  -6   32.60    7.50
   2  13   6   36.30    6.10
   2  13   6   32.40    7.80
  -3 -13  -6   37.80    8.70
   3  13   6   35.00    7.60
   3  13   6   37.10    6.90
  -4 -13  -6  398.16   21.40
   4  13   6  397.66   19.20
   4  13   6  383.46   20.40
  -5 -13  -6  141.09   13.40
   5  13   6  148.79   13.00
   5  13   6  147.89   12.50
  -6 -13  -6   28.50    7.60
   6  13   6   14.60    5.50
   6  13   6   17.60    6.50
  -7 -13  -6    0.20    4.60
   7  13   6   -2.60    4.30
   7  13   6    2.10    4.10
  -8 -13  -6   53.99   10.20
   8  13   6   62.99   11.10
   8  13   6   61.09    9.80
   5 -14  -6   16.10    7.90
  -5  14   6    9.50    6.50
   4 -14  -6  258.27   18.90
  -4  14   6  273.87   21.50
   3 -14  -6   24.70    7.60
  -3  14   6   24.60    8.80
   2 -14  -6   -0.30    3.70
  -2  14   6    5.10    5.80
   1 -14  -6  110.19   13.00
  -1  14   6  102.39   13.90
   0 -14  -6  314.07   19.70
   0  14   6  303.77   11.10
   0  14   6  308.17   20.40
   0  14   6  308.27   10.80
  -1 -14  -6   14.90    6.40
  -1 -14  -6   16.70    4.10
   1  14   6   18.60    4.20
   1  14   6   10.80    5.90
  -2 -14  -6  135.19   15.30
  -2 -14  -6  111.19    8.90
   2  14   6  119.39   14.50
   2  14   6  115.29    9.10
  -3 -14  -6  126.09   15.10
   3  14   6  130.99   15.60
   3  14   6  111.79   10.00
  -4 -14  -6  167.18   18.60
   4  14   6  145.19   12.10
   4  14   6  120.39   14.40
  -5 -14  -6   54.59    9.60
   5  14   6   60.99   10.20
   5  14   6   54.99   10.10
  -6 -14  -6   16.60    6.90
   6  14   6   17.60    7.00
   6  14   6    8.60    5.20
  -3  15   6    1.40    5.80
   2 -15  -6   56.19   16.30
  -2  15   6   49.90   11.60
   1 -15  -6  146.59   19.10
  -1  15   6  173.18   26.40
   0 -15  -6   -6.10    5.40
   0  15   6    2.20    1.90
   0  15   6   -3.50    4.50
  -1 -15  -6  136.79   23.30
   1  15   6  164.68   19.00
   1  15   6  143.79    8.70
   1  15   6  137.39    9.10
  -2 -15  -6   72.19   11.50
  -2 -15  -6   64.69    8.50
   2  15   6   69.29    8.30
   2  15   6   61.49   10.70
  -3 -15  -6   34.90    8.60
   3  15   6   23.50    7.40
   3  15   6   32.50    9.10
  -4 -15  -6    7.90    5.70
   4  15   6   19.90    6.10
   4  15   6   12.00    6.30
   2  12  -7    2.70    4.00
   2  12  -7    0.20    5.60
  -2 -12   7   -0.10    4.50
   1  12  -7    5.70    6.40
   1  12  -7    0.70    4.20
  -1 -12   7   -1.80    4.20
   0  12  -7  162.98   15.30
   0  12  -7  163.08   13.50
   0 -12   7  162.78   13.30
  -1  12  -7  106.79   14.00
  -1  12  -7  104.49   14.00
   1 -12   7   99.89   11.00
  -2  12  -7   -1.90    4.60
  -2  12  -7   -0.70    4.30
   2 -12   7   -2.80    3.80
  -3  12  -7   39.50    9.30
  -3  12  -7   24.40    8.50
   3 -12   7   45.20    7.60
  -4  12  -7  135.39   17.30
  -4  12  -7  141.69   13.70
   4 -12   7  144.79   10.90
  -5  12  -7   -4.90    3.90
  -5  12  -7   17.20   12.10
   5 -12   7    1.20    3.70
   4  11  -7   15.60    7.70
   4  11  -7   24.40    4.50
  -4 -11   7   27.30    6.40
   3  11  -7   11.00    3.90
   3  11  -7    5.80    5.70
  -3 -11   7   19.80    6.80
  -3 -11   7    9.70    3.80
   2  11  -7   91.19   13.80
   2  11  -7   77.29    9.50
  -2 -11   7   91.39   11.00
   1  11  -7  280.67   19.40
   1  11  -7  264.27   15.30
  -1 -11   7  270.87   16.10
   0  11  -7   28.50    7.20
   0  11  -7   33.30    8.70
   0 -11   7   38.50    7.10
  -1  11  -7   44.40    8.50
  -1  11  -7   79.19   12.40
   1 -11   7   52.99    7.90
  -2  11  -7   -1.10    4.30
  -2  11  -7    0.30    4.50
   2 -11   7    2.80    3.90
  -3  11  -7  140.89   16.20
  -3  11  -7  131.89   13.00
   3 -11   7  132.19   10.30
  -4  11  -7   48.30   10.00
  -4  11  -7   34.70    8.30
  -5  11  -7  119.59   15.80
  -5  11  -7  132.09   13.20
   5 -11   7  127.89    9.40
  -6  11  -7   38.10   10.30
  -6  11  -7   62.19   10.60
   6 -11   7   48.40    6.90
   6 -11   7   51.79    6.60
  -7  11  -7   21.00    8.50
  -7  11  -7   34.50    9.20
   7 -11   7   33.60    5.30
   5  10  -7   79.99   14.30
  -5 -10   7   86.19   16.70
  -5 -10   7   75.19    3.60
   4  10  -7   23.30    8.30
   4  10  -7   21.60    3.80
  -4 -10   7   13.40    5.70
  -4 -10   7   16.10    3.30
   3  10  -7  102.09   14.80
   3  10  -7   83.19    7.20
  -3 -10   7   79.29   10.00
  -3 -10   7   75.19    6.40
   2  10  -7  117.89    9.30
   2  10  -7  139.69   17.00
  -2 -10   7  128.49   11.60
  -2 -10   7  101.89    8.00
   1  10  -7  170.68   14.90
   1  10  -7  174.78   11.80
  -1 -10   7  182.48   12.70
   0  10  -7   16.10    5.60
   0  10  -7   19.20    7.00
   0 -10   7   25.40    6.10
  -1  10  -7   11.60    6.20
  -1  10  -7   19.00    6.00
   1 -10   7   20.40    5.30
  -2  10  -7   63.29   10.70
  -2  10  -7   69.69   10.50
   2 -10   7   73.49    8.50
  -3  10  -7   40.10    8.70
  -3  10  -7   36.40    8.80
   3 -10   7   37.00    6.20
  -4  10  -7   95.59   13.50
  -4  10  -7  119.59   14.10
  -4  10  -7  106.59   11.70
   4 -10   7  106.79    8.60
  -5  10  -7   71.39   10.60
  -5  10  -7   60.49   11.10
  -5  10  -7   56.09    7.30
   5 -10   7   65.39    7.60
   5 -10   7   74.29    7.50
  -6  10  -7  212.48   17.40
  -6  10  -7  208.98   15.30
   6 -10   7  184.28   10.00
   6 -10   7  180.48   12.50
  -7  10  -7   32.30    9.60
  -7  10  -7   16.00    6.20
   7 -10   7   20.90    4.30
   7 -10   7   24.10    4.20
  -8  10  -7   26.60    9.60
  -8  10  -7   25.80    7.50
   8 -10   7   32.90    4.50
   8 -10   7   30.60    4.00
   7   9  -7    7.10    7.10
  -7  -9   7    4.60    5.80
   6   9  -7   24.60   10.40
   5   9  -7    1.60    5.00
  -5  -9   7   -5.90    3.50
   4   9  -7   49.20    4.50
   4   9  -7   71.59   11.70
  -4  -9   7   47.50    4.10
  -4  -9   7   58.29    9.20
   3   9  -7  169.28    9.20
   3   9  -7  176.88   15.40
  -3  -9   7  173.98    8.50
  -3  -9   7  200.18   13.60
   2   9  -7   73.19    8.10
   2   9  -7   62.59   11.20
  -2  -9   7   57.69    8.00
  -2  -9   7   70.19    9.30
   1   9  -7   79.79   12.00
   1   9  -7   68.89    8.10
  -1  -9   7   74.69    7.90
  -1  -9   7   83.29    9.80
   0   9  -7  133.39   10.60
   0   9  -7  152.98   13.40
   0  -9   7  140.99   10.40
  -1   9  -7  555.44   25.00
   1  -9   7  563.54   22.70
  -2   9  -7    3.50    4.30
  -2   9  -7    2.50    4.30
   2  -9   7    1.40    3.30
  -3   9  -7  369.56   19.40
  -3   9  -7  339.27   15.70
  -3   9  -7  358.36   19.10
   3  -9   7  369.46   14.80
  -4   9  -7   89.29    7.80
  -4   9  -7   97.69   11.80
  -4   9  -7   98.89   12.00
   4  -9   7  110.59    7.90
  -5   9  -7  103.49   12.60
  -5   9  -7  151.18   13.10
  -5   9  -7  126.09    8.40
   5  -9   7  137.89    8.60
   5  -9   7  145.29    8.40
  -6   9  -7   17.30    6.70
  -6   9  -7    9.70    5.80
   6  -9   7   22.40    4.20
   6  -9   7   18.00    3.80
  -7   9  -7   74.69   11.60
  -7   9  -7   83.29   12.10
   7  -9   7   80.39    5.60
   7  -9   7   88.69    6.20
  -8   9  -7    9.80    6.70
   8  -9   7    1.20    2.20
   8  -9   7    1.40    4.90
   8  -9   7    8.00    2.30
  -9   9  -7   17.90    8.30
   9  -9   7   21.00    2.90
   9  -9   7   21.10    7.00
   9  -9   7   17.20    3.10
   8   8  -7   40.40   11.00
  -8  -8   7   37.70    8.40
   7   8  -7    1.90    6.20
  -7  -8   7   -3.20    4.30
   6   8  -7    1.50    5.30
  -6  -8   7   -6.60    3.70
   5   8  -7   32.50    8.10
  -5  -8   7   56.29    9.40
   4   8  -7   81.69   13.10
  -4  -8   7   73.49    4.80
  -4  -8   7   74.89    9.90
   3   8  -7  142.89   16.60
   3   8  -7  113.99    6.90
  -3  -8   7  120.29   10.70
  -3  -8   7  123.89    6.50
   2   8  -7  147.09    8.90
   2   8  -7  173.68   14.20
  -2  -8   7  139.69   10.80
  -2  -8   7  138.19    7.80
   1   8  -7  200.08   11.10
   1   8  -7  215.58   15.20
  -1  -8   7  183.68   10.90
  -1  -8   7  179.38   11.50
   0   8  -7  124.29   11.80
   0   8  -7  133.29    9.90
   0  -8   7  126.49    8.70
   0  -8   7  138.69    9.70
  -1   8  -7    9.30    5.10
  -1   8  -7    5.20    3.70
  -1   8  -7    1.00    2.80
   1  -8   7    4.40    2.90
  -2   8  -7  102.19   12.30
  -2   8  -7   95.99   12.90
  -2   8  -7   90.59    7.90
   2  -8   7  104.79    7.90
  -3   8  -7  363.56   18.90
  -3   8  -7  371.16   22.30
  -3   8  -7  370.66   18.60
   3  -8   7  392.36   14.40
  -4   8  -7    8.30    5.30
  -4   8  -7   10.70    3.30
  -4   8  -7   12.30    5.10
   4  -8   7   13.60    3.60
  -5   8  -7    1.70    3.60
  -5   8  -7    0.90    4.90
   5  -8   7    1.70    2.30
   5  -8   7    1.20    2.40
  -6   8  -7  351.56   18.60
  -6   8  -7  328.87   19.60
   6  -8   7  295.77   11.20
   6  -8   7  346.07   11.70
  -7   8  -7   32.70    9.40
   7  -8   7   39.00    8.90
   7  -8   7   40.80    3.90
   7  -8   7   38.90    4.20
  -8   8  -7   23.30    7.70
   8  -8   7   24.60    2.90
   8  -8   7   27.70    3.50
   8  -8   7   14.90    6.00
  -9   8  -7   35.20    9.10
   9  -8   7   38.90    3.80
   9  -8   7   36.40    8.60
 -10   8  -7   13.70    7.40
  10  -8   7    3.30    1.70
  10  -8   7    2.00    4.80
   8   7  -7   28.50    9.60
  -8  -7   7   35.40    8.80
   7   7  -7   44.00   10.70
  -7  -7   7   36.30    8.20
   6   7  -7  133.09   16.50
  -6  -7   7  117.89   13.10
   5   7  -7    7.50    5.60
  -5  -7   7    2.00    4.30
   4   7  -7    9.20    1.60
   4   7  -7    9.50    6.00
  -4  -7   7    6.40    1.30
  -4  -7   7    1.90    4.10
   3   7  -7  273.07   17.30
   3   7  -7  240.48    9.30
  -3  -7   7  236.18   13.60
  -3  -7   7  237.58    8.40
   2   7  -7  611.34   19.10
   2   7  -7  647.04   26.60
  -2  -7   7  673.83   22.90
  -2  -7   7  614.44   17.80
   1   7  -7  318.47   17.80
   1   7  -7  303.67   13.20
  -1  -7   7  349.77   14.90
  -1  -7   7  307.17   12.10
   0   7  -7  103.89   12.40
   0   7  -7   97.59    8.00
   0   7  -7   84.89    7.60
   0  -7   7   82.19    6.80
   0  -7   7   86.89    7.50
  -1   7  -7  217.68   16.50
  -1   7  -7  246.88   12.80
  -1   7  -7  203.28   11.30
   1  -7   7  232.78   11.50
   1  -7   7  247.18   11.30
  -2   7  -7  265.47   12.40
  -2   7  -7  277.07   14.40
  -2   7  -7  254.77   16.90
   2  -7   7  290.57   11.80
   2  -7   7  260.97   14.90
  -3   7  -7    8.60    3.10
  -3   7  -7   14.10    4.90
  -3   7  -7   13.00    5.10
   3  -7   7   11.60    3.30
  -4   7  -7   61.99    9.00
  -4   7  -7   82.09    6.10
  -4   7  -7   81.39    9.90
   4  -7   7   76.29    5.70
  -5   7  -7  461.75   21.20
   5  -7   7  417.66   23.70
   5  -7   7  429.46   13.20
   5  -7   7  408.66   13.50
  -6   7  -7  243.08   16.20
   6  -7   7  202.78   14.50
   6  -7   7  202.18    7.90
   6  -7   7  213.68    8.10
  -7   7  -7   21.40    7.90
   7  -7   7   28.30    2.90
   7  -7   7   21.40    6.50
  -8   7  -7   14.20    7.20
   8  -7   7   25.90    3.80
   8  -7   7   26.40    7.40
   8  -7   7   28.70    2.80
  -9   7  -7   47.40   10.80
   9  -7   7   57.69    3.00
   9  -7   7   49.50    2.70
   9  -7   7   50.79    9.40
 -10   7  -7    5.80    6.80
  10  -7   7   18.90    6.90
 -11   7  -7    6.10    6.70
  11  -7   7   -1.10    4.00
   9   6  -7   14.30    8.00
  -9  -6   7   26.00    7.50
   8   6  -7   55.69   11.30
  -8  -6   7   35.90    7.90
   7   6  -7   74.49   12.90
  -7  -6   7   50.19    8.50
   6   6  -7    4.70    5.20
  -6  -6   7    5.80    4.60
   5   6  -7   20.10    7.10
  -5  -6   7   12.00    5.10
   4   6  -7   16.00    5.50
  -4  -6   7   15.60    5.20
   3   6  -7  381.26   11.20
   3   6  -7  375.76   19.80
  -3  -6   7  384.06   16.80
   2   6  -7   69.79    5.30
   2   6  -7   84.79   11.10
  -2  -6   7   77.19    8.40
  -2  -6   7   69.09    4.60
   1   6  -7   16.00    3.80
   1   6  -7   17.20    4.30
   1   6  -7   17.00    5.30
  -1  -6   7   17.60    4.30
  -1  -6   7   13.70    3.20
   0   6  -7  486.95   17.90
   0   6  -7  524.65   21.90
   0   6  -7  522.25   17.70
   0  -6   7  542.65   17.70
   0  -6   7  485.15   16.30
  -1   6  -7  694.53   22.00
  -1   6  -7  649.64   20.80
  -1   6  -7  668.13   25.20
   1  -6   7  676.33   20.00
   1  -6   7  626.44   20.50
  -2   6  -7   13.10    4.20
  -2   6  -7    9.90    3.00
  -2   6  -7   18.80    5.50
   2  -6   7    9.80    2.90
   2  -6   7   12.20    3.50
  -3   6  -7  289.67   15.60
  -3   6  -7  289.37   14.50
  -3   6  -7  260.87   11.00
   3  -6   7  305.67   17.00
   3  -6   7  278.37   10.30
  -4   6  -7  723.83   26.20
  -4   6  -7  731.83   20.10
  -4   6  -7  741.73   26.80
   4  -6   7  764.92   19.20
   4  -6   7  688.93   26.80
  -5   6  -7  358.36   17.80
   5  -6   7  352.16   18.00
   5  -6   7  355.56   10.70
   5  -6   7  338.57   10.70
  -6   6  -7   27.10    6.80
   6  -6   7   35.90    3.00
  -7   6  -7   48.40    9.10
   7  -6   7   41.30    2.50
   7  -6   7   30.40    7.40
   7  -6   7   43.40    2.80
  -8   6  -7  147.59   16.90
   8  -6   7  122.99    3.80
   8  -6   7  136.69   12.30
   8  -6   7  121.59    3.80
  -9   6  -7   25.30    8.20
   9  -6   7   28.50    7.70
 -10   6  -7    4.60    6.00
  10  -6   7   -4.00    4.10
 -11   6  -7    4.00   11.20
  11  -6   7   -7.40    3.40
 -12   6  -7   21.50    9.40
  12  -6   7   10.10    6.30
  10   5  -7    1.80    5.80
 -10  -5   7    2.20    5.00
  -9  -5   7    1.70    7.60
   8   5  -7   29.50    9.00
  -8  -5   7   26.70    6.90
   7   5  -7    0.80    4.70
  -7  -5   7   -0.10    4.20
   6   5  -7   61.59   10.80
  -6  -5   7   54.19    8.90
   5   5  -7   15.20    5.60
  -5  -5   7   21.40    5.40
   4   5  -7  289.27   17.00
  -4  -5   7  269.87   14.20
   3   5  -7   43.40    2.70
   3   5  -7   42.60    8.40
  -3  -5   7   44.10    6.90
  -3  -5   7   39.50    2.20
   2   5  -7   77.49    7.20
   2   5  -7   88.19    5.40
  -2  -5   7   80.79    7.30
  -2  -5   7   92.09    4.60
   1   5  -7  357.26   17.50
   1   5  -7  341.37   14.10
   1   5  -7  368.46   12.60
  -1  -5   7  365.36   14.10
  -1  -5   7  351.76   11.40
   0   5  -7 1152.28   35.10
   0   5  -7 1123.29   29.40
   0   5  -7 1077.69   29.90
   0  -5   7 1154.38   29.70
   0  -5   7 1138.19   28.30
  -1   5  -7   33.00    6.00
  -1   5  -7   44.10    5.40
  -1   5  -7   28.90    5.80
  -1   5  -7   47.20    6.20
   1  -5   7   51.49    5.90
   1  -5   7   37.60    4.50
  -2   5  -7  390.26   17.70
  -2   5  -7  402.26   17.90
  -2   5  -7  385.26   13.40
  -2   5  -7  396.16   15.50
   2  -5   7  408.76   12.70
   2  -5   7  345.07   19.70
  -3   5  -7  832.72   22.40
  -3   5  -7  827.62   28.20
  -3   5  -7  935.71   29.50
  -3   5  -7  880.01   26.90
   3  -5   7  872.71   21.40
   3  -5   7  822.22   25.20
  -4   5  -7  340.57   15.80
  -4   5  -7  305.47   15.50
  -4   5  -7  298.37   10.00
   4  -5   7  318.77   16.40
   4  -5   7  340.27   13.00
   5  -5   7  170.58    5.60
   5  -5   7  170.88   12.10
   5  -5   7  161.38    5.60
  -6   5  -7   17.10    6.10
   6  -5   7   14.70    1.40
   6  -5   7   16.00    1.40
   6  -5   7   13.00    5.10
  -7   5  -7   34.90    7.50
   7  -5   7   48.10    8.40
  -8   5  -7   65.39   10.30
   8  -5   7   64.89   10.40
  -9   5  -7   26.40    7.90
   9  -5   7   32.20    8.00
 -10   5  -7   27.30    8.40
  10  -5   7   37.80    9.00
  10  -5   7   23.50    2.20
  10  -5   7   26.60    2.30
 -11   5  -7    3.40    6.20
  11  -5   7    0.30    1.50
  11  -5   7   -0.30    4.60
  11  -5   7    1.60    1.50
 -12   5  -7    6.10    6.90
  12  -5   7    1.50    4.70
  12  -5   7   -2.30    2.70
  10   4  -7   -2.70    5.20
 -10  -4   7    4.10    5.40
   9   4  -7   99.99   14.00
  -9  -4   7  108.99   13.00
   8   4  -7    2.00    4.90
  -8  -4   7   -4.60    3.20
   7   4  -7    1.00    4.40
  -7  -4   7    3.50    4.30
   6   4  -7   18.30    6.40
  -6  -4   7    8.20    4.40
   5   4  -7   61.79    8.80
  -5  -4   7   73.79    9.10
   4   4  -7   45.90    8.00
  -4  -4   7   44.30    6.90
   3   4  -7   85.89   11.10
  -3  -4   7   79.49    7.40
   2   4  -7 1378.06   40.70
   2   4  -7 1361.06   36.20
   2   4  -7 1383.56   31.00
  -2  -4   7 1401.26   30.00
  -2  -4   7 1439.96   36.40
   1   4  -7 2152.48   57.09
   1   4  -7 2168.28   51.29
   1   4  -7 2210.58   48.40
   1   4  -7 2267.67   56.69
  -1  -4   7 2283.87   51.39
  -1  -4   7 2218.28   47.30
  -1  -4   7 2076.39   55.39
   0   4  -7   31.20    6.30
   0   4  -7   33.60    6.50
   0   4  -7   34.50    4.40
   0   4  -7   26.40    4.10
   0  -4   7   27.30    3.60
   0  -4   7   25.50    4.00
  -1   4  -7  362.96   13.20
  -1   4  -7  335.47   15.90
  -1   4  -7  322.97   11.70
  -1   4  -7  344.47   15.90
   1  -4   7  333.87   11.50
   1  -4   7  340.27   12.10
  -2   4  -7 1016.20   25.40
  -2   4  -7 1038.80   28.60
  -2   4  -7 1031.70   31.70
  -2   4  -7 1058.59   31.90
   2  -4   7 1046.30   24.80
   2  -4   7  995.50   27.30
  -3   4  -7  373.16   16.70
  -3   4  -7  396.66   11.70
  -3   4  -7  371.76   15.30
   3  -4   7  397.46   17.70
   3  -4   7  388.86   15.90
   3  -4   7  387.66   11.60
  -4   4  -7  964.90   28.60
  -4   4  -7  928.11   21.10
  -4   4  -7  921.51   29.40
   4  -4   7  905.81   26.90
   4  -4   7  929.31   20.40
   4  -4   7  928.41   30.20
  -5   4  -7 1124.69   33.50
  -5   4  -7 1127.89   34.00
   5  -4   7 1148.09   35.00
  -6   4  -7  116.99   10.30
   6  -4   7  120.89   10.40
  -7   4  -7   33.40    7.00
   7  -4   7   39.40    7.40
  -8   4  -7   40.60    8.90
   8  -4   7   24.70    6.40
  -9   4  -7  125.59   13.90
   9  -4   7  130.09   12.30
 -10   4  -7    0.20    5.70
  10  -4   7   -0.70    1.20
  10  -4   7    2.20    4.80
  10  -4   7   -1.60    1.20
 -11   4  -7    3.00    6.30
  11  -4   7    2.20    4.50
  11  -4   7    0.20    1.70
 -12   4  -7  100.99   15.80
  12  -4   7   74.29    5.20
  12  -4   7   96.19   14.80
  12  -4   7   84.79    5.70
  10   3  -7   51.19   11.40
 -10  -3   7   59.89   11.80
   9   3  -7   79.69   12.50
  -9  -3   7   54.49    9.30
   8   3  -7    7.90    5.80
  -8  -3   7    0.60    4.00
   7   3  -7   83.79   11.80
  -7  -3   7   71.99    9.90
   6   3  -7  181.48   14.00
  -6  -3   7  170.68   11.80
   5   3  -7   66.69   10.10
  -5  -3   7   70.29    8.50
   4   3  -7  487.45   22.40
  -4  -3   7  495.95   18.60
   3   3  -7  326.87   13.70
   3   3  -7  322.57   16.10
  -3  -3   7  336.07   14.00
   2   3  -7  879.31   28.60
   2   3  -7  841.02   24.60
   2   3  -7  885.21   19.70
  -2  -3   7  833.62   27.90
  -2  -3   7  891.81   24.90
   1   3  -7   14.20    3.20
   1   3  -7   15.00    4.10
   1   3  -7   14.60    4.70
   1   3  -7   17.30    4.50
  -1  -3   7   20.80    3.80
  -1  -3   7   10.30    3.30
  -1  -3   7   20.00    2.50
   0   3  -7  634.34   18.20
   0   3  -7  627.74   23.00
   0   3  -7  642.24   22.60
   0   3  -7  662.03   17.80
   0  -3   7  627.24   16.80
   0  -3   7  643.54   18.20
  -1   3  -7   48.90    7.30
  -1   3  -7   46.10    5.10
  -1   3  -7   52.09    4.20
   1  -3   7   41.50    4.00
   1  -3   7   47.00    4.20
  -2   3  -7 1104.79   28.50
  -2   3  -7 1051.09   25.00
  -2   3  -7 1029.50   34.30
   2  -3   7 1067.79   27.60
   2  -3   7 1066.19   26.00
   2  -3   7 1086.39   32.30
  -3   3  -7  848.52   24.80
  -3   3  -7  860.01   19.90
   3  -3   7  857.71   27.60
   3  -3   7  869.11   19.20
   3  -3   7  827.02   23.90
  -4   3  -7  607.94   20.50
  -4   3  -7  588.94   21.50
   4  -3   7  601.34   19.60
   4  -3   7  628.24   22.50
  -5   3  -7  605.04   21.10
  -5   3  -7  588.64   21.50
   5  -3   7  625.74   22.90
   5  -3   7  542.25   19.50
  -6   3  -7  320.37   15.20
  -6   3  -7  311.27   15.30
   6  -3   7  289.17   15.50
  -7   3  -7  261.97   14.50
   7  -3   7  249.78   15.00
  -8   3  -7   21.30    6.20
   8  -3   7   38.50    7.50
  -9   3  -7    3.30    5.10
   9  -3   7    1.10    4.00
   9  -3   7    8.10    1.60
   9  -3   7    6.90    1.60
 -10   3  -7  135.09   15.20
  10  -3   7  123.59   15.10
  10  -3   7  111.19    6.70
  10  -3   7   97.79    5.20
 -11   3  -7  205.18   16.40
  11  -3   7  178.08    7.60
  11  -3   7  177.48    8.00
  11  -3   7  167.78   15.30
 -12   3  -7   -1.80    5.70
  12  -3   7   -0.30    2.10
  12  -3   7   -1.30    3.90
  12  -3   7   -1.30    2.20
 -13   3  -7   26.00    8.70
  13  -3   7    9.90    3.50
  13  -3   7   17.10    3.90
  13  -3   7   18.40    7.80
  11   2  -7   15.40    7.50
 -11  -2   7   11.10    5.80
  10   2  -7   44.30   10.40
 -10  -2   7   29.70    7.20
   9   2  -7   -0.60    4.50
  -9  -2   7   -1.10    3.80
   8   2  -7  212.38   16.30
  -8  -2   7  225.28   14.50
   7   2  -7   41.90    8.70
  -7  -2   7   39.00    7.20
   6   2  -7   62.89    9.40
  -6  -2   7   50.79    7.20
  -5  -2   7  125.79    9.70
   4   2  -7 1164.48   35.90
  -4  -2   7 1195.48   32.80
   3   2  -7  534.75   18.30
   3   2  -7  578.04   21.50
  -3  -2   7  575.24   18.80
  -3  -2   7  524.45   20.60
   2   2  -7   43.90    6.30
   2   2  -7   50.99    2.60
   2   2  -7   57.59    5.30
   2   2  -7   52.39    2.80
  -2  -2   7   46.70    5.40
   1   2  -7  620.74   18.40
   1   2  -7  627.14   22.80
   1   2  -7  697.93   22.70
   1   2  -7  651.93   16.00
  -1  -2   7  642.54   17.60
  -1  -2   7  598.54   21.50
  -1  -2   7  676.03   18.90
   0   2  -7  743.33   24.20
   0   2  -7  733.73   23.80
   0   2  -7  718.73   19.20
   0   2  -7  745.73   18.80
   0  -2   7  693.43   18.10
   0  -2   7  715.03   19.30
  -1   2  -7  805.12   25.20
  -1   2  -7  804.72   25.20
  -1   2  -7  785.52   21.20
  -1   2  -7  793.42   19.70
   1  -2   7  808.02   19.80
   1  -2   7  783.52   20.50
  -2   2  -7 1300.07   32.90
  -2   2  -7 1356.16   36.50
   2  -2   7 1330.47   32.20
   2  -2   7 1345.27   29.10
  -3   2  -7 1022.20   27.40
  -3   2  -7  976.10   21.40
  -3   2  -7  950.40   29.00
   3  -2   7 1004.90   21.10
   3  -2   7 1004.40   29.90
   3  -2   7 1019.40   26.40
  -4   2  -7  751.62   23.10
   4  -2   7  757.12   24.40
   4  -2   7  739.43   24.90
  -5   2  -7  777.42   24.20
  -5   2  -7  708.93   24.40
   5  -2   7  768.02   25.80
  -6   2  -7  192.48   11.60
  -6   2  -7  206.48   11.80
   6  -2   7  180.08   12.00
   7  -2   7  247.88   14.70
  -8   2  -7   -0.60    3.20
   8  -2   7   -0.50    3.10
   8  -2   7    1.30    1.00
   8  -2   7    1.30    1.00
  -9   2  -7    4.80    1.90
  -9   2  -7   11.40    5.00
   9  -2   7   -0.30    3.50
 -10   2  -7   68.39    4.90
 -10   2  -7   61.59   10.40
  10  -2   7   61.09   10.20
  10  -2   7   64.29    4.70
 -11   2  -7   16.50    3.40
 -11   2  -7   11.60    6.50
  11  -2   7   12.90    3.00
  11  -2   7   16.30    6.70
 -12   2  -7   -3.70    5.10
 -12   2  -7   -1.30    2.00
  12  -2   7   -0.30    4.50
  12  -2   7    0.00    2.20
 -13   2  -7    0.70   11.30
 -13   2  -7    4.40    2.90
  13  -2   7    9.40    6.70
  11   1  -7   28.50    9.10
 -11  -1   7   46.00    9.10
  10   1  -7   23.40    8.10
 -10  -1   7   25.40    7.00
   9   1  -7   24.10    7.50
  -9  -1   7   15.60    6.30
   8   1  -7   85.49   12.30
  -8  -1   7   62.09    9.40
   7   1  -7   85.19   11.40
  -7  -1   7  112.69   10.00
   6   1  -7    3.10    3.70
  -6  -1   7    7.60    4.00
   5   1  -7    7.70    4.10
  -5  -1   7    3.70    3.00
   4   1  -7  426.76   18.10
   4   1  -7  402.26   15.50
  -4  -1   7  372.16   16.80
  -4  -1   7  430.06   16.10
   3   1  -7  228.08   10.60
   3   1  -7  254.57   12.90
  -3  -1   7  225.68   12.10
  -3  -1   7  229.38   10.90
   2   1  -7 2895.71   58.69
   2   1  -7 2856.41   59.09
   2   1  -7 3011.40   68.29
   2   1  -7 2801.62   63.79
  -2  -1   7 2892.81   67.69
  -2  -1   7 2932.11   64.39
   1   1  -7  790.32   24.60
   1   1  -7  778.22   18.80
   1   1  -7  800.62   18.70
   1   1  -7  787.62   21.20
   1   1  -7  784.92   25.10
  -1  -1   7  802.12   21.40
   0   1  -7  201.38   10.60
   0   1  -7  200.78   10.70
   0   1  -7  175.68    7.50
   0   1  -7  195.58    7.30
   0  -1   7  188.38    7.00
   0  -1   7  188.48    7.80
  -1   1  -7   80.39    5.10
  -1   1  -7   86.99    7.10
  -1   1  -7   84.99    4.40
   1  -1   7   76.69    4.40
   1  -1   7   69.99    6.70
   1  -1   7   81.59    4.90
  -2   1  -7  639.74   18.20
  -2   1  -7  630.24   14.90
  -2   1  -7  626.14   20.80
   2  -1   7  634.64   15.10
   2  -1   7  626.54   17.70
   2  -1   7  618.24   21.10
  -3   1  -7  936.51   25.10
  -3   1  -7  927.51   19.40
  -3   1  -7  902.41   27.10
   3  -1   7  929.91   27.80
   3  -1   7  920.11   24.60
  -4   1  -7    1.10    2.20
  -4   1  -7   -1.70    2.20
   4  -1   7    3.30    2.70
   4  -1   7    2.90    2.20
  -5   1  -7 2716.73   63.59
   5  -1   7 2524.75   60.39
   5  -1   7 2686.43   64.29
  -6   1  -7 1029.20   30.00
  -6   1  -7  944.31   30.20
   6  -1   7 1062.29   32.40
   6  -1   7  994.50   28.80
  -7   1  -7    5.80    3.40
  -7   1  -7   -0.10    0.80
   7  -1   7   -2.20    2.50
   7  -1   7    0.30    1.00
  -8   1  -7  124.59    5.10
  -8   1  -7  122.29   10.10
   8  -1   7  113.79   10.90
  -9   1  -7   15.50    2.70
  -9   1  -7   15.20    5.50
   9  -1   7   12.70    5.80
   9  -1   7   14.40    2.80
 -10   1  -7    5.00    2.50
 -10   1  -7    1.50    4.10
  10  -1   7    3.40    4.90
  10  -1   7    3.10    2.30
 -11   1  -7  189.18   14.20
 -11   1  -7  195.88    9.10
  11  -1   7  202.98   16.60
  11  -1   7  177.48    9.00
 -12   1  -7   14.80    6.90
 -12   1  -7   19.00    4.10
  12  -1   7   15.00    4.10
  12  -1   7   22.90    8.00
 -13   1  -7   56.19    6.60
 -13   1  -7   58.39   11.00
  13  -1   7   54.39    7.10
  13  -1   7   76.19   13.30
  11   0  -7   76.79   12.60
 -11   0   7   73.99   12.70
 -11   0   7   60.79    5.10
 -11   0   7   62.19    4.60
  10   0  -7  107.19   13.60
 -10   0   7   93.69    5.80
 -10   0   7   91.89   12.20
   9   0  -7   29.80    8.00
   9   0  -7   28.60    3.30
  -9   0   7   32.40    7.20
  -9   0   7   26.80    3.80
   8   0  -7  119.49    5.30
   8   0  -7  116.09   11.60
  -8   0   7  112.59   10.70
   7   0  -7    1.60    4.00
  -7   0   7    8.90    4.10
  -7   0   7    8.50    2.10
   6   0  -7    3.80    1.30
   6   0  -7   -3.60    2.80
  -6   0   7    1.70    1.30
  -6   0   7    2.50    3.00
   5   0  -7   -2.30    2.20
   5   0  -7    1.70    1.00
  -5   0   7   -1.20    1.90
  -5   0   7    1.00    1.10
  -5   0   7   -0.90    2.40
   4   0  -7  119.19    4.20
   4   0  -7  124.99    9.30
   4   0  -7  131.59    8.20
  -4   0   7  121.79    8.40
  -4   0   7  121.09    8.80
  -4   0   7  126.89    4.30
   3   0  -7  964.70   21.20
   3   0  -7  982.70   28.60
  -3   0   7  960.50   26.50
  -3   0   7  904.41   27.80
   2   0  -7 4210.58   89.09
   2   0  -7 4225.48   92.19
   2   0  -7 4156.58   85.29
   2   0  -7 4248.57   84.69
  -2   0   7 4089.59   91.79
   1   0  -7  853.11   25.00
   1   0  -7  856.61   19.90
   1   0  -7  835.12   25.30
   1   0  -7  864.81   22.20
  -1   0   7  814.12   22.20
   0   0  -7  127.19    5.80
   0   0  -7  123.79    5.60
   0   0  -7  113.99    5.80
   0   0  -7  134.09    8.30
   0   0  -7  149.49    8.60
   0   0   7  128.09    6.20
  -2   0  -7   65.09    7.20
  -2   0  -7   52.79    4.60
  -2   0  -7   51.39    3.10
   2   0   7   49.30    3.30
   2   0   7   55.79    4.40
   2   0   7   59.09    5.90
  -3   0  -7  338.07   12.20
  -3   0  -7  328.67    8.60
  -3   0  -7  320.07   13.40
  -3   0  -7  326.07    8.10
   3   0   7  309.47   11.60
   3   0   7  322.47   13.90
  -4   0  -7 3808.12   74.79
  -4   0  -7 3839.72   74.79
  -4   0  -7 3742.03   84.19
  -4   0  -7 3716.53   81.99
   4   0   7 3725.33   81.69
   4   0   7 3803.12   85.09
  -5   0  -7  804.82   24.20
  -5   0  -7  814.02   28.20
  -5   0  -7  815.02   17.20
   5   0   7  845.22   24.50
   5   0   7  840.42   26.80
  -6   0  -7   92.69    8.00
  -6   0  -7   95.29    7.70
  -6   0  -7   89.79    3.50
   6   0   7   90.39    3.90
   6   0   7   83.99    8.50
   6   0   7   94.39    7.20
  -7   0  -7    5.50    3.70
  -7   0  -7   12.20    2.00
   7   0   7    8.30    4.20
  -8   0  -7    2.90    1.80
  -8   0  -7    1.00    3.30
   8   0   7   12.30    5.40
   8   0   7    5.50    1.90
  -9   0  -7   -0.70    1.70
  -9   0  -7    1.90    3.90
   9   0   7   -0.10    3.80
   9   0   7    0.30    1.80
 -10   0  -7  179.98    8.30
 -10   0  -7  152.58   12.30
  10   0   7  174.08   14.90
  10   0   7  155.38    8.30
 -11   0  -7   94.29   11.70
 -11   0  -7   88.09    6.60
  11   0   7   84.19   12.20
  11   0   7   81.09    6.80
 -12   0  -7  219.18   15.50
 -12   0  -7  201.58   10.40
  12   0   7  192.98   10.80
  12   0   7  212.38   17.80
 -13   0  -7   44.80    6.10
 -13   0  -7   47.20    9.90
  13   0   7   44.60   10.70
  11  -1  -7  126.49    7.60
  11  -1  -7  177.28   15.90
 -11   1   7  141.39   16.40
 -11   1   7  146.69    9.10
  10  -1  -7    4.10    2.50
  10  -1  -7    8.60    6.00
 -10   1   7   -0.10    4.30
 -10   1   7    1.40    2.70
   9  -1  -7   52.09    9.50
   9  -1  -7   51.19    5.30
  -9   1   7   55.29    9.00
  -9   1   7   57.49    6.40
   8  -1  -7   23.00    3.70
   8  -1  -7   26.70    7.20
  -8   1   7   20.20    4.10
  -8   1   7   26.80    6.50
   7  -1  -7   19.40    6.50
   7  -1  -7   28.10    3.70
  -7   1   7   20.00    3.60
  -7   1   7   30.20    6.70
   6  -1  -7   16.90    2.80
   6  -1  -7   24.30    5.70
  -6   1   7   20.50    5.10
  -6   1   7   32.10    6.40
  -6   1   7   21.70    3.50
   5  -1  -7   41.90    6.70
   5  -1  -7   37.00    3.30
  -5   1   7   33.20    5.60
  -5   1   7   44.40    6.90
   4  -1  -7  325.67   14.10
   4  -1  -7  292.77   12.60
   4  -1  -7  319.17    9.70
  -4   1   7  327.67   10.20
  -4   1   7  329.77   14.10
  -4   1   7  298.77   13.30
   3  -1  -7  576.54   19.20
   3  -1  -7  566.44   16.30
   3  -1  -7  558.04   17.80
  -3   1   7  555.64   18.40
  -3   1   7  547.45   18.80
  -3   1   7  574.94   15.00
   2  -1  -7 1513.45   34.10
   2  -1  -7 1565.34   38.30
   2  -1  -7 1470.25   36.00
  -2   1   7 1471.95   37.70
  -2   1   7 1535.05   36.90
  -2   1   7 1474.85   33.40
   1  -1  -7  146.79    8.30
   1  -1  -7  153.38    6.70
   1  -1  -7  151.88    7.10
   1  -1  -7  154.58    8.70
  -1   1   7  149.49    7.10
  -1   1   7  143.69    7.30
   0  -1  -7 3172.68   71.29
   0  -1  -7 3290.27   67.99
   0  -1  -7 3216.68   71.09
   0  -1  -7 3189.78   67.59
   0  -1  -7 3211.78   68.29
  -1  -1  -7  483.45   14.50
  -1  -1  -7  476.05   14.10
  -1  -1  -7  484.75   16.30
  -1  -1  -7  496.65   13.40
   1   1   7  495.35   16.80
   1   1   7  492.85   13.90
  -2  -1  -7  169.78    6.90
  -2  -1  -7  172.18    7.70
  -2  -1  -7  160.58    7.60
  -2  -1  -7  163.68    6.50
  -2  -1  -7  162.18    8.70
   2   1   7  159.28    9.00
  -3  -1  -7 3318.07   76.59
  -3  -1  -7 3494.55   74.79
  -3  -1  -7 3569.74   71.09
  -3  -1  -7 3495.95   71.49
   3   1   7 3478.55   77.49
   3   1   7 3450.25   74.89
  -4  -1  -7 2575.24   61.19
  -4  -1  -7 2651.93   59.19
  -4  -1  -7 2644.24   54.49
   4   1   7 2654.63   54.59
   4   1   7 2663.03   62.29
   4   1   7 2608.64   59.29
  -5  -1  -7   33.10    2.50
  -5  -1  -7   23.30    3.80
   5   1   7   19.80    4.60
   5   1   7   25.00    2.80
  -6  -1  -7   71.89    4.40
  -6  -1  -7   74.89    8.60
  -6  -1  -7   79.79    7.00
   6   1   7   76.69    4.40
   6   1   7   74.29    8.50
   6   1   7   84.29    6.70
  -7  -1  -7  131.99    5.90
  -7  -1  -7  129.29    9.10
   7   1   7  128.99    6.30
   7   1   7  135.59   10.80
  -8  -1  -7   28.30    8.40
  -8  -1  -7   36.60    4.00
   8   1   7   33.80    7.10
   8   1   7   38.30    4.60
  -9  -1  -7    1.40    2.10
  -9  -1  -7    2.50    3.10
   9   1   7    4.50    4.70
   9   1   7    1.00    1.80
 -10  -1  -7   29.70    4.60
 -10  -1  -7   13.90    5.20
  10   1   7   29.00    8.00
  10   1   7   20.10    4.30
 -11  -1  -7    0.60    4.20
 -11  -1  -7    1.50    2.40
  11   1   7    0.10    2.50
  11   1   7   -3.00    3.60
 -12  -1  -7   94.09   11.70
 -12  -1  -7  103.49    7.90
  12   1   7  105.99   15.60
 -13  -1  -7   31.60    7.60
 -13  -1  -7   41.10    6.40
  13   1   7   28.00   12.00
  11  -2  -7   12.10    5.90
  11  -2  -7    2.20    2.90
 -11   2   7    4.20    4.40
 -11   2   7   -0.10    2.90
  10  -2  -7   29.20    5.00
  10  -2  -7   31.20    7.70
 -10   2   7   28.40    7.10
 -10   2   7   27.00    5.60
   9  -2  -7   23.20    4.40
   9  -2  -7   18.80    6.50
  -9   2   7   16.40    4.40
  -9   2   7   16.40    5.50
   8  -2  -7    3.20    4.10
   8  -2  -7    4.60    2.60
  -8   2   7    2.30    3.90
  -8   2   7    7.00    3.40
   7  -2  -7  358.96   12.70
   7  -2  -7  361.46   17.10
  -7   2   7  364.26   13.90
  -7   2   7  353.56   17.00
   6  -2  -7    3.70    2.10
   6  -2  -7    0.90    3.00
  -6   2   7    1.00    2.10
  -6   2   7   -1.90    2.50
  -6   2   7    0.70    2.40
   5  -2  -7   16.60    3.20
   5  -2  -7   18.30    4.40
  -5   2   7   18.20    3.50
  -5   2   7   13.80    3.80
  -5   2   7   16.40    4.40
   4  -2  -7  823.32   24.90
   4  -2  -7  913.61   26.20
   4  -2  -7  882.71   22.70
  -4   2   7  934.21   26.70
  -4   2   7  839.52   25.50
  -4   2   7  908.61   23.40
   3  -2  -7   50.29    6.10
   3  -2  -7   54.69    5.40
   3  -2  -7   46.40    4.10
  -3   2   7   36.30    5.00
  -3   2   7   61.39    6.70
  -3   2   7   54.69    4.40
   2  -2  -7  825.12   21.60
   2  -2  -7  800.82   22.90
   2  -2  -7  812.72   22.40
  -2   2   7  815.42   22.90
  -2   2   7  798.82   21.20
  -2   2   7  860.31   23.60
   1  -2  -7 3412.86   74.69
   1  -2  -7 3418.36   73.19
   1  -2  -7 3432.56   73.09
   1  -2  -7 3362.56   74.19
  -1   2   7 3456.25   72.59
   0  -2  -7  729.23   21.20
   0  -2  -7  761.82   19.80
   0  -2  -7  747.63   20.40
   0   2   7  754.12   21.60
   0   2   7  747.43   20.40
   0   2   7  762.62   20.00
  -1  -2  -7  338.07   10.70
  -1  -2  -7  329.67   12.20
  -1  -2  -7  314.07   11.40
   1   2   7  328.17   11.30
   1   2   7  317.07   11.00
   1   2   7  314.87   12.30
  -2  -2  -7 1233.88   30.90
  -2  -2  -7 1274.17   30.60
  -2  -2  -7 1237.48   29.40
  -2  -2  -7 1245.18   29.00
  -2  -2  -7 1209.48   31.50
   2   2   7 1253.57   32.20
  -3  -2  -7 2181.28   51.19
  -3  -2  -7 2179.58   49.60
  -3  -2  -7 2187.28   50.79
  -3  -2  -7 2161.98   50.09
   3   2   7 2211.58   51.89
   3   2   7 2131.79   46.90
  -4  -2  -7   -0.40    1.90
  -4  -2  -7    1.20    1.90
  -4  -2  -7    2.30    1.70
  -4  -2  -7   -0.50    1.40
   4   2   7    1.40    1.30
   4   2   7    1.50    2.50
  -5  -2  -7 2272.87   48.50
  -5  -2  -7 2140.19   57.59
  -5  -2  -7 2266.37   52.49
  -5  -2  -7 2300.07   56.39
   5   2   7 2265.17   55.59
   5   2   7 2220.78   49.20
  -6  -2  -7   26.30    5.10
  -6  -2  -7   35.00    3.70
  -6  -2  -7   27.40    4.50
   6   2   7   33.90    6.30
   6   2   7   34.20    5.50
   6   2   7   30.80    3.90
  -7  -2  -7  124.79    8.80
  -7  -2  -7  126.79    6.40
   7   2   7  134.79   11.30
   7   2   7  128.69    7.10
   7   2   7  133.29   10.80
  -8  -2  -7    9.10    2.70
  -8  -2  -7   16.40    4.80
   8   2   7    8.90    4.80
   8   2   7   10.00    2.90
  -9  -2  -7  107.09    9.40
  -9  -2  -7  115.49    7.10
   9   2   7   89.79   11.00
   9   2   7  110.59    7.50
 -10  -2  -7   31.30    7.10
 -10  -2  -7   32.90    4.80
  10   2   7   23.70    7.50
  10   2   7   19.00    4.40
 -11  -2  -7   25.30    4.60
 -11  -2  -7   23.60    6.40
  11   2   7   28.70    8.30
  11   2   7   16.80    4.30
 -12  -2  -7  104.59   12.70
  12   2   7  100.29   15.40
 -13  -2  -7   15.90    6.50
 -13  -2  -7   16.30    4.70
  13   2   7   15.60   12.40
  11  -3  -7   -1.40    4.00
 -11   3   7    8.30    4.70
 -11   3   7   -2.60    3.40
  10  -3  -7   76.89   11.30
 -10   3   7   85.49   10.00
 -10   3   7   74.79   10.30
   9  -3  -7   73.89    9.90
   9  -3  -7   68.09    7.60
  -9   3   7   85.99    9.60
  -9   3   7   68.99   10.50
   8  -3  -7   20.30    6.00
  -8   3   7   20.40    4.90
  -8   3   7   11.50    5.00
   7  -3  -7   18.60    4.00
   7  -3  -7   18.90    5.10
  -7   3   7   13.00    4.20
  -7   3   7   17.70    5.00
  -7   3   7   16.80    5.20
   6  -3  -7   19.50    4.70
   6  -3  -7   16.10    3.80
  -6   3   7   25.40    4.80
  -6   3   7   22.70    5.50
   5  -3  -7  257.47   10.40
   5  -3  -7  245.98   11.70
  -5   3   7  276.57   13.40
  -5   3   7  234.18   11.00
  -5   3   7  234.28   11.40
   4  -3  -7  455.55   16.40
   4  -3  -7  482.15   16.40
   4  -3  -7  479.55   15.40
  -4   3   7  475.55   16.00
  -4   3   7  502.15   18.20
  -4   3   7  475.25   16.30
   3  -3  -7  492.75   15.80
   3  -3  -7  502.45   16.00
  -3   3   7  507.95   17.80
  -3   3   7  483.85   15.90
  -3   3   7  482.35   15.90
   2  -3  -7 2654.23   59.29
   2  -3  -7 2675.43   60.29
   2  -3  -7 2788.32   60.19
   2  -3  -7 2673.43   59.89
  -2   3   7 2722.63   59.99
  -2   3   7 2653.93   61.39
   1  -3  -7 1354.66   33.60
   1  -3  -7 1408.66   33.20
   1  -3  -7 1338.47   33.20
   1  -3  -7 1345.87   32.70
  -1   3   7 1368.76   33.40
  -1   3   7 1379.46   34.50
   0  -3  -7   72.59    5.20
   0  -3  -7   62.89    5.10
   0  -3  -7   77.99    5.20
   0   3   7   63.19    5.40
   0   3   7   61.99    5.00
   0   3   7   61.29    5.00
  -1  -3  -7 2678.23   57.49
  -1  -3  -7 2594.34   58.59
  -1  -3  -7 2603.84   57.79
  -1  -3  -7 2644.64   57.79
   1   3   7 2533.15   57.99
   1   3   7 2612.84   58.19
  -2  -3  -7  706.73   19.40
  -2  -3  -7  694.63   20.20
  -2  -3  -7  694.03   20.70
  -2  -3  -7  697.43   19.60
   2   3   7  704.23   20.30
   2   3   7  729.23   21.00
  -3  -3  -7   98.49    6.70
  -3  -3  -7   85.59    5.50
  -3  -3  -7   89.09    6.30
  -3  -3  -7   75.29    5.90
   3   3   7   78.89    6.60
   3   3   7   82.09    5.30
  -4  -3  -7 1863.41   44.60
  -4  -3  -7 1797.52   45.40
  -4  -3  -7 1969.60   45.80
  -4  -3  -7 1927.61   43.00
   4   3   7 1816.72   42.80
   4   3   7 1884.91   46.70
  -5  -3  -7 1447.96   34.00
  -5  -3  -7 1424.86   36.40
   5   3   7 1468.45   39.40
   5   3   7 1391.16   34.50
  -6  -3  -7  830.02   24.30
  -6  -3  -7  815.72   21.50
  -6  -3  -7  802.42   24.70
  -6  -3  -7  756.02   25.50
   6   3   7  754.82   22.10
   6   3   7  791.72   26.90
  -7  -3  -7  285.67   13.10
  -7  -3  -7  318.07   17.60
  -7  -3  -7  294.27   11.00
   7   3   7  283.77   15.70
   7   3   7  275.17   11.70
  -8  -3  -7    0.80    2.10
  -8  -3  -7    2.40    3.00
   8   3   7    1.60    3.80
   8   3   7    0.40    2.10
  -9  -3  -7   60.09    6.30
  -9  -3  -7   78.89    9.50
   9   3   7   58.39    7.10
   9   3   7   51.89    9.70
 -10  -3  -7   13.30    4.90
 -10  -3  -7   12.40    4.00
  10   3   7   13.80    4.10
  10   3   7   20.80    7.30
 -11  -3  -7  245.18   12.10
 -11  -3  -7  231.78   14.60
  11   3   7  219.18   17.60
 -12  -3  -7   56.49    7.40
 -12  -3  -7   68.09   10.30
  12   3   7   59.39   11.70
 -13  -3  -7    7.60    5.30
 -13  -3  -7   12.30    4.50
  13   3   7    8.10    6.80
  11  -4  -7   72.39   11.20
 -11   4   7   65.19    9.60
 -11   4   7   83.59   12.00
  10  -4  -7   61.79    9.60
 -10   4   7   68.69   10.50
   9  -4  -7   13.10    5.30
  -9   4   7   20.60    6.30
  -9   4   7   11.30    4.90
   8  -4  -7   10.50    4.70
   8  -4  -7   11.30    3.90
  -8   4   7   16.80    5.20
  -8   4   7   11.50    5.20
  -8   4   7    6.20    4.30
   7  -4  -7   54.09    6.70
   7  -4  -7   56.59    7.70
  -7   4   7   54.49    7.80
  -7   4   7   54.09    7.20
  -7   4   7   59.79    7.90
   6  -4  -7  129.19    8.30
   6  -4  -7  141.39    9.10
  -6   4   7  145.79    9.60
  -6   4   7  142.89    8.90
  -6   4   7  148.09   10.80
   5  -4  -7  385.06   14.40
   5  -4  -7  388.16   14.30
  -5   4   7  362.16   15.10
  -5   4   7  374.76   16.60
  -5   4   7  382.56   14.30
   4  -4  -7   14.00    3.10
   4  -4  -7   22.30    4.00
   4  -4  -7   17.50    3.50
  -4   4   7   19.50    3.70
  -4   4   7   31.90    5.60
  -4   4   7   19.80    4.10
   3  -4  -7 2300.17   53.89
   3  -4  -7 2286.67   53.99
   3  -4  -7 2383.36   51.69
  -3   4   7 2244.08   51.39
  -3   4   7 2351.76   54.49
  -3   4   7 2352.36   55.79
   2  -4  -7 1280.17   31.10
   2  -4  -7 1312.47   33.60
   2  -4  -7 1337.97   30.90
   2  -4  -7 1281.97   33.10
  -2   4   7 1283.87   33.40
  -2   4   7 1302.17   34.60
   1  -4  -7  292.57   11.40
   1  -4  -7  284.07   11.60
   1  -4  -7  293.67   10.10
   1  -4  -7  280.77   11.90
  -1   4   7  285.67   11.90
  -1   4   7  282.67   12.20
   0  -4  -7 1337.87   34.70
   0  -4  -7 1337.67   34.50
   0  -4  -7 1384.16   34.10
   0  -4  -7 1360.76   32.00
   0   4   7 1381.26   32.50
   0   4   7 1381.56   34.60
  -1  -4  -7 1449.76   36.30
  -1  -4  -7 1437.16   34.50
  -1  -4  -7 1472.45   37.00
  -1  -4  -7 1494.15   36.20
   1   4   7 1489.95   36.70
   1   4   7 1476.95   35.10
  -2  -4  -7   32.90    4.70
  -2  -4  -7   38.50    5.60
  -2  -4  -7   36.30    4.70
   2   4   7   30.00    4.80
   2   4   7   32.00    4.60
   2   4   7   36.30    4.70
  -3  -4  -7 3954.50   84.79
  -3  -4  -7 3940.91   86.29
  -3  -4  -7 3844.62   84.99
   3   4   7 3969.70   85.59
   3   4   7 3796.92   84.19
   3   4   7 4088.19   86.19
  -4  -4  -7 1004.30   28.00
  -4  -4  -7 1016.00   28.60
  -4  -4  -7 1028.40   28.90
  -4  -4  -7 1035.60   27.20
   4   4   7 1028.80   29.50
   4   4   7 1033.80   27.40
  -5  -4  -7 1056.39   34.10
  -5  -4  -7 1090.99   31.00
  -5  -4  -7 1127.99   30.40
  -5  -4  -7 1132.29   29.00
   5   4   7 1098.19   29.50
   5   4   7 1158.78   33.00
  -6  -4  -7   91.09    7.40
  -6  -4  -7   90.29    8.00
  -6  -4  -7   98.09    6.60
  -6  -4  -7   89.99    7.10
   6   4   7   77.49    9.00
   6   4   7   90.39    6.70
  -7  -4  -7  684.03   20.50
  -7  -4  -7  686.63   22.50
   7   4   7  665.53   25.70
   7   4   7  687.23   21.80
  -8  -4  -7  116.89    7.70
  -8  -4  -7  103.69    8.60
   8   4   7  108.29   10.90
   8   4   7  120.49    8.40
  -9  -4  -7   15.90    4.10
  -9  -4  -7   12.60    5.00
   9   4   7    9.40    3.80
   9   4   7   16.30    6.70
 -10  -4  -7   29.50    5.50
 -10  -4  -7   30.60    6.10
  10   4   7   22.30    6.60
 -11  -4  -7   70.09    9.30
 -11  -4  -7   63.69    8.10
  11   4   7   54.79   10.10
 -12  -4  -7    6.40    4.60
 -12  -4  -7   -3.20    2.70
  12   4   7   -1.60    4.80
 -13  -4  -7    4.40    5.10
 -13  -4  -7    3.00    3.40
  13   4   7    4.00    6.60
  11  -5  -7   47.80    9.20
 -11   5   7   44.00    9.10
 -11   5   7   29.20    7.70
  10  -5  -7    9.90    4.90
 -10   5   7    5.80    4.30
 -10   5   7   -1.00    3.90
   9  -5  -7   10.10    4.90
  -9   5   7    2.50    3.90
  -9   5   7    3.50    4.30
   8  -5  -7  194.38   11.90
  -8   5   7  199.28   13.10
  -8   5   7  186.68   13.80
  -8   5   7  184.78   11.40
   7  -5  -7    2.10    3.30
   7  -5  -7    3.30    3.30
  -7   5   7    0.90    3.40
  -7   5   7    6.60    4.00
  -7   5   7    0.60    2.40
   6  -5  -7   90.69    7.40
   6  -5  -7  100.99    7.40
  -6   5   7   89.69    6.80
  -6   5   7   71.59    8.80
  -6   5   7   97.59    8.70
   5  -5  -7   52.89    6.40
   5  -5  -7   52.69    5.80
  -5   5   7   50.29    7.40
  -5   5   7   54.19    7.70
  -5   5   7   53.89    5.00
   4  -5  -7  285.37   12.90
   4  -5  -7  280.27   10.30
   4  -5  -7  300.37   13.20
  -4   5   7  297.07   13.80
  -4   5   7  290.07   14.20
  -4   5   7  276.87   10.30
   3  -5  -7  477.85   13.90
   3  -5  -7  460.55   17.00
   3  -5  -7  473.65   17.80
   3  -5  -7  451.55   16.50
  -3   5   7  477.85   18.30
  -3   5   7  468.25   17.50
   2  -5  -7 1031.00   24.10
   2  -5  -7  910.11   30.00
   2  -5  -7 1029.50   23.80
   2  -5  -7 1000.20   28.50
  -2   5   7 1013.60   29.40
  -2   5   7 1028.20   29.00
   1  -5  -7  582.64   15.00
   1  -5  -7  562.04   19.10
   1  -5  -7  555.34   19.30
   1  -5  -7  549.35   18.50
   1  -5  -7  588.74   15.10
  -1   5   7  549.35   19.00
   0  -5  -7 1195.28   31.40
   0  -5  -7 1171.58   27.50
   0  -5  -7 1168.98   31.80
   0  -5  -7 1167.88   32.00
   0   5   7 1194.88   31.90
   0   5   7 1164.48   27.90
  -1  -5  -7  137.99    8.10
  -1  -5  -7  128.89    8.20
  -1  -5  -7  113.79    6.10
  -1  -5  -7  129.49    8.20
   1   5   7  127.99    8.10
   1   5   7  123.59    6.60
   1   5   7  111.59    7.30
  -2  -5  -7 2111.99   48.70
  -2  -5  -7 2170.98   51.19
  -2  -5  -7 2187.18   51.99
   2   5   7 2147.69   49.40
   2   5   7 2153.78   51.09
   2   5   7 2124.39   50.39
  -3  -5  -7 1520.45   37.20
  -3  -5  -7 1383.56   37.50
  -3  -5  -7 1422.26   36.10
   3   5   7 1430.56   37.00
   3   5   7 1424.76   36.60
   3   5   7 1472.05   36.90
  -4  -5  -7  190.98   10.10
  -4  -5  -7  190.18    9.80
   4   5   7  206.58   10.90
   4   5   7  186.58   10.00
   4   5   7  192.28    9.90
  -5  -5  -7    4.60    3.00
  -5  -5  -7   12.40    3.40
  -5  -5  -7    6.60    3.10
  -5  -5  -7    3.50    2.40
   5   5   7    7.40    2.80
   5   5   7    7.40    3.30
  -6  -5  -7  958.40   27.10
  -6  -5  -7  955.60   29.30
  -6  -5  -7  991.50   28.40
  -6  -5  -7  909.61   29.50
   6   5   7  981.40   31.30
  -7  -5  -7   11.30    3.40
  -7  -5  -7   13.70    3.90
   7   5   7   22.10    4.80
   7   5   7    7.90    4.70
  -8  -5  -7   21.60    4.60
   8   5   7   19.30    6.20
   8   5   7   12.30    3.80
  -9  -5  -7    3.20    3.20
  -9  -5  -7    1.40    3.20
   9   5   7   -2.30    3.70
 -10  -5  -7  121.59   10.40
 -10  -5  -7  123.09    9.30
  10   5   7  130.59   16.00
 -11  -5  -7    3.30    3.40
 -11  -5  -7    0.30    3.70
  11   5   7    7.20    5.30
 -12  -5  -7   -0.40    3.40
 -12  -5  -7    3.00    4.30
  12   5   7    1.70    5.10
 -13  -5  -7   57.89    9.60
 -13  -5  -7   45.70    8.00
  13   5   7   42.20   10.00
  11  -6  -7   15.90    5.90
 -11   6   7    3.50    5.00
 -11   6   7   19.00    6.70
 -10   6   7   16.20    6.10
 -10   6   7    7.50    5.50
   9  -6  -7   34.90    6.50
  -9   6   7   35.90    7.90
  -9   6   7   31.10    7.60
  -9   6   7   29.20    6.10
   8  -6  -7    4.80    3.50
  -8   6   7    9.20    5.10
  -8   6   7    3.70    4.40
   7  -6  -7  183.48   10.20
  -7   6   7  199.78   13.80
  -7   6   7  178.68    9.70
  -7   6   7  177.68   14.90
   6  -6  -7   48.20    5.70
  -6   6   7   48.90    4.90
  -6   6   7   33.40    6.60
  -6   6   7   42.40    6.90
   5  -6  -7    2.10    2.00
   5  -6  -7    1.50    2.40
  -5   6   7   -2.00    2.40
  -5   6   7    1.60    1.60
  -5   6   7   -1.40    2.80
   4  -6  -7  100.99    8.00
   4  -6  -7  102.19    5.20
  -4   6   7  100.79   10.80
  -4   6   7   97.39    8.60
   3  -6  -7 1532.65   39.90
   3  -6  -7 1478.05   40.20
   3  -6  -7 1571.24   41.80
   3  -6  -7 1546.65   33.20
   3  -6  -7 1530.35   32.90
  -3   6   7 1529.35   41.60
  -3   6   7 1485.75   41.10
   2  -6  -7 1443.56   39.00
   2  -6  -7 1350.76   29.60
   2  -6  -7 1370.56   29.70
   2  -6  -7 1423.06   38.30
   2  -6  -7 1369.86   36.70
  -2   6   7 1402.36   38.20
   1  -6  -7  424.36   11.10
   1  -6  -7  423.96   11.20
   1  -6  -7  412.26   18.50
   1  -6  -7  440.06   17.20
   1  -6  -7  420.86   16.30
  -1   6   7  443.96   17.10
   0  -6  -7   19.70    3.00
   0  -6  -7   20.80    4.90
   0  -6  -7   14.90    3.50
   0  -6  -7   19.40    4.80
   0   6   7   11.80    3.70
   0   6   7   16.90    2.70
  -1  -6  -7   76.59    8.30
  -1  -6  -7   46.90    5.90
  -1  -6  -7   57.39    4.30
   1   6   7   63.09    5.90
   1   6   7   51.59    4.40
   1   6   7   60.89    7.30
  -2  -6  -7  568.04   17.20
  -2  -6  -7  563.54   19.70
   2   6   7  579.04   17.60
   2   6   7  551.34   19.50
   2   6   7  551.74   19.10
  -3  -6  -7  178.98   10.50
  -3  -6  -7  176.18    9.10
  -3  -6  -7  189.78   10.40
   3   6   7  180.48    9.60
   3   6   7  188.48   10.30
   3   6   7  185.48   10.20
  -4  -6  -7  297.57   13.10
  -4  -6  -7  305.57   13.50
  -4  -6  -7  292.47   13.80
   4   6   7  292.57   13.50
   4   6   7  281.27   13.10
  -5  -6  -7 2629.84   64.49
  -5  -6  -7 2689.23   65.19
  -5  -6  -7 2785.82   63.89
   5   6   7 2781.22   64.09
   5   6   7 2753.22   65.89
   5   6   7 2639.24   64.09
  -6  -6  -7   38.40    5.50
  -6  -6  -7   40.40    6.30
   6   6   7   35.30    5.80
   6   6   7   54.59    7.80
  -7  -6  -7   30.80    5.40
  -7  -6  -7   19.60    4.70
   7   6   7   20.60    5.70
  -8  -6  -7   11.60    4.00
  -8  -6  -7   21.00    5.00
   8   6   7   10.10    5.40
  -9  -6  -7   25.40    5.70
  -9  -6  -7   25.70    5.70
   9   6   7   30.40    7.70
 -10  -6  -7  388.36   17.60
 -10  -6  -7  361.46   16.80
  10   6   7  378.66   22.10
 -11  -6  -7  100.39   11.20
 -11  -6  -7   85.89    9.60
  11   6   7   58.09   10.50
 -12  -6  -7   44.70    8.00
 -12  -6  -7   27.70    6.50
  12   6   7   25.60   10.40
  11  -7  -7   55.49    8.50
 -11   7   7   60.39   10.60
  10  -7  -7    4.70    4.00
 -10   7   7    6.70    5.40
 -10   7   7    2.80    4.90
   9  -7  -7   36.30    6.30
  -9   7   7   25.80    5.50
  -9   7   7   32.10    7.70
  -9   7   7   29.60    8.30
   8  -7  -7   -2.50    2.40
  -8   7   7    0.40    4.30
  -8   7   7    1.90    4.30
  -8   7   7    0.70    2.50
   7  -7  -7   88.39    6.70
  -7   7   7   91.49   11.50
  -7   7   7   99.69   12.60
  -7   7   7   72.89    5.90
   6  -7  -7   49.10    4.50
  -6   7   7   51.19    8.10
  -6   7   7   51.09    4.40
  -6   7   7   54.79    8.80
   5  -7  -7    3.40    1.60
   5  -7  -7    0.30    3.00
  -5   7   7    2.70    3.70
  -5   7   7    3.60    3.20
   4  -7  -7  371.46    8.90
   4  -7  -7  354.16   17.60
   4  -7  -7  374.46    9.00
  -4   7   7  396.86   18.10
   3  -7  -7 1185.58   35.00
   3  -7  -7 1096.29   33.40
  -3   7   7 1163.48   35.00
   2  -7  -7  334.07   15.90
   2  -7  -7  365.56   15.50
   2  -7  -7  338.77   15.60
  -2   7   7  367.76   16.60
   1  -7  -7    3.50    2.60
   1  -7  -7    0.30    2.40
   1  -7  -7    2.70    0.90
   1  -7  -7    7.10    3.40
   1  -7  -7    4.00    0.90
  -1   7   7    0.70    2.80
   0  -7  -7 1655.63   43.70
   0  -7  -7 1686.43   36.70
   0  -7  -7 1770.62   45.20
   0  -7  -7 1639.44   44.40
   0   7   7 1713.83   44.70
   0   7   7 1687.43   36.90
   0   7   7 1588.84   42.70
  -1  -7  -7 1077.69   31.70
  -1  -7  -7 1045.50   31.70
  -1  -7  -7 1036.00   26.10
   1   7   7 1043.90   30.60
   1   7   7 1086.29   26.40
   1   7   7 1078.19   31.60
  -2  -7  -7    5.10    2.30
  -2  -7  -7    2.40    2.70
  -2  -7  -7    3.40    2.60
   2   7   7    5.90    2.40
   2   7   7    2.10    2.50
   2   7   7    5.60    2.80
  -3  -7  -7  322.97   15.00
  -3  -7  -7  296.27   12.60
  -3  -7  -7  318.27   14.70
   3   7   7  312.37   14.50
   3   7   7  327.77   13.40
   3   7   7  337.37   14.70
  -4  -7  -7 2741.53   66.89
  -4  -7  -7 2789.92   65.89
  -4  -7  -7 2717.53   64.49
   4   7   7 2879.01   65.69
   4   7   7 2679.23   65.99
  -5  -7  -7  147.89    9.90
  -5  -7  -7  149.99   10.10
   5   7   7  148.69   10.50
   5   7   7  166.28   10.80
   5   7   7  158.98   10.00
  -6  -7  -7   22.80    5.30
  -6  -7  -7   17.00    4.30
   6   7   7   25.80    6.50
   6   7   7   24.90    5.50
   7   7   7   83.89   11.40
  -8  -7  -7  220.98   12.80
  -8  -7  -7  222.18   12.70
   8   7   7  192.38   14.90
  -9  -7  -7  235.88   13.60
  -9  -7  -7  245.08   13.60
   9   7   7  217.68   16.60
 -10  -7  -7  103.79   11.10
 -10  -7  -7   51.99    7.80
  10   7   7   63.89   10.60
 -11  -7  -7    5.80    4.50
 -11  -7  -7    7.00    4.80
  11   7   7    0.60    4.50
 -12  -7  -7   86.59   11.00
 -12  -7  -7   75.49    9.90
  12   7   7   59.79   12.50
  10  -8  -7   11.70    4.40
 -10   8   7    8.00    5.80
 -10   8   7   23.90    7.90
 -10   8   7    8.80    4.10
   9  -8  -7   13.50    4.00
  -9   8   7    8.20    5.50
  -9   8   7   11.00    5.80
  -9   8   7    6.30    3.20
   8  -8  -7    6.40    2.90
   8  -8  -7    7.70    4.90
  -8   8   7    9.20    5.50
  -8   8   7    8.60    3.10
  -8   8   7    2.70    4.10
   7  -8  -7  132.09   14.60
   7  -8  -7  116.39    6.30
  -7   8   7  133.79   12.60
  -7   8   7  113.69    6.00
   6  -8  -7   19.50    2.40
   6  -8  -7    9.70    5.30
  -6   8   7   11.10    5.10
   5  -8  -7  430.06   20.30
  -5   8   7  426.56   20.60
   4  -8  -7   81.49   10.40
  -4   8   7   80.29   10.90
   3  -8  -7   25.60    7.70
  -3   8   7   28.60    6.00
   2  -8  -7  364.96   17.40
  -2   8   7  394.96   18.20
   1  -8  -7 1063.89   33.20
  -1   8   7 1057.39   33.20
   0  -8  -7  529.65   13.70
   0  -8  -7  540.05   21.00
   0   8   7  518.55   20.80
   0   8   7  530.35   13.80
  -1  -8  -7   66.99    9.30
  -1  -8  -7   46.60    8.30
  -1  -8  -7   55.19    4.40
   1   8   7   52.49    4.40
   1   8   7   35.60    5.70
   1   8   7   63.79    8.90
  -2  -8  -7  692.43   24.10
  -2  -8  -7  644.14   19.60
   2   8   7  685.33   20.10
   2   8   7  640.74   23.40
  -3  -8  -7 1402.56   37.20
  -3  -8  -7 1467.55   40.90
   3   8   7 1467.05   37.80
   3   8   7 1459.45   40.50
  -4  -8  -7   83.19    8.20
  -4  -8  -7   80.69    9.50
   4   8   7   81.99    7.80
   4   8   7   78.59    7.60
  -5  -8  -7   70.29   11.60
  -5  -8  -7   80.69    7.80
   5   8   7   88.49    9.50
   5   8   7   87.29    8.60
  -6  -8  -7   70.99    8.20
   6   8   7   98.19   11.60
   6   8   7   83.99   10.50
  -7  -8  -7  610.34   23.30
  -7  -8  -7  647.64   23.20
   7   8   7  602.64   25.50
  -8  -8  -7   33.10    6.50
  -8  -8  -7   36.30    6.90
   8   8   7   39.80    9.00
  -9  -8  -7   29.60    6.10
  -9  -8  -7   30.00    6.60
   9   8   7   19.40    7.00
 -10  -8  -7    0.80    4.00
 -10  -8  -7   -1.10    3.60
  10   8   7   -1.70    4.70
 -11  -8  -7   60.89    8.90
 -11  -8  -7   70.09   10.20
  11   8   7   66.99   13.00
 -12  -8  -7   40.50    7.80
 -12  -8  -7   46.30    8.70
  12   8   7   24.60    8.40
  10  -9  -7    7.60    3.40
  10  -9  -7   10.90    6.80
 -10   9   7   10.90    6.30
 -10   9   7    9.10    3.90
   9  -9  -7   71.19   11.50
   9  -9  -7   56.69    5.40
  -9   9   7   58.09   10.60
  -9   9   7   49.99    5.00
   8  -9  -7  255.47   17.90
  -8   9   7  207.68   16.70
   7  -9  -7   48.70    9.40
  -7   9   7   45.60    8.90
   6  -9  -7    9.30    5.20
  -6   9   7   -0.40    3.90
   5  -9  -7   44.20    8.10
  -5   9   7   31.80    8.10
   4  -9  -7  152.18   12.30
  -4   9   7  159.58   13.00
   3  -9  -7  291.17   16.20
  -3   9   7  246.68   15.60
   2  -9  -7  871.41   30.30
  -2   9   7  859.51   30.60
   1  -9  -7 1953.80   58.09
  -1   9   7 1914.01   55.79
   0  -9  -7   49.99    9.30
   0  -9  -7   44.20    3.20
   0   9   7   33.30    9.60
   0   9   7   49.30    3.50
  -1  -9  -7  385.46   12.70
  -1  -9  -7  387.36   21.20
   1   9   7  377.86   18.30
   1   9   7  406.86   13.10
  -2  -9  -7  800.22   23.40
   2   9   7  836.52   23.90
   2   9   7  862.61   29.10
  -3  -9  -7   42.10    7.10
  -3  -9  -7   34.80    5.60
   3   9   7   36.20    5.70
  -4  -9  -7  660.03   24.40
  -4  -9  -7  612.64   21.90
   4   9   7  661.63   26.10
   4   9   7  609.64   22.20
  -5  -9  -7  389.36   18.40
   5   9   7  413.16   18.50
   5   9   7  368.46   17.30
  -6  -9  -7   15.30    4.90
   6   9   7   22.70    5.60
   6   9   7   27.40    6.90
  -7  -9  -7   80.49    9.50
  -7  -9  -7  108.19   11.60
   7   9   7  104.59   13.10
   7   9   7   75.39    8.70
  -8  -9  -7   32.50    7.10
  -8  -9  -7   48.90    7.70
   8   9   7   31.30    7.90
  -9  -9  -7   84.99   10.20
  -9  -9  -7  106.79   11.50
   9   9   7  101.59   14.30
 -10  -9  -7   27.00    7.00
 -10  -9  -7   35.50    7.20
  10   9   7   17.70    7.80
 -11  -9  -7   68.69    9.30
 -11  -9  -7   81.09   11.30
  11   9   7   82.79   14.40
   9 -10  -7   -4.50    4.60
  -9  10   7   -1.20    4.80
   8 -10  -7   38.70    9.20
  -8  10   7   19.30    8.30
   7 -10  -7   16.00    6.60
  -7  10   7    2.80    4.70
   6 -10  -7   47.30    8.90
  -6  10   7   40.70    8.50
   5 -10  -7  103.19   13.00
  -5  10   7   87.49   13.30
   4 -10  -7  258.17   16.60
  -4  10   7  278.27   17.70
   3 -10  -7   65.39    9.10
  -3  10   7   84.89   12.10
   2 -10  -7  529.85   23.20
  -2  10   7  545.55   24.10
   1 -10  -7    2.50    3.50
  -1  10   7    5.90    4.40
   0 -10  -7  448.26   12.10
   0 -10  -7  428.66   20.30
   0  10   7  460.85   21.10
   0  10   7  430.96   11.90
  -1 -10  -7  667.33   18.90
  -1 -10  -7  711.03   26.50
   1  10   7  659.73   19.00
   1  10   7  670.63   26.20
  -2 -10  -7   13.90    5.90
  -2 -10  -7    8.90    3.00
   2  10   7   11.80    3.40
   2  10   7    0.90    3.30
  -3 -10  -7  508.55   18.90
  -3 -10  -7  583.94   23.50
   3  10   7  526.25   22.20
   3  10   7  540.25   19.40
  -4 -10  -7  130.99   11.20
  -4 -10  -7  113.39    8.90
   4  10   7  116.99   10.20
   4  10   7  109.99    9.40
  -5 -10  -7  643.04   25.40
   5  10   7  642.64   24.60
   5  10   7  627.54   24.40
  -6 -10  -7    3.50    3.70
   6  10   7    5.40    4.10
   6  10   7    4.60    4.40
  -7 -10  -7   71.59    9.40
   7  10   7   79.59   11.40
   7  10   7   66.29    9.00
  -8 -10  -7   18.20    5.80
  -8 -10  -7   10.90    4.80
   8  10   7   10.40    5.90
  -9 -10  -7   22.90    6.30
  -9 -10  -7   16.30    6.10
   9  10   7    5.60    5.30
 -10 -10  -7   86.19   10.70
 -10 -10  -7   64.99   10.30
  10  10   7   51.49   10.30
   8 -11  -7    2.10    5.20
  -8  11   7    5.80    5.80
   7 -11  -7  105.19   13.80
  -7  11   7  101.89   14.80
   6 -11  -7   74.49   11.50
  -6  11   7  110.19   15.30
   5 -11  -7  197.98   15.70
  -5  11   7  215.58   16.90
   4 -11  -7  169.98   14.30
  -4  11   7  185.18   15.40
   3 -11  -7  379.36   20.30
  -3  11   7  353.86   20.40
   2 -11  -7   17.40    5.70
  -2  11   7   23.00    7.20
   1 -11  -7  129.59   11.90
  -1  11   7  150.58   12.90
   0 -11  -7  152.28   12.60
   0 -11  -7  143.89    5.90
   0  11   7  138.79   12.50
   0  11   7  145.89    5.80
  -1 -11  -7  111.69   13.00
  -1 -11  -7   99.59    6.30
   1  11   7  113.69    6.80
   1  11   7  117.69   11.20
  -2 -11  -7  682.53   26.90
  -2 -11  -7  613.44   20.20
   2  11   7  626.14   25.90
   2  11   7  669.33   20.90
  -3 -11  -7  253.27   15.80
  -3 -11  -7  244.28   12.60
   3  11   7  230.78   12.30
   3  11   7  243.38   15.10
  -4 -11  -7  314.27   15.50
  -4 -11  -7  331.07   18.30
   4  11   7  337.37   17.60
   4  11   7  306.37   15.60
  -5 -11  -7   21.70    6.30
   5  11   7   24.10    6.70
   5  11   7   17.20    6.40
  -6 -11  -7  195.88   14.20
   6  11   7  177.78   13.70
   6  11   7  205.08   13.50
  -7 -11  -7   86.89   11.60
   7  11   7   97.39   13.40
   7  11   7  106.49   10.20
  -8 -11  -7   27.20    7.10
  -8 -11  -7   26.60    7.30
   8  11   7   37.50    9.20
  -9 -11  -7   19.90    6.10
  -9 -11  -7   10.00    5.30
   9  11   7   17.30    7.60
 -10 -11  -7   68.19   11.40
 -10 -11  -7   70.69    9.80
  10  11   7   58.09   12.70
   8 -12  -7   14.60    7.10
  -8  12   7   14.30    8.30
   7 -12  -7   93.79   13.70
  -7  12   7   95.89   18.70
   6 -12  -7  161.18   18.60
  -6  12   7  139.39   16.30
   5 -12  -7   47.90   10.10
  -5  12   7   35.50    8.90
   4 -12  -7   18.10    7.20
  -4  12   7   28.80    8.50
   3 -12  -7  111.69   13.10
  -3  12   7  126.99   15.80
   2 -12  -7  726.43   30.00
  -2  12   7  734.83   31.10
   1 -12  -7    2.60    4.00
  -1  12   7    0.00    4.30
   0 -12  -7   67.29   10.80
   0  12   7   71.79   11.50
   0  12   7   68.69    4.00
  -1 -12  -7    6.90    2.50
  -1 -12  -7    9.50    5.20
   1  12   7    2.60    4.20
   1  12   7   11.40    3.20
  -2 -12  -7  365.46   15.00
  -2 -12  -7  370.66   20.30
   2  12   7  406.76   20.80
   2  12   7  426.36   15.80
  -3 -12  -7  266.67   13.50
  -3 -12  -7  261.87   16.80
   3  12   7  282.77   13.90
   3  12   7  274.67   16.80
  -4 -12  -7   -1.60    3.30
   4  12   7    4.60    4.50
   4  12   7    2.00    3.40
  -5 -12  -7  240.38   16.30
   5  12   7  265.47   16.00
   5  12   7  250.27   15.40
  -6 -12  -7  202.38   15.10
   6  12   7  213.88   14.30
   6  12   7  201.88   14.90
  -7 -12  -7   10.80    5.70
   7  12   7   10.20    5.40
   7  12   7    5.90    4.50
  -8 -12  -7    0.20    4.90
  -8 -12  -7    2.90    4.30
   8  12   7   -2.60    3.80
  -9 -12  -7   49.40    9.40
  -9 -12  -7   83.59   10.90
   9  12   7   56.59   11.00
   7 -13  -7  113.29   20.60
  -7  13   7   98.79   15.90
   6 -13  -7   -3.90    3.90
  -6  13   7   -0.80    5.60
   5 -13  -7   12.10    5.70
  -5  13   7   13.50    7.10
   4 -13  -7   59.29   10.50
  -4  13   7   73.59   12.90
   3 -13  -7  385.46   22.00
  -3  13   7  361.46   22.60
   2 -13  -7   54.99   10.30
  -2  13   7   43.70    9.40
   1 -13  -7   34.40    7.60
  -1  13   7   28.10    8.40
   0 -13  -7  165.88   14.40
   0  13   7  165.28    6.50
   0  13   7  161.78    6.00
   0  13   7  200.38   15.80
  -1 -13  -7  267.37   11.30
  -1 -13  -7  281.27   18.10
   1  13   7  309.47   19.20
   1  13   7  279.97   11.30
  -2 -13  -7    3.20    2.80
  -2 -13  -7    5.10    4.60
   2  13   7    8.10    3.60
   2  13   7    2.50    4.40
  -3 -13  -7    0.90    2.80
  -3 -13  -7   17.80    6.80
   3  13   7   12.90    4.40
   3  13   7    3.10    4.60
  -4 -13  -7  446.66   23.00
   4  13   7  452.75   22.40
  -5 -13  -7  122.09   14.30
   5  13   7  123.69   11.40
   5  13   7   97.99   12.60
  -6 -13  -7    4.10    4.50
   6  13   7    7.00    4.90
   6  13   7    5.10    4.50
  -7 -13  -7   -1.80    3.70
   7  13   7    3.40    5.10
   7  13   7    0.60    3.90
  -8 -13  -7   38.10    8.70
   8  13   7   35.50    9.20
   8  13   7   34.70    8.00
   5 -14  -7   25.80    8.50
  -5  14   7   29.20    9.50
   4 -14  -7  292.17   20.10
  -4  14   7  276.67   21.10
   3 -14  -7   51.79   11.10
  -3  14   7   28.10    8.60
   2 -14  -7   28.30    7.40
  -2  14   7   33.70    9.50
   1 -14  -7  121.19   14.70
  -1  14   7  103.29   15.10
   0 -14  -7  345.97   20.90
   0  14   7  300.97    8.50
   0  14   7  328.57   20.90
   0  14   7  299.57    8.30
  -1 -14  -7    1.60    2.20
  -1 -14  -7   -5.10    3.10
   1  14   7    1.00    2.10
   1  14   7   -1.30    4.20
  -2 -14  -7   78.19   12.30
   2  14   7   75.69    7.30
   2  14   7   65.19   11.10
  -3 -14  -7  209.68   16.50
   3  14   7  215.28   12.70
   3  14   7  184.98   15.20
  -4 -14  -7  238.48   18.70
   4  14   7  198.58   13.60
   4  14   7  237.28   16.60
  -5 -14  -7   31.70    7.90
   5  14   7   32.60    7.60
   5  14   7   36.60    8.00
  -6 -14  -7    2.00    5.10
   6  14   7    3.20    4.70
   6  14   7    6.10    5.50
   3 -15  -7   13.10    5.80
  -3  15   7   14.40    7.10
   2 -15  -7   41.80   15.00
  -2  15   7   53.79   11.30
  -1  15   7  200.88   17.80
  -1 -15  -7   77.79   12.80
   1  15   7   68.39    6.20
   1  15   7   95.79   15.20
   1  15   7   69.09    5.90
  -2 -15  -7  158.08   15.20
  -2 -15  -7  103.89    8.70
   2  15   7  127.09   15.40
   2  15   7  140.49    9.50
  -3 -15  -7   73.49   11.80
   3  15   7   87.39    8.80
   3  15   7   75.89   12.10
  -4 -15  -7   11.90    6.10
   4  15   7    3.20    4.00
   4  15   7    3.90    4.40
  -1  12  -8   52.39   11.30
  -1  12  -8   47.70    9.60
   1 -12   8   52.89    8.40
  -2  12  -8    2.50    5.30
  -2  12  -8    2.50    5.20
   2 -12   8    7.40    5.20
  -3  12  -8   21.20    7.80
   3  11  -8   32.40    5.70
   3  11  -8   50.39   11.70
  -3 -11   8   34.40    8.10
   2  11  -8    8.10    4.20
   2  11  -8    7.30    6.20
  -2 -11   8   12.50    6.00
   1  11  -8  230.18   18.40
   1  11  -8  257.87   14.80
  -1 -11   8  242.38   15.40
   0  11  -8   38.90    9.80
   0  11  -8   28.30    7.10
   0 -11   8   48.80    7.90
  -1  11  -8   -5.40    3.90
  -1  11  -8   -1.00    4.60
   1 -11   8    9.90    4.80
  -2  11  -8   -1.80    4.20
  -2  11  -8    3.80    5.30
   2 -11   8   -3.30    3.40
  -3  11  -8   90.39   12.60
  -3  11  -8  122.79   15.00
   3 -11   8  113.99    9.70
  -4  11  -8   24.20    7.90
  -4  11  -8   30.70    8.20
  -5  11  -8    7.20    6.40
  -5  11  -8   22.50    8.10
   5 -11   8   12.10    4.30
  -6  11  -8   71.79   11.80
  -6  11  -8   95.89   16.40
   6 -11   8   76.69    7.10
   5  10  -8  123.19   16.40
  -5 -10   8  164.58   14.50
   4  10  -8    5.30    9.10
   4  10  -8   -0.70    1.80
  -4 -10   8    8.30    5.70
   3  10  -8    8.40    6.30
   3  10  -8    9.30    3.60
  -3 -10   8    0.90    2.50
  -3 -10   8    7.80    5.40
   2  10  -8   77.79    8.70
   2  10  -8   76.59   11.90
  -2 -10   8   58.09    6.80
  -2 -10   8   86.89   10.70
   1  10  -8   85.59   12.90
   1  10  -8   88.79   10.20
  -1 -10   8  103.29   11.30
   0  10  -8    5.80    4.30
   0  10  -8   21.50    7.50
   0 -10   8   19.90    5.80
  -1  10  -8   10.50    5.90
  -1  10  -8    1.80    4.20
   1 -10   8   -0.40    3.40
  -2  10  -8   26.30    7.40
  -2  10  -8   19.70    6.80
   2 -10   8   26.50    5.60
  -3  10  -8   51.99   10.30
  -3  10  -8   45.90    9.60
   3 -10   8   62.99    7.70
  -4  10  -8   32.20    7.50
  -4  10  -8   37.60    8.70
  -4  10  -8   36.90    9.40
   4 -10   8   34.80    5.70
  -5  10  -8   27.20    8.10
  -5  10  -8   24.80    7.60
  -5  10  -8   19.30    4.50
   5 -10   8   31.70    5.20
  -6  10  -8  146.59   14.00
  -6  10  -8  111.49   15.40
   6 -10   8  131.69    8.10
   6 -10   8  127.19    8.20
  -7  10  -8    5.70    5.60
   7 -10   8   -0.80    2.30
   7 -10   8    2.60    2.30
  -8  10  -8   28.50    7.70
  -8  10  -8   44.70   10.40
   8 -10   8   35.10    3.70
   8 -10   8   28.90    3.60
   6   9  -8  152.38   19.40
  -6  -9   8  160.48   14.50
  -5  -9   8    2.80    5.20
   4   9  -8   16.50    6.90
  -4  -9   8   16.20    5.70
   3   9  -8  209.38   17.20
   3   9  -8  209.28    9.80
  -3  -9   8  218.08   14.40
  -3  -9   8  201.58    8.70
   2   9  -8  142.99   14.20
   2   9  -8  176.28   10.10
  -2  -9   8  146.09    8.40
  -2  -9   8  185.38   12.90
   1   9  -8   11.90    6.40
   1   9  -8    2.80    3.50
  -1  -9   8    3.30    3.10
  -1  -9   8   -1.10    3.70
   0   9  -8   17.60    5.40
   0   9  -8   27.30    8.10
   0  -9   8   28.20    6.10
  -1   9  -8  454.65   23.00
  -1   9  -8  443.06   20.10
   1  -9   8  447.36   18.00
  -2   9  -8    8.80    5.30
  -2   9  -8   11.00    5.40
   2  -9   8   18.10    4.80
  -3   9  -8  155.88   13.10
  -3   9  -8  167.48   13.80
  -3   9  -8  120.39    9.50
   3  -9   8  150.38    9.40
  -4   9  -8   22.60    4.90
  -4   9  -8   48.40    9.90
  -4   9  -8   34.20    8.20
   4  -9   8   29.10    5.00
  -5   9  -8   84.69    7.10
  -5   9  -8   94.39   12.90
  -5   9  -8  120.69   12.20
   5  -9   8  103.19    7.10
  -6   9  -8   -2.10    3.90
  -6   9  -8    2.60    5.80
   6  -9   8    6.00    2.60
   6  -9   8    3.50    2.70
  -7   9  -8  136.39   13.10
  -7   9  -8  100.89   15.10
   7  -9   8  100.59    5.70
   7  -9   8  115.29    6.10
  -8   9  -8    6.20   10.30
  -8   9  -8    3.20    5.20
   8  -9   8    3.40    4.90
   8  -9   8    2.80    2.90
  -9   9  -8   -0.30    5.20
   9  -9   8   13.00    6.40
   7   8  -8   38.00   10.30
  -7  -8   8   43.30    8.90
  -6  -8   8   -0.20    4.90
   5   8  -8    1.70    5.20
  -5  -8   8    7.60    5.10
   4   8  -8   88.79   13.60
  -4  -8   8   72.59    9.30
   3   8  -8  157.38    7.80
   3   8  -8  169.68   15.20
  -3  -8   8  162.38    7.10
  -3  -8   8  177.38   12.80
   2   8  -8  124.89    8.20
   2   8  -8  132.89   15.70
  -2  -8   8  117.29    7.00
  -2  -8   8  125.39   10.50
   1   8  -8   64.59    7.40
   1   8  -8   55.29    9.20
  -1  -8   8   56.19    8.20
  -1  -8   8   58.59    8.00
   0   8  -8  123.19   12.30
   0   8  -8  138.49   10.10
   0  -8   8  134.29   12.70
   0  -8   8  104.89    7.80
  -1   8  -8   17.20    5.90
  -1   8  -8   18.40    5.20
   1  -8   8   22.70    4.70
  -2   8  -8   16.70    6.00
  -2   8  -8   34.60    7.60
  -2   8  -8   16.50    4.50
   2  -8   8   15.50    4.30
  -3   8  -8  132.89   12.30
  -3   8  -8  118.69   11.20
  -3   8  -8   87.99   11.20
   3  -8   8  109.69    7.70
  -4   8  -8   64.39    6.10
  -4   8  -8   61.39    9.40
  -4   8  -8   57.59    9.00
   4  -8   8   63.19    5.80
  -5   8  -8   12.70    3.30
  -5   8  -8    2.20    5.00
  -5   8  -8   11.40    5.70
   5  -8   8   11.30    3.20
  -6   8  -8  290.67   17.90
  -6   8  -8  297.47   18.90
   6  -8   8  276.67   10.10
   6  -8   8  296.07   10.10
  -7   8  -8   63.59   10.60
   7  -8   8   76.29    4.20
   7  -8   8   80.79   11.60
  -8   8  -8   54.09   10.80
   8  -8   8   32.70    8.40
   9  -8   8   -2.10    4.10
 -10   8  -8   39.00   10.30
  10  -8   8   30.80    7.90
   8   7  -8    9.90    7.10
  -8  -7   8    9.10    6.30
   7   7  -8    5.70    8.50
  -7  -7   8   -4.70    4.20
   6   7  -8  132.09   15.90
  -6  -7   8  185.78   14.20
   5   7  -8   87.79   13.70
  -5  -7   8   56.29    9.30
   4   7  -8   72.49   12.00
  -4  -7   8   57.39    8.20
   3   7  -8   86.79   11.20
   3   7  -8  101.89    5.60
  -3  -7   8  101.49    4.80
  -3  -7   8  107.19   10.00
   2   7  -8   48.80    5.70
   2   7  -8   38.60    7.90
  -2  -7   8   41.40    6.70
  -2  -7   8   34.00    4.30
   1   7  -8  153.58    9.10
   1   7  -8  150.88   13.30
  -1  -7   8  146.59    7.90
   0   7  -8   70.19    9.90
   0   7  -8   84.89    7.70
   0  -7   8   92.49    8.00
  -1   7  -8   15.10    5.80
  -1   7  -8    6.40    3.20
  -1   7  -8   10.60    4.30
   1  -7   8   11.70    3.60
   1  -7   8    8.10    3.40
  -2   7  -8   42.60    7.20
  -2   7  -8   49.70   10.30
  -2   7  -8   41.00    7.70
   2  -7   8   43.20    5.60
  -3   7  -8   16.30    5.30
  -3   7  -8   14.40    3.60
  -3   7  -8   17.00    6.40
   3  -7   8   12.90    3.50
  -4   7  -8    6.60    2.60
  -4   7  -8    1.30    4.00
  -4   7  -8    2.30    4.00
   4  -7   8    4.00    2.50
  -5   7  -8  221.28   15.00
  -5   7  -8  213.98   15.00
   5  -7   8  204.18    8.60
   5  -7   8  217.88    8.40
  -6   7  -8  126.09   15.20
   6  -7   8   96.29    4.90
   6  -7   8  110.09   13.60
  -7   7  -8   79.59   12.40
   7  -7   8   74.69    3.10
   7  -7   8   83.49   11.80
   7  -7   8   78.49    3.10
  -8   7  -8   11.40    6.50
   8  -7   8    9.60    5.30
  -9   7  -8  125.89   16.10
   9  -7   8  135.99   13.60
 -10   7  -8    8.90    7.80
  10  -7   8   -3.20    4.20
 -11   7  -8   17.40    8.00
  11  -7   8   17.10    7.40
   8   6  -8   51.99   11.60
  -8  -6   8   53.99   10.20
   7   6  -8  314.67   21.50
  -7  -6   8  316.77   18.50
   6   6  -8  135.99   16.90
  -6  -6   8  126.49   12.10
   5   6  -8   10.70    5.90
  -5  -6   8   11.00    5.20
   4   6  -8  100.29   13.40
  -4  -6   8   74.19    9.20
   3   6  -8  202.28   14.90
   3   6  -8  181.48    6.50
  -3  -6   8  192.48    5.90
  -3  -6   8  183.98   12.00
   2   6  -8  114.89   11.60
   2   6  -8  108.29    6.40
  -2  -6   8  115.39    5.60
  -2  -6   8   97.09    8.90
   1   6  -8  110.49    7.20
   1   6  -8  109.79   13.10
  -1  -6   8  107.29    6.30
  -1  -6   8  106.79    8.40
   0   6  -8  314.27   14.10
   0   6  -8  327.07   13.60
   0   6  -8  344.67   18.00
   0  -6   8  325.37   12.40
   0  -6   8  345.87   13.90
  -1   6  -8  213.58   14.30
  -1   6  -8  205.58   11.30
  -1   6  -8  196.68   11.70
   1  -6   8  213.48   10.20
   1  -6   8  215.88   11.80
  -2   6  -8   11.80    4.50
  -2   6  -8   10.20    3.10
   2  -6   8   13.00    3.60
   2  -6   8   13.20    3.20
  -3   6  -8   20.60    5.90
  -3   6  -8   17.10    3.60
   3  -6   8   14.60    3.10
  -4   6  -8  400.96   13.30
  -4   6  -8  398.96   27.90
  -4   6  -8  422.06   19.30
   4  -6   8  423.76   12.50
  -5   6  -8  184.08   13.10
   5  -6   8  165.08    6.70
   5  -6   8  201.48   14.10
  -6   6  -8   22.30    6.90
   6  -6   8    8.40    1.40
   6  -6   8    3.30    3.90
   6  -6   8    7.40    1.30
  -7   6  -8   17.00    6.70
   7  -6   8    9.10    5.30
  -8   6  -8  334.77   20.20
   8  -6   8  280.27   17.80
  -9   6  -8   -6.30    3.60
   9  -6   8    3.20    4.70
 -10   6  -8   16.70    7.20
  10  -6   8    2.70    5.20
 -11   6  -8   14.50    7.90
  11  -6   8   16.10    7.00
   9   5  -8    1.90    5.70
  -9  -5   8    5.20    5.10
   8   5  -8  273.27   20.40
  -8  -5   8  259.57   16.90
   7   5  -8  102.59   14.50
  -7  -5   8   87.39   10.70
   6   5  -8    1.70    4.50
  -6  -5   8    0.40    3.90
   5   5  -8   53.59   10.30
  -5  -5   8   58.99    8.90
   4   5  -8  230.88   16.00
  -4  -5   8  240.58   13.60
   3   5  -8   25.20    7.30
   3   5  -8   17.10    1.50
  -3  -5   8   16.50    4.70
   2   5  -8  213.28    8.40
   2   5  -8  205.38   14.30
  -2  -5   8  198.78    7.00
  -2  -5   8  201.58   11.30
   1   5  -8   52.49    5.60
   1   5  -8   43.90    8.10
   1   5  -8   43.20    5.80
  -1  -5   8   43.70    3.90
  -1  -5   8   45.70    6.20
   0   5  -8  679.63   26.00
   0   5  -8  702.23   20.70
   0  -5   8  702.73   21.00
   0  -5   8  651.83   19.10
  -1   5  -8   88.89    7.10
  -1   5  -8   82.09    6.40
  -1   5  -8   63.09    8.80
   1  -5   8   84.79    6.20
   1  -5   8   72.69    5.90
  -2   5  -8   26.30    4.10
  -2   5  -8   21.40    5.80
  -2   5  -8   34.60    5.60
   2  -5   8   24.20    3.70
   2  -5   8   20.60    4.30
  -3   5  -8  643.04   22.20
  -3   5  -8  662.83   25.00
  -3   5  -8  621.84   17.90
   3  -5   8  588.14   20.30
   3  -5   8  622.94   16.80
  -4   5  -8  138.39   10.40
  -4   5  -8  139.79    6.30
   4  -5   8  134.59   11.40
   4  -5   8  141.29    8.10
  -5   5  -8   42.40    7.80
   5  -5   8   41.90    2.60
   5  -5   8   49.99    8.50
   5  -5   8   41.30    2.50
  -6   5  -8   37.80    8.10
   6  -5   8   44.00    8.20
  -7   5  -8  277.07   17.30
   7  -5   8  286.37   17.00
  -8   5  -8   79.89   11.60
   8  -5   8   60.69   10.10
  -9   5  -8   10.90    6.10
   9  -5   8   12.70    6.20
 -10   5  -8   47.40   10.10
  10  -5   8   75.29   12.60
 -11   5  -8   54.69   11.60
  11  -5   8   65.19   11.40
 -12   5  -8    5.30    6.80
  12  -5   8    8.60    6.30
  10   4  -8    2.30    6.40
 -10  -4   8    1.50    4.90
   9   4  -8  113.19   20.70
  -9  -4   8  150.68   20.90
   8   4  -8   16.80    7.10
  -8  -4   8   20.40    6.80
   7   4  -8    3.90    5.10
  -7  -4   8   -2.30    3.30
   6   4  -8   49.50   10.00
  -6  -4   8   39.60    6.80
   5   4  -8   49.99    8.70
  -5  -4   8   56.89    8.00
   4   4  -8    0.60    3.50
  -4  -4   8    7.40    3.70
   3   4  -8  132.79   11.40
  -3  -4   8  118.89    9.10
   2   4  -8  405.96   11.40
   2   4  -8  389.06   15.60
  -2  -4   8  424.36   16.00
  -2  -4   8  397.96   10.90
   1   4  -8  974.90   24.10
   1   4  -8  930.91   26.70
   1   4  -8  951.60   31.60
  -1  -4   8  977.30   26.80
  -1  -4   8  920.31   22.80
   0   4  -8  188.68    9.20
   0   4  -8  196.08    8.90
   0   4  -8  172.08   12.00
   0  -4   8  187.88    9.30
   0  -4   8  191.38    8.00
  -1   4  -8   11.70    4.50
  -1   4  -8    8.30    3.20
  -1   4  -8    9.30    2.70
  -1   4  -8    7.50    3.60
   1  -4   8    6.50    2.40
   1  -4   8   12.50    3.00
  -2   4  -8  252.77   14.20
  -2   4  -8  230.58    9.30
  -2   4  -8  239.18   11.60
  -2   4  -8  244.48   13.80
   2  -4   8  266.17    9.30
   2  -4   8  246.28   10.80
  -3   4  -8  150.88    6.60
  -3   4  -8  147.79   10.70
  -3   4  -8  148.39    9.60
   3  -4   8  150.48    6.30
   3  -4   8  138.59    8.50
   3  -4   8  139.49   11.00
  -4   4  -8   91.39    8.30
  -4   4  -8   92.79    4.20
   4  -4   8   97.59    3.80
   4  -4   8   94.59    7.40
   4  -4   8   89.49    9.10
  -5   4  -8  203.28   12.30
   5  -4   8  207.38   13.50
  -6   4  -8  299.97   15.90
   6  -4   8  304.97   17.90
  -7   4  -8   20.10    5.90
   7  -4   8   18.10    5.80
  -8   4  -8   29.10    8.10
   8  -4   8   21.60    6.70
  -9   4  -8    2.20    5.40
   9  -4   8   -0.70    3.90
 -10   4  -8  112.19   14.20
  10  -4   8  140.89   14.10
 -11   4  -8   11.40    7.40
  11  -4   8    3.20    5.60
 -12   4  -8    5.80    7.00
  12  -4   8   14.10    6.50
  10   3  -8   87.29   14.70
 -10  -3   8   80.89   12.10
   9   3  -8   -2.70    4.70
  -9  -3   8   10.10    5.60
   8   3  -8   58.69   11.20
  -8  -3   8   71.99   10.40
   7   3  -8  201.88   15.90
  -7  -3   8  187.08   13.50
   6   3  -8  506.75   23.90
  -6  -3   8  482.35   20.70
   5   3  -8   36.10    8.10
  -5  -3   8   37.70    6.40
   4   3  -8  363.46   18.50
  -4  -3   8  333.37   15.40
   3   3  -8   58.19    8.10
  -3  -3   8   89.39    7.60
   2   3  -8  151.88    8.90
   2   3  -8  160.58    5.60
   2   3  -8  145.19   11.00
   2   3  -8  157.88    5.30
  -2  -3   8  162.08    9.30
   1   3  -8   74.49    4.60
   1   3  -8   64.29    8.20
   1   3  -8   93.29    8.70
   1   3  -8   65.49    5.80
  -1  -3   8   70.99    4.10
  -1  -3   8   70.19    6.00
   0   3  -8   51.79    7.30
   0   3  -8   77.19    5.40
   0   3  -8  102.59   11.00
   0   3  -8   78.99    5.60
   0  -3   8   78.19    5.70
   0  -3   8   76.09    4.80
  -1   3  -8  159.78   10.90
  -1   3  -8  157.58   10.90
  -1   3  -8  157.38    7.30
  -1   3  -8  154.38    8.20
   1  -3   8  166.38    7.60
   1  -3   8  148.79    7.10
  -2   3  -8  197.38   12.00
  -2   3  -8  207.68   10.10
  -2   3  -8  204.48   12.30
  -2   3  -8  210.68    7.90
   2  -3   8  203.78   12.80
   2  -3   8  208.68    9.30
   2  -3   8  204.48    7.50
  -3   3  -8  142.99   10.30
  -3   3  -8  165.98    6.30
  -3   3  -8  188.98   10.00
   3  -3   8  151.68   11.00
   3  -3   8  172.78    5.80
  -4   3  -8   86.99    8.10
  -4   3  -8   88.59    9.40
  -4   3  -8   88.79    2.80
   4  -3   8   78.49    2.70
   4  -3   8   83.39    6.70
   4  -3   8   87.59    8.80
  -5   3  -8  286.87   16.80
  -5   3  -8  321.87   14.80
   5  -3   8  302.97   16.00
   6  -3   8  390.26   18.90
  -7   3  -8  114.79   10.30
   7  -3   8  111.99   10.90
  -8   3  -8  135.59   12.10
   8  -3   8  143.89   12.40
  -9   3  -8   43.90    8.60
   9  -3   8   44.90    8.80
 -10   3  -8   42.80    9.30
  10  -3   8   18.00    6.60
 -11   3  -8  215.68   17.20
  11  -3   8  233.08   17.60
 -12   3  -8   -4.40    5.20
  12  -3   8    5.50    2.00
  12  -3   8    1.10    5.10
 -13   3  -8   14.70    7.90
  10   2  -8   22.30    8.10
 -10  -2   8   13.90    6.20
   9   2  -8   56.99   10.70
  -9  -2   8   54.69    9.20
   8   2  -8    0.40    4.80
  -8  -2   8   -0.60    4.10
   7   2  -8  913.11   33.90
  -7  -2   8  874.91   30.20
   6   2  -8   75.19   11.30
  -6  -2   8   74.59    9.40
   5   2  -8  141.49   11.80
  -5  -2   8  144.89   10.30
   4   2  -8 1173.68   37.30
  -4  -2   8 1146.39   33.00
   3   2  -8  311.17   15.90
   3   2  -8  294.87   13.10
  -3  -2   8  319.97   13.70
   2   2  -8    1.90    2.50
   2   2  -8    0.10    1.10
   2   2  -8    0.90    2.60
   2   2  -8    1.50    1.10
  -2  -2   8    2.70    3.00
  -2  -2   8    5.70    3.00
   1   2  -8   15.90    3.40
   1   2  -8   19.10    3.90
   1   2  -8   17.30    4.40
   1   2  -8   16.50    4.50
   1   2  -8   17.90    2.50
  -1  -2   8   20.80    4.00
   0   2  -8   88.49    8.10
   0   2  -8   96.79    5.50
   0   2  -8   87.69    5.70
   0   2  -8  101.09    8.50
   0  -2   8   86.99    4.90
   0  -2   8   94.39    6.00
  -1   2  -8 1157.78   28.50
  -1   2  -8 1101.19   26.80
  -1   2  -8 1132.99   33.30
  -1   2  -8 1142.59   33.70
   1  -2   8 1118.29   27.60
   1  -2   8 1117.39   26.90
  -2   2  -8 1822.02   40.40
  -2   2  -8 1895.41   49.10
  -2   2  -8 1941.61   44.60
   2  -2   8 1864.01   43.50
  -3   2  -8   11.80    3.50
  -3   2  -8    9.50    1.60
  -3   2  -8    8.10    3.70
   3  -2   8    8.90    3.00
   3  -2   8    5.10    3.40
   3  -2   8   10.40    1.60
  -4   2  -8  308.27   13.50
  -4   2  -8  294.47   14.40
   4  -2   8  292.67   12.40
   4  -2   8  319.57   15.50
  -5   2  -8  300.07   14.80
  -5   2  -8  325.07   14.60
   5  -2   8  311.47   15.90
  -6   2  -8  100.69    8.80
   6  -2   8  109.39    9.90
  -7   2  -8  588.54   22.50
  -8   2  -8  118.69   10.50
   8  -2   8  111.69   13.20
  -9   2  -8  119.79   11.30
   9  -2   8  138.29   13.00
 -10   2  -8  239.28   16.10
  10  -2   8  213.08    6.90
  10  -2   8  240.58    7.10
  10  -2   8  260.17   17.90
 -11   2  -8    0.00    5.50
  11  -2   8   11.60    6.50
  11  -2   8    1.10    1.80
 -12   2  -8   22.50    3.50
 -12   2  -8   14.50    7.40
  12  -2   8   21.30    8.40
  12  -2   8   21.20    3.50
 -13   2  -8    7.80    2.80
 -13   2  -8   12.40    7.40
  13  -2   8    6.00    3.00
  13  -2   8   22.00   13.20
  11   1  -8   59.39   11.60
 -11  -1   8   63.59   11.10
  10   1  -8    4.60    5.30
 -10  -1   8    1.10    5.10
   9   1  -8   57.59   10.10
  -9  -1   8   77.19   11.30
   8   1  -8  567.74   26.10
  -8  -1   8  563.44   23.70
   7   1  -8   -0.80    3.90
  -7  -1   8    2.90    4.10
   6   1  -8   93.99   11.20
  -6  -1   8   77.89    9.30
  -5  -1   8   21.30    4.90
   4   1  -8  493.05   20.30
  -4  -1   8  451.95   17.60
   3   1  -8   19.00    3.80
   3   1  -8   25.90    6.00
  -3  -1   8   14.70    3.80
  -3  -1   8   16.30    4.10
   2   1  -8  906.51   25.50
   2   1  -8  907.81   28.60
   2   1  -8  926.21   21.10
   2   1  -8  944.61   20.60
  -2  -1   8  936.51   25.70
  -2  -1   8  880.11   28.20
   1   1  -8  192.88    7.10
   1   1  -8  199.08   11.40
   1   1  -8  184.28    8.60
   1   1  -8  191.48    7.40
  -1  -1   8  187.88    8.80
   0   1  -8  382.76   11.70
   0   1  -8  362.06   12.20
   0   1  -8  408.76   16.50
   0   1  -8  389.66   16.40
   0   1  -8  374.86   11.70
   0  -1   8  388.96   12.60
  -1   1  -8  223.28   11.80
  -1   1  -8  219.18    7.90
  -1   1  -8  205.18   11.40
  -1   1  -8  217.68    8.90
   1  -1   8  199.48    8.40
   1  -1   8  210.28   11.90
   1  -1   8  213.68    8.10
  -2   1  -8   26.90    2.60
  -2   1  -8   21.40    3.70
  -2   1  -8   31.10    5.70
   2  -1   8   29.20    3.00
   2  -1   8   20.50    3.60
   2  -1   8   25.70    5.40
  -3   1  -8  104.49    3.70
  -3   1  -8   85.29    8.30
  -3   1  -8  102.79    6.90
   3  -1   8  101.09    6.50
   3  -1   8   97.69    3.90
   3  -1   8  102.19    8.30
  -4   1  -8  657.83   22.70
  -4   1  -8  665.03   21.00
   4  -1   8  668.43   23.60
  -5   1  -8  453.45   18.40
  -5   1  -8  471.95   17.60
   5  -1   8  443.86   16.60
   5  -1   8  493.65   19.80
  -6   1  -8 1060.69   31.30
   6  -1   8 1047.20   33.50
   7  -1   8  376.46   18.70
  -8   1  -8   79.39    8.90
   8  -1   8   88.99    3.30
   8  -1   8  100.39   12.20
  -9   1  -8  123.49   11.00
  -9   1  -8  125.39    5.10
   9  -1   8  125.59    5.20
   9  -1   8  103.29   13.00
 -10   1  -8  292.67    9.80
 -10   1  -8  306.17   17.30
  10  -1   8  319.07   19.70
  10  -1   8  297.57   10.10
 -11   1  -8   28.70    8.20
 -11   1  -8   24.00    3.60
  11  -1   8   17.40    7.70
  11  -1   8   12.40    2.90
 -12   1  -8   -1.20    2.00
 -12   1  -8   -4.00    4.60
  12  -1   8   -2.70    2.00
  12  -1   8    7.60    5.60
 -13   1  -8   59.39    5.80
 -13   1  -8   46.10   11.50
  13  -1   8  100.59   20.90
  13  -1   8   51.09    6.20
  11   0  -8   30.60    9.50
 -11   0   8   27.20    7.90
  10   0  -8    1.10    5.50
 -10   0   8   11.40    1.70
 -10   0   8   14.20    2.00
 -10   0   8   16.90    6.20
   9   0  -8   20.40    7.00
  -9   0   8   20.40    2.30
  -9   0   8   11.00    5.40
   8   0  -8   17.50    6.30
  -8   0   8   15.20    2.00
  -8   0   8   15.80    5.60
   7   0  -8  130.29   11.90
   7   0  -8  121.99    4.10
  -7   0   8  119.29    4.10
  -7   0   8  143.29   11.50
   6   0  -8  346.27   17.90
   6   0  -8  333.67    8.10
  -6   0   8  326.57   16.00
  -6   0   8  336.47    8.00
   5   0  -8    3.70    3.70
   5   0  -8    5.90    1.20
  -5   0   8    5.00    3.80
   4   0  -8    9.00    1.60
   4   0  -8    2.60    3.10
  -4   0   8   15.00    3.90
  -4   0   8   14.10    4.30
   3   0  -8   71.69    3.40
   3   0  -8   72.19    3.70
   3   0  -8   77.79    7.50
   3   0  -8   66.99    6.00
  -3   0   8   69.29    6.50
  -3   0   8   75.29    7.10
   2   0  -8  302.97   14.00
   2   0  -8  311.37   12.20
   2   0  -8  311.07    9.70
   2   0  -8  319.57    9.00
  -2   0   8  293.57   13.60
  -2   0   8  313.37   12.50
   1   0  -8  181.98    8.40
   1   0  -8  191.98   10.70
   1   0  -8  188.68    7.40
   1   0  -8  196.98    7.30
   1   0  -8  206.18   11.20
  -1   0   8  185.78    8.80
   0   0  -8   27.80    3.60
   0   0  -8   23.60    4.40
   0   0  -8   22.30    3.20
   0   0  -8   21.00    4.50
   0   0  -8   24.90    3.30
   0   0   8   24.10    3.50
  -1   0  -8  478.75   14.40
  -1   0  -8  502.95   18.10
  -1   0  -8  480.25   14.60
  -1   0  -8  465.85   13.40
   1   0   8  489.75   13.90
   1   0   8  487.95   18.20
  -2   0  -8   95.19    7.40
  -2   0  -8   98.69    6.10
  -2   0  -8   92.49    4.30
   2   0   8   96.59    7.70
   2   0   8   86.19    5.70
   2   0   8   85.49    4.60
  -3   0  -8   82.39    3.90
  -3   0  -8   71.69    8.10
  -3   0  -8   79.29    6.00
  -3   0  -8   78.79    3.50
   3   0   8   70.79    5.60
   3   0   8   88.69    7.60
  -4   0  -8  942.51   19.50
  -4   0  -8  903.31   25.80
  -4   0  -8  905.51   19.10
   4   0   8  926.61   28.60
   4   0   8  890.61   25.40
  -5   0  -8  116.29    8.80
  -5   0  -8  121.99    8.30
   5   0   8  132.49    9.90
   5   0   8  128.79    8.00
  -6   0  -8   39.70    1.70
  -6   0  -8   40.40    6.20
  -6   0  -8   31.10    5.10
   6   0   8   46.20    6.10
   6   0   8   58.19    8.90
  -7   0  -8   49.60    2.70
  -7   0  -8   51.69    6.60
   7   0   8   77.79   10.30
   7   0   8   49.60    2.90
  -8   0  -8  114.89    4.90
  -8   0  -8  107.29    9.60
   8   0   8   99.29   12.00
  -9   0  -8   94.39    5.10
  -9   0  -8  111.39   12.50
   9   0   8   91.59   12.00
   9   0   8   92.99    5.40
 -10   0  -8    3.50    4.40
 -10   0  -8   -0.40    1.90
  10   0   8    1.90    2.20
  10   0   8   -0.30    4.40
 -11   0  -8   44.40    5.10
 -11   0  -8   46.20    8.40
  11   0   8   42.00    9.10
  11   0   8   40.90    5.10
 -12   0  -8  119.19   13.80
 -12   0  -8  100.79    7.00
  12   0   8   90.39    7.20
  12   0   8  115.69   16.00
 -13   0  -8    1.40    2.30
 -13   0  -8   -0.60    5.10
  13   0   8   -2.70    2.40
  11  -1  -8   87.09    7.70
  11  -1  -8  103.79   14.20
 -11   1   8   89.19   12.40
 -11   1   8   91.09    6.50
  10  -1  -8   10.10    6.40
  10  -1  -8    7.50    2.80
 -10   1   8    4.10    4.90
 -10   1   8    9.50    3.00
   9  -1  -8   11.60    5.90
  -9   1   8    0.20    2.10
  -9   1   8    7.30    4.50
   8  -1  -8  787.12   29.50
   8  -1  -8  740.13   19.30
  -8   1   8  763.72   20.70
  -8   1   8  735.93   28.10
   7  -1  -8  235.98    8.50
   7  -1  -8  257.97   15.30
  -7   1   8  238.48    9.20
  -7   1   8  243.68   14.50
   6  -1  -8  182.78    7.10
   6  -1  -8  189.48   12.40
  -6   1   8  200.88    8.20
  -6   1   8  186.28   12.10
   5  -1  -8  439.36   12.50
   5  -1  -8  470.65   19.10
  -5   1   8  488.65   15.40
  -5   1   8  437.56   18.50
  -5   1   8  428.86   20.70
   4  -1  -8  671.83   17.00
   4  -1  -8  644.54   23.10
   4  -1  -8  683.53   23.20
  -4   1   8  660.03   22.70
  -4   1   8  681.03   22.30
  -4   1   8  654.13   17.10
   3  -1  -8    1.30    2.40
   3  -1  -8    7.40    2.60
   3  -1  -8    7.80    2.10
  -3   1   8    5.50    2.80
  -3   1   8    8.40    3.20
  -3   1   8    8.10    2.10
   2  -1  -8  528.05   18.70
   2  -1  -8  538.35   17.10
   2  -1  -8  548.15   15.30
  -2   1   8  544.95   17.80
  -2   1   8  551.74   16.00
  -2   1   8  534.05   18.60
   1  -1  -8   -0.10    1.80
   1  -1  -8    3.70    1.80
   1  -1  -8    3.60    2.10
   1  -1  -8    4.50    2.40
  -1   1   8    0.00    1.50
  -1   1   8    2.50    2.00
   0  -1  -8 1173.38   28.20
   0  -1  -8 1196.78   32.20
   0  -1  -8 1174.88   32.00
   0  -1  -8 1189.48   29.00
   0  -1  -8 1204.18   28.60
   0   1   8 1177.98   29.30
  -1  -1  -8  438.66   12.70
  -1  -1  -8  434.96   13.50
  -1  -1  -8  427.16   13.90
  -1  -1  -8  442.66   16.20
   1   1   8  429.16   16.20
   1   1   8  429.16   13.30
  -2  -1  -8   12.40    3.70
  -2  -1  -8   14.60    2.30
  -2  -1  -8    9.90    2.40
  -2  -1  -8   11.60    2.70
   2   1   8    8.00    3.00
   2   1   8   12.20    2.60
  -3  -1  -8 2782.12   58.69
  -3  -1  -8 2670.53   62.89
  -3  -1  -8 2722.03   57.09
  -3  -1  -8 2736.03   60.79
  -3  -1  -8 2724.53   60.39
   3   1   8 2611.64   60.29
   3   1   8 2693.93   63.79
  -4  -1  -8  362.76   15.10
  -4  -1  -8  372.16   10.30
  -4  -1  -8  359.16   10.00
  -4  -1  -8  359.96   13.60
   4   1   8  387.76   16.20
   4   1   8  363.26   13.80
  -5  -1  -8  176.98    5.80
  -5  -1  -8  165.08   10.30
  -5  -1  -8  172.08    9.50
   5   1   8  172.58    9.40
   5   1   8  174.48   11.10
   5   1   8  173.08    6.00
  -6  -1  -8  467.25   11.90
  -6  -1  -8  478.55   17.60
  -6  -1  -8  426.26   18.10
   6   1   8  465.45   17.30
   6   1   8  475.75   19.90
   6   1   8  463.55   13.70
  -7  -1  -8  332.87   15.00
  -7  -1  -8  324.27   10.20
   7   1   8  325.67   17.00
   7   1   8  325.17   10.50
  -8  -1  -8  247.58   13.50
  -8  -1  -8  254.27    8.70
   8   1   8  254.17    9.60
   8   1   8  249.68   15.70
  -9  -1  -8   55.69    4.60
  -9  -1  -8   49.99    7.30
   9   1   8   58.29    9.80
   9   1   8   54.69    5.00
 -10  -1  -8   12.70    3.10
 -10  -1  -8   18.40    6.20
  10   1   8   12.90    5.70
  10   1   8    8.60    3.10
 -11  -1  -8  192.48   14.10
 -11  -1  -8  180.28    8.90
  11   1   8  159.78    9.40
  11   1   8  191.08   16.30
 -12  -1  -8   19.00    4.20
 -12  -1  -8   26.70    7.50
  12   1   8    6.30    5.90
  12   1   8   14.20    4.30
 -13  -1  -8   40.30    8.90
 -13  -1  -8   48.00    6.20
  13   1   8   41.40   14.20
  11  -2  -8   49.80    9.90
 -11   2   8   39.20    8.60
 -11   2   8   33.30    5.60
  10  -2  -8   23.20    4.40
  10  -2  -8   30.60    8.00
 -10   2   8   28.90    5.50
 -10   2   8   24.40    6.90
   9  -2  -8  126.29    7.50
   9  -2  -8  157.28   13.50
  -9   2   8  154.28   12.80
  -9   2   8  151.38    9.10
   8  -2  -8  769.82   28.20
   8  -2  -8  724.73   20.60
  -8   2   8  728.43   27.70
  -8   2   8  720.63   22.10
   7  -2  -8   20.70    5.80
   7  -2  -8   17.20    3.40
  -7   2   8   16.20    3.70
  -7   2   8   20.10    5.70
   6  -2  -8   21.40    5.40
   6  -2  -8   21.10    3.70
  -6   2   8   16.20    4.80
  -6   2   8   18.20    3.70
  -6   2   8   26.40    5.90
   5  -2  -8  629.24   17.70
   5  -2  -8  665.33   22.50
  -5   2   8  629.44   18.40
  -5   2   8  667.43   23.20
  -5   2   8  592.34   21.70
   4  -2  -8  204.18   11.10
   4  -2  -8  218.38    8.60
  -4   2   8  183.18   10.50
  -4   2   8  205.68   11.20
  -4   2   8  205.78    8.70
   3  -2  -8   14.80    3.00
   3  -2  -8   14.70    3.30
   3  -2  -8   18.10    4.10
  -3   2   8   11.30    3.50
  -3   2   8   21.10    3.40
  -3   2   8   13.70    3.40
   2  -2  -8   62.39    4.90
   2  -2  -8   81.89    6.50
   2  -2  -8   65.59    5.40
   2  -2  -8   71.69    6.20
  -2   2   8   66.29    4.90
  -2   2   8   65.19    6.00
   1  -2  -8 1345.77   34.70
   1  -2  -8 1333.07   34.10
   1  -2  -8 1296.87   32.30
   1  -2  -8 1315.87   32.20
  -1   2   8 1334.47   31.70
  -1   2   8 1308.37   33.40
   0  -2  -8  651.13   18.40
   0  -2  -8  667.03   20.60
   0  -2  -8  682.73   20.60
   0  -2  -8  653.73   19.10
   0   2   8  650.33   19.20
   0   2   8  657.43   18.60
   0   2   8  699.93   21.20
  -1  -2  -8   14.70    3.30
  -1  -2  -8   21.00    4.30
  -1  -2  -8   17.40    3.00
   1   2   8   14.10    3.20
   1   2   8   18.50    3.30
   1   2   8    9.00    3.00
  -2  -2  -8  240.28   10.00
  -2  -2  -8  256.97   10.60
  -2  -2  -8  244.28   11.10
  -2  -2  -8  240.38    9.30
  -2  -2  -8  265.77    9.10
   2   2   8  247.08   11.60
  -3  -2  -8 1242.08   28.60
  -3  -2  -8 1239.68   31.10
  -3  -2  -8 1188.38   31.40
  -3  -2  -8 1155.38   32.20
  -3  -2  -8 1223.88   29.00
   3   2   8 1233.98   33.30
  -4  -2  -8    7.80    2.60
  -4  -2  -8   14.80    2.70
  -4  -2  -8   11.60    3.30
  -4  -2  -8    8.10    2.60
   4   2   8   11.20    3.70
   4   2   8   10.30    2.30
  -5  -2  -8  651.93   17.00
  -5  -2  -8  621.24   21.90
  -5  -2  -8  659.93   21.10
  -5  -2  -8  653.63   20.60
   5   2   8  643.84   17.30
   5   2   8  654.13   23.10
  -6  -2  -8  148.59    6.40
  -6  -2  -8  142.59    9.90
  -6  -2  -8  127.59    8.70
  -6  -2  -8  141.19    9.10
   6   2   8  159.38    9.40
   6   2   8  147.39   10.90
   6   2   8  154.28    7.00
  -7  -2  -8  552.64   15.20
  -7  -2  -8  554.64   20.00
   7   2   8  516.45   16.10
   7   2   8  533.65   22.40
  -8  -2  -8   96.39    5.70
  -8  -2  -8   93.79    8.40
   8   2   8   97.09    6.40
   8   2   8   87.09   11.00
  -9  -2  -8   30.90    6.40
  -9  -2  -8   35.10    4.60
   9   2   8   31.40    4.80
   9   2   8   40.80    8.90
 -10  -2  -8  360.56   13.10
 -10  -2  -8  390.76   18.40
  10   2   8  334.47   14.10
  10   2   8  333.97   20.60
 -11  -2  -8   40.40    5.50
 -11  -2  -8   51.39    9.10
  11   2   8   32.30    5.60
  11   2   8   41.60    9.80
 -12  -2  -8   69.69   10.40
 -12  -2  -8   65.39    7.10
  12   2   8   66.89   11.80
 -13  -2  -8   32.20    7.60
 -13  -2  -8   34.50    5.90
  13   2   8   31.80    9.50
  11  -3  -8   18.00    6.60
 -11   3   8   11.50    4.50
 -11   3   8   18.70    6.30
  10  -3  -8   46.30    9.10
  10  -3  -8   33.90    5.40
 -10   3   8   40.70    6.90
 -10   3   8   30.50    7.40
   9  -3  -8  105.39   12.50
   9  -3  -8   94.99    7.30
  -9   3   8  110.99    8.80
  -9   3   8  102.39   12.80
   8  -3  -8   39.20    6.20
   8  -3  -8   45.30    8.00
  -8   3   8   40.10    8.00
  -8   3   8   38.20    6.20
   7  -3  -8   25.30    5.90
   7  -3  -8   27.60    4.70
  -7   3   8   29.80    5.30
  -7   3   8   24.70    6.50
   6  -3  -8  243.18   13.10
   6  -3  -8  253.27   10.80
  -6   3   8  263.87   13.30
  -6   3   8  263.17   11.90
  -6   3   8  263.97   14.60
   5  -3  -8   58.69    5.20
   5  -3  -8   78.69    7.30
  -5   3   8   61.49    7.10
  -5   3   8   59.79    6.60
  -5   3   8   50.59    7.90
   4  -3  -8  142.79   10.30
   4  -3  -8  165.78    9.30
   4  -3  -8  157.38    8.10
  -4   3   8  155.28    9.00
  -4   3   8  162.78    8.50
  -4   3   8  181.48   10.60
   3  -3  -8  126.39    7.80
   3  -3  -8  130.99    7.90
   3  -3  -8  129.09    7.30
  -3   3   8  125.39    7.70
  -3   3   8  124.79    7.30
  -3   3   8  120.09    8.60
   2  -3  -8  387.96   13.90
   2  -3  -8  382.96   13.70
   2  -3  -8  373.26   13.80
   2  -3  -8  396.46   14.40
  -2   3   8  378.66   13.40
  -2   3   8  381.86   14.90
   1  -3  -8   35.90    4.80
   1  -3  -8   34.00    4.60
   1  -3  -8   36.40    5.00
   1  -3  -8   42.00    5.00
  -1   3   8   21.80    3.90
  -1   3   8   32.50    4.40
   0  -3  -8  311.47   11.90
   0  -3  -8  304.27   11.50
   0  -3  -8  312.47   12.20
   0   3   8  309.77   12.30
   0   3   8  321.57   12.40
   0   3   8  308.37   11.70
  -1  -3  -8  248.08    9.90
  -1  -3  -8  269.17   11.00
  -1  -3  -8  239.68   10.20
  -1  -3  -8  246.78   10.50
   1   3   8  250.77   10.40
   1   3   8  252.17   10.90
  -2  -3  -8   34.40    5.00
  -2  -3  -8   28.80    3.90
  -2  -3  -8   26.20    3.60
  -2  -3  -8   29.50    4.20
   2   3   8   33.80    4.70
   2   3   8   28.90    4.50
  -3  -3  -8  122.19    7.70
  -3  -3  -8  120.59    6.80
  -3  -3  -8  120.59    7.70
  -3  -3  -8  132.69    7.70
   3   3   8  115.89    6.30
   3   3   8  118.19    8.30
  -4  -3  -8   93.59    5.90
  -4  -3  -8   93.39    7.30
  -4  -3  -8   88.79    6.70
  -4  -3  -8  106.99    7.70
   4   3   8   96.79    7.90
   4   3   8   95.59    5.80
  -5  -3  -8  217.08   11.50
  -5  -3  -8  214.68   10.70
  -5  -3  -8  206.38   10.80
  -5  -3  -8  224.78    9.10
   5   3   8  224.88    9.40
   5   3   8  216.68   12.30
  -6  -3  -8  972.00   28.70
  -6  -3  -8 1055.69   25.80
  -6  -3  -8  957.80   30.30
  -6  -3  -8 1012.00   29.70
   6   3   8  993.90   26.50
   6   3   8 1027.40   32.10
  -7  -3  -8   18.90    4.30
  -7  -3  -8   22.40    3.60
   7   3   8   18.60    3.80
   7   3   8   24.00    6.30
  -8  -3  -8   17.10    4.80
  -8  -3  -8   21.20    3.90
   8   3   8   21.20    4.10
   8   3   8   34.60    7.90
  -9  -3  -8  346.57   16.40
  -9  -3  -8  330.87   12.80
   9   3   8  325.47   19.20
   9   3   8  327.57   14.00
 -10  -3  -8  142.49   11.50
 -10  -3  -8  154.98    8.90
  10   3   8  146.69   14.00
  10   3   8  129.79    9.20
 -11  -3  -8   78.19   10.00
 -11  -3  -8   74.79    7.70
  11   3   8   59.89   10.40
 -12  -3  -8    9.50    4.00
 -12  -3  -8   12.50    5.80
  12   3   8   11.40    6.70
 -13  -3  -8   11.30    5.90
 -13  -3  -8    2.00    3.20
  13   3   8   10.40    6.40
  11  -4  -8   28.20    8.10
 -11   4   8   41.00    7.60
 -11   4   8   33.80    8.30
  10  -4  -8   62.09   10.10
 -10   4   8   70.19    9.70
 -10   4   8   54.39    9.80
   9  -4  -8   56.89    9.10
  -9   4   8   53.69    9.20
  -9   4   8   36.30    7.00
   8  -4  -8   67.89    7.40
   8  -4  -8   88.29   10.20
  -8   4   8   76.49   10.70
  -8   4   8   75.39    8.90
   7  -4  -8  344.17   14.10
   7  -4  -8  357.96   16.20
  -7   4   8  352.36   15.80
  -7   4   8  338.97   15.70
  -7   4   8  336.57   17.80
   6  -4  -8  517.85   18.20
   6  -4  -8  536.45   19.50
  -6   4   8  512.75   21.20
  -6   4   8  573.14   22.30
  -6   4   8  541.05   19.60
   5  -4  -8  263.27   11.90
   5  -4  -8  233.78   11.00
  -5   4   8  235.88   11.80
  -5   4   8  265.57   11.90
   4  -4  -8  281.67   12.10
   4  -4  -8  289.37   11.90
  -4   4   8  288.57   14.20
  -4   4   8  309.17   13.10
  -4   4   8  274.97   11.70
   3  -4  -8  832.02   23.00
   3  -4  -8  817.92   24.40
   3  -4  -8  838.22   24.30
   3  -4  -8  806.42   23.40
  -3   4   8  871.11   26.40
  -3   4   8  820.92   24.30
   2  -4  -8   23.70    4.20
   2  -4  -8   24.70    4.00
   2  -4  -8   33.00    4.30
   2  -4  -8   28.50    4.70
  -2   4   8   16.20    3.90
  -2   4   8   18.20    4.10
   1  -4  -8    2.50    1.90
   1  -4  -8    0.40    1.50
   1  -4  -8    0.80    1.90
   1  -4  -8    1.20    1.70
  -1   4   8    3.00    2.30
  -1   4   8   -1.70    2.10
   0  -4  -8    3.40    2.10
   0  -4  -8    0.50    2.00
   0  -4  -8    1.20    1.70
   0  -4  -8    2.00    2.40
   0   4   8    3.00    2.50
   0   4   8    7.90    2.60
  -1  -4  -8    1.30    2.00
  -1  -4  -8    2.50    2.20
  -1  -4  -8    7.60    2.50
  -1  -4  -8    8.20    2.80
   1   4   8    5.20    2.40
   1   4   8    5.20    2.80
  -2  -4  -8  619.54   18.80
  -2  -4  -8  617.44   20.00
  -2  -4  -8  606.04   18.80
  -2  -4  -8  645.94   19.50
   2   4   8  609.64   19.40
   2   4   8  610.84   19.40
  -3  -4  -8 1963.10   48.00
  -3  -4  -8 1991.80   47.30
  -3  -4  -8 2026.10   49.20
   3   4   8 2088.59   48.60
   3   4   8 1998.20   46.80
   3   4   8 2054.69   49.00
  -4  -4  -8   46.60    6.30
  -4  -4  -8   40.80    5.60
  -4  -4  -8   42.10    5.20
  -4  -4  -8   38.90    5.70
   4   4   8   51.49    7.30
   4   4   8   42.60    5.10
  -5  -4  -8  539.55   17.10
  -5  -4  -8  567.14   19.60
  -5  -4  -8  541.85   18.60
  -5  -4  -8  512.55   19.30
   5   4   8  527.25   17.40
   5   4   8  527.35   20.20
  -6  -4  -8   15.80    3.50
  -6  -4  -8   12.30    3.40
  -6  -4  -8   14.30    3.60
  -6  -4  -8   27.00    5.70
   6   4   8   27.90    6.50
   6   4   8   18.00    4.00
  -7  -4  -8   86.59    6.40
  -7  -4  -8   75.79    8.60
   7   4   8  110.99   12.50
   7   4   8   87.79    6.90
  -8  -4  -8   14.40    4.60
  -8  -4  -8   16.10    3.70
   8   4   8    9.30    4.60
  -9  -4  -8   81.69    9.10
  -9  -4  -8   96.79    7.40
   9   4   8   87.89   11.80
   9   4   8   87.29    7.70
 -10  -4  -8   65.89    7.40
 -10  -4  -8   51.79    8.10
  10   4   8   69.79   11.90
 -11  -4  -8   81.69    7.70
 -11  -4  -8   84.69   10.20
  11   4   8   57.99   10.50
 -12  -4  -8    5.90    3.80
 -12  -4  -8    4.40    4.90
  12   4   8    1.00    5.30
 -13  -4  -8    5.80    3.80
 -13  -4  -8    4.30    5.20
  13   4   8    3.40    5.60
  11  -5  -8   30.30    7.40
 -11   5   8   23.50    6.50
 -11   5   8   27.70    8.40
  10  -5  -8   15.60    6.40
 -10   5   8   12.10    6.30
 -10   5   8   16.30    5.70
  -9   5   8   59.69    8.90
  -9   5   8   49.10    9.30
   8  -5  -8  113.69    9.50
  -8   5   8  127.39   14.20
  -8   5   8  102.79    9.10
  -8   5   8  123.59   10.50
   7  -5  -8  514.85   21.90
   7  -5  -8  546.95   19.90
  -7   5   8  555.64   21.70
  -7   5   8  542.15   22.00
  -7   5   8  561.94   23.70
   6  -5  -8   77.59    7.00
   6  -5  -8   83.89    7.10
  -6   5   8   66.59    8.70
  -6   5   8   87.09    8.20
  -6   5   8   68.09    6.40
   5  -5  -8  496.75   16.40
   5  -5  -8  460.85   17.30
  -5   5   8  499.25   19.00
  -5   5   8  464.55   19.80
  -5   5   8  439.86   15.80
   4  -5  -8  793.02   21.50
  -4   5   8  778.02   26.30
  -4   5   8  755.82   24.70
  -4   5   8  751.02   21.30
   3  -5  -8   20.40    4.20
   3  -5  -8   24.40    4.80
   3  -5  -8   25.80    3.70
   3  -5  -8   19.50    3.50
  -3   5   8   20.00    4.30
  -3   5   8   14.90    4.20
   2  -5  -8  436.26   13.10
   2  -5  -8  421.66   13.20
   2  -5  -8  404.36   15.90
   2  -5  -8  411.26   15.70
  -2   5   8  401.46   16.00
  -2   5   8  419.46   16.90
   1  -5  -8  332.07   11.10
   1  -5  -8  344.97   14.20
   1  -5  -8  309.97   14.00
   1  -5  -8  349.17   11.30
  -1   5   8  322.27   13.80
   0  -5  -8  974.40   28.10
   0  -5  -8  962.00   27.20
   0  -5  -8  970.60   28.10
   0  -5  -8  945.01   24.20
   0   5   8  969.30   27.80
   0   5   8  976.70   24.90
  -1  -5  -8   89.59    5.60
  -1  -5  -8   96.39    7.30
  -1  -5  -8   96.19    7.30
  -1  -5  -8   97.19    7.00
   1   5   8   84.69    5.90
   1   5   8   91.49    7.10
  -2  -5  -8 2090.69   51.59
  -2  -5  -8 2075.89   48.60
  -2  -5  -8 2106.69   50.69
   2   5   8 2131.89   50.89
   2   5   8 2178.28   49.70
   2   5   8 2072.69   49.80
  -3  -5  -8  201.18   11.00
  -3  -5  -8  203.28    9.90
  -3  -5  -8  223.48   10.80
   3   5   8  197.98   10.30
   3   5   8  221.18   10.90
   3   5   8  201.98   10.00
  -4  -5  -8  105.89    7.70
  -4  -5  -8  114.39    8.20
  -4  -5  -8  109.69    7.60
   4   5   8  100.49    7.20
   4   5   8  110.89    8.30
   4   5   8  100.59    7.50
  -5  -5  -8  130.19    8.20
  -5  -5  -8  131.29    9.10
  -5  -5  -8  138.19    8.90
  -5  -5  -8  125.59    9.00
   5   5   8  140.19    9.90
   5   5   8  127.29    8.30
  -6  -5  -8  618.74   21.70
  -6  -5  -8  680.83   21.00
   6   5   8  663.93   24.50
   6   5   8  634.44   21.50
  -7  -5  -8   69.89    7.30
  -7  -5  -8   51.99    6.60
   7   5   8   55.29    7.20
  -8  -5  -8  102.59    7.90
  -8  -5  -8  118.49    9.40
   8   5   8  101.19    8.40
   8   5   8  111.79   11.20
  -9  -5  -8  189.68   12.20
  -9  -5  -8  193.98   10.80
   9   5   8  186.28   15.00
 -10  -5  -8    7.10    3.80
 -10  -5  -8    7.60    4.50
  10   5   8    6.50    5.60
 -11  -5  -8   82.79    9.10
 -11  -5  -8   70.19    9.40
  11   5   8  100.89   14.80
 -12  -5  -8   15.40    5.70
 -12  -5  -8    6.10    4.20
  12   5   8   12.00    6.80
 -13  -5  -8  124.09   13.80
 -13  -5  -8  124.59   10.50
  13   5   8  134.99   18.20
  11  -6  -8   14.40    6.20
 -11   6   8    7.50    5.30
 -11   6   8   19.20    7.20
  10  -6  -8   -1.40    3.50
 -10   6   8   -2.00    3.90
 -10   6   8    5.00    4.30
   9  -6  -8  160.78   11.50
  -9   6   8  167.48   14.50
  -9   6   8  163.08   13.10
   8  -6  -8  392.76   16.40
  -8   6   8  353.96   18.40
  -8   6   8  336.07   19.30
  -8   6   8  340.67   15.30
   7  -6  -8   71.39    7.10
  -7   6   8   64.39    6.30
  -7   6   8   77.59   11.10
  -7   6   8   70.59   10.80
   6  -6  -8   91.19    6.90
  -6   6   8   89.79    6.60
  -6   6   8   97.29   11.00
  -6   6   8  122.69   13.30
   5  -6  -8  114.89    6.90
   5  -6  -8  108.99    8.50
  -5   6   8  126.59   10.00
  -5   6   8  119.89    6.80
  -5   6   8  129.69   10.70
   4  -6  -8  103.19    8.20
   4  -6  -8  100.49    5.90
   4  -6  -8  123.99    6.20
  -4   6   8  115.79   11.00
  -4   6   8  115.99    9.20
   3  -6  -8 1126.99   26.20
   3  -6  -8 1068.69   32.10
  -3   6   8 1171.08   34.20
  -3   6   8 1114.99   33.20
   2  -6  -8  185.78   10.40
   2  -6  -8  175.58   10.50
   2  -6  -8  168.48   10.90
   2  -6  -8  172.18    6.70
   2  -6  -8  185.18    6.90
  -2   6   8  189.08   11.00
   1  -6  -8   51.79    6.40
   1  -6  -8   59.09    7.60
   1  -6  -8   59.99    6.90
   1  -6  -8   48.90    3.70
   1  -6  -8   61.09    7.40
  -1   6   8   68.59    8.50
   0  -6  -8   -1.40    1.80
   0  -6  -8   -1.20    1.80
   0  -6  -8    0.10    1.40
   0  -6  -8    1.20    2.20
   0   6   8    2.80    2.70
  -1  -6  -8   78.09    5.20
  -1  -6  -8   67.29    7.40
  -1  -6  -8   80.09    7.30
   1   6   8   78.89    8.70
   1   6   8   80.89    5.60
  -2  -6  -8   62.79    5.20
  -2  -6  -8   80.89    8.70
  -2  -6  -8   74.19    8.50
   2   6   8   62.29    7.70
   2   6   8   56.89    7.40
   2   6   8   58.69    5.50
  -3  -6  -8  334.97   14.40
  -3  -6  -8  336.67   13.30
  -3  -6  -8  348.67   15.30
   3   6   8  345.67   13.90
   3   6   8  334.07   14.50
   3   6   8  312.77   15.50
  -4  -6  -8   20.30    4.40
  -4  -6  -8   19.40    4.20
  -4  -6  -8   14.10    3.90
   4   6   8   18.70    4.60
   4   6   8   20.40    4.90
   4   6   8   17.10    4.60
  -5  -6  -8 1547.75   40.30
  -5  -6  -8 1466.65   40.90
  -5  -6  -8 1614.44   46.60
   5   6   8 1540.25   40.80
   5   6   8 1529.05   40.80
   5   6   8 1555.54   42.30
  -6  -6  -8   89.19    7.80
  -6  -6  -8   84.59    7.50
   6   6   8  108.09   11.90
   6   6   8   94.99    7.90
  -7  -6  -8  167.18   10.20
  -7  -6  -8  155.48   12.10
   7   6   8  158.98   10.70
   7   6   8  202.18   13.70
  -8  -6  -8   30.30    6.40
  -8  -6  -8   26.80    5.30
   8   6   8   18.10    6.50
  -9  -6  -8  331.97   16.10
  -9  -6  -8  314.07   14.80
   9   6   8  274.47   18.40
 -10  -6  -8   22.20    5.90
 -10  -6  -8   19.70    5.40
  10   6   8   13.90    7.10
 -11  -6  -8   -0.20    4.00
 -11  -6  -8    3.00    3.70
  11   6   8   -7.50    3.50
 -12  -6  -8   15.10    6.10
 -12  -6  -8   18.20    5.40
  12   6   8   14.10    9.60
  10  -7  -8    0.10    3.20
 -10   7   8   -4.50    3.20
 -10   7   8   -1.90    4.40
   9  -7  -8   52.79    7.60
  -9   7   8   25.30    5.40
  -9   7   8   39.10    9.00
  -9   7   8   31.90    8.30
   8  -7  -8   23.50    5.00
  -8   7   8   11.30    3.80
  -8   7   8   16.60    6.20
  -8   7   8   16.10    5.80
   7  -7  -8  264.17   11.60
  -7   7   8  259.87   16.20
  -7   7   8  276.97   11.60
  -7   7   8  291.77   17.50
   6  -7  -8  102.09    6.40
  -6   7   8  111.29   12.70
  -6   7   8  112.69   13.00
  -6   7   8   97.49    6.10
   5  -7  -8    3.60    1.80
  -5   7   8    7.00    4.10
  -5   7   8   -1.50    3.20
   4  -7  -8  406.06   11.30
   4  -7  -8  399.86   11.00
   4  -7  -8  448.46   19.70
  -4   7   8  420.36   18.90
   3  -7  -8  563.54   13.00
   3  -7  -8  571.44   22.40
   3  -7  -8  562.94   13.10
  -3   7   8  563.74   22.00
   2  -7  -8   15.50    1.60
   2  -7  -8   17.30    1.70
   2  -7  -8   17.20    4.80
   2  -7  -8   13.30    4.10
  -2   7   8    9.00    4.20
   1  -7  -8    0.50    2.60
   1  -7  -8    1.50    2.50
   1  -7  -8    1.90    1.20
   1  -7  -8    2.30    1.20
   1  -7  -8    4.70    2.90
  -1   7   8   -2.70    2.20
   0  -7  -8  293.97   10.30
   0  -7  -8  305.27   14.80
   0  -7  -8  291.47   14.40
   0  -7  -8  284.97   13.90
   0   7   8  299.77    9.90
   0   7   8  315.57   14.80
  -1  -7  -8    1.30    2.50
  -1  -7  -8    4.10    2.00
  -1  -7  -8    2.70    2.60
   1   7   8    7.20    3.40
   1   7   8    3.20    2.30
   1   7   8    6.50    2.40
  -2  -7  -8   45.60    5.20
  -2  -7  -8   39.60    6.50
  -2  -7  -8   29.70    5.10
   2   7   8   45.10    7.30
   2   7   8   52.59    7.20
   2   7   8   41.90    5.30
  -3  -7  -8  227.98   12.60
  -3  -7  -8  232.88   11.00
  -3  -7  -8  248.38   12.80
   3   7   8  218.18   11.90
   3   7   8  228.98   11.30
   3   7   8  250.87   12.70
  -4  -7  -8 1430.96   39.00
  -4  -7  -8 1369.86   40.10
   4   7   8 1386.76   38.80
   4   7   8 1412.06   38.70
   4   7   8 1412.06   38.20
  -5  -7  -8   20.50    4.70
  -5  -7  -8   23.90    4.90
   5   7   8   16.30    4.10
   5   7   8   12.70    4.20
   5   7   8   17.00    4.90
  -6  -7  -8    2.00    2.70
   6   7   8    5.10    4.00
  -7  -7  -8    0.20    5.20
  -7  -7  -8    7.50    3.80
   7   7   8   -3.40    2.80
  -8  -7  -8  280.37   14.60
  -8  -7  -8  277.87   14.40
   8   7   8  268.47   17.30
  -9  -7  -8   22.60    5.60
  -9  -7  -8   17.30    5.50
   9   7   8   16.40    7.00
 -10  -7  -8    0.00    3.70
 -10  -7  -8    1.20    3.50
  10   7   8    3.60    4.60
 -11  -7  -8   16.30    5.80
 -11  -7  -8    7.80    4.50
  11   7   8   10.60    6.90
 -12  -7  -8   17.20    5.70
 -12  -7  -8   10.70    5.30
  12   7   8    7.60    6.40
  10  -8  -8    7.20    4.20
 -10   8   8    5.80    5.30
 -10   8   8   -0.40    3.20
 -10   8   8    8.50    7.00
   9  -8  -8   92.49    7.70
  -9   8   8  115.99   14.90
  -9   8   8   82.29    7.20
  -9   8   8  122.89   15.80
   8  -8  -8  166.58    9.10
  -8   8   8  207.58   15.40
  -8   8   8  164.78    8.70
  -8   8   8  197.78   15.60
   7  -8  -8  112.59   13.50
   7  -8  -8   98.59    6.00
  -7   8   8  120.59   14.60
  -7   8   8   95.79   11.80
   6  -8  -8   30.60    3.30
   6  -8  -8   31.70    3.50
   6  -8  -8   29.80    7.30
  -6   8   8   35.90    8.20
   5  -8  -8  880.31   31.80
  -5   8   8  866.41   31.40
   4  -8  -8  125.99   13.30
  -4   8   8   87.49   10.20
   3  -8  -8   -0.80    2.80
  -3   8   8   -1.60    4.60
   2  -8  -8  124.59   15.60
  -2   8   8   87.49    9.80
   1  -8  -8  824.12   17.10
   1  -8  -8  811.22   17.20
   1  -8  -8  793.82   28.00
  -1   8   8  849.22   28.40
   0  -8  -8   40.40    3.20
   0  -8  -8   35.40    6.80
   0   8   8   40.20    6.80
   0   8   8   40.30    3.40
  -1  -8  -8  264.87   14.30
  -1  -8  -8  265.87    9.90
   1   8   8  257.97    9.90
   1   8   8  245.38   13.60
  -2  -8  -8  493.65   20.10
  -2  -8  -8  478.95   16.10
   2   8   8  502.75   16.50
   2   8   8  491.05   19.80
  -3  -8  -8 1669.03   42.20
  -3  -8  -8 1677.33   45.90
   3   8   8 1655.43   45.50
   3   8   8 1761.62   43.10
  -4  -8  -8   49.50    7.30
  -4  -8  -8   55.19    7.30
   4   8   8   57.99    7.40
   4   8   8   56.19    7.40
  -5  -8  -8  110.79   14.40
  -5  -8  -8   80.59    7.80
   5   8   8  103.99   12.40
   5   8   8   95.99    8.90
  -6  -8  -8   54.69    7.80
   6   8   8   69.59    9.20
   6   8   8   67.09    9.00
  -7  -8  -8  796.82   27.30
  -7  -8  -8  788.52   27.30
   7   8   8  816.82   30.50
  -8  -8  -8   11.10    4.30
  -8  -8  -8   10.60    4.80
   8   8   8   13.60    5.50
  -9  -8  -8   51.69    8.20
  -9  -8  -8   39.20    7.30
   9   8   8   33.20    8.80
 -10  -8  -8   43.80    8.10
 -10  -8  -8   46.50    8.20
  10   8   8   43.70   10.00
 -11  -8  -8  120.09   11.20
 -11  -8  -8  122.59   11.10
  11   8   8  100.49   14.40
 -12  -8  -8   30.30    7.40
 -12  -8  -8   41.90    8.40
  12   8   8   33.90    9.50
   9  -9  -8  229.68   18.20
   9  -9  -8  220.38    9.60
  -9   9   8  179.38    8.70
  -9   9   8  230.88   17.60
   8  -9  -8    5.70    5.30
  -8   9   8   -3.70    3.50
   7  -9  -8   19.60    6.90
  -7   9   8   15.10    6.30
   6  -9  -8   31.10    7.70
  -6   9   8   30.00    8.10
   5  -9  -8  167.58   13.50
  -5   9   8  162.68   13.50
   4  -9  -8  236.68   15.40
  -4   9   8  211.68   14.90
   3  -9  -8    4.50    4.40
  -3   9   8    6.50    4.40
   2  -9  -8  920.51   31.70
  -2   9   8  874.51   31.30
   1  -9  -8  662.13   25.60
  -1   9   8  659.93   25.60
   0  -9  -8    3.50    3.30
   0  -9  -8    1.50    1.30
   0   9   8    0.70    1.30
   0   9   8   -1.60    2.80
  -1  -9  -8  105.29    9.80
  -1  -9  -8   95.89    5.80
   1   9   8  108.69    9.70
   1   9   8  104.59    6.10
  -2  -9  -8  881.91   25.20
  -2  -9  -8  985.40   31.80
   2   9   8  939.71   25.80
   2   9   8  884.01   30.60
  -3  -9  -8    1.20    2.20
  -3  -9  -8    1.40    3.10
   3   9   8    3.80    3.70
   3   9   8    3.60    2.80
  -4  -9  -8  504.65   21.00
  -4  -9  -8  429.76   17.80
   4   9   8  509.55   20.50
   4   9   8  479.35   19.00
  -5  -9  -8  452.65   20.00
   5   9   8  413.96   18.60
   5   9   8  420.96   18.90
  -6  -9  -8    6.00    3.80
   6   9   8    3.50    3.80
   6   9   8    1.70    3.30
  -7  -9  -8   37.30    7.40
  -7  -9  -8   35.60    6.80
   7   9   8   46.70    9.10
  -8  -9  -8    9.20    4.70
  -8  -9  -8    0.50    3.60
   8   9   8    7.50    5.50
  -9  -9  -8    6.40    4.40
  -9  -9  -8   -2.30    3.10
   9   9   8    3.70    4.40
 -10  -9  -8  351.66   18.00
 -10  -9  -8  331.67   18.10
  10   9   8  312.17   21.30
 -11  -9  -8   14.60    5.60
 -11  -9  -8   10.10    5.20
  11   9   8    4.70    5.10
   9 -10  -8    0.30    5.40
  -9  10   8   -0.60    5.10
   8 -10  -8   -4.20    4.50
  -8  10   8    4.30    6.60
   7 -10  -8   60.89   10.90
  -7  10   8   68.39   12.40
   6 -10  -8   61.29   10.90
  -6  10   8   47.70    9.10
   5 -10  -8    4.30    4.60
  -5  10   8    7.40    5.60
   4 -10  -8  226.68   15.70
  -4  10   8  243.78   16.50
   3 -10  -8   66.89   10.40
  -3  10   8   63.29   10.70
   2 -10  -8  290.27   17.10
  -2  10   8  291.47   17.30
   1 -10  -8   10.20    4.90
  -1  10   8    4.30    4.50
   0 -10  -8   72.79    3.80
   0 -10  -8   65.59    9.00
   0  10   8   68.29    3.80
   0  10   8   72.09   10.10
  -1 -10  -8  619.24   18.10
  -1 -10  -8  674.33   26.20
   1  10   8  643.84   25.60
   1  10   8  665.03   18.60
  -2 -10  -8    7.60    4.00
  -2 -10  -8   13.50    3.50
   2  10   8   19.80    4.20
   2  10   8   13.70    4.90
  -3 -10  -8  316.97   14.00
  -3 -10  -8  343.87   17.90
   3  10   8  327.37   14.40
   3  10   8  330.97   17.20
  -4 -10  -8   16.10    5.00
  -4 -10  -8   13.50    4.10
   4  10   8   22.60    5.40
   4  10   8   24.70    6.50
  -5 -10  -8  500.25   22.10
   5  10   8  497.25   21.10
   5  10   8  489.35   21.30
  -6 -10  -8    4.80    4.20
   6  10   8    3.50    3.70
   6  10   8    1.40    3.30
  -7 -10  -8   44.10    8.20
   7  10   8   32.90    6.60
   7  10   8   39.70    8.80
  -8 -10  -8    6.20    4.60
  -8 -10  -8    5.30    4.30
   8  10   8    9.00    5.70
  -9 -10  -8  254.97   15.30
  -9 -10  -8  262.67   16.30
   9  10   8  222.28   17.60
 -10 -10  -8    3.10    4.10
 -10 -10  -8    0.20    4.10
  10  10   8   -4.70    4.00
 -11 -10  -8  131.49   11.80
   8 -11  -8   18.80    7.40
  -8  11   8   22.80    9.20
   7 -11  -8  330.27   21.20
  -7  11   8  329.87   21.90
   6 -11  -8    1.60    4.20
  -6  11   8    2.60    5.00
   5 -11  -8  109.69   13.20
  -5  11   8  114.79   14.70
   4 -11  -8  231.48   16.60
  -4  11   8  212.88   16.40
   3 -11  -8  122.09   14.30
  -3  11   8  119.89   15.50
   2 -11  -8   97.59   11.50
  -2  11   8  102.29   13.50
   1 -11  -8   19.60    6.20
  -1  11   8   11.50    5.60
   0 -11  -8  119.49   11.60
   0 -11  -8  111.69    4.60
   0  11   8  135.79   12.20
   0  11   8  114.89    4.50
  -1 -11  -8   22.40    3.70
  -1 -11  -8   23.00    6.50
   1  11   8   18.00    5.80
   1  11   8   29.10    4.10
  -2 -11  -8  905.91   32.60
  -2 -11  -8  890.41   25.60
   2  11   8  950.20   32.90
   2  11   8  874.11   25.60
  -3 -11  -8  119.09   13.20
   3  11   8  114.09   12.90
   3  11   8  110.19    8.70
  -4 -11  -8  352.36   18.80
  -4 -11  -8  331.17   15.90
   4  11   8  365.76   18.60
   4  11   8  368.56   17.00
  -5 -11  -8   -1.50    3.20
   5  11   8    5.10    4.30
  -6 -11  -8  155.28   12.90
   6  11   8  148.69   12.60
   6  11   8  136.09   11.50
  -7 -11  -8   52.59    8.40
   7  11   8   59.49    9.80
   7  11   8   87.79   11.60
  -8 -11  -8    2.00    4.20
  -8 -11  -8   -0.70    3.50
   8  11   8    2.40    4.50
  -9 -11  -8   20.10    6.20
  -9 -11  -8   16.30    5.90
   9  11   8   16.50    7.10
 -10 -11  -8   30.60    7.20
 -10 -11  -8   28.90    7.60
   7 -12  -8    3.00    5.90
   6 -12  -8   76.39   12.90
  -6  12   8   39.00    9.20
   5 -12  -8  165.88   15.30
  -5  12   8  133.99   16.80
   4 -12  -8   89.59   12.00
  -4  12   8   85.29   13.10
   3 -12  -8   78.69   11.60
  -3  12   8   87.69   12.10
   2 -12  -8  399.36   21.50
  -2  12   8  353.66   21.10
   1 -12  -8    2.20    3.80
  -1  12   8    1.30    4.50
   0 -12  -8   13.30    5.90
   0  12   8    6.60    5.30
   0  12   8    7.90    1.70
  -1 -12  -8   34.80    4.50
  -1 -12  -8   42.00    8.70
   1  12   8   36.80    4.60
   1  12   8   35.90    8.50
  -2 -12  -8  136.29   12.60
  -2 -12  -8   95.89    7.40
   2  12   8  126.89    8.20
   2  12   8  123.89   11.90
  -3 -12  -8  345.27   19.50
  -3 -12  -8  333.87   15.10
   3  12   8  361.46   19.50
   3  12   8  365.36   15.90
  -4 -12  -8    4.00    4.20
   4  12   8    4.80    3.80
   4  12   8    9.00    4.80
  -5 -12  -8  308.57   18.50
   5  12   8  309.47   16.90
   5  12   8  319.77   17.90
  -6 -12  -8  156.08   13.70
   6  12   8  163.58   13.30
   6  12   8  177.48   13.30
  -7 -12  -8   43.00    9.00
   7  12   8   48.30    9.60
   7  12   8   34.90    7.80
  -8 -12  -8   10.80    5.40
  -8 -12  -8   19.70    6.30
   8  12   8   12.80    6.50
  -9 -12  -8  139.59   12.50
  -9 -12  -8  129.89   14.40
   9  12   8  153.48   18.30
   6 -13  -8    8.50    6.20
  -6  13   8   19.10    8.90
   5 -13  -8   66.59   10.90
  -5  13   8   78.99   14.90
   4 -13  -8   56.59   10.70
  -4  13   8   51.99   11.70
   3 -13  -8  305.77   19.70
  -3  13   8  279.27   19.90
   2 -13  -8   53.09    9.40
  -2  13   8   53.49   10.90
   1 -13  -8    5.90    5.00
  -1  13   8   12.20    6.00
   0 -13  -8  191.58   15.30
   0  13   8  170.98   15.10
  -1 -13  -8  101.29    6.40
  -1 -13  -8   92.09   12.20
   1  13   8  107.69   13.00
   1  13   8  112.49    6.50
  -2 -13  -8   27.00    7.40
  -2 -13  -8   28.50    5.10
   2  13   8   35.70    8.60
   2  13   8   42.60    6.00
  -3 -13  -8   -1.40    2.50
  -3 -13  -8    1.10    4.10
   3  13   8    1.20    4.40
   3  13   8    4.40    3.50
  -4 -13  -8  472.25   23.70
   4  13   8  478.35   20.30
   4  13   8  430.86   22.30
  -5 -13  -8   94.39   12.80
   5  13   8   85.99   11.00
   5  13   8   73.39   10.60
  -6 -13  -8    3.00    4.50
   6  13   8   -3.30    3.30
   6  13   8    7.00    5.00
  -7 -13  -8   -0.10    4.10
   7  13   8   -0.10    3.90
   7  13   8    3.60    5.10
  -8 -13  -8  133.69   15.00
   8  13   8  121.79   11.60
   8  13   8  139.59   16.40
   5 -14  -8    1.00    5.70
  -5  14   8    7.20    6.60
   4 -14  -8  155.68   18.20
  -4  14   8  151.78   19.40
   3 -14  -8   30.40    8.10
  -3  14   8   53.99   17.60
   2 -14  -8   24.30    7.80
  -2  14   8   23.80    8.10
   1 -14  -8   74.79   10.70
  -1  14   8   77.39   12.10
   0 -14  -8  125.69   15.20
   0  14   8  114.99   15.80
  -1 -14  -8    2.20    2.20
  -1 -14  -8    1.70    4.20
   1  14   8    3.10    5.00
   1  14   8    4.20    2.20
  -2 -14  -8   51.89    6.80
  -2 -14  -8   58.89   10.90
   2  14   8   58.49   10.50
   2  14   8   66.09    6.60
  -3 -14  -8  256.77   13.80
  -3 -14  -8  315.07   19.80
   3  14   8  278.77   14.20
   3  14   8  295.07   18.90
  -4 -14  -8  186.78   16.00
   4  14   8  153.18   12.50
   4  14   8  153.08   13.70
  -5 -14  -8   23.10    7.50
   5  14   8   25.80    7.70
   5  14   8   22.50    6.60
  -6 -14  -8   -1.00    4.20
   6  14   8    0.80    4.10
   6  14   8    4.50    4.70
   3 -15  -8   12.00    7.70
  -3  15   8   25.60    9.90
   2 -15  -8   80.09   13.10
  -2  15   8   71.89   13.90
   1 -15  -8  133.39   17.20
  -1  15   8   98.29   14.00
   0 -15  -8    4.00    5.70
   0  15   8   -6.20    3.70
  -1 -15  -8   88.59   13.70
   1  15   8   88.99    5.60
   1  15   8   67.29    5.40
  -2 -15  -8  175.08   10.70
  -2 -15  -8  209.88   17.20
   2  15   8  210.18   10.80
   2  15   8  189.28   23.00
  -3 -15  -8  100.69   14.50
   3  15   8   82.09    8.30
   3  15   8   70.79   13.00
  -4 -15  -8   15.10    6.60
   4  15   8   12.50    5.30
   1  11  -9  118.59   10.60
   1  11  -9  122.39   18.40
  -1 -11   9  135.09   12.40
   0  11  -9   -0.70    5.00
   0  11  -9    1.10    4.20
   0 -11   9   -2.60    4.00
  -1  11  -9    4.40    5.30
  -1  11  -9    8.60    5.30
   1 -11   9   16.10    5.90
  -2  11  -9    5.60    5.30
  -2  11  -9   14.00    6.80
   2 -11   9    5.60    4.60
  -3  11  -9   80.59   12.40
  -3  11  -9   83.49   12.30
   3 -11   9  101.19    9.20
  -4  11  -9   33.60    9.10
  -4  11  -9   48.70    9.90
  -5  11  -9    4.40    5.80
  -5  11  -9    0.60    6.00
   5 -11   9   -0.80    3.10
   3  10  -9    0.40    2.50
   3  10  -9   -1.40    5.60
  -3 -10   9   -0.60    4.30
  -3 -10   9   -1.20    2.30
   2  10  -9   44.30   10.30
   2  10  -9   52.49    7.20
  -2 -10   9   41.80    5.70
  -2 -10   9   54.19    8.80
   1  10  -9   33.40    6.60
   1  10  -9   31.70    9.00
  -1 -10   9   36.50    7.50
   0  10  -9   51.59   10.80
   0  10  -9   26.30    6.60
   0 -10   9   49.70    7.70
  -1  10  -9   58.69    9.70
  -1  10  -9   90.79   14.60
   1 -10   9   62.99    8.20
  -2  10  -9   42.00    8.30
  -2  10  -9   55.09   10.80
   2 -10   9   57.59    7.60
  -3  10  -9   74.89   11.60
  -3  10  -9   64.39   11.00
   3 -10   9   72.29    8.50
  -4  10  -9    1.20    5.00
  -4  10  -9   -3.60    4.40
   4 -10   9    2.20    3.30
  -5  10  -9    6.70    6.00
  -5  10  -9    7.10    3.40
  -5  10  -9   15.40    7.10
   5 -10   9    9.00    3.40
  -6  10  -9   60.49   10.90
  -6  10  -9   55.39   11.70
   6 -10   9   54.59    6.00
   6 -10   9   55.39    5.60
  -7  10  -9   -3.80    5.50
  -7  10  -9   -2.70    4.50
   7 -10   9   -1.30    2.00
   7 -10   9    4.50    2.00
   5   9  -9   37.40   11.30
  -5  -9   9   14.80    8.40
  -4  -9   9    3.40    5.10
   3   9  -9  220.48   17.90
   3   9  -9  195.88    8.90
  -3  -9   9  179.08    7.60
  -3  -9   9  196.78   14.10
   2   9  -9   60.89    7.20
   2   9  -9   51.09   10.00
  -2  -9   9   72.59   10.00
  -2  -9   9   53.09    5.90
   1   9  -9   -6.10    3.50
   1   9  -9    1.00    3.10
  -1  -9   9    3.70    4.10
  -1  -9   9    2.50    2.90
   0   9  -9   -3.10    3.70
   0   9  -9   -0.70    3.30
   0  -9   9   -0.40    3.40
  -1   9  -9  169.58   12.60
  -1   9  -9  194.78   15.70
   1  -9   9  168.38   11.10
  -2   9  -9    5.10    4.90
  -2   9  -9   -1.40    4.50
   2  -9   9    3.60    3.30
  -3   9  -9   21.10    6.50
  -3   9  -9   23.50    5.20
  -3   9  -9   29.10    7.80
   3  -9   9   28.00    5.20
  -4   9  -9    0.70    2.60
  -4   9  -9    0.20    4.70
  -4   9  -9   -0.40    4.10
   4  -9   9    0.20    2.60
  -5   9  -9   33.10    5.30
  -5   9  -9   41.50    8.90
  -5   9  -9   52.29    9.90
   5  -9   9   41.40    5.20
  -6   9  -9    3.20    4.50
  -6   9  -9   -2.50    4.40
   6  -9   9    2.80    2.20
   6  -9   9   -0.20    2.00
  -7   9  -9   39.40    9.00
  -7   9  -9   46.70   10.10
   7  -9   9   47.20    3.60
  -8   9  -9   19.90    7.50
  -8   9  -9   19.40    7.70
   6   8  -9    6.10    6.80
  -6  -8   9    8.00    5.40
   5   8  -9    0.90    6.70
  -5  -8   9   -3.30    4.20
   4   8  -9  166.88   16.10
  -4  -8   9  148.49   12.90
   3   8  -9  189.88   16.60
   3   8  -9  182.18    7.80
  -3  -8   9  175.48    6.80
  -3  -8   9  200.78   13.80
   2   8  -9   95.19    7.10
   2   8  -9   98.19   14.30
  -2  -8   9   86.39    5.80
  -2  -8   9   84.49    9.70
   1   8  -9   13.80    4.20
   1   8  -9   20.90    7.10
  -1  -8   9   26.40    6.00
   0   8  -9   27.10    7.70
   0   8  -9   32.80    6.40
   0  -8   9   30.10    5.70
   0  -8   9   26.30    5.00
  -1   8  -9    2.50    4.00
  -1   8  -9   -2.70    3.20
   1  -8   9    1.50    3.20
  -2   8  -9   86.69   12.40
  -2   8  -9   72.49    8.50
  -2   8  -9   79.99   10.50
   2  -8   9   90.39    7.70
  -3   8  -9   60.69    8.90
  -3   8  -9   84.49   11.80
  -3   8  -9   73.39    8.10
   3  -8   9   78.69    6.80
  -4   8  -9   57.09    6.60
  -4   8  -9   60.89    9.70
  -4   8  -9   70.79   11.40
   4  -8   9   70.99    6.00
  -5   8  -9   12.90    5.90
  -5   8  -9   12.70    6.10
  -5   8  -9   10.90    3.20
   5  -8   9   16.00    3.40
  -6   8  -9  144.29   13.40
  -6   8  -9  111.29   14.20
   6  -8   9  121.49    5.80
   6  -8   9  111.89    5.80
  -7   8  -9   20.20    6.90
  -7   8  -9   27.40    8.20
   7  -8   9   26.80    2.50
   7  -8   9   19.90    2.20
   7  -8   9   25.90    7.80
  -8   8  -9   46.60   10.30
   8  -8   9   19.90    7.80
  -9   8  -9    3.80    6.10
   9  -8   9    9.40    6.10
   7   7  -9   -0.60    5.40
  -7  -7   9   -1.10    4.70
   6   7  -9  117.89   19.10
  -6  -7   9  131.69   14.60
   5   7  -9  275.07   20.10
  -5  -7   9  298.07   17.20
   4   7  -9  207.78   17.10
  -4  -7   9  212.58   14.30
   3   7  -9   64.69   11.50
   3   7  -9   71.89    4.90
  -3  -7   9   70.99    9.80
   2   7  -9    4.30    5.10
   2   7  -9   14.50    3.50
  -2  -7   9   16.80    4.80
  -2  -7   9   13.00    2.90
   1   7  -9   48.60    6.40
   1   7  -9   47.70    9.10
  -1  -7   9   63.29    8.20
  -1  -7   9   43.70    5.20
   0   7  -9   64.79   10.00
   0   7  -9   72.09    8.20
   0  -7   9   71.59    8.20
   0  -7   9   65.69    7.00
  -1   7  -9  232.18   16.00
  -1   7  -9  230.48   12.70
  -1   7  -9  181.38   11.00
   1  -7   9  192.88   10.60
   1  -7   9  219.18   11.10
  -2   7  -9  198.38   14.80
  -2   7  -9  168.48   10.10
  -2   7  -9  195.28   12.40
   2  -7   9  193.28    9.90
  -3   7  -9  107.89   12.20
  -3   7  -9  103.39    7.70
  -3   7  -9  120.89   11.90
   3  -7   9  114.39    7.20
  -4   7  -9   34.30    7.60
  -4   7  -9   32.00    4.70
  -4   7  -9   36.70    8.20
   4  -7   9   38.00    4.50
  -5   7  -9   91.89   12.70
  -5   7  -9   59.49    4.80
  -5   7  -9   82.49   11.20
   5  -7   9   71.09    4.70
  -6   7  -9   19.70    7.00
   6  -7   9   21.80    2.30
   6  -7   9   20.00    6.90
   6  -7   9   20.70    2.40
  -7   7  -9   50.59    9.80
   7  -7   9   69.09   11.80
  -8   7  -9   83.29   13.00
   8  -7   9   57.59   10.50
  -9   7  -9  123.89   15.50
   9  -7   9  136.09   16.50
 -10   7  -9   22.90    9.00
  10  -7   9   36.70    9.30
   8   6  -9   -3.20    5.60
  -8  -6   9    4.30    4.90
  -7  -6   9   97.49   11.80
   6   6  -9  171.78   16.70
  -6  -6   9  205.18   14.70
   5   6  -9  217.28   17.20
  -5  -6   9  220.08   14.60
   4   6  -9   39.50    8.30
  -4  -6   9   44.10    7.70
   3   6  -9   58.79    9.90
   3   6  -9   72.69    3.30
  -3  -6   9   77.39    9.60
   2   6  -9  122.79   12.50
   2   6  -9  125.89    6.80
  -2  -6   9  140.59   10.40
  -2  -6   9  126.99    5.90
   1   6  -9   64.59    6.80
   1   6  -9   55.59    9.30
  -1  -6   9   52.09    7.00
  -1  -6   9   47.10    5.00
   0   6  -9  211.48   11.70
   0   6  -9  252.57   16.10
   0   6  -9  253.97   11.80
   0  -6   9  225.58   11.70
   0  -6   9  245.08   10.50
  -1   6  -9  123.49   11.70
  -1   6  -9  106.29    7.90
  -1   6  -9  127.79    9.20
   1  -6   9  101.19    7.40
   1  -6   9  126.19    8.10
  -2   6  -9  242.88   13.00
  -2   6  -9  252.97   15.80
  -2   6  -9  202.98   10.40
   2  -6   9  235.88   10.30
   2  -6   9  195.28   10.80
  -3   6  -9   44.40    8.80
  -3   6  -9   36.80    7.00
  -3   6  -9   39.00    5.30
   3  -6   9   40.90    4.80
  -4   6  -9  163.58   12.20
  -4   6  -9  144.69    7.40
  -4   6  -9  171.18   13.50
   4  -6   9  156.38    6.90
  -5   6  -9    8.80    5.20
   5  -6   9   10.80    2.00
   5  -6   9    7.70    4.90
  -6   6  -9    6.90    5.50
   6  -6   9   16.90    6.00
  -7   6  -9    2.60    5.50
   7  -6   9   -4.10    3.30
  -8   6  -9  263.27   18.40
   8  -6   9  266.47   18.00
  -9   6  -9   29.80    9.10
   9  -6   9   29.50    8.10
 -10   6  -9   31.90    9.60
  10  -6   9   27.90    8.40
 -11   6  -9   -1.60    6.10
  11  -6   9   -1.70    5.00
   8   5  -9   82.39   13.80
  -8  -5   9   76.89   11.00
   7   5  -9   86.29   12.40
  -7  -5   9   74.19   10.10
   6   5  -9   42.80    9.00
  -6  -5   9   40.10    7.40
   5   5  -9   50.89   10.70
  -5  -5   9   58.19    9.00
   4   5  -9  128.39   12.90
  -4  -5   9  160.08   11.80
   3   5  -9    6.70    5.00
  -3  -5   9   18.40    5.30
   2   5  -9   93.69   11.70
   2   5  -9  117.19    6.20
  -2  -5   9  107.69    5.00
   1   5  -9   19.50    5.90
   1   5  -9   21.00    3.90
  -1  -5   9   19.10    3.20
  -1  -5   9   25.00    5.00
   0   5  -9  121.19    8.30
   0   5  -9  129.99    8.00
   0   5  -9  118.99   11.20
   0  -5   9  123.29    6.90
   0  -5   9  131.59    8.40
  -1   5  -9    3.60    2.50
  -1   5  -9    5.80    3.30
  -1   5  -9    4.10    3.80
   1  -5   9    4.40    2.60
   1  -5   9    4.60    2.60
  -2   5  -9   13.50    5.10
  -2   5  -9   24.80    4.10
  -2   5  -9   33.00    5.70
   2  -5   9   32.70    4.30
   2  -5   9   26.90    4.60
  -3   5  -9  426.76   13.90
  -3   5  -9  450.85   21.20
  -3   5  -9  431.26   17.80
   3  -5   9  387.06   18.10
   3  -5   9  428.96   12.90
  -4   5  -9    5.40    4.60
  -4   5  -9    3.40    1.70
   4  -5   9    4.40    4.10
  -5   5  -9   39.10    7.60
   5  -5   9   49.90    2.40
   5  -5   9   41.70    7.70
   5  -5   9   56.19    2.30
  -6   5  -9   24.50    6.70
   6  -5   9   28.30    7.40
  -7   5  -9  243.18   16.30
   7  -5   9  201.98   15.10
  -8   5  -9   14.30    6.40
   8  -5   9   17.90    6.00
  -9   5  -9   10.80    6.90
   9  -5   9   12.60    6.30
 -10   5  -9   10.60    7.10
  10  -5   9   22.00    7.70
 -11   5  -9   93.29   14.10
  11  -5   9   90.49   14.80
 -12   5  -9   -4.30    6.30
  12  -5   9   -3.00    4.90
   9   4  -9  118.69   15.70
  -9  -4   9  117.39   13.60
   8   4  -9   29.50    9.50
  -8  -4   9   25.40    7.40
   7   4  -9   24.00    8.20
  -7  -4   9   16.20    6.40
   6   4  -9  109.39   12.90
  -6  -4   9  128.39   11.60
   5   4  -9  205.18   15.70
  -5  -4   9  194.38   13.00
   4   4  -9  117.59   11.80
  -4  -4   9   93.79   10.20
   3   4  -9  184.88   13.90
  -3  -4   9  211.18   12.00
   2   4  -9  210.18   14.50
   2   4  -9  218.68    7.60
  -2  -4   9  208.68   11.40
   1   4  -9  251.17    9.50
   1   4  -9  217.98   11.00
   1   4  -9  215.58   14.20
  -1  -4   9  226.98    8.30
  -1  -4   9  234.18   11.30
   0   4  -9  144.89   13.10
   0   4  -9  134.79    8.20
   0   4  -9  136.09    7.70
   0  -4   9  142.29    7.00
   0  -4   9  133.59    8.10
  -1   4  -9  177.88    9.50
  -1   4  -9  168.78    8.40
  -1   4  -9  189.68   12.90
   1  -4   9  177.48    8.50
   1  -4   9  165.98    8.30
  -2   4  -9 1163.58   31.30
  -2   4  -9 1053.79   27.50
  -2   4  -9 1110.29   35.60
   2  -4   9 1111.79   27.10
  -3   4  -9  293.97   13.80
  -3   4  -9  292.47   10.10
  -3   4  -9  274.27   15.80
   3  -4   9  292.17   16.60
   3  -4   9  275.97   12.30
   3  -4   9  301.97    9.40
  -4   4  -9    0.40    3.20
  -4   4  -9    1.30    1.30
   4  -4   9    3.30    3.50
   4  -4   9    2.40    1.20
  -5   4  -9  143.39   12.80
   5  -4   9  166.08   14.70
  -6   4  -9  103.09   11.30
   6  -4   9  106.89   10.80
  -7   4  -9   70.79   10.00
   7  -4   9   60.99    9.40
  -8   4  -9    1.60    4.90
   8  -4   9    1.50    4.30
  -9   4  -9   18.30    6.90
   9  -4   9    5.80    5.10
 -10   4  -9  183.48   16.20
  10  -4   9  245.78   17.90
 -11   4  -9   41.70   10.60
  11  -4   9   40.10    9.90
 -12   4  -9    1.00    6.70
  12  -4   9    5.70    5.90
   9   3  -9   49.30   11.70
  -9  -3   9   55.89    9.20
   8   3  -9    9.30    5.90
  -8  -3   9    9.50    5.50
   7   3  -9  150.28   17.20
  -7  -3   9  107.89   11.70
   6   3  -9  492.85   24.10
  -6  -3   9  477.95   21.00
   5   3  -9  456.35   22.40
  -5  -3   9  446.06   19.50
   4   3  -9    6.50    4.60
  -4  -3   9    4.50    3.80
   3   3  -9  271.37   16.00
  -3  -3   9  253.67   12.90
   2   3  -9  173.88    6.10
   2   3  -9  152.98    9.30
   2   3  -9  167.58    5.90
  -2  -3   9  181.38   10.10
   1   3  -9   57.39    4.40
   1   3  -9   61.49    8.70
   1   3  -9   60.39    5.80
  -1  -3   9   62.69    6.00
  -1  -3   9   61.19    4.00
   0   3  -9  519.95   16.60
   0   3  -9  534.75   16.10
   0   3  -9  544.55   22.00
   0  -3   9  527.95   16.80
   0  -3   9  525.75   15.30
  -1   3  -9  409.26   14.20
  -1   3  -9  399.36   13.10
  -1   3  -9  392.96   18.30
   1  -3   9  398.36   13.40
   1  -3   9  378.76   12.80
  -2   3  -9  704.53   29.00
  -2   3  -9  730.53   26.30
  -2   3  -9  714.23   18.90
  -2   3  -9  731.53   22.10
   2  -3   9  717.93   21.00
   2  -3   9  730.03   18.70
  -3   3  -9  332.97   10.20
  -3   3  -9  331.77   14.10
   3  -3   9  356.36    9.80
   3  -3   9  327.77   13.20
   3  -3   9  348.07   17.40
  -4   3  -9   41.00    5.90
  -4   3  -9   39.00    2.30
   4  -3   9   41.00    5.80
   4  -3   9   37.60    2.00
   4  -3   9   50.29    8.30
  -5   3  -9  263.57   13.70
   5  -3   9  241.68   14.70
  -6   3  -9   30.60    6.00
   6  -3   9   33.80    7.40
  -7   3  -9   68.79    9.00
   7  -3   9   52.19    8.60
  -8   3  -9  136.09   12.30
   8  -3   9  151.58   13.20
  -9   3  -9  247.78   17.00
   9  -3   9  257.77   17.60
 -10   3  -9  111.89   14.10
  10  -3   9   89.29   13.70
 -11   3  -9   12.00    6.80
  11  -3   9   22.80    8.30
 -12   3  -9   -4.00    6.10
  12  -3   9    6.90    6.00
  10   2  -9    6.50    6.70
 -10  -2   9    3.10    4.90
   9   2  -9   -1.10    5.00
  -9  -2   9    2.90    4.40
   8   2  -9   30.10    8.40
  -8  -2   9   24.70    7.00
   7   2  -9  372.36   21.10
  -7  -2   9  342.47   18.20
   6   2  -9  290.87   18.00
  -6  -2   9  294.67   15.90
   5   2  -9    1.20    4.00
  -5  -2   9   -3.00    2.90
   4   2  -9  673.93   26.50
  -4  -2   9  696.83   23.60
   3   2  -9  752.22   30.60
  -3  -2   9  681.93   22.80
   2   2  -9   91.19    7.10
   2   2  -9  105.99    9.70
   2   2  -9  105.89    4.50
   2   2  -9  109.19    4.50
  -2  -2   9   99.69    7.60
   1   2  -9   -0.60    2.40
   1   2  -9    1.80    1.80
   1   2  -9   -0.70    2.70
   1   2  -9    2.20    2.30
   1   2  -9   -0.60    1.40
  -1  -2   9    0.90    2.20
   0   2  -9    2.10    2.80
   0   2  -9    1.90    1.80
   0   2  -9    0.90    1.90
   0   2  -9   -0.50    2.90
   0  -2   9    3.50    1.90
   0  -2   9    1.40    2.10
  -1   2  -9  849.72   22.10
  -1   2  -9  824.22   28.30
  -1   2  -9  884.41   23.70
  -1   2  -9  863.81   28.70
   1  -2   9  849.32   22.70
   1  -2   9  900.51   22.40
  -2   2  -9  939.71   30.80
  -2   2  -9  983.20   26.90
  -2   2  -9  943.91   23.20
   2  -2   9  996.80   31.80
   2  -2   9 1004.40   23.50
   2  -2   9  991.00   26.10
  -3   2  -9  252.77    7.70
  -3   2  -9  245.38   13.50
  -3   2  -9  242.78   11.60
   3  -2   9  243.78   14.00
   3  -2   9  253.77    7.60
  -4   2  -9   84.59    8.20
  -4   2  -9   89.99    7.60
   4  -2   9   82.59    6.70
   4  -2   9   95.19   10.90
  -5   2  -9   17.70    5.10
   5  -2   9    7.50    3.70
   6  -2   9  187.68   13.40
  -7   2  -9  395.66   18.40
   7  -2   9  441.26   20.90
  -8   2  -9  194.38   13.60
   8  -2   9  213.78   15.20
  -9   2  -9   11.80    5.30
   9  -2   9    2.90    4.60
 -10   2  -9   89.49   11.60
  10  -2   9   94.89   12.50
 -11   2  -9   82.69   12.40
  11  -2   9   89.79   13.50
 -12   2  -9  127.19   15.30
  12  -2   9  141.09   17.90
 -13   2  -9    1.10    6.40
  13  -2   9    3.60    2.10
  13  -2   9    5.50    1.80
  13  -2   9   -0.30    5.30
  10   1  -9   17.40    7.60
 -10  -1   9   19.10    8.30
   9   1  -9   13.60    6.80
  -9  -1   9   13.10    6.40
   8   1  -9  394.36   21.90
  -8  -1   9  367.86   19.50
   7   1  -9   14.90    6.40
  -7  -1   9   18.60    6.10
   6   1  -9   -0.70    3.90
  -6  -1   9    0.70    3.60
   5   1  -9   77.49   10.60
  -5  -1   9  100.59   10.60
   4   1  -9  812.32   30.00
   3   1  -9   18.70    1.50
   3   1  -9    8.30    3.80
   3   1  -9   23.90    6.00
   3   1  -9   17.80    1.50
  -3  -1   9   17.20    4.20
   2   1  -9  857.21   28.30
   2   1  -9  884.61   19.80
   2   1  -9  828.62   28.70
   2   1  -9  822.42   24.30
   2   1  -9  869.01   20.40
  -2  -1   9  826.42   27.60
  -2  -1   9  847.42   24.80
   1   1  -9   10.30    2.40
   1   1  -9    5.40    3.10
   1   1  -9    8.10    2.60
   1   1  -9   10.70    3.90
   1   1  -9    8.40    2.20
  -1  -1   9    8.40    2.90
   0   1  -9   76.19    8.90
   0   1  -9   68.29    5.10
   0   1  -9   85.29    9.80
   0   1  -9   62.89    4.80
   0   1  -9   62.99    4.60
   0  -1   9   73.49    5.50
  -1   1  -9  315.17   15.10
  -1   1  -9  302.77   14.80
  -1   1  -9  329.17   11.70
  -1   1  -9  312.07   10.60
   1  -1   9  326.67   11.00
   1  -1   9  312.27   11.30
  -2   1  -9   46.30    5.30
  -2   1  -9   43.80    6.30
  -2   1  -9   49.50    3.60
   2  -1   9   50.09    4.70
   2  -1   9   44.80    6.40
   2  -1   9   48.20    3.80
  -3   1  -9  176.28    5.80
  -3   1  -9  171.88   10.90
  -3   1  -9  186.08    9.50
   3  -1   9  180.88    9.00
   3  -1   9  168.38   11.30
   3  -1   9  176.88    6.20
  -4   1  -9  461.25   17.00
  -4   1  -9  455.35   18.80
   4  -1   9  472.85   16.70
   4  -1   9  478.95   19.90
  -5   1  -9  297.27   16.90
  -5   1  -9  292.37   13.60
   5  -1   9  293.57   15.60
   5  -1   9  263.77   12.50
  -6   1  -9  717.43   24.60
   6  -1   9  730.83   27.10
  -7   1  -9   49.20    7.00
   7  -1   9   71.59   10.50
  -8   1  -9   28.90    7.30
   8  -1   9   23.00    6.90
  -9   1  -9   90.19   10.30
   9  -1   9   73.19   10.70
 -10   1  -9  232.18   15.60
  10  -1   9  226.38   17.10
  10  -1   9  205.78    5.90
 -11   1  -9    3.40    2.70
 -11   1  -9   -0.20    4.60
  11  -1   9    4.10    5.30
 -12   1  -9    5.70    2.20
 -12   1  -9    0.50    5.30
  12  -1   9    4.20    2.20
  12  -1   9    8.30    5.90
 -13   1  -9   43.30   10.40
 -13   1  -9   47.90    4.50
  13  -1   9   41.80   11.00
  13  -1   9   46.00    5.10
  10   0  -9   59.49   11.70
 -10   0   9   54.59    9.90
   9   0  -9   62.19   11.50
  -9   0   9   69.19   11.00
   8   0  -9    6.10    5.20
  -8   0   9    3.90    4.80
   7   0  -9  115.59   13.80
  -7   0   9   82.89    9.70
   6   0  -9  333.17   17.80
  -6   0   9  328.77   16.60
  -5   0   9  694.63   24.40
   4   0  -9  132.49   10.30
   4   0  -9  113.19    4.10
   4   0  -9  114.19    3.90
  -4   0   9  109.59    8.80
   3   0  -9  131.99    9.90
   3   0  -9  112.19    7.80
   3   0  -9  121.49    5.10
   3   0  -9  121.59    4.70
  -3   0   9  122.89    9.30
  -3   0   9  128.79    8.70
   2   0  -9  234.18    8.30
   2   0  -9  226.58    8.30
   2   0  -9  206.78   10.20
   2   0  -9  229.28   12.90
   2   0  -9  256.27   13.10
  -2   0   9  226.48   10.90
   1   0  -9   -1.10    2.10
   1   0  -9    1.40    2.60
   1   0  -9    3.60    2.10
   1   0  -9    1.50    1.70
   1   0  -9    0.30    1.50
  -1   0   9    1.30    2.10
   0   0  -9 1866.31   41.70
   0   0  -9 1854.01   47.70
   0   0  -9 1850.21   42.40
   0   0  -9 1898.41   48.40
   0   0  -9 1817.62   42.20
   0   0   9 1847.32   42.90
  -1   0  -9 2466.45   55.39
  -1   0  -9 2456.25   53.99
  -1   0  -9 2525.35   60.79
  -1   0  -9 2532.95   55.19
   1   0   9 2488.85   61.09
   1   0   9 2513.85   54.69
  -2   0  -9 2042.00   54.79
  -2   0  -9 2062.29   47.10
  -2   0  -9 2017.50   43.90
   2   0   9 2050.59   44.70
   2   0   9 2004.30   46.80
   2   0   9 2049.20   51.89
  -3   0  -9  486.05   12.40
  -3   0  -9  497.25   19.00
  -3   0  -9  459.95   16.20
  -3   0  -9  495.45   13.10
   3   0   9  493.15   19.50
   3   0   9  490.15   16.30
  -4   0  -9  254.07    7.20
  -4   0  -9  252.67    6.70
  -4   0  -9  260.17   13.20
  -4   0  -9  253.77   11.70
   4   0   9  268.47   14.10
   4   0   9  265.57   11.60
  -5   0  -9  293.57   14.60
  -5   0  -9  311.67   13.70
   5   0   9  299.17   13.10
   5   0   9  303.17   15.60
  -6   0  -9    5.70    3.40
   6   0   9    2.80    3.20
  -7   0  -9   71.59    8.20
   7   0   9   95.59   12.00
  -8   0  -9  351.36    8.70
  -8   0  -9  357.26   17.20
   8   0   9  348.27   19.10
   8   0   9  349.07    8.80
  -9   0  -9   65.29    8.80
  -9   0  -9   68.09    3.70
   9   0   9   89.89   12.40
   9   0   9   67.39    4.90
 -10   0  -9   89.19    4.80
 -10   0  -9   87.99   11.70
  10   0   9   89.29    5.30
  10   0   9   99.99   13.50
 -11   0  -9   70.99   10.00
 -11   0  -9   76.49    5.10
  11   0   9   63.39    5.30
  11   0   9   63.49   11.30
 -12   0  -9   81.89   12.40
 -12   0  -9   84.29    6.00
  12   0   9   83.09    6.50
  12   0   9   91.29   13.90
 -13   0  -9    4.10    2.60
  13   0   9    2.00    3.00
  13   0   9   13.10    7.80
  10  -1  -9   85.49    4.80
  10  -1  -9  107.09   14.40
   9  -1  -9   -0.80    4.50
   9  -1  -9    0.90    1.60
  -9   1   9    4.80    2.40
  -9   1   9   -2.50    4.10
   8  -1  -9  117.19    5.40
   8  -1  -9  134.29   12.60
  -8   1   9  120.79   11.70
   7  -1  -9  104.49   12.00
   7  -1  -9   98.49    4.90
  -7   1   9   95.29   11.10
   6  -1  -9  355.66   19.60
   6  -1  -9  349.57   10.40
  -6   1   9  359.36   12.30
  -6   1   9  350.56   17.30
   5  -1  -9    1.20    3.10
   5  -1  -9   -2.70    1.30
  -5   1   9    1.30    1.40
  -5   1   9   -3.50    2.30
   4  -1  -9  316.57   15.30
   4  -1  -9  313.57    9.90
  -4   1   9  305.37   14.40
  -4   1   9  321.57   10.90
  -4   1   9  304.37   14.90
   3  -1  -9   32.00    3.70
   3  -1  -9   23.60    4.60
   3  -1  -9   33.60    5.90
  -3   1   9   20.10    4.60
  -3   1   9   25.60    5.50
  -3   1   9   26.40    3.60
   2  -1  -9 1128.89   32.90
   2  -1  -9 1078.19   29.10
   2  -1  -9 1057.19   26.90
   2  -1  -9 1120.69   32.00
  -2   1   9 1113.69   30.10
  -2   1   9 1125.49   26.30
   1  -1  -9    5.40    2.00
   1  -1  -9   -0.50    1.50
   1  -1  -9    3.90    2.40
   1  -1  -9    2.50    2.60
   1  -1  -9    4.60    2.30
  -1   1   9    5.20    2.40
   0  -1  -9 1547.65   36.00
   0  -1  -9 1525.35   35.60
   0  -1  -9 1535.05   40.40
   0  -1  -9 1518.85   40.10
   0  -1  -9 1515.65   36.40
   0   1   9 1525.25   36.90
  -1  -1  -9   18.60    3.60
  -1  -1  -9   17.30    2.80
  -1  -1  -9   16.00    4.00
  -1  -1  -9   11.60    3.10
   1   1   9   19.60    3.40
   1   1   9   17.40    4.50
  -2  -1  -9 1089.09   25.30
  -2  -1  -9 1081.49   30.90
  -2  -1  -9 1051.89   27.70
  -2  -1  -9 1060.39   28.10
   2   1   9 1058.69   26.20
   2   1   9 1060.89   31.20
  -3  -1  -9  439.06   15.40
  -3  -1  -9  432.86   15.10
  -3  -1  -9  445.86   12.10
  -3  -1  -9  430.56   17.30
   3   1   9  454.65   18.00
  -4  -1  -9  106.59    8.30
  -4  -1  -9  105.59    4.60
  -4  -1  -9  109.39    5.00
  -4  -1  -9  107.09    7.30
   4   1   9  118.49    9.20
   4   1   9  109.49    7.30
  -5  -1  -9  106.09    4.40
  -5  -1  -9  101.39    7.70
  -5  -1  -9  106.49    4.40
  -5  -1  -9  109.29    8.70
   5   1   9   99.19    9.10
   5   1   9   97.89    7.40
  -6  -1  -9   14.80    4.10
  -6  -1  -9   15.60    1.90
   6   1   9   16.00    4.80
  -7  -1  -9  642.44   15.50
  -8  -1  -9  222.08   13.10
  -8  -1  -9  210.98    7.40
   8   1   9  215.88    8.20
   8   1   9  213.48   14.90
  -9  -1  -9   10.40    5.00
  -9  -1  -9    9.40    2.40
   9   1   9    3.10    4.60
   9   1   9    4.40    2.30
 -10  -1  -9   32.60    6.90
 -10  -1  -9   38.30    4.30
  10   1   9   37.60    9.10
  10   1   9   37.60    5.00
 -11  -1  -9   60.09    9.80
 -11  -1  -9   65.29    5.30
  11   1   9   57.59   10.70
  11   1   9   51.69    6.00
 -12  -1  -9   24.10    7.20
 -12  -1  -9   20.90    4.00
  12   1   9   23.20    8.40
  12   1   9    9.60    3.60
 -13  -1  -9    1.70    2.40
 -13  -1  -9   -5.10    4.10
  13   1   9    1.20    5.90
  13   1   9   -0.60    3.00
  11  -2  -9   20.10    7.60
 -11   2   9   13.20    6.30
 -11   2   9   17.70    4.20
  10  -2  -9   15.80    6.90
  10  -2  -9    3.30    2.40
 -10   2   9   -0.10    4.30
 -10   2   9    5.70    3.10
   9  -2  -9  113.79    6.70
   9  -2  -9  111.99   13.30
  -9   2   9  112.29    7.50
  -9   2   9  124.49   14.00
   8  -2  -9  150.78    7.60
   8  -2  -9  151.38   13.00
  -8   2   9  150.88    8.40
  -8   2   9  184.18   13.80
   7  -2  -9   88.99    5.80
   7  -2  -9   88.99   10.90
  -7   2   9   89.09   11.00
  -7   2   9   90.19    6.50
   6  -2  -9    3.60    2.30
   6  -2  -9    9.60    4.40
  -6   2   9    0.90    3.50
  -6   2   9    7.30    2.80
   5  -2  -9  262.87   13.90
   5  -2  -9  270.97    9.80
  -5   2   9  255.97   10.10
  -5   2   9  264.47   14.00
  -5   2   9  262.47   13.70
   4  -2  -9   71.59    5.00
   4  -2  -9   74.99    7.40
  -4   2   9   79.99    5.40
  -4   2   9   79.49    7.60
  -4   2   9   65.29    6.60
   3  -2  -9  944.01   24.90
   3  -2  -9  992.90   27.60
   3  -2  -9  995.90   29.10
  -3   2   9  973.70   28.60
  -3   2   9  975.40   24.80
  -3   2   9  929.61   28.20
   2  -2  -9  319.67   12.80
   2  -2  -9  368.86   15.10
   2  -2  -9  339.07   14.30
   2  -2  -9  333.87   12.20
  -2   2   9  333.97   13.90
  -2   2   9  342.47   11.70
   1  -2  -9  383.36   13.50
   1  -2  -9  383.16   13.40
   1  -2  -9  361.76   15.10
   1  -2  -9  392.26   15.20
  -1   2   9  397.16   13.00
  -1   2   9  393.56   14.50
   0  -2  -9    5.00    2.80
   0  -2  -9    9.20    2.70
   0  -2  -9    8.00    3.00
   0  -2  -9    7.40    2.20
   0   2   9    8.50    2.80
   0   2   9    7.80    2.50
  -1  -2  -9    2.20    2.40
  -1  -2  -9    4.10    2.30
  -1  -2  -9    4.00    1.90
  -1  -2  -9    7.40    2.60
   1   2   9    6.60    3.30
   1   2   9    5.80    2.30
  -2  -2  -9    6.80    2.90
  -2  -2  -9    4.00    2.30
  -2  -2  -9    5.90    2.20
  -2  -2  -9    4.40    1.90
  -2  -2  -9    6.80    2.90
   2   2   9    8.00    3.50
  -3  -2  -9  412.26   12.20
  -3  -2  -9  398.86   14.40
  -3  -2  -9  402.56   12.80
  -3  -2  -9  362.26   15.30
  -3  -2  -9  393.86   14.70
   3   2   9  397.96   16.40
  -4  -2  -9   82.19    4.80
  -4  -2  -9   87.79    5.30
  -4  -2  -9   89.09    7.60
  -4  -2  -9   76.39    6.40
  -4  -2  -9   81.89    6.50
   4   2   9   83.39    7.90
  -5  -2  -9  403.56   15.90
  -5  -2  -9  433.76   12.40
  -5  -2  -9  410.26   17.10
  -5  -2  -9  384.56   15.40
   5   2   9  389.76   17.60
   5   2   9  402.56   12.10
  -6  -2  -9  757.62   23.80
  -6  -2  -9  735.93   18.70
   6   2   9  712.43   19.20
   6   2   9  760.62   26.90
  -7  -2  -9  127.89    5.90
   7   2   9  119.49    6.50
  -8  -2  -9   -1.60    3.10
  -8  -2  -9    0.00    1.60
   8   2   9    2.00    2.00
   8   2   9    0.40    3.70
  -9  -2  -9    4.90    4.50
  -9  -2  -9    8.60    2.70
   9   2   9    6.90    5.40
   9   2   9    0.80    2.20
 -10  -2  -9  238.78   14.70
 -10  -2  -9  226.28    9.80
  10   2   9  220.98   17.00
  10   2   9  218.38   10.70
 -11  -2  -9    3.00    4.30
 -11  -2  -9    2.60    2.60
  11   2   9    2.50    5.50
 -12  -2  -9   21.50    4.50
 -12  -2  -9   15.60    6.40
  12   2   9   14.60    4.40
  12   2   9   20.90    8.20
 -13  -2  -9   13.20    4.00
 -13  -2  -9   11.40    6.60
  13   2   9   20.90    8.30
  11  -3  -9    0.60    4.50
 -11   3   9   -3.20    2.40
 -11   3   9   -1.40    3.90
  10  -3  -9   79.59    6.80
  10  -3  -9  107.79   13.30
 -10   3   9   85.89    7.90
 -10   3   9   95.49   12.50
   9  -3  -9   80.49   11.30
   9  -3  -9   73.39    6.60
  -9   3   9   80.19   10.90
  -9   3   9   84.59    7.70
   8  -3  -9   11.90    5.20
   8  -3  -9    4.00    2.80
  -8   3   9    6.80    4.50
  -8   3   9    5.20    3.20
   7  -3  -9   68.19    6.00
   7  -3  -9   72.99    9.50
  -7   3   9   73.19    6.70
  -7   3   9   70.19    9.90
   6  -3  -9  537.85   20.80
   6  -3  -9  496.85   16.60
  -6   3   9  561.44   18.20
  -6   3   9  491.45   20.20
  -6   3   9  535.05   22.00
   5  -3  -9  174.88    8.60
   5  -3  -9  179.38   10.80
  -5   3   9  180.48    9.40
  -5   3   9  185.78   11.90
  -5   3   9  192.08   11.00
   4  -3  -9   93.19    6.30
   4  -3  -9   92.99    7.60
  -4   3   9   87.19    7.20
  -4   3   9   93.09    6.70
   3  -3  -9   20.70    4.40
   3  -3  -9   17.60    3.70
   3  -3  -9   23.00    4.50
   3  -3  -9   17.50    3.60
  -3   3   9   18.90    4.70
  -3   3   9   19.20    3.70
   2  -3  -9  604.94   19.40
   2  -3  -9  626.04   20.50
   2  -3  -9  612.84   19.80
   2  -3  -9  630.34   19.30
  -2   3   9  642.64   19.00
  -2   3   9  611.94   20.70
   1  -3  -9  505.15   17.10
   1  -3  -9  505.15   16.70
   1  -3  -9  486.45   17.10
   1  -3  -9  486.45   16.30
  -1   3   9  486.65   17.30
  -1   3   9  505.45   16.20
   0  -3  -9  374.96   14.20
   0  -3  -9  372.56   13.90
   0  -3  -9  380.06   13.20
   0   3   9  342.97   14.20
   0   3   9  356.46   13.90
   0   3   9  377.86   13.50
  -1  -3  -9 3012.20   66.29
  -1  -3  -9 2982.30   67.39
  -1  -3  -9 3011.50   66.99
  -1  -3  -9 2951.50   64.99
   1   3   9 2915.01   67.59
   1   3   9 2935.81   65.99
  -2  -3  -9 2118.39   47.20
  -2  -3  -9 2071.49   49.60
  -2  -3  -9 2014.30   49.50
  -2  -3  -9 2039.80   48.50
  -2  -3  -9 2080.19   48.00
   2   3   9 2076.19   50.49
   2   3   9 2088.39   48.80
  -3  -3  -9  365.26   12.90
  -3  -3  -9  367.86   14.70
  -3  -3  -9  366.96   13.90
  -3  -3  -9  347.87   14.10
  -3  -3  -9  363.76   12.40
   3   3   9  347.67   15.00
  -4  -3  -9    8.60    3.20
  -4  -3  -9    2.30    2.30
  -4  -3  -9    6.50    2.40
   4   3   9    1.00    1.70
   4   3   9    9.10    3.60
  -5  -3  -9  415.76   13.40
  -5  -3  -9  418.96   15.90
  -5  -3  -9  391.46   16.60
  -5  -3  -9  377.86   15.80
   5   3   9  414.26   13.50
   5   3   9  399.76   17.70
  -6  -3  -9  608.34   17.20
  -6  -3  -9  573.44   20.30
   6   3   9  600.34   23.30
   6   3   9  559.04   17.50
  -7  -3  -9  427.66   13.60
   7   3   9  413.96   14.50
  -8  -3  -9   39.40    7.30
  -8  -3  -9   46.10    5.10
   8   3   9   42.60    8.40
   8   3   9   48.70    5.80
  -9  -3  -9  612.34   18.50
  -9  -3  -9  628.24   23.80
   9   3   9  608.74   20.20
   9   3   9  635.54   27.70
 -10  -3  -9   96.39   11.00
 -10  -3  -9  109.39    7.30
  10   3   9   93.79   13.90
  10   3   9   95.79    7.90
 -11  -3  -9   23.10    7.00
 -11  -3  -9   19.10    4.30
  11   3   9   17.40    6.90
  11   3   9   15.00    4.20
 -12  -3  -9   19.50    6.40
 -12  -3  -9   15.50    4.20
  12   3   9   15.60    7.80
 -13  -3  -9   49.20   10.10
 -13  -3  -9   48.90    6.60
  13   3   9   26.60    8.90
  10  -4  -9  137.09   12.50
 -10   4   9  106.39   14.10
 -10   4   9   97.89    9.40
   9  -4  -9   -1.40    3.30
  -9   4   9    2.30    3.20
  -9   4   9   -4.00    3.00
   8  -4  -9   64.59    7.30
  -8   4   9   63.79    8.20
  -8   4   9   49.60    8.70
   7  -4  -9  215.78   12.80
   7  -4  -9  164.48    9.80
  -7   4   9  204.68   14.30
  -7   4   9  182.08   13.60
  -7   4   9  208.58   11.70
   6  -4  -9  386.36   17.00
   6  -4  -9  419.36   17.20
  -6   4   9  429.86   19.80
  -6   4   9  417.96   16.70
  -6   4   9  402.56   16.90
   5  -4  -9  104.39    7.20
   5  -4  -9   95.69    7.90
  -5   4   9  104.19    7.80
  -5   4   9   94.69    7.60
  -5   4   9  119.89   10.00
   4  -4  -9   31.90    5.20
   4  -4  -9   25.60    4.40
  -4   4   9   24.90    4.90
  -4   4   9   16.60    3.90
  -4   4   9   17.60    4.70
   3  -4  -9  559.74   18.20
   3  -4  -9  598.24   21.70
   3  -4  -9  557.64   18.80
   3  -4  -9  536.15   18.40
  -3   4   9  568.04   18.90
  -3   4   9  544.75   20.50
   2  -4  -9    4.30    2.60
   2  -4  -9    3.70    2.10
   2  -4  -9    1.70    2.00
   2  -4  -9    1.70    2.30
  -2   4   9    0.50    2.30
  -2   4   9    1.60    2.40
   1  -4  -9   23.30    4.40
   1  -4  -9   22.50    4.10
   1  -4  -9   28.30    4.40
  -1   4   9   19.20    4.00
  -1   4   9   18.50    4.30
   0  -4  -9 1082.39   30.00
   0  -4  -9 1081.49   28.70
   0  -4  -9 1094.59   29.10
   0  -4  -9 1098.29   30.20
   0   4   9 1096.19   30.20
   0   4   9 1050.29   29.20
   0   4   9 1101.69   29.20
  -1  -4  -9 1309.67   35.50
  -1  -4  -9 1373.36   34.30
  -1  -4  -9 1383.96   34.30
  -1  -4  -9 1368.16   35.10
   1   4   9 1324.17   34.80
   1   4   9 1341.47   34.70
  -2  -4  -9  448.26   15.80
  -2  -4  -9  465.05   15.50
  -2  -4  -9  440.06   15.80
  -2  -4  -9  458.25   16.80
   2   4   9  447.76   16.20
   2   4   9  439.76   16.30
  -3  -4  -9   41.90    5.60
  -3  -4  -9   40.60    5.70
  -3  -4  -9   34.20    4.80
  -3  -4  -9   48.80    5.50
   3   4   9   39.20    5.30
   3   4   9   43.90    6.00
  -4  -4  -9   20.30    3.90
  -4  -4  -9   16.90    3.90
  -4  -4  -9   18.50    4.30
  -4  -4  -9   18.20    4.80
   4   4   9   15.70    3.30
   4   4   9   17.20    4.30
  -5  -4  -9  599.84   21.30
  -5  -4  -9  598.54   18.50
  -5  -4  -9  575.94   20.10
  -5  -4  -9  573.94   20.80
   5   4   9  640.04   22.80
   5   4   9  580.44   18.40
  -6  -4  -9  173.58   10.40
  -6  -4  -9  171.88    8.70
   6   4   9  173.28    9.10
   6   4   9  160.98   11.60
  -7  -4  -9  232.38   14.80
  -7  -4  -9  250.87   10.60
   7   4   9  223.38   11.00
   7   4   9  246.38   15.80
  -8  -4  -9  283.47   11.70
  -8  -4  -9  268.57   13.90
   8   4   9  251.97   12.10
   8   4   9  260.67   16.70
  -9  -4  -9   62.39    8.70
  -9  -4  -9   58.09    6.50
   9   4   9   44.30    8.40
   9   4   9   52.99    7.20
 -10  -4  -9    9.70    3.80
 -10  -4  -9    5.90    4.40
  10   4   9    5.70    5.00
  10   4   9    7.20    3.70
 -11  -4  -9    4.50    4.40
 -11  -4  -9    6.40    3.40
  11   4   9    7.00    5.20
 -12  -4  -9   29.20    8.20
 -12  -4  -9   55.79    7.30
  12   4   9   37.30   10.70
 -13  -4  -9    6.00    5.40
 -13  -4  -9    1.20    3.20
  13   4   9   -5.90    4.30
  10  -5  -9    6.00    4.80
 -10   5   9    2.00    4.80
 -10   5   9    3.50    4.30
   9  -5  -9   50.39    8.20
  -9   5   9   59.59   10.60
  -9   5   9   48.00    9.60
   8  -5  -9   48.20    7.60
  -8   5   9   62.69    8.50
  -8   5   9   47.00    9.00
   7  -5  -9  212.28   12.40
   7  -5  -9  195.88   13.00
  -7   5   9  184.08   11.40
  -7   5   9  226.78   15.20
  -7   5   9  219.58   13.10
   6  -5  -9   10.80    4.00
   6  -5  -9   11.90    4.00
  -6   5   9   10.30    3.60
  -6   5   9   13.30    5.30
  -6   5   9   10.50    4.20
   5  -5  -9   22.60    4.80
   5  -5  -9   20.60    4.60
  -5   5   9   15.60    5.00
  -5   5   9   17.90    4.90
  -5   5   9   25.10    4.70
   4  -5  -9  782.12   23.20
   4  -5  -9  779.42   24.60
   4  -5  -9  767.12   22.40
  -4   5   9  791.02   25.20
   3  -5  -9    9.50    2.70
   3  -5  -9   15.60    3.40
   3  -5  -9   15.00    4.50
  -3   5   9   10.30    4.10
  -3   5   9   12.70    3.80
   2  -5  -9    1.10    1.60
   2  -5  -9    2.60    2.30
   2  -5  -9   -0.40    2.00
   2  -5  -9    0.10    1.60
  -2   5   9   -2.80    2.20
  -2   5   9    0.60    2.30
   1  -5  -9  201.18    8.90
   1  -5  -9  199.78   10.30
   1  -5  -9  200.68   10.80
   1  -5  -9  200.88   11.20
   1  -5  -9  186.98    8.60
  -1   5   9  199.88   11.30
  -1   5   9  195.28   10.50
   0  -5  -9  818.72   25.30
   0  -5  -9  815.22   25.30
   0  -5  -9  798.32   22.10
   0   5   9  835.22   22.90
   0   5   9  787.42   24.50
  -1  -5  -9    2.00    2.20
  -1  -5  -9    2.00    1.90
  -1  -5  -9    5.70    5.10
  -1  -5  -9    2.50    2.30
   1   5   9    1.00    2.00
   1   5   9    5.00    2.80
  -2  -5  -9  101.29    7.90
  -2  -5  -9  102.49    7.60
  -2  -5  -9   77.89    6.40
  -2  -5  -9   89.59    6.40
   2   5   9   95.59    7.10
   2   5   9   99.29    7.40
  -3  -5  -9   52.59    7.30
  -3  -5  -9   41.60    5.60
  -3  -5  -9   44.60    5.80
   3   5   9   51.19    6.20
   3   5   9   42.80    6.20
   3   5   9   53.29    6.80
  -4  -5  -9   77.79    7.10
  -4  -5  -9   90.09    9.90
  -4  -5  -9   70.89    6.30
   4   5   9   91.79    6.80
   4   5   9   72.99    6.70
   4   5   9   61.59    7.60
  -5  -5  -9  351.96   15.60
  -5  -5  -9  360.76   15.30
  -5  -5  -9  359.76   14.20
   5   5   9  347.37   14.20
   5   5   9  366.36   16.70
  -6  -5  -9  754.42   24.50
  -6  -5  -9  756.82   22.80
   6   5   9  702.73   23.00
   6   5   9  731.83   26.60
  -7  -5  -9  411.66   17.30
  -7  -5  -9  399.56   15.30
   7   5   9  418.16   20.00
   7   5   9  372.56   15.80
  -8  -5  -9   25.80    4.70
  -8  -5  -9   39.70    7.00
   8   5   9   30.60    7.50
   8   5   9   31.50    5.80
  -9  -5  -9  265.77   14.70
  -9  -5  -9  281.47   12.90
   9   5   9  291.57   18.70
 -10  -5  -9   37.40    7.80
 -10  -5  -9   41.60    7.30
  10   5   9   29.20    8.00
 -11  -5  -9   32.60    6.00
 -11  -5  -9   29.00    7.30
  11   5   9   44.60   10.50
 -12  -5  -9   20.30    6.60
 -12  -5  -9   15.60    4.90
  12   5   9   14.40    7.90
 -13  -5  -9  111.49    9.90
 -13  -5  -9   90.69   11.90
  13   5   9  115.39   17.60
  10  -6  -9    2.60    4.50
 -10   6   9    5.70    4.80
   9  -6  -9  155.68   11.60
  -9   6   9  150.68   12.50
  -9   6   9  151.98   16.90
   8  -6  -9   85.99    8.50
  -8   6   9   84.89    8.20
  -8   6   9  103.89   13.50
  -8   6   9   85.69   11.20
   7  -6  -9  244.98   12.30
  -7   6   9  257.07   16.70
  -7   6   9  226.98   11.80
   6  -6  -9   13.10    4.10
  -6   6   9   16.30    3.80
  -6   6   9   21.80    6.40
  -6   6   9    7.00    4.30
   5  -6  -9  358.66   13.30
   5  -6  -9  353.86   13.80
  -5   6   9  403.56   19.10
  -5   6   9  366.56   17.10
   4  -6  -9  205.28   11.60
   4  -6  -9  211.18    9.00
   4  -6  -9  206.58    9.20
  -4   6   9  205.28   12.30
  -4   6   9  219.08   13.60
   3  -6  -9  301.77   10.40
   3  -6  -9  274.57   13.60
   3  -6  -9  288.17   10.60
  -3   6   9  284.87   14.20
  -3   6   9  276.27   14.80
   2  -6  -9   16.50    2.90
   2  -6  -9   18.00    4.20
   2  -6  -9   16.40    2.90
   2  -6  -9    8.90    3.60
  -2   6   9   13.00    4.10
   1  -6  -9    8.60    3.60
   1  -6  -9    8.50    2.30
   1  -6  -9    8.90    2.40
   1  -6  -9    8.30    2.80
   1  -6  -9    7.70    3.50
  -1   6   9    5.00    2.90
   0  -6  -9  724.73   24.40
   0  -6  -9  768.72   24.90
   0  -6  -9  730.93   23.60
   0  -6  -9  711.73   19.80
   0   6   9  754.72   24.30
   0   6   9  713.43   20.30
  -1  -6  -9  111.69    8.60
  -1  -6  -9  107.49    6.40
  -1  -6  -9  102.79    8.30
  -1  -6  -9  118.29    8.30
   1   6   9  106.69    8.20
   1   6   9  112.09    7.00
  -2  -6  -9  140.79    9.50
  -2  -6  -9  142.49    7.80
  -2  -6  -9  156.58    9.80
   2   6   9  138.69    8.80
   2   6   9  140.59    8.30
   2   6   9  140.49    9.20
  -3  -6  -9  865.71   25.70
  -3  -6  -9  943.21   27.80
   3   6   9  915.71   26.90
   3   6   9  865.31   28.90
   3   6   9  924.01   27.80
  -4  -6  -9    2.60    4.50
  -4  -6  -9    4.00    2.70
   4   6   9    0.40    2.50
   4   6   9   -1.20    1.90
   4   6   9    5.30    2.70
  -5  -6  -9 1094.79   30.30
  -5  -6  -9 1023.90   30.70
  -5  -6  -9  994.20   30.60
   5   6   9  958.80   29.70
   5   6   9 1029.20   30.70
   5   6   9 1057.89   32.20
  -6  -6  -9  231.08   11.90
   6   6   9  232.78   12.30
   6   6   9  249.78   14.50
  -7  -6  -9   42.40    6.30
  -7  -6  -9   36.10    6.00
   7   6   9   44.50    8.60
   7   6   9   40.40    6.70
  -8  -6  -9  542.45   21.20
  -8  -6  -9  548.15   19.70
   8   6   9  505.25   23.90
  -9  -6  -9  212.08   13.30
  -9  -6  -9  223.48   14.00
   9   6   9  224.68   16.70
 -10  -6  -9   72.39    8.50
 -10  -6  -9   91.39   10.90
  10   6   9   66.19   11.00
 -11  -6  -9    4.20    4.00
 -11  -6  -9    9.00    5.10
  11   6   9   11.60    6.60
 -12  -6  -9   56.29    9.70
 -12  -6  -9   58.19    8.10
  12   6   9   55.19   12.50
  10  -7  -9   28.90    7.10
 -10   7   9   25.20    8.90
 -10   7   9   24.50    7.40
   9  -7  -9   50.39    7.60
  -9   7   9   59.39   10.70
  -9   7   9   40.50    8.50
  -9   7   9   48.50    7.50
   8  -7  -9   64.49    7.80
  -8   7   9   58.89   10.30
  -8   7   9   46.50    9.10
  -8   7   9   48.30    6.80
   7  -7  -9  431.36   15.60
  -7   7   9  404.66   20.30
  -7   7   9  391.46   15.00
  -7   7   9  402.56   21.40
   6  -7  -9  371.56   13.40
  -6   7   9  371.66   19.90
  -6   7   9  366.26   18.70
   5  -7  -9  113.49    6.40
   5  -7  -9  102.49    6.20
  -5   7   9   95.19   10.80
   4  -7  -9   85.99   10.80
   4  -7  -9   71.09    5.90
   4  -7  -9   66.09    4.60
  -4   7   9   70.59    9.00
  -4   7   9   84.69   11.10
   3  -7  -9  295.87    9.30
   3  -7  -9  301.37   16.10
   3  -7  -9  304.07    9.20
  -3   7   9  295.77   15.40
   2  -7  -9   29.30    8.90
   2  -7  -9   33.20    6.50
   2  -7  -9   34.70    2.90
   2  -7  -9   33.00    3.00
  -2   7   9   33.50    6.00
   1  -7  -9  220.28    7.90
   1  -7  -9  200.68   12.40
   1  -7  -9  202.08   12.10
  -1   7   9  213.08   12.50
   0  -7  -9 1071.89   32.90
   0  -7  -9 1118.49   33.30
   0  -7  -9 1071.79   26.20
   0  -7  -9 1052.49   31.90
   0   7   9 1052.39   26.70
   0   7   9 1100.19   32.70
  -1  -7  -9  417.56   14.00
  -1  -7  -9  444.76   18.50
  -1  -7  -9  438.16   17.60
  -1  -7  -9  448.56   18.60
   1   7   9  435.16   14.50
   1   7   9  439.66   18.10
  -2  -7  -9  619.44   22.50
  -2  -7  -9  722.53   29.80
  -2  -7  -9  623.54   19.20
   2   7   9  585.94   21.40
   2   7   9  626.74   22.60
   2   7   9  636.34   19.90
  -3  -7  -9  129.29    9.50
  -3  -7  -9  121.79    8.00
   3   7   9  143.09    9.50
   3   7   9  121.19    8.50
   3   7   9  136.79    9.60
  -4  -7  -9  369.36   17.70
  -4  -7  -9  429.56   17.60
   4   7   9  394.16   16.80
   4   7   9  439.46   17.80
   4   7   9  414.46   17.10
  -5  -7  -9  185.58   11.30
  -5  -7  -9  183.98   11.20
   5   7   9  197.08   12.20
   5   7   9  185.18   12.60
  -6  -7  -9   -0.60    2.50
  -6  -7  -9    1.70    3.30
   6   7   9    5.70    3.90
  -7  -7  -9  159.88   10.90
  -7  -7  -9  169.28   11.50
   7   7   9  172.68   13.20
  -8  -7  -9  678.23   24.50
  -8  -7  -9  621.84   22.70
   8   7   9  604.14   26.90
  -9  -7  -9    2.10    3.50
  -9  -7  -9    9.00    4.30
   9   7   9    3.20    5.10
 -10  -7  -9   -2.60    2.70
 -10  -7  -9    1.50    3.90
  10   7   9    0.40    4.80
 -11  -7  -9   39.60    7.80
 -11  -7  -9   32.30    6.80
  11   7   9   34.50    9.40
 -12  -7  -9    5.50    4.40
 -12  -7  -9   -0.80    4.00
  12   7   9   -2.50    5.20
  10  -8  -9   21.30    5.20
 -10   8   9   19.10    7.20
 -10   8   9    7.10    5.70
   9  -8  -9  101.59    8.20
  -9   8   9  100.29    8.00
  -9   8   9  105.49   13.70
  -9   8   9  109.99   14.80
   8  -8  -9  125.69    8.00
  -8   8   9  131.49   15.50
  -8   8   9  118.39    7.70
  -8   8   9  120.89   14.50
   7  -8  -9  122.69    7.40
   7  -8  -9  137.99    7.40
  -7   8   9  143.39   13.60
  -7   8   9  144.89   13.10
   6  -8  -9    9.30    2.50
   6  -8  -9   11.60    5.80
  -6   8   9    1.60    4.50
  -6   8   9   16.30    6.40
   5  -8  -9  370.76    9.80
   5  -8  -9  363.56    9.90
   5  -8  -9  366.66   19.70
  -5   8   9  382.36   19.40
   4  -8  -9    3.30    3.90
  -4   8   9    3.70    4.00
   3  -8  -9    1.50    3.30
  -3   8   9   -1.00    3.10
   2  -8  -9  100.09    9.70
  -2   8   9  121.09   11.40
   1  -8  -9  701.03   16.60
   1  -8  -9  697.63   16.50
  -1   8   9  703.83   25.70
   0  -8  -9  226.18   13.70
   0  -8  -9  231.88    8.40
   0   8   9  233.28   13.50
   0   8   9  225.48    8.80
  -1  -8  -9  171.98   11.60
  -1  -8  -9  170.78    7.90
   1   8   9  166.88    8.10
   1   8   9  153.98   11.00
  -2  -8  -9   22.30    5.20
  -2  -8  -9   20.00    3.90
   2   8   9   21.60    4.30
   2   8   9   20.80    5.30
  -3  -8  -9  331.07   13.90
  -3  -8  -9  347.87   16.50
   3   8   9  340.67   18.60
   3   8   9  339.47   14.30
  -4  -8  -9   80.69    7.30
  -4  -8  -9   65.79    8.10
   4   8   9   78.29    7.80
   4   8   9   97.99   10.90
  -5  -8  -9  126.49    9.70
   5   8   9  146.39   10.60
   5   8   9  144.99   10.70
  -6  -8  -9  257.07   14.10
   6   8   9  240.48   13.70
  -7  -8  -9 1042.90   33.30
  -7  -8  -9 1080.69   34.10
   7   8   9 1143.29   37.50
  -8  -8  -9    4.80    3.60
  -8  -8  -9    0.70    3.40
   8   8   9    3.20    4.50
  -9  -8  -9   34.90    6.90
  -9  -8  -9   44.60    7.40
   9   8   9   21.20    6.60
 -10  -8  -9   80.59   11.20
 -10  -8  -9   62.39    8.80
  10   8   9   68.79   12.60
 -11  -8  -9   18.30    6.20
 -11  -8  -9   21.80    6.20
  11   8   9   28.30    9.10
 -12  -8  -9   33.20    7.20
 -12  -8  -9   35.10    7.60
  12   8   9   16.30    8.00
   9  -9  -9  141.29   19.10
   9  -9  -9  145.99    8.00
  -9   9   9  167.18   15.60
   8  -9  -9    2.40    5.70
   8  -9  -9    0.20    2.00
  -8   9   9    2.00    5.10
   7  -9  -9    0.20    4.20
  -7   9   9    5.40    4.90
   6  -9  -9   92.59   12.40
  -6   9   9  114.19   14.60
   5  -9  -9    1.90    4.20
  -5   9   9    0.00    4.20
   4  -9  -9  204.18   14.80
  -4   9   9  204.08   14.70
   3  -9  -9  145.49   12.50
  -3   9   9  158.08   12.80
   2  -9  -9  606.04   25.00
  -2   9   9  612.54   25.00
   1  -9  -9   57.69    9.00
  -1   9   9   62.09    9.40
   0  -9  -9   17.20    3.10
   0  -9  -9   12.80    4.50
   0   9   9   24.90    6.00
   0   9   9   18.90    2.80
  -1  -9  -9   85.19    5.60
  -1  -9  -9   84.99   10.40
   1   9   9   84.69    9.90
   1   9   9   89.89    5.90
  -2  -9  -9  750.72   27.80
  -2  -9  -9  791.62   22.90
   2   9   9  789.02   23.10
   2   9   9  817.12   28.30
  -3  -9  -9   15.50    5.00
  -3  -9  -9   18.50    4.30
   3   9   9   18.10    4.40
   3   9   9   19.70    5.70
  -4  -9  -9  268.47   15.20
  -4  -9  -9  250.87   12.90
   4   9   9  257.07   13.40
   4   9   9  251.77   14.40
  -5  -9  -9  627.94   24.10
   5   9   9  615.74   23.50
   5   9   9  579.14   23.20
  -6  -9  -9   53.69    8.70
   6   9   9   51.39    8.30
   6   9   9   41.10    6.80
  -7  -9  -9   -1.90    2.90
  -7  -9  -9    6.10    4.10
   7   9   9   -0.50    3.70
  -8  -9  -9    0.80    3.40
  -8  -9  -9    2.10    3.90
   8   9   9    0.30    4.50
  -9  -9  -9   73.49   10.40
  -9  -9  -9   73.69    9.60
   9   9   9   69.29   12.00
 -10  -9  -9  258.17   15.90
 -10  -9  -9  270.47   16.10
  10   9   9  258.87   19.60
 -11  -9  -9   25.80    6.70
 -11  -9  -9   25.80    6.70
  11   9   9   21.50    7.70
   9 -10  -9    0.20    5.10
  -9  10   9   11.60    6.30
   8 -10  -9   18.20    7.40
  -8  10   9   12.90    6.50
   7 -10  -9  338.27   21.20
  -7  10   9  328.67   20.80
   6 -10  -9   97.69   13.50
  -6  10   9   75.09   12.60
   5 -10  -9   32.50    8.00
  -5  10   9   19.90    6.40
   4 -10  -9   21.20    6.60
  -4  10   9   31.00    7.90
   3 -10  -9   16.50    6.00
  -3  10   9   26.60    7.60
   2 -10  -9   40.10    7.40
  -2  10   9   48.60    8.40
   1 -10  -9   64.09   10.30
  -1  10   9   49.20    8.40
   0 -10  -9   69.49    9.20
   0 -10  -9   87.69    4.20
   0  10   9   71.49    9.50
   0  10   9   90.59    4.30
  -1 -10  -9 1375.36   33.50
  -1 -10  -9 1454.55   43.50
   1  10   9 1431.76   43.10
   1  10   9 1395.46   34.00
  -2 -10  -9   17.80    3.90
  -2 -10  -9   30.60    7.10
   2  10   9   20.00    4.10
   2  10   9   24.50    6.30
  -3 -10  -9   -2.80    1.80
  -3 -10  -9    3.20    3.30
   3  10   9   -1.00    2.30
   3  10   9   -0.60    2.80
  -4 -10  -9   23.20    6.40
  -4 -10  -9    9.50    3.90
   4  10   9   12.60    4.40
   4  10   9   18.50    5.60
  -5 -10  -9  307.17   17.00
   5  10   9  298.37   16.40
   5  10   9  286.87   15.60
  -6 -10  -9   11.00    5.00
   6  10   9    4.80    4.00
   6  10   9   14.80    5.40
  -7 -10  -9  163.98   12.80
   7  10   9  170.98   13.90
   7  10   9  164.98   12.40
  -8 -10  -9   41.60    7.60
  -8 -10  -9   39.90    7.70
   8  10   9   65.99   11.60
  -9 -10  -9  474.35   22.30
  -9 -10  -9  534.45   22.90
   9  10   9  473.95   25.70
 -10 -10  -9    2.30    4.30
 -10 -10  -9   -3.20    3.80
  10  10   9    7.60    6.10
   8 -11  -9  113.19   21.80
  -8  11   9   89.99   14.50
   7 -11  -9  329.17   21.80
  -7  11   9  312.67   21.40
   6 -11  -9   22.30    7.40
  -6  11   9   20.10    8.10
   5 -11  -9   11.90    6.30
  -5  11   9   19.90    6.50
   4 -11  -9  192.88   15.80
  -4  11   9  185.28   15.50
   3 -11  -9   13.60    6.10
  -3  11   9   18.60    6.70
   2 -11  -9  100.09   13.40
  -2  11   9   88.59   11.50
   1 -11  -9   15.10    5.70
  -1  11   9   22.40    7.40
   0 -11  -9  637.84   14.80
   0 -11  -9  645.34   27.20
   0  11   9  633.74   27.00
   0  11   9  660.93   14.50
  -1 -11  -9   97.29    5.90
  -1 -11  -9   82.89   10.40
   1  11   9  101.49   12.70
   1  11   9   92.79    6.00
  -2 -11  -9  137.09    8.30
  -2 -11  -9  136.09   12.30
   2  11   9  173.38   13.20
   2  11   9  140.69    8.50
  -3 -11  -9   23.70    6.40
  -3 -11  -9   34.60    7.70
   3  11   9   41.90    6.50
   3  11   9   29.10    6.90
  -4 -11  -9  230.48   13.00
  -4 -11  -9  267.67   16.50
   4  11   9  269.37   14.20
   4  11   9  249.08   15.50
  -5 -11  -9    0.70    3.70
   5  11   9    1.50    3.50
   5  11   9    0.20    3.80
  -6 -11  -9  183.58   13.80
   6  11   9  128.39   11.40
   6  11   9  134.89   12.10
  -7 -11  -9  204.28   14.60
   7  11   9  215.68   14.20
   7  11   9  182.68   14.70
  -8 -11  -9   93.19   11.40
  -8 -11  -9   94.89   11.50
   8  11   9   75.69   11.30
  -9 -11  -9   43.80    8.30
  -9 -11  -9   30.80    8.10
   9  11   9   28.50    8.30
 -10 -11  -9   15.80    6.10
  -7  12   9   15.20   11.90
   6 -12  -9   39.10    9.90
  -6  12   9   31.50    9.10
   5 -12  -9  133.29   16.50
  -5  12   9  155.68   19.40
   4 -12  -9   54.09   10.20
  -4  12   9   59.79   11.60
   3 -12  -9   83.19   11.60
  -3  12   9   85.99   12.50
   2 -12  -9   60.49    9.90
  -2  12   9   62.89   11.50
   1 -12  -9   35.00    8.60
  -1  12   9   43.00    8.70
   0 -12  -9    8.10    5.10
   0  12   9    4.40    4.30
  -1 -12  -9    4.80    4.50
  -1 -12  -9    2.10    1.90
   1  12   9    3.00    2.10
   1  12   9    8.70    5.20
  -2 -12  -9    6.20    2.80
  -2 -12  -9    4.30    4.80
   2  12   9   10.20    5.30
   2  12   9   10.80    3.50
  -3 -12  -9  187.18   11.20
  -3 -12  -9  216.08   15.50
   3  12   9  219.58   11.90
   3  12   9  214.68   15.20
  -4 -12  -9   23.70    7.00
   4  12   9   26.80    6.30
   4  12   9   22.70    6.40
  -5 -12  -9  264.97   17.20
   5  12   9  269.07   15.60
   5  12   9  221.68   15.40
  -6 -12  -9  220.88   15.90
   6  12   9  218.68   15.20
   6  12   9  224.88   15.20
  -7 -12  -9  142.19   13.20
   7  12   9  144.79   13.60
   7  12   9  154.28   12.60
  -8 -12  -9   73.09   10.30
  -8 -12  -9   67.59   10.70
   8  12   9   58.59   11.00
  -9 -12  -9  179.48   15.00
  -9 -12  -9  169.28   13.90
   9  12   9  155.98   15.70
   6 -13  -9   81.89   14.70
  -6  13   9   83.19   14.20
   5 -13  -9  101.19   14.90
  -5  13   9   78.89   19.50
   4 -13  -9   22.20    8.00
  -4  13   9   24.60    7.60
   3 -13  -9   37.40    8.70
  -3  13   9   46.50   10.80
   2 -13  -9   49.90   10.40
  -2  13   9   45.70   10.00
   1 -13  -9    2.10    4.00
  -1  13   9    3.10    5.00
   0 -13  -9  237.58   17.00
   0  13   9  238.88   17.60
  -1 -13  -9   62.19   11.50
  -1 -13  -9   42.20    4.20
   1  13   9   52.09    4.40
   1  13   9   57.59   10.50
  -2 -13  -9  141.59   13.60
  -2 -13  -9  122.09    8.00
   2  13   9  139.39   13.10
   2  13   9  142.79    8.60
  -3 -13  -9   11.60    4.10
  -3 -13  -9    7.60    5.00
   3  13   9    7.80    5.30
   3  13   9   13.40    4.20
  -4 -13  -9  326.37   20.10
   4  13   9  356.66   20.10
   4  13   9  353.66   17.10
  -5 -13  -9   48.10    9.30
   5  13   9   58.69    9.00
   5  13   9   38.80    8.50
  -6 -13  -9   53.69   10.30
   6  13   9   50.19    9.30
   6  13   9   27.00    7.30
  -7 -13  -9   32.70    9.20
   7  13   9   38.50    9.10
   7  13   9   53.59   10.20
  -8 -13  -9  278.57   18.80
  -8 -13  -9  263.97   17.20
   8  13   9  284.97   19.70
   8  13   9  286.37   17.60
   5 -14  -9    0.30    6.00
  -5  14   9    4.80    6.60
   4 -14  -9   51.29   15.00
  -4  14   9   46.00   10.30
   3 -14  -9   11.30    5.90
  -3  14   9   21.00    8.00
   2 -14  -9   -4.50    3.50
  -2  14   9    3.00    5.30
   1 -14  -9  189.68   16.20
  -1  14   9  184.18   16.50
   0 -14  -9  165.88   15.00
   0  14   9  129.89   15.90
  -1 -14  -9   43.60    4.60
  -1 -14  -9   53.19   10.90
   1  14   9   35.50    9.20
  -2 -14  -9    7.40    5.20
  -2 -14  -9    6.20    3.00
   2  14   9    5.70    5.10
   2  14   9    7.10    3.20
  -3 -14  -9  107.69    9.00
  -3 -14  -9  151.18   14.40
   3  14   9  148.39   10.10
   3  14   9  117.19   14.30
  -4 -14  -9   58.29   12.00
   4  14   9   85.39   11.70
   4  14   9   68.19   10.30
  -5 -14  -9    8.40    6.10
   5  14   9    8.50    5.00
   5  14   9    7.90    5.20
  -6 -14  -9    5.40    5.10
   6  14   9   14.40    5.60
   6  14   9   14.20    6.00
   3 -15  -9    9.50    6.40
  -3  15   9   -2.00    4.90
   2 -15  -9   63.39   10.70
  -2  15   9   66.09   12.40
   1 -15  -9   64.59   11.70
  -1  15   9   97.59   16.10
   0 -15  -9   22.00    7.00
   0  15   9   35.50    9.80
  -1 -15  -9    1.20    4.50
   1  15   9    1.40    4.70
   1  15   9    1.60    1.40
  -2 -15  -9   48.20   10.40
  -2 -15  -9   41.60    5.90
   2  15   9   44.80    6.00
   2  15   9   54.99   13.40
  -3 -15  -9    7.30    5.40
   3  15   9   19.10    8.00
   3  15   9    7.20    3.70
  -4 -15  -9   12.70    6.40
   4  15   9   12.40    6.20
   4  15   9    9.20    4.60
   2  10 -10   12.90    4.40
   2  10 -10   13.00    6.80
  -2 -10  10    7.20    5.40
   1  10 -10   18.20    7.90
   1  10 -10   17.50    5.30
  -1 -10  10   20.30    6.20
   0  10 -10   -0.40    3.60
   0  10 -10   -1.30    5.00
   0 -10  10   -1.70    3.80
  -1  10 -10   39.60    7.90
  -1  10 -10   40.70   10.50
   1 -10  10   46.70    7.40
  -2  10 -10   15.90    6.60
  -2  10 -10   13.10    6.80
   2 -10  10   20.30    5.40
  -3  10 -10   53.49    9.50
  -3  10 -10   57.99   10.90
  -4  10 -10   14.30    6.90
  -4  10 -10   15.20    6.80
   4 -10  10   16.30    4.30
  -5  10 -10   17.40    7.10
  -5  10 -10   21.50    8.20
   5 -10  10   19.00    4.20
  -6  10 -10   47.60   17.60
  -6  10 -10   34.90    9.00
   6 -10  10   41.40    4.60
   6 -10  10   42.80    7.40
   4   9 -10   10.00    7.70
  -4  -9  10   -1.40    4.50
   3   9 -10   90.69    5.60
  -3  -9  10  111.39   12.60
  -3  -9  10   89.99    4.80
   2   9 -10    2.30    3.00
   2   9 -10   -0.10    5.20
  -2  -9  10    0.30    2.20
  -2  -9  10    4.40    4.80
   1   9 -10   -4.50    4.20
   1   9 -10   -1.10    3.10
  -1  -9  10    0.70    2.80
  -1  -9  10   -2.50    3.20
   0   9 -10   16.30    7.50
   0   9 -10   15.30    5.30
   0  -9  10    5.00    4.00
  -1   9 -10  109.79   14.10
  -1   9 -10  138.09   11.60
   1  -9  10  130.99   10.20
  -2   9 -10   -1.00    3.70
  -2   9 -10    7.80    5.70
  -3   9 -10    5.70    5.70
  -3   9 -10   17.00    6.80
   3  -9  10   14.10    4.10
  -4   9 -10    0.90    2.90
  -4   9 -10   -0.30    4.40
  -4   9 -10   -5.40    4.10
   4  -9  10    0.90    2.90
  -5   9 -10   77.59    6.70
  -5   9 -10   84.49   12.30
  -5   9 -10   82.19   12.90
   5  -9  10   85.89    6.30
  -6   9 -10   -1.20    5.20
  -6   9 -10   -2.40    4.20
   6  -9  10    1.80    1.80
   6  -9  10    1.30    1.90
  -7   9 -10    4.80    5.40
  -7   9 -10   16.10    8.30
  -8   9 -10   35.80    9.60
  -8   9 -10   38.60   10.20
   5   8 -10    0.10    5.90
  -5  -8  10   10.30    7.10
   4   8 -10   69.79   13.20
  -4  -8  10   97.39   10.90
   3   8 -10   85.79   14.50
  -3  -8  10   88.69   11.00
   2   8 -10   54.99   10.40
   2   8 -10   48.30    5.80
  -2  -8  10   60.79    8.90
  -2  -8  10   39.10    4.70
   1   8 -10   55.29   10.20
   1   8 -10   67.99    7.80
  -1  -8  10   67.29    8.90
   0   8 -10  163.78   11.00
   0   8 -10  184.38   15.60
   0  -8  10  149.79    9.30
   0  -8  10  181.68   11.60
  -1   8 -10   23.20    5.90
  -1   8 -10   25.20    7.70
  -2   8 -10    8.10    4.90
  -2   8 -10    2.40    4.90
   2  -8  10    1.80    3.10
  -3   8 -10   14.90    6.50
  -3   8 -10   18.40    6.00
  -3   8 -10   11.50    3.90
   3  -8  10   17.30    4.30
  -4   8 -10   75.09   10.50
  -4   8 -10   65.09   11.00
  -4   8 -10   69.59    6.40
   4  -8  10   65.39    5.80
  -5   8 -10   38.00    4.80
  -5   8 -10   34.70    8.40
  -5   8 -10   42.00    8.70
   5  -8  10   37.00    4.30
  -6   8 -10   31.30    8.80
  -6   8 -10   25.80    8.30
   6  -8  10   27.20    4.60
   6  -8  10   28.60    4.30
  -7   8 -10   22.50    8.10
  -7   8 -10   19.30    7.50
  -8   8 -10   31.00   10.80
   8  -8  10   31.60    8.90
  -9   8 -10   43.00    9.90
   9  -8  10   33.40    9.70
   6   7 -10   12.70    7.10
  -6  -7  10   15.30    9.90
   5   7 -10  200.28   18.00
  -5  -7  10  178.68   14.30
   4   7 -10  169.38   15.90
  -4  -7  10  162.18   13.20
   3   7 -10   19.60    2.20
   3   7 -10   22.00    7.50
  -3  -7  10   34.50    7.30
   2   7 -10   12.60    3.40
   2   7 -10   13.80    6.80
  -2  -7  10    9.30    2.70
  -2  -7  10   20.40    5.60
   1   7 -10   38.00    8.30
   1   7 -10   71.29    6.70
  -1  -7  10   58.99    8.00
  -1  -7  10   56.69    5.20
   0   7 -10   20.10    5.00
   0   7 -10   14.30    6.50
   0  -7  10   11.30    3.50
  -1   7 -10   32.10    6.60
  -1   7 -10   36.90    8.60
   1  -7  10   34.70    5.80
   1  -7  10   23.70    5.60
  -2   7 -10   19.70    4.50
  -2   7 -10   31.50    7.40
  -2   7 -10   41.30    9.30
   2  -7  10   28.10    5.10
  -3   7 -10   83.29   11.00
  -3   7 -10   51.09    9.70
  -3   7 -10   60.99    7.00
   3  -7  10   59.79    5.80
  -4   7 -10   53.99    6.00
  -4   7 -10   67.59   10.70
  -4   7 -10   55.59   10.30
   4  -7  10   50.69    4.90
  -5   7 -10    5.50    5.20
  -5   7 -10    2.60    2.00
  -5   7 -10   -1.20    4.40
   5  -7  10    3.30    2.00
  -6   7 -10   22.80    7.40
  -6   7 -10   24.00    7.10
   6  -7  10   16.30    7.00
  -7   7 -10  120.79   14.40
   7  -7  10  141.89   14.10
  -8   7 -10  102.49   14.60
   8  -7  10   78.19   13.10
   9  -7  10   94.89   14.10
 -10   7 -10   47.20   10.90
  10  -7  10   31.60    9.30
   7   6 -10   63.89   13.30
  -7  -6  10   56.39    9.50
   6   6 -10  109.79   14.30
  -6  -6  10  155.78   13.50
   5   6 -10  156.88   15.80
  -5  -6  10  184.28   13.70
   4   6 -10   34.30    8.20
  -4  -6  10   45.00    8.30
   3   6 -10    2.60    4.50
  -3  -6  10   -4.00    3.30
   2   6 -10   46.00    9.90
   2   6 -10   54.19    4.70
  -2  -6  10   54.29    7.70
  -2  -6  10   47.30    3.80
   1   6 -10   -3.70    3.40
   1   6 -10   -0.10    2.30
  -1  -6  10   -2.60    1.70
  -1  -6  10   -1.60    3.00
   0   6 -10   51.59    9.90
   0   6 -10   66.99    7.50
   0  -6  10   51.89    6.60
   0  -6  10   50.69    5.80
  -1   6 -10   18.40    4.40
  -1   6 -10   20.40    6.50
  -1   6 -10   29.10    5.90
   1  -6  10   33.30    5.30
   1  -6  10   31.50    5.10
  -2   6 -10   69.89    6.50
  -2   6 -10   98.29   12.90
  -2   6 -10   78.89    9.20
   2  -6  10   88.79    6.70
  -3   6 -10    5.70    6.30
  -3   6 -10    2.80    2.30
  -3   6 -10    3.90    4.40
   3  -6  10    5.00    2.60
  -4   6 -10   59.89    9.50
  -4   6 -10   55.29    9.00
  -4   6 -10   59.49    5.10
   4  -6  10   61.89    4.60
  -5   6 -10   14.30    6.20
  -5   6 -10   13.90    5.80
   5  -6  10    9.90    5.70
   5  -6  10   16.80    2.10
  -6   6 -10   75.19   10.90
   6  -6  10   53.29   10.30
  -7   6 -10    8.10    6.20
   7  -6  10    4.00    4.90
  -8   6 -10  131.19   15.30
   8  -6  10  113.39   14.20
  -9   6 -10   21.30    8.70
   9  -6  10   25.90    8.00
 -10   6 -10    2.80    6.80
  10  -6  10    0.10    4.60
 -11   6 -10   96.49   14.50
  11  -6  10   62.89   12.20
   8   5 -10  124.99   16.70
  -8  -5  10  153.98   14.50
  -7  -5  10  307.97   18.70
   6   5 -10   96.79   14.40
  -6  -5  10   68.29   10.10
   5   5 -10   70.29   10.90
  -5  -5  10   65.99    8.90
   4   5 -10   14.50    6.10
  -4  -5  10   22.60    5.80
   3   5 -10    4.20    4.40
  -3  -5  10   -2.00    3.40
   2   5 -10    9.80    2.70
   2   5 -10    9.60    6.10
  -2  -5  10    5.90    3.70
   1   5 -10  128.99   12.40
   1   5 -10  139.59    7.60
  -1  -5  10  141.19    9.70
  -1  -5  10  129.09    6.60
   0   5 -10  220.18   11.50
   0   5 -10  246.18   16.20
   0   5 -10  244.78   11.20
   0  -5  10  238.08   11.70
   0  -5  10  235.78    9.90
  -1   5 -10  176.88   13.70
  -1   5 -10  179.18   10.40
   1  -5  10  179.48    9.40
  -2   5 -10   -1.20    3.30
  -2   5 -10    3.00    2.50
  -2   5 -10    1.70    3.60
   2  -5  10    1.70    2.30
   2  -5  10    2.10    2.60
  -3   5 -10  266.07   14.10
  -3   5 -10  254.47   16.30
  -3   5 -10  251.57   10.30
   3  -5  10  258.47    9.50
  -4   5 -10    9.70    2.40
  -4   5 -10   15.50    5.70
  -4   5 -10    3.00    4.90
   4  -5  10    8.70    2.30
   4  -5  10   12.80    5.70
  -5   5 -10   15.30    6.30
   5  -5  10   23.90    7.30
  -6   5 -10   11.10    5.60
   6  -5  10   18.30    6.80
  -7   5 -10  218.58   16.20
   7  -5  10  220.08   16.20
  -8   5 -10   17.10    7.20
   8  -5  10   13.60    6.50
  -9   5 -10   -9.40    4.30
   9  -5  10    2.90    4.80
 -10   5 -10   98.49   13.60
  10  -5  10  115.39   15.10
 -11   5 -10  194.78   17.90
  11  -5  10  192.68   17.80
   8   4 -10  132.09   18.30
  -8  -4  10  149.09   13.80
   7   4 -10  174.08   16.40
  -7  -4  10  167.58   14.10
   6   4 -10  176.88   15.90
  -6  -4  10  170.68   13.50
   5   4 -10   96.59   13.60
  -5  -4  10   91.39   10.30
   4   4 -10   47.30    8.40
  -4  -4  10   52.19    8.50
   3   4 -10  151.18   13.20
  -3  -4  10  149.59   10.60
   2   4 -10  134.49    5.90
   2   4 -10  159.98   13.10
  -2  -4  10  136.49   11.10
   1   4 -10  269.07   10.30
   1   4 -10  256.27   12.40
   1   4 -10  267.57   16.30
  -1  -4  10  258.77   12.40
  -1  -4  10  268.47    9.40
   0   4 -10    3.30    2.80
   0   4 -10    8.30    3.00
   0   4 -10    1.30    3.80
   0  -4  10    7.60    2.60
   0  -4  10    4.40    2.80
  -1   4 -10    8.70    3.00
  -1   4 -10    4.10    3.80
  -1   4 -10    6.90    3.50
   1  -4  10    3.60    2.50
   1  -4  10   12.10    3.30
  -2   4 -10  390.16   16.00
  -2   4 -10  427.46   20.40
  -2   4 -10  407.16   13.80
   2  -4  10  404.96   15.00
   2  -4  10  432.86   13.50
  -3   4 -10   55.79    4.40
  -3   4 -10   48.70    8.10
  -3   4 -10   53.09    6.90
   3  -4  10   41.30    5.50
   3  -4  10   55.89    4.20
  -4   4 -10   39.00    3.30
  -4   4 -10   52.29    7.60
   4  -4  10   47.20    3.00
   4  -4  10   43.90    8.60
  -5   4 -10   23.70    5.90
   5  -4  10   20.70    6.00
  -6   4 -10   51.29    8.50
   6  -4  10   52.79    8.80
  -7   4 -10   29.40    7.10
   7  -4  10   34.60    7.40
  -8   4 -10    4.40    5.70
   8  -4  10    5.40    5.00
  -9   4 -10   88.99   12.30
   9  -4  10   68.19   11.90
 -10   4 -10  293.47   19.90
  10  -4  10  301.17   20.60
  11  -4  10   12.90    7.50
 -12   4 -10    9.20    7.20
  12  -4  10   -1.30    5.60
   9   3 -10   85.49   14.30
  -9  -3  10   69.69   10.80
   8   3 -10   68.79   12.50
  -8  -3  10  100.99   12.90
   7   3 -10  140.79   16.70
  -7  -3  10  146.29   12.80
   6   3 -10  241.48   17.50
  -6  -3  10  256.87   15.60
   5   3 -10  189.38   15.20
  -5  -3  10  215.48   13.70
   4   3 -10    1.10    3.70
  -4  -3  10   -0.70    3.40
   3   3 -10   53.09    9.20
  -3  -3  10   44.40    6.90
   2   3 -10   35.70    3.00
   2   3 -10   45.30    3.30
   2   3 -10   36.40    6.90
  -2  -3  10   42.50    6.40
   1   3 -10    3.50    3.80
   1   3 -10    6.10    2.30
   1   3 -10    2.70    1.80
   1   3 -10    2.10    2.30
  -1  -3  10    1.50    2.70
   0   3 -10   50.39    5.90
   0   3 -10   45.20    5.30
   0  -3  10   40.10    4.50
   0  -3  10   43.90    5.50
  -1   3 -10  104.19   10.00
  -1   3 -10   91.49    6.10
  -1   3 -10   97.99    6.90
   1  -3  10   90.99    6.10
   1  -3  10   84.49    6.00
  -2   3 -10   19.10    5.40
  -2   3 -10   10.60    2.70
  -2   3 -10   11.90    3.70
   2  -3  10   13.40    5.50
   2  -3  10   12.20    2.80
  -3   3 -10  201.58    7.60
  -3   3 -10  196.78   11.00
   3  -3  10  199.48   10.20
   3  -3  10  195.88   13.80
   3  -3  10  205.78    7.30
  -4   3 -10    2.50    3.20
  -4   3 -10   -0.70    1.00
   4  -3  10   -1.60    4.50
   4  -3  10    1.40    1.00
   5  -3  10  215.58   14.60
  -6   3 -10   41.10    6.90
   6  -3  10   48.10    9.00
  -7   3 -10   15.20    5.60
   7  -3  10    6.30    5.00
  -8   3 -10  147.79   12.80
   8  -3  10  165.58   14.20
  -9   3 -10  293.67   18.30
   9  -3  10  294.07   19.30
 -10   3 -10    7.10    6.30
  10  -3  10   12.30    6.30
 -11   3 -10  136.29   16.10
  11  -3  10  158.98   16.10
 -12   3 -10   85.79   13.70
  12  -3  10   85.49   14.60
   9   2 -10   -0.10    5.20
  -9  -2  10   -2.80    4.30
   8   2 -10   37.40    9.90
  -8  -2  10   30.00    7.60
   7   2 -10  349.47   21.20
  -7  -2  10  388.96   19.80
   6   2 -10  529.15   24.90
  -6  -2  10  487.45   21.60
   5   2 -10    2.20    4.30
  -5  -2  10    0.10    3.20
   4   2 -10  355.76   19.10
  -4  -2  10  369.86   16.70
   3   2 -10   63.59    8.50
   2   2 -10  372.46   10.60
   2   2 -10  372.36   17.00
   2   2 -10  378.66   10.90
   2   2 -10  392.56   20.90
  -2  -2  10  396.76   15.60
   1   2 -10  147.49    6.70
   1   2 -10  165.98   11.90
   1   2 -10  162.68    6.90
   1   2 -10  143.69    8.50
  -1  -2  10  149.39    8.80
   0   2 -10  114.89   10.00
   0   2 -10  113.79    6.50
   0   2 -10  101.69    6.70
   0  -2  10  109.99    7.10
  -1   2 -10  286.47   11.40
  -1   2 -10  268.17   10.20
  -1   2 -10  244.08   14.60
   1  -2  10  294.97   10.70
   1  -2  10  271.37   10.70
  -2   2 -10  440.56   12.90
  -2   2 -10  436.46   19.50
  -2   2 -10  429.06   15.70
   2  -2  10  436.76   13.10
   2  -2  10  412.56   19.50
   2  -2  10  416.26   14.80
  -3   2 -10   78.79    4.30
  -3   2 -10   72.29    7.00
   3  -2  10   79.79    4.70
   3  -2  10   82.09    6.60
   3  -2  10   98.39    9.60
  -4   2 -10   47.10    2.40
  -4   2 -10   43.00    6.00
   4  -2  10   50.39    8.00
   4  -2  10   51.79    6.70
  -5   2 -10  184.18   11.50
  -6   2 -10   15.40    4.90
   6  -2  10   16.60    5.70
  -7   2 -10  165.58   12.20
   7  -2  10  170.08   13.60
  -8   2 -10  601.14   24.40
   8  -2  10  583.54   26.50
  -9   2 -10   11.80    5.20
   9  -2  10   11.90    6.20
 -10   2 -10  350.96   20.10
  10  -2  10  437.36   23.90
 -11   2 -10   -4.20    4.30
  11  -2  10   -2.00    4.40
 -12   2 -10  196.68   24.70
  12  -2  10  230.78   19.60
  10   1 -10    1.90    5.40
 -10  -1  10   -1.10    4.00
   9   1 -10   72.19   12.40
   8   1 -10  967.00   37.30
  -8  -1  10 1004.70   35.20
   7   1 -10   11.90    6.10
  -7  -1  10    3.30    4.90
   6   1 -10   -0.60    3.90
  -6  -1  10    1.30    4.00
   5   1 -10  165.98   13.30
  -5  -1  10  211.18   13.00
   4   1 -10  324.17   17.60
  -4  -1  10  361.96   16.20
   3   1 -10  105.29    3.80
   3   1 -10  104.99    3.60
  -3  -1  10   89.29    8.20
   2   1 -10  464.75   20.30
   2   1 -10  475.25   17.00
   2   1 -10  464.25   12.70
   2   1 -10  486.85   15.40
  -2  -1  10  488.25   17.50
   1   1 -10   33.20    6.60
   1   1 -10   27.10    3.40
   1   1 -10   20.20    3.20
   1   1 -10   20.10    4.50
  -1  -1  10   23.30    4.10
   0   1 -10   23.60    3.60
   0   1 -10   17.60    4.60
   0   1 -10   22.50    3.80
   0   1 -10   24.60    5.90
   0   1 -10   22.60    3.60
   0  -1  10   25.70    4.30
  -1   1 -10  135.49   10.10
  -1   1 -10  118.09    7.00
  -1   1 -10  107.69    9.40
  -1   1 -10  115.29    6.30
  -1   1 -10  118.89    6.80
   1  -1  10  114.59    6.60
  -2   1 -10  259.27    9.00
  -2   1 -10  267.97   14.30
  -2   1 -10  270.47   11.40
   2  -1  10  250.47   10.80
   2  -1  10  259.97   14.60
   2  -1  10  263.97    9.40
  -3   1 -10  405.56   18.10
  -3   1 -10  397.06   11.00
  -3   1 -10  392.26   15.10
   3  -1  10  405.36   11.50
   3  -1  10  397.26   18.30
   3  -1  10  413.96   15.10
  -4   1 -10  102.89    3.50
  -4   1 -10  105.99    3.80
  -4   1 -10  106.89    8.10
   4  -1  10  109.39    7.70
   4  -1  10   96.29    9.40
  -5   1 -10   91.79   10.10
   5  -1  10   96.49   11.80
  -6   1 -10   52.19    8.10
   6  -1  10   59.19    8.50
  -7   1 -10  226.78   13.70
   7  -1  10  217.38   15.00
  -8   1 -10   65.89   10.30
   8  -1  10   52.49    9.00
  -9   1 -10  334.27   18.20
   9  -1  10  363.36   21.00
 -10   1 -10  415.16   21.30
  10  -1  10  434.86   24.10
 -11   1 -10   73.69   10.60
  11  -1  10   90.89   13.10
 -12   1 -10   54.19    9.70
  12  -1  10   55.89   11.50
 -13   1 -10   29.20    9.40
  13  -1  10   35.70   10.40
  10   0 -10   31.80    9.20
 -10   0  10   26.90    8.00
   9   0 -10  300.87   20.10
  -9   0  10  295.77   18.80
   8   0 -10   76.99   11.70
  -8   0  10   42.70    8.30
   7   0 -10   30.10    7.80
  -7   0  10   22.00    6.40
   6   0 -10  272.27   16.60
  -6   0  10  240.38   14.90
   5   0 -10  545.75   23.40
  -5   0  10  583.84   22.40
   4   0 -10   65.99   12.30
   4   0 -10   52.89    2.70
   4   0 -10   53.49    2.60
  -4   0  10   37.40    6.20
   3   0 -10   74.79    4.30
   3   0 -10   78.79    3.90
   3   0 -10   75.89    9.00
  -3   0  10   73.59    8.00
   2   0 -10  116.09    7.70
   2   0 -10  119.59    6.00
   2   0 -10  109.89    5.30
   2   0 -10  100.99    9.20
   2   0 -10  114.09    9.50
  -2   0  10  112.69    8.20
   1   0 -10  141.89    7.00
   1   0 -10  126.59   10.00
   1   0 -10  142.69    6.50
   1   0 -10  144.89   10.30
  -1   0  10  135.89    8.30
   0   0 -10   78.79    5.30
   0   0 -10   76.79    7.70
   0   0 -10   95.09   10.50
   0   0 -10   73.69    5.50
   0   0 -10   87.59    5.70
   0   0  10   80.59    6.00
  -1   0 -10  377.76   13.10
  -1   0 -10  377.76   12.30
  -1   0 -10  377.16   16.90
  -1   0 -10  382.76   13.40
  -1   0 -10  392.06   17.10
   1   0  10  377.06   12.90
  -2   0 -10  142.69    7.90
  -2   0 -10  140.29    6.20
  -2   0 -10  148.19    8.00
  -2   0 -10  145.09   10.00
   2   0  10  130.89   10.10
   2   0  10  125.99    6.50
  -3   0 -10   79.79    9.60
  -3   0 -10   69.09    6.10
  -3   0 -10   67.39    3.80
   3   0  10   45.40    6.70
  -4   0 -10   46.30    2.70
  -4   0 -10   49.20    3.10
  -4   0 -10   44.80    5.60
  -4   0 -10   51.29    7.50
   4   0  10   41.90    5.50
   4   0  10   48.10    7.90
  -5   0 -10   15.40    4.10
   5   0  10   18.40    5.40
  -6   0 -10   56.49    7.90
   6   0  10   44.20   11.50
  -7   0 -10    1.00    2.90
   7   0  10    0.10    3.60
  -8   0 -10  320.27   16.80
   8   0  10  345.67   19.40
  -9   0 -10  188.28   13.70
   9   0  10  190.08   15.40
 -10   0 -10   98.09    3.90
 -10   0 -10  101.19   11.50
  10   0  10  104.59    4.00
  10   0  10  139.19   14.00
 -11   0 -10   10.40    6.10
  11   0  10   25.00    8.60
 -12   0 -10  200.58    7.80
 -12   0 -10  234.48   16.80
  12   0  10  187.68    8.00
  12   0  10  214.98   18.50
 -13   0 -10   10.20    2.60
 -13   0 -10    9.70    6.90
  13   0  10    1.20    2.70
  13   0  10    9.20    7.00
  10  -1 -10   98.49   14.30
 -10   1  10   79.59   11.50
   9  -1 -10   -0.10    4.90
  -9   1  10    2.30    4.50
   8  -1 -10   59.59    9.90
   8  -1 -10   58.59    3.30
  -8   1  10   61.49    9.60
  -8   1  10   60.59    3.20
   7  -1 -10  354.56   10.30
   7  -1 -10  358.66   19.40
  -7   1  10  350.06    9.80
  -7   1  10  366.66   19.00
   6  -1 -10  388.66   19.50
  -6   1  10  401.76   19.20
  -6   1  10  423.36   11.30
   5  -1 -10   50.99    3.80
  -5   1  10   53.79    7.60
  -5   1  10   51.49    3.60
   4  -1 -10  178.28   11.90
   4  -1 -10  174.08    6.90
  -4   1  10  174.78   11.30
   3  -1 -10   92.29    5.40
   3  -1 -10  104.09    9.10
  -3   1  10   97.49    8.40
  -3   1  10  104.69    8.30
   2  -1 -10   -0.60    1.60
   2  -1 -10    0.80    1.70
   2  -1 -10    1.40    2.60
   2  -1 -10   -0.30    2.40
   2  -1 -10    2.40    1.80
  -2   1  10    0.30    2.20
   1  -1 -10   69.29    5.30
   1  -1 -10   55.59    6.20
   1  -1 -10   64.99    4.70
   1  -1 -10   62.79    7.70
   1  -1 -10   57.89    7.20
  -1   1  10   70.59    6.10
   0  -1 -10  292.97   16.20
   0  -1 -10  295.77   11.50
   0  -1 -10  312.07   11.10
   0  -1 -10  295.07   14.30
   0  -1 -10  289.97   11.20
   0   1  10  300.67   12.10
  -1  -1 -10  147.39    7.90
  -1  -1 -10  145.69    7.00
  -1  -1 -10  152.28   12.80
  -1  -1 -10  129.89    8.00
   1   1  10  144.69    7.60
   1   1  10  141.79   10.10
  -2  -1 -10   41.70    5.30
  -2  -1 -10   41.10    3.60
  -2  -1 -10   37.40    5.90
  -2  -1 -10   48.60    5.80
   2   1  10   33.60    5.70
   2   1  10   39.20    4.50
  -3  -1 -10  285.57    9.00
  -3  -1 -10  280.47   11.90
  -3  -1 -10  262.97   13.40
  -3  -1 -10  276.37    9.80
   3   1  10  256.67   13.90
  -4  -1 -10   16.10    4.50
  -4  -1 -10   22.30    2.60
  -4  -1 -10   17.20    2.70
  -4  -1 -10   12.60    3.70
  -4  -1 -10   16.70    3.80
   4   1  10   15.80    4.90
  -5  -1 -10   16.80    2.10
  -5  -1 -10   20.30    2.40
  -5  -1 -10   16.50    4.30
   5   1  10   17.20    5.40
   5   1  10   24.80    5.10
  -6  -1 -10  279.47    7.50
  -6  -1 -10  267.57    7.70
  -6  -1 -10  277.37   13.60
   6   1  10  280.27   15.80
  -7  -1 -10  265.67   13.90
  -7  -1 -10  243.98    7.00
  -7  -1 -10  242.68    7.50
   7   1  10  255.07   15.90
  -8  -1 -10  378.06   17.60
  -8  -1 -10  379.16   10.10
   8   1  10  364.76   20.00
   8   1  10  375.96   11.90
  -9  -1 -10   47.90    3.70
  -9  -1 -10   57.19    9.00
   9   1  10   42.60    3.80
   9   1  10   50.79    9.90
 -10  -1 -10   53.99    4.10
 -10  -1 -10   51.19    8.80
  10   1  10   52.19   10.60
  10   1  10   59.09    4.70
 -11  -1 -10  390.36   12.60
 -11  -1 -10  415.16   21.40
  11   1  10  441.46   24.90
  11   1  10  402.56   13.90
 -12  -1 -10   64.69    5.30
 -12  -1 -10   77.59   11.00
  12   1  10   64.99   12.40
  12   1  10   54.79    6.10
 -13  -1 -10   22.20    3.90
 -13  -1 -10   17.70    8.00
  13   1  10   13.90    8.10
  13   1  10   19.40    4.50
  10  -2 -10    5.00    2.50
  10  -2 -10    6.90    5.70
 -10   2  10    5.00    2.70
 -10   2  10    3.90    5.40
   9  -2 -10  168.58    7.80
   9  -2 -10  207.58   15.60
  -9   2  10  189.28   15.20
  -9   2  10  173.28    8.50
   8  -2 -10  320.57   11.10
   8  -2 -10  339.97   19.00
  -8   2  10  319.37   18.50
  -8   2  10  330.57   12.00
   7  -2 -10  727.43   27.60
   7  -2 -10  693.83   19.20
  -7   2  10  737.53   27.90
  -7   2  10  699.63   20.00
   6  -2 -10   19.20    6.60
   6  -2 -10   15.50    3.10
  -6   2  10   19.60    3.50
  -6   2  10   12.50    5.10
   5  -2 -10  243.48    9.40
   5  -2 -10  227.68   13.60
  -5   2  10  252.87    9.80
  -5   2  10  254.07   14.20
   4  -2 -10   40.90    7.00
   4  -2 -10   45.20    4.80
  -4   2  10   37.70    6.00
  -4   2  10   45.10    4.30
  -4   2  10   29.50    5.70
   3  -2 -10   58.39    4.90
   3  -2 -10   64.09    8.60
   3  -2 -10   69.79    8.70
  -3   2  10   49.40    6.50
  -3   2  10   56.99    4.70
   2  -2 -10  497.25   17.30
   2  -2 -10  520.95   16.60
   2  -2 -10  505.35   19.10
  -2   2  10  517.55   15.70
  -2   2  10  530.45   18.80
   1  -2 -10  294.47   11.70
   1  -2 -10  315.27   14.20
   1  -2 -10  294.07   13.70
  -1   2  10  284.77   12.70
  -1   2  10  303.17   11.20
   0  -2 -10   11.60    3.00
   0  -2 -10   10.20    2.60
   0  -2 -10   10.90    3.00
   0  -2 -10   10.20    3.30
   0  -2 -10    7.90    3.40
   0   2  10   13.10    3.40
  -1  -2 -10   14.90    3.00
  -1  -2 -10   14.40    3.30
  -1  -2 -10   19.50    3.90
  -1  -2 -10   14.60    3.90
   1   2  10   19.10    3.70
   1   2  10   10.50    3.60
  -2  -2 -10   85.09    6.30
  -2  -2 -10   85.89    6.50
  -2  -2 -10   91.19    5.40
  -2  -2 -10   83.09    7.30
  -2  -2 -10   91.79    6.10
   2   2  10   88.69    7.90
  -3  -2 -10  123.59    8.80
  -3  -2 -10  132.29    8.00
  -3  -2 -10  126.29    6.70
  -3  -2 -10  135.99    9.60
  -3  -2 -10  126.69    6.20
   3   2  10  129.09    9.50
  -4  -2 -10    1.80    2.30
  -4  -2 -10    3.30    2.60
  -4  -2 -10    1.60    1.50
  -4  -2 -10    0.60    1.70
  -4  -2 -10    2.80    2.20
   4   2  10   -1.60    2.20
  -5  -2 -10   27.80    3.40
  -5  -2 -10   28.20    5.30
  -5  -2 -10   31.50    3.60
  -5  -2 -10   32.60    6.00
  -5  -2 -10   36.80    6.40
   5   2  10   29.50    6.40
  -6  -2 -10  132.99    5.90
  -6  -2 -10  136.09    9.40
   6   2  10  106.59   10.20
  -7  -2 -10    2.10    3.30
  -7  -2 -10    3.70    1.70
   7   2  10    3.60    3.60
   7   2  10    0.70    1.50
  -8  -2 -10  107.09    9.70
  -8  -2 -10  113.99    5.70
   8   2  10  102.69   12.10
   8   2  10  114.89    6.40
  -9  -2 -10   77.09    5.20
  -9  -2 -10   68.69    9.40
   9   2  10   75.29    5.80
   9   2  10   76.49   11.60
 -10  -2 -10  881.41   23.10
 -10  -2 -10  902.21   31.60
  10   2  10  933.61   36.40
  10   2  10  872.61   24.80
 -11  -2 -10   91.19   12.50
 -11  -2 -10   81.69    6.00
  11   2  10  110.89   16.10
  11   2  10   71.69    6.60
 -12  -2 -10    4.20    5.10
 -12  -2 -10   -0.40    2.30
  12   2  10    7.20    6.20
  12   2  10    1.10    3.10
 -13  -2 -10   13.90   11.40
 -13  -2 -10   19.00    4.10
  13   2  10   29.60    9.50
  13   2  10   17.60    4.80
  10  -3 -10   83.59   12.20
  10  -3 -10   52.39    7.40
 -10   3  10   52.69    6.90
 -10   3  10   61.89   10.80
   9  -3 -10  273.87   17.20
   9  -3 -10  211.88   10.80
  -9   3  10  253.27   12.10
  -9   3  10  256.87   17.40
   8  -3 -10  281.67   11.80
   8  -3 -10  322.97   17.60
  -8   3  10  273.27   17.40
  -8   3  10  284.07   12.80
   7  -3 -10    7.50    4.50
   7  -3 -10   -2.50    2.10
  -7   3  10    4.10    2.90
  -7   3  10    0.90    3.40
   6  -3 -10 1004.30   31.60
   6  -3 -10  956.60   26.10
  -6   3  10  965.20   27.10
  -6   3  10  976.90   32.90
   5  -3 -10  183.08    9.00
   5  -3 -10  183.38   11.60
  -5   3  10  203.78   13.00
  -5   3  10  180.88   11.50
  -5   3  10  190.18    9.50
   4  -3 -10   54.09    6.00
   4  -3 -10   47.30    7.10
  -4   3  10   54.19    6.10
  -4   3  10   34.00    5.80
  -4   3  10   48.20    7.20
   3  -3 -10  263.37   13.00
   3  -3 -10  296.67   11.90
   3  -3 -10  257.17   13.00
  -3   3  10  287.07   11.50
  -3   3  10  271.27   13.80
   2  -3 -10  346.77   14.40
   2  -3 -10  354.46   14.90
   2  -3 -10  326.47   13.10
   2  -3 -10  323.97   13.40
  -2   3  10  324.77   14.50
  -2   3  10  336.37   12.70
   1  -3 -10   36.30    4.60
   1  -3 -10   46.50    5.90
   1  -3 -10   44.50    6.30
   1  -3 -10   47.20    6.30
  -1   3  10   48.90    5.90
  -1   3  10   39.10    5.80
   0  -3 -10    1.50    1.90
   0  -3 -10   -0.50    1.60
   0  -3 -10    0.30    1.90
   0  -3 -10    1.80    2.10
   0   3  10    2.30    2.30
   0   3  10    0.80    2.20
  -1  -3 -10  270.77   12.00
  -1  -3 -10  257.87   12.20
  -1  -3 -10  271.87   10.70
   1   3  10  262.27   12.70
   1   3  10  268.57   11.70
   1   3  10  278.87   11.60
  -2  -3 -10  501.85   16.50
  -2  -3 -10  517.75   18.40
  -2  -3 -10  502.35   17.10
  -2  -3 -10  506.35   15.70
  -2  -3 -10  460.25   17.20
   2   3  10  489.05   18.60
  -3  -3 -10    3.00    1.80
  -3  -3 -10    2.40    2.00
  -3  -3 -10    5.10    2.80
  -3  -3 -10    1.40    2.00
  -3  -3 -10    1.20    2.20
   3   3  10    3.10    2.40
  -4  -3 -10   64.89    8.10
  -4  -3 -10   61.59    4.80
  -4  -3 -10   51.99    6.00
  -4  -3 -10   53.79    6.70
  -4  -3 -10   66.29    5.30
   4   3  10   47.60    6.70
  -5  -3 -10   47.80    7.40
  -5  -3 -10   46.30    6.40
  -5  -3 -10   50.19    4.60
   5   3  10   47.10    4.30
   5   3  10   37.60    6.60
  -6  -3 -10   75.29    5.20
  -6  -3 -10   63.39    7.00
   6   3  10   54.99    8.20
   6   3  10   72.49    5.30
  -7  -3 -10  110.59    6.30
  -7  -3 -10  104.69    8.80
   7   3  10  100.09   11.90
   7   3  10  107.29    6.70
  -8  -3 -10   20.40    3.60
  -8  -3 -10   22.40    5.90
   8   3  10   19.90    4.00
   8   3  10   16.60    5.80
  -9  -3 -10 1293.57   31.50
  -9  -3 -10 1288.37   38.60
   9   3  10 1254.47   43.00
   9   3  10 1254.97   33.40
 -10  -3 -10  187.58   13.50
 -10  -3 -10  159.08    8.50
  10   3  10  184.28   15.80
  10   3  10  163.98    9.70
 -11  -3 -10   34.40    5.00
 -11  -3 -10   25.00    6.80
  11   3  10   29.70    8.40
  11   3  10   25.80    5.40
 -12  -3 -10   99.29    7.50
 -12  -3 -10   93.59   12.90
  12   3  10   84.19   10.10
  12   3  10   90.29   14.80
 -13  -3 -10   73.09   12.80
  13   3  10   50.59   11.20
  10  -4 -10   69.89   11.00
 -10   4  10   57.09    8.10
 -10   4  10   73.69   12.00
   9  -4 -10   79.29   10.80
   9  -4 -10   75.79    8.20
  -9   4  10   68.79    8.50
  -9   4  10   74.79   11.70
   8  -4 -10   10.30    5.10
   8  -4 -10    1.50    2.70
  -8   4  10    5.30    3.80
  -8   4  10    2.60    4.40
   7  -4 -10  313.47   16.10
   7  -4 -10  273.07   12.60
  -7   4  10  314.37   14.20
  -7   4  10  284.17   17.30
   6  -4 -10  309.47   19.40
   6  -4 -10  353.66   16.20
  -6   4  10  340.57   15.90
  -6   4  10  370.16   15.20
  -6   4  10  347.27   18.20
   5  -4 -10   36.50    6.00
   5  -4 -10   40.70    5.80
  -5   4  10   34.20    6.80
  -5   4  10   48.60    6.70
  -5   4  10   31.50    5.60
   4  -4 -10   53.69    7.00
   4  -4 -10   44.40    6.00
   4  -4 -10   35.80    5.70
  -4   4  10   46.50    6.30
  -4   4  10   47.80    7.70
   3  -4 -10  241.68   11.90
   3  -4 -10  256.47   11.60
   3  -4 -10  241.88   11.50
  -3   4  10  227.58   11.10
  -3   4  10  219.58   12.70
   2  -4 -10  217.78   10.60
   2  -4 -10  224.38   11.00
   2  -4 -10  223.28   11.00
   2  -4 -10  225.78   11.10
  -2   4  10  224.88   10.80
  -2   4  10  208.68   11.90
   1  -4 -10    4.40    2.50
   1  -4 -10    9.40    3.00
   1  -4 -10    4.50    2.40
   1  -4 -10    3.60    2.40
  -1   4  10    4.00    2.60
  -1   4  10    7.80    3.40
   0  -4 -10  396.46   15.40
   0  -4 -10  385.56   14.70
   0  -4 -10  369.26   15.90
   0   4  10  406.16   15.00
   0   4  10  409.76   15.50
   0   4  10  374.66   15.40
  -1  -4 -10  173.48    9.90
  -1  -4 -10  174.18    9.70
  -1  -4 -10  182.78    9.60
  -1  -4 -10  177.48    9.00
   1   4  10  181.68   10.10
   1   4  10  182.18    9.70
  -2  -4 -10    2.60    1.70
  -2  -4 -10    0.70    1.80
  -2  -4 -10    0.70    1.80
  -2  -4 -10    1.20    1.80
   2   4  10    0.30    2.10
   2   4  10    1.60    2.30
  -3  -4 -10   93.89    6.80
  -3  -4 -10  100.89    6.50
  -3  -4 -10   89.19    7.00
  -3  -4 -10   93.29    7.40
   3   4  10  101.59    8.20
  -4  -4 -10   43.60    5.80
  -4  -4 -10   64.99    8.10
  -4  -4 -10   55.49    6.20
  -4  -4 -10   52.09    5.70
  -4  -4 -10   40.10    5.80
   4   4  10   51.99    4.90
   4   4  10   54.49    7.50
  -5  -4 -10  357.26   16.00
  -5  -4 -10  375.96   13.80
  -5  -4 -10  361.16   15.30
   5   4  10  374.76   13.60
   5   4  10  363.96   17.00
  -6  -4 -10   43.80    5.40
  -6  -4 -10   45.60    7.00
   6   4  10   41.50    5.40
   6   4  10   45.60    8.00
  -7  -4 -10   -0.50    2.80
  -7  -4 -10    3.70    2.40
   7   4  10    3.30    2.60
   7   4  10    3.90    3.80
  -8  -4 -10  632.24   19.10
  -8  -4 -10  594.34   22.70
   8   4  10  620.74   26.60
   8   4  10  618.14   20.50
  -9  -4 -10  155.88    8.80
  -9  -4 -10  144.39   11.40
   9   4  10  152.98   14.20
   9   4  10  169.58   10.20
 -10  -4 -10   47.90    5.90
 -10  -4 -10   40.20    7.40
  10   4  10   40.10    6.40
  10   4  10   64.49   11.90
 -11  -4 -10  283.47   16.90
 -11  -4 -10  279.47   12.80
  11   4  10  308.07   21.10
 -12  -4 -10  192.08   11.40
 -12  -4 -10  214.18   15.50
  12   4  10  190.28   18.40
 -13  -4 -10   -1.20    2.80
 -13  -4 -10   -1.00    4.60
  13   4  10   -3.40    4.60
  10  -5 -10   -1.40    4.20
 -10   5  10    3.40    5.00
 -10   5  10    0.10    3.40
   9  -5 -10   40.10    7.70
  -9   5  10   29.80    8.10
   8  -5 -10  241.38   14.50
  -8   5  10  262.77   14.40
  -8   5  10  204.78   16.00
   7  -5 -10  337.37   17.30
   7  -5 -10  377.06   16.80
  -7   5  10  393.36   20.50
  -7   5  10  379.26   17.20
  -7   5  10  351.66   16.50
   6  -5 -10  145.69    9.40
   6  -5 -10  158.38   10.30
  -6   5  10  138.19    9.60
  -6   5  10  165.98   11.00
  -6   5  10  155.58   12.70
   5  -5 -10   41.30    5.90
   5  -5 -10   41.30    6.10
  -5   5  10   44.30    6.30
  -5   5  10   48.20    7.20
  -5   5  10   36.50    7.50
   4  -5 -10  593.84   20.10
   4  -5 -10  595.84   19.50
   4  -5 -10  585.74   20.50
  -4   5  10  611.54   23.60
  -4   5  10  570.74   20.80
   3  -5 -10  206.98   11.30
   3  -5 -10  213.58   10.40
   3  -5 -10  216.18   10.10
  -3   5  10  199.88   12.80
  -3   5  10  206.38   11.30
   2  -5 -10   91.69    6.50
   2  -5 -10  102.29   12.70
   2  -5 -10   95.79    6.70
  -2   5  10   94.49   10.20
  -2   5  10   96.79    7.80
   1  -5 -10  196.68    9.40
   1  -5 -10  201.98    9.60
   1  -5 -10  200.68   13.00
   1  -5 -10  198.08   10.40
  -1   5  10  178.78   11.10
  -1   5  10  199.78   10.70
   0  -5 -10  372.56   15.80
   0  -5 -10  366.46   15.70
   0  -5 -10  344.37   14.30
   0  -5 -10  372.36   13.70
   0   5  10  359.16   14.00
   0   5  10  388.06   15.40
  -1  -5 -10    2.80    2.20
  -1  -5 -10    0.20    1.70
  -1  -5 -10    0.80    1.90
   1   5  10    2.40    2.40
   1   5  10    1.10    2.00
  -2  -5 -10   81.39    7.30
  -2  -5 -10   95.69    6.90
  -2  -5 -10   89.29    7.30
  -2  -5 -10   94.59    6.90
   2   5  10   91.59    7.40
   2   5  10   90.19    7.30
  -3  -5 -10   32.60    6.00
  -3  -5 -10   26.70    4.90
  -3  -5 -10   23.20    4.30
  -3  -5 -10   21.40    4.30
   3   5  10   22.10    4.70
   3   5  10   32.30    5.80
  -4  -5 -10   62.39    7.20
  -4  -5 -10   63.69    6.40
  -4  -5 -10   65.79   10.10
  -4  -5 -10   68.09    7.30
   4   5  10   60.39    5.80
   4   5  10   53.19    7.10
  -5  -5 -10   38.90    5.60
  -5  -5 -10   36.90    6.20
  -5  -5 -10   23.30    4.90
   5   5  10   29.30    4.70
   5   5  10   33.00    6.10
  -6  -5 -10    3.30    2.60
  -6  -5 -10    1.70    2.80
   6   5  10    2.40    3.80
   6   5  10    0.60    2.10
  -7  -5 -10  374.26   17.20
  -7  -5 -10  423.26   15.60
   7   5  10  393.96   16.20
   7   5  10  426.86   20.40
  -8  -5 -10   67.99    6.60
  -8  -5 -10   54.39    7.90
   8   5  10   75.19    8.30
   8   5  10   72.89   10.40
  -9  -5 -10  219.18   13.70
  -9  -5 -10  213.78   11.10
   9   5  10  191.38   11.80
   9   5  10  225.88   16.60
 -10  -5 -10   23.90    6.30
 -10  -5 -10   30.00    5.60
  10   5  10   33.20    9.10
 -11  -5 -10  403.16   20.20
 -11  -5 -10  384.46   16.20
  11   5  10  406.96   24.50
 -12  -5 -10   46.50    7.10
 -12  -5 -10   38.10    8.50
 -13  -5 -10   45.20   10.10
 -13  -5 -10   57.99    7.90
  13   5  10   65.99   13.60
  10  -6 -10   -0.80    4.20
 -10   6  10    9.70    6.70
 -10   6  10    6.00    4.50
   9  -6 -10  314.67   20.20
  -9   6  10  280.87   19.40
  -9   6  10  274.37   16.40
   8  -6 -10  295.77   14.90
  -8   6  10  321.17   19.70
  -8   6  10  308.07   16.80
  -8   6  10  271.77   14.60
   7  -6 -10   -0.10    2.90
  -7   6  10    3.00    4.50
  -7   6  10    4.70    3.10
   6  -6 -10   33.20    5.60
  -6   6  10   31.20    6.50
  -6   6  10   28.00    7.20
  -6   6  10   24.80    4.80
   5  -6 -10  795.72   23.30
   5  -6 -10  786.62   24.10
  -5   6  10  780.92   29.30
  -5   6  10  807.22   27.40
   4  -6 -10    7.10    2.90
   4  -6 -10    6.80    2.70
   4  -6 -10    3.90    2.80
  -4   6  10    3.80    3.70
  -4   6  10    5.60    3.60
   3  -6 -10  667.63   19.90
   3  -6 -10  704.43   19.80
   3  -6 -10  635.24   23.00
  -3   6  10  691.43   24.00
  -3   6  10  663.73   25.10
   2  -6 -10  106.29    6.40
   2  -6 -10  113.59    9.60
   2  -6 -10  109.59    8.60
   2  -6 -10  119.39    6.70
  -2   6  10  115.99    8.90
  -2   6  10  104.19    9.30
   1  -6 -10    9.30    3.80
   1  -6 -10    3.90    3.20
   1  -6 -10    3.90    2.10
   1  -6 -10    3.60    2.10
  -1   6  10    1.30    3.00
   0  -6 -10  586.54   21.70
   0  -6 -10  612.14   21.00
   0  -6 -10  592.94   21.90
   0  -6 -10  610.94   18.20
   0   6  10  627.64   21.70
   0   6  10  599.64   18.80
  -1  -6 -10   25.90    4.30
  -1  -6 -10   17.60    4.30
  -1  -6 -10   20.60    4.50
  -1  -6 -10   23.10    5.20
   1   6  10   27.60    4.60
   1   6  10   20.10    4.20
  -2  -6 -10   10.80    3.60
  -2  -6 -10   10.30    3.50
  -2  -6 -10    7.80    2.70
  -2  -6 -10   11.20    3.50
   2   6  10   11.00    3.40
   2   6  10    4.40    2.90
  -3  -6 -10  773.82   24.40
  -3  -6 -10  842.62   26.20
   3   6  10  870.11   26.20
   3   6  10  796.22   25.10
   3   6  10  825.72   26.30
  -4  -6 -10    0.70    2.30
  -4  -6 -10    2.00    2.50
   4   6  10    2.10    2.90
   4   6  10    2.40    2.40
   4   6  10    4.50    3.20
  -5  -6 -10   10.90    3.70
  -5  -6 -10    6.70    3.50
  -5  -6 -10   -0.60    2.90
   5   6  10    5.50    3.60
   5   6  10    1.00    2.20
  -6  -6 -10  141.99    9.30
  -6  -6 -10  111.09    9.30
   6   6  10  120.79    9.00
   6   6  10  131.29   10.90
  -7  -6 -10   46.10    6.50
  -7  -6 -10   41.80    6.80
   7   6  10   40.10    7.30
   7   6  10   38.10    6.40
  -8  -6 -10  609.84   23.40
  -8  -6 -10  620.04   21.40
   8   6  10  612.14   27.00
  -9  -6 -10  297.17   16.00
  -9  -6 -10  269.57   15.40
   9   6  10  277.67   18.70
 -10  -6 -10  395.96   16.60
 -10  -6 -10  381.06   18.80
  10   6  10  376.76   22.60
 -11  -6 -10    3.70    3.70
 -11  -6 -10   -0.20    4.20
  11   6  10    7.10    5.40
 -12  -6 -10  158.48   13.40
 -12  -6 -10  153.38   11.20
  12   6  10  144.69   18.60
   9  -7 -10  160.68   11.20
  -9   7  10  170.88   15.90
  -9   7  10  155.08   13.40
  -9   7  10  136.09   12.20
   8  -7 -10   21.50    5.10
  -8   7  10   18.80    6.70
  -8   7  10   16.50    4.60
  -8   7  10   16.10    6.90
   7  -7 -10  139.09    9.10
  -7   7  10  138.99   12.10
  -7   7  10  150.98   13.90
   6  -7 -10  590.24   19.00
   6  -7 -10  606.64   19.70
  -6   7  10  617.74   26.70
  -6   7  10  597.04   24.60
   5  -7 -10   92.69    6.40
   5  -7 -10   98.09    6.50
  -5   7  10  117.39   13.60
  -5   7  10  113.79   14.70
   4  -7 -10   70.59    5.20
   4  -7 -10   79.39    5.40
  -4   7  10  101.49   12.40
  -4   7  10   73.99    9.20
   3  -7 -10  278.47   10.10
   3  -7 -10  292.37   16.30
   3  -7 -10  290.97   10.10
  -3   7  10  291.67   15.30
   2  -7 -10   36.30    3.60
   2  -7 -10   35.80    7.00
   2  -7 -10   44.10    3.90
  -2   7  10   37.50    6.30
   1  -7 -10  465.35   14.10
   1  -7 -10  450.65   19.60
   1  -7 -10  438.56   13.60
  -1   7  10  448.26   18.80
   0  -7 -10  169.98    7.80
   0  -7 -10  170.68   11.30
   0   7  10  140.89   10.20
   0   7  10  152.98    7.90
  -1  -7 -10   11.10    2.80
  -1  -7 -10    7.80    3.80
  -1  -7 -10    6.90    3.50
   1   7  10   10.60    3.00
   1   7  10    5.70    3.00
  -2  -7 -10   36.40    5.90
  -2  -7 -10   48.10    5.70
  -2  -7 -10   37.00    5.80
   2   7  10   45.60    7.10
   2   7  10   48.80    6.20
  -3  -7 -10    2.90    2.80
  -3  -7 -10    5.90    2.90
   3   7  10    0.70    2.40
   3   7  10    1.20    2.50
   3   7  10    0.70    2.30
  -4  -7 -10  224.48   12.60
  -4  -7 -10  213.88   11.60
   4   7  10  225.38   12.40
   4   7  10  233.88   12.50
  -5  -7 -10  207.18   12.00
  -5  -7 -10  199.28   11.80
   5   7  10  212.88   12.90
   5   7  10  190.98   11.90
  -6  -7 -10    2.50    3.30
  -6  -7 -10    2.30    3.00
   6   7  10   -0.50    3.30
  -7  -7 -10  218.28   13.10
  -7  -7 -10  195.98   11.90
   7   7  10  194.18   14.30
  -8  -7 -10  529.55   20.50
  -8  -7 -10  510.15   21.60
   8   7  10  546.85   25.20
  -9  -7 -10  121.59    9.90
  -9  -7 -10  145.19   11.70
   9   7  10  136.69   13.70
 -10  -7 -10    9.20    4.50
 -10  -7 -10    7.00    4.90
  10   7  10    8.10    5.90
 -11  -7 -10  229.58   15.30
 -11  -7 -10  225.58   13.80
  11   7  10  233.68   19.20
 -12  -7 -10   50.89    9.90
 -12  -7 -10   38.60    7.10
  12   7  10   40.80   10.90
   9  -8 -10   45.70    6.70
  -9   8  10   40.80   12.60
  -9   8  10   43.60    9.90
   8  -8 -10   58.09    7.10
   8  -8 -10   62.29    7.00
  -8   8  10   52.99   10.50
  -8   8  10   77.59   12.30
   7  -8 -10  467.05   15.20
   7  -8 -10  417.46   15.10
  -7   8  10  441.96   22.10
  -7   8  10  429.46   23.20
   6  -8 -10   47.50    9.20
   6  -8 -10   49.60    4.60
   6  -8 -10   57.79    4.80
  -6   8  10   57.69   10.40
  -6   8  10   62.09   10.40
   5  -8 -10  209.78    8.20
   5  -8 -10  234.58   16.10
  -5   8  10  213.38   14.70
   4  -8 -10   51.49    8.80
   4  -8 -10   52.99    3.40
   4  -8 -10   49.30    3.30
  -4   8  10   50.39    9.30
   3  -8 -10   73.29   10.70
   3  -8 -10   59.99    3.30
   3  -8 -10   62.39    3.30
  -3   8  10   77.89   10.70
   2  -8 -10    5.20    3.70
   2  -8 -10    1.70    1.30
   2  -8 -10   -0.30    1.10
  -2   8  10    0.80    3.20
   1  -8 -10  617.04   24.20
   1  -8 -10  600.54   16.00
   0  -8 -10   31.90    9.70
   0  -8 -10   37.30    3.80
   0   8  10   43.90    4.80
  -1  -8 -10  257.47   10.40
  -1  -8 -10  259.77   14.80
   1   8  10  255.17   10.80
  -2  -8 -10   18.60    5.30
  -2  -8 -10   24.20    4.30
   2   8  10   22.50    4.30
   2   8  10   25.90    7.30
  -3  -8 -10  203.18   10.50
  -3  -8 -10  195.48   12.50
   3   8  10  191.78   12.20
   3   8  10  195.78   10.90
  -4  -8 -10    8.60    3.50
  -4  -8 -10    3.40    3.60
   4   8  10    5.00    3.50
   4   8  10    6.10    3.70
   5   8  10  256.87   14.40
   5   8  10  255.07   14.20
  -6  -8 -10   91.89   10.50
   6   8  10   65.79    9.20
   6   8  10   71.59    9.80
  -7  -8 -10  670.83   25.20
  -7  -8 -10  640.34   24.20
   7   8  10  675.13   27.50
  -8  -8 -10   65.29    9.00
  -8  -8 -10   74.69    9.30
   8   8  10   68.39   10.30
  -9  -8 -10   16.20    5.30
  -9  -8 -10   18.00    5.40
   9   8  10    7.60    5.50
 -10  -8 -10  407.56   18.90
 -10  -8 -10  423.96   20.40
  10   8  10  399.26   23.80
 -11  -8 -10  111.89   10.80
 -11  -8 -10  103.89   11.80
  11   8  10  109.19   15.40
 -12  -8 -10    7.10    5.40
 -12  -8 -10    5.50    4.50
  12   8  10   14.50    7.60
   9  -9 -10  102.99    7.00
   9  -9 -10  121.49   16.40
  -9   9  10  105.09   14.10
  -9   9  10  122.99   15.60
   8  -9 -10   73.99    5.30
   8  -9 -10   62.59   11.30
   8  -9 -10   74.49    5.20
  -8   9  10   76.19   12.40
   7  -9 -10   81.69    4.00
   7  -9 -10   73.39    4.10
   7  -9 -10   88.09   13.20
  -7   9  10   77.29   11.30
   6  -9 -10   74.89   11.90
  -6   9  10   47.00    8.80
   5  -9 -10    2.20    4.60
  -5   9  10    7.20    5.50
   4  -9 -10  104.29   12.20
  -4   9  10  136.79   12.30
   3  -9 -10   15.00    5.80
  -3   9  10   14.80    5.80
   2  -9 -10  716.73   27.90
  -2   9  10  675.63   27.00
   1  -9 -10   41.70    2.70
   1  -9 -10   45.50    8.40
   1  -9 -10   44.70    2.60
  -1   9  10   50.69    8.80
   0  -9 -10   26.00    6.70
   0  -9 -10   25.60    3.40
   0   9  10   26.70    6.60
   0   9  10   28.20    4.40
  -1  -9 -10  133.59    7.30
  -1  -9 -10  167.08   12.30
   1   9  10  139.09    7.60
   1   9  10  142.89   11.20
  -2  -9 -10  703.93   26.70
  -2  -9 -10  686.33   21.40
   2   9  10  742.93   22.20
  -3  -9 -10   11.00    4.50
  -3  -9 -10   12.10    3.70
   3   9  10    7.60    4.00
   3   9  10   13.30    4.10
  -4  -9 -10    7.00    3.40
  -4  -9 -10    6.10    4.10
   4   9  10    8.30    3.80
   4   9  10   11.60    4.30
  -5  -9 -10  256.07   14.90
   5   9  10  235.98   14.30
   5   9  10  254.47   14.60
  -6  -9 -10   20.70    5.80
   6   9  10   13.50    5.20
   6   9  10   18.50    5.00
  -7  -9 -10   11.80    5.30
  -7  -9 -10   12.40    5.00
   7   9  10    9.60    5.20
  -8  -9 -10    7.10    4.60
  -8  -9 -10    8.30    4.30
   8   9  10    6.70    5.00
  -9  -9 -10  252.57   15.40
  -9  -9 -10  229.98   14.70
   9   9  10  211.88   17.10
 -10  -9 -10  402.06   20.40
 -10  -9 -10  384.16   19.20
  10   9  10  426.66   24.90
 -11  -9 -10   11.80    5.50
 -11  -9 -10    7.50    4.70
  11   9  10   12.70    7.00
  -8  10  10    3.50    5.80
   7 -10 -10  212.58   17.80
  -7  10  10  213.28   17.00
   6 -10 -10   60.89   10.70
  -6  10  10   49.70    9.40
   5 -10 -10   90.29   13.00
  -5  10  10   96.99   14.20
   4 -10 -10   36.70    8.60
  -4  10  10   38.90    8.40
   3 -10 -10  103.09   12.30
  -3  10  10  137.99   12.70
   2 -10 -10   13.50    5.20
  -2  10  10   11.80    5.10
   1 -10 -10   20.10    6.90
  -1  10  10   18.90    6.20
   0 -10 -10   12.80    5.40
   0 -10 -10   20.30    2.80
   0  10  10   19.30    2.80
   0  10  10   26.30    6.90
  -1 -10 -10  653.13   18.60
  -1 -10 -10  637.04   26.20
   1  10  10  659.23   18.90
   1  10  10  625.64   25.70
  -2 -10 -10   27.10    7.10
  -2 -10 -10   19.60    4.20
   2  10  10   16.70    4.00
   2  10  10   28.00    6.70
  -3 -10 -10    7.70    3.30
  -3 -10 -10    0.60    3.40
   3  10  10    4.70    3.90
   3  10  10    5.70    3.60
  -4 -10 -10   85.49   11.20
  -4 -10 -10   77.19    7.70
   4  10  10   70.39    8.90
   4  10  10   65.69    8.70
  -5 -10 -10   84.49   11.20
   5  10  10   72.29    9.80
   5  10  10   80.79   10.10
  -6 -10 -10    0.80    3.70
   6  10  10    4.90    4.00
   6  10  10    4.50    4.20
  -7 -10 -10  109.89   12.30
  -7 -10 -10  105.99   12.10
   7  10  10   95.99   10.80
   7  10  10  116.59   11.80
  -8 -10 -10  112.99   11.00
  -8 -10 -10  121.49   11.40
   8  10  10  117.59   14.80
  -9 -10 -10  546.15   23.90
  -9 -10 -10  551.14   24.10
   9  10  10  542.35   27.50
 -10 -10 -10    4.10    4.50
 -10 -10 -10   -1.60    4.10
  10  10  10    0.10    4.50
   8 -11 -10   74.19   13.10
  -8  11  10   66.09   15.00
   7 -11 -10  198.28   22.50
  -7  11  10  180.88   16.60
   6 -11 -10   72.09   12.30
  -6  11  10   95.19   14.30
   5 -11 -10    1.30    5.10
  -5  11  10    3.90    5.10
   4 -11 -10  283.27   18.90
  -4  11  10  284.57   19.10
   3 -11 -10    1.30    3.90
  -3  11  10    2.30    4.50
   2 -11 -10  176.08   14.70
  -2  11  10  168.48   14.30
   1 -11 -10    3.70    4.50
  -1  11  10    1.30    3.90
   0 -11 -10  770.52   30.60
   0 -11 -10  753.62   17.40
   0  11  10  828.92   31.20
  -1 -11 -10   39.30    4.50
  -1 -11 -10   40.60    8.90
   1  11  10   44.30    4.90
   1  11  10   35.20    7.30
  -2 -11 -10  164.78    9.00
  -2 -11 -10  149.59   12.80
   2  11  10  152.38   12.70
   2  11  10  157.48    9.00
  -3 -11 -10    9.40    4.30
   3  11  10   -0.60    3.30
   3  11  10    4.40    3.00
  -4 -11 -10  208.38   14.80
  -4 -11 -10  183.08   11.40
   4  11  10  179.48   13.30
   4  11  10  184.58   11.90
  -5 -11 -10    8.60    5.10
   5  11  10    7.70    4.60
  -6 -11 -10   98.69   12.60
   6  11  10   78.89   10.40
   6  11  10   94.39   11.60
  -7 -11 -10  195.98   14.60
   7  11  10  208.58   14.40
   7  11  10  193.38   15.10
  -8 -11 -10  208.58   14.70
  -8 -11 -10  181.68   14.40
   8  11  10  192.08   15.80
  -9 -11 -10   32.30    7.90
  -9 -11 -10   40.40    8.50
   9  11  10   53.79   11.10
 -10 -11 -10   66.09   15.40
 -10 -11 -10   60.89    9.90
   7 -12 -10   20.50    8.50
  -7  12  10   23.70    9.50
   6 -12 -10    1.70    5.00
  -6  12  10   -3.10    4.00
   5 -12 -10  164.48   18.90
  -5  12  10  173.78   16.30
   4 -12 -10   20.70    7.20
  -4  12  10   20.70    7.60
   3 -12 -10  153.68   17.20
  -3  12  10  103.69   14.10
   2 -12 -10   69.79   10.70
  -2  12  10   79.89   13.10
   1 -12 -10   73.79   11.80
  -1  12  10   95.99   13.80
   0 -12 -10   57.19   10.60
   0  12  10   54.89   10.20
  -1 -12 -10   10.30    2.70
  -1 -12 -10   11.10    4.90
   1  12  10    8.50    4.60
   1  12  10    8.50    2.60
  -2 -12 -10   -2.20    1.80
  -2 -12 -10    5.90    4.70
   2  12  10    0.80    3.90
   2  12  10    3.80    2.70
  -3 -12 -10  326.07   19.00
  -3 -12 -10  301.37   14.40
   3  12  10  270.47   13.40
   3  12  10  277.47   17.50
  -4 -12 -10    6.60    4.70
   4  12  10    4.80    3.40
   4  12  10    8.00    5.00
  -5 -12 -10   35.50    7.90
   5  12  10   28.90    7.60
   5  12  10   35.60    7.30
  -6 -12 -10  143.29   13.40
   6  12  10  175.98   13.60
   6  12  10  165.88   13.30
  -7 -12 -10  139.79   13.20
   7  12  10  121.59   11.70
   7  12  10  140.19   13.30
  -8 -12 -10   82.59   11.20
  -8 -12 -10   76.79   10.80
   8  12  10   83.99   12.10
  -9 -12 -10  155.48   13.80
  -9 -12 -10  146.19   13.80
   9  12  10  156.18   15.70
   6 -13 -10   92.69   14.80
  -6  13  10   72.59   13.90
   5 -13 -10   71.59   18.90
  -5  13  10   49.90   11.60
   4 -13 -10   37.30    9.60
  -4  13  10   47.80   10.70
   3 -13 -10   30.20    9.00
  -3  13  10   35.50    9.10
   2 -13 -10  154.08   14.90
  -2  13  10  138.59   16.70
   1 -13 -10   30.70    8.50
  -1  13  10   19.30    7.00
   0 -13 -10  165.38   14.80
   0  13  10  161.68   14.90
  -1 -13 -10    1.60    4.00
  -1 -13 -10    2.40    1.70
   1  13  10    4.40    5.00
  -2 -13 -10  175.78    9.50
  -2 -13 -10  200.58   15.90
   2  13  10  201.68   10.00
   2  13  10  192.68   15.30
  -3 -13 -10    6.80    5.40
  -3 -13 -10    1.90    2.80
   3  13  10    9.80    3.90
   3  13  10   13.50    6.10
  -4 -13 -10  140.09   13.50
   4  13  10  126.89   15.00
   4  13  10  130.09   10.50
  -5 -13 -10    5.70    4.60
   5  13  10   10.00    5.00
   5  13  10    9.30    5.70
  -6 -13 -10   60.79   10.80
   6  13  10   63.29   10.00
   6  13  10   67.79   10.70
  -7 -13 -10  108.89   15.30
   7  13  10  111.29   12.90
   7  13  10  128.19   13.00
  -8 -13 -10  243.08   16.80
  -8 -13 -10  250.57   18.00
   8  13  10  237.68   18.30
   8  13  10  245.98   17.00
   4 -14 -10    2.20    5.30
  -4  14  10   17.80    8.40
   3 -14 -10   81.39   16.00
  -3  14  10  127.09   17.50
   2 -14 -10   -1.80    4.10
  -2  14  10    5.40    8.10
   1 -14 -10  189.98   16.60
  -1  14  10  197.78   17.10
   0 -14 -10   64.39   11.90
   0  14  10   64.29   11.30
  -1 -14 -10   35.50    8.00
   1  14  10   44.00    3.40
   1  14  10   50.09   10.50
  -2 -14 -10    1.00    2.40
  -2 -14 -10   -1.60    3.50
   2  14  10    1.50    2.40
   2  14  10    2.00    4.40
  -3 -14 -10  130.59    9.60
  -3 -14 -10  153.58   14.70
   3  14  10  164.28   10.30
   3  14  10  155.78   14.30
   4  14  10   57.39   11.00
   4  14  10   56.19    8.20
  -5 -14 -10   -0.80    4.40
   5  14  10    0.60    3.50
   5  14  10   -1.10    4.30
  -6 -14 -10   42.80    9.40
   6  14  10   67.19   10.50
   6  14  10   65.49   14.10
   2 -15 -10   57.79   10.60
  -2  15  10   66.29   12.40
   1 -15 -10   46.20   10.70
  -1  15  10   42.30   10.10
   0 -15 -10   21.20    7.20
   0  15  10   27.50    8.10
  -1 -15 -10    0.00    4.10
   1  15  10   -1.80    4.80
  -2 -15 -10   56.89    5.70
  -2 -15 -10   65.79   11.30
   2  15  10   68.39    5.90
   2  15  10   90.09   14.10
  -3 -15 -10   16.10    6.40
   3  15  10   17.90    6.80
   3  15  10   17.90    4.60
  -4 -15 -10   -0.60    4.60
   4  15  10    0.90    4.60
   0  10 -11    3.00    4.40
   0  10 -11   12.50    8.40
   0 -10  11    9.50    5.20
  -1  10 -11   34.30    7.50
  -1  10 -11   41.30   11.50
   1 -10  11   55.99    8.20
  -2  10 -11    3.40    5.30
  -2  10 -11    4.00    5.10
   2 -10  11    6.10    4.10
  -3  10 -11   21.20    7.50
  -3  10 -11   25.30    9.00
   3 -10  11   31.40    5.90
  -4  10 -11   14.40    6.70
  -4  10 -11   10.50    7.10
   4 -10  11    7.50    3.70
   3   9 -11   49.20   10.50
   3   9 -11   45.10    3.50
  -3  -9  11   49.00    8.90
   2   9 -11    7.70    3.40
   2   9 -11    0.60    5.20
  -2  -9  11   10.80    5.30
  -2  -9  11    7.30    3.00
   1   9 -11    1.10    5.70
   1   9 -11    6.30    3.70
  -1  -9  11    1.60    3.00
  -1  -9  11    2.60    4.20
   0   9 -11   60.49   11.70
   0   9 -11   72.99    9.60
   0  -9  11   79.19    9.60
  -1   9 -11  158.28   12.30
  -1   9 -11  146.19   17.80
   1  -9  11  143.09   10.70
  -2   9 -11    9.80    6.20
  -2   9 -11   17.20    6.10
   2  -9  11   16.50    4.80
  -3   9 -11   10.10    5.70
  -3   9 -11   25.80    8.60
   3  -9  11    6.20    3.80
  -4   9 -11   55.19   10.30
  -4   9 -11   36.00    9.40
  -4   9 -11   27.10    5.20
   4  -9  11   37.40    5.20
  -5   9 -11  163.68   14.90
  -5   9 -11  100.59    7.50
  -5   9 -11  138.29   16.50
   5  -9  11  136.09    7.40
  -6   9 -11   -0.10    5.10
  -6   9 -11    0.20    4.70
   6  -9  11    4.10    1.90
  -7   9 -11   11.60    6.80
  -7   9 -11   -0.30    5.30
   4   8 -11   44.40   11.40
  -4  -8  11   68.99   10.20
  -3  -8  11   39.20    7.80
   2   8 -11    3.20    2.80
   2   8 -11    6.20    6.10
  -2  -8  11   -5.10    3.30
  -2  -8  11    2.60    2.40
   1   8 -11   56.59    7.20
   1   8 -11   42.50    9.30
  -1  -8  11   73.69    9.30
   0   8 -11  127.89   15.70
   0   8 -11  108.49    9.30
   0  -8  11  122.49   10.10
   0  -8  11   85.99    7.40
  -1   8 -11    6.90    5.80
  -1   8 -11    6.20    5.00
   1  -8  11   10.70    4.20
  -2   8 -11   16.70    6.90
  -2   8 -11    4.20    4.50
   2  -8  11   12.20    4.00
  -3   8 -11    6.70    4.90
  -3   8 -11    7.00    3.70
  -3   8 -11    7.50    5.50
   3  -8  11   11.60    3.60
  -4   8 -11   83.59   12.30
  -4   8 -11   61.19    7.10
  -4   8 -11   67.89   11.80
   4  -8  11   62.89    5.80
  -5   8 -11   21.70    7.80
  -5   8 -11   11.90    6.10
  -5   8 -11   12.00    3.10
   5  -8  11   13.30    2.80
  -6   8 -11    2.90    5.70
  -6   8 -11   15.20    7.50
   6  -8  11    7.40    1.30
   6  -8  11    8.00    1.60
  -7   8 -11   25.10    8.00
  -7   8 -11   28.90    8.70
  -8   8 -11   40.00   10.00
  -8   8 -11   32.90    9.00
   8  -8  11   47.50   10.60
   5   7 -11   76.39   14.20
  -5  -7  11   43.00    8.30
   4   7 -11   51.39   10.40
  -4  -7  11   76.49    9.90
   3   7 -11   29.50    8.80
  -3  -7  11   18.10    6.10
   2   7 -11   40.80    5.00
   2   7 -11   47.40   10.20
  -2  -7  11   45.80    7.60
  -2  -7  11   51.89    4.20
   1   7 -11   80.69   11.80
   1   7 -11  103.79    7.70
  -1  -7  11   82.59    6.00
  -1  -7  11   98.89    9.50
   0   7 -11    1.20    4.70
   0   7 -11    7.20    4.00
   0  -7  11    2.00    3.60
   0  -7  11    0.40    2.70
  -1   7 -11    3.20    5.20
  -1   7 -11    7.80    4.40
   1  -7  11    8.90    3.80
  -2   7 -11   38.20    6.00
  -2   7 -11   23.90    7.10
  -2   7 -11   48.60    8.20
   2  -7  11   40.70    5.80
  -3   7 -11   58.79    7.10
  -3   7 -11   81.29   10.40
  -3   7 -11   58.69   10.40
   3  -7  11   54.99    5.90
  -4   7 -11    4.50    4.70
  -4   7 -11    6.20    2.70
  -4   7 -11    9.50    5.30
   4  -7  11    8.80    2.80
  -5   7 -11   10.10    2.60
  -5   7 -11   16.70    7.30
  -5   7 -11    9.80    6.00
   5  -7  11   12.00    2.50
  -6   7 -11   62.09   11.40
  -6   7 -11   66.19   11.00
  -7   7 -11  170.88   15.60
   7  -7  11  167.58   15.60
  -8   7 -11   46.10   10.40
   8  -7  11   31.80    9.60
  -9   7 -11   17.80    7.60
   9  -7  11   23.20    7.80
   6   6 -11   51.39   10.70
   5   6 -11   61.99   11.50
  -5  -6  11   92.69   11.70
   4   6 -11   26.30    8.00
  -4  -6  11   21.70    6.60
   3   6 -11   51.99   10.60
  -3  -6  11   43.90    7.30
   2   6 -11  121.29    6.50
   2   6 -11  138.89   14.10
  -2  -6  11  130.59   10.60
   1   6 -11    7.40    3.20
   1   6 -11    4.50    5.20
  -1  -6  11    5.10    2.60
  -1  -6  11    5.20    3.80
   0   6 -11   87.39    7.60
   0   6 -11   75.29   12.10
   0  -6  11   79.99    9.40
   0  -6  11   84.49    8.90
  -1   6 -11   74.19    8.50
  -1   6 -11   82.49   11.70
  -1   6 -11   62.99    7.40
   1  -6  11   65.69    7.30
   1  -6  11   89.19    7.50
  -2   6 -11   73.29    8.50
  -2   6 -11   74.29   11.00
  -2   6 -11   86.89    9.70
   2  -6  11   77.49    6.60
  -3   6 -11   12.20    6.00
  -3   6 -11    2.20    2.50
  -3   6 -11   10.90    5.30
   3  -6  11    5.90    2.60
  -4   6 -11   93.39   12.00
  -4   6 -11  139.69   12.00
  -4   6 -11  122.59    7.00
   4  -6  11  132.09    6.30
  -5   6 -11   98.29   11.80
  -5   6 -11   86.19   11.50
   5  -6  11   87.79    3.80
  -6   6 -11  134.19   15.10
   6  -6  11  132.29   16.30
  -7   6 -11   16.80    7.00
   7  -6  11    1.10    4.40
  -8   6 -11   51.49   10.40
   8  -6  11   35.10    9.40
  -9   6 -11   41.50   10.40
   9  -6  11   35.50    9.30
 -10   6 -11   21.60    9.10
  10  -6  11    0.00    4.80
   7   5 -11  100.89   14.30
  -7  -5  11   81.79   11.70
   6   5 -11   72.39   12.50
  -6  -5  11   81.89   11.50
   5   5 -11    2.00    4.70
  -5  -5  11   13.10    5.80
   4   5 -11    9.80    6.30
  -4  -5  11    5.20    4.20
   3   5 -11    2.60    5.50
  -3  -5  11    8.30    4.80
   2   5 -11   -5.80    3.20
   2   5 -11    0.20    1.60
   2   5 -11    0.40    2.00
  -2  -5  11   -1.60    3.20
   1   5 -11   90.99   12.90
   1   5 -11   95.19    6.70
  -1  -5  11   86.59   10.30
  -1  -5  11  100.59    5.80
   0   5 -11  215.18   10.80
   0   5 -11  203.88   15.70
   0  -5  11  205.58    9.50
   0  -5  11  217.68   11.30
  -1   5 -11  379.16   15.40
  -1   5 -11  436.46   22.20
  -1   5 -11  433.46   16.80
   1  -5  11  438.06   15.60
   1  -5  11  406.66   15.10
  -2   5 -11   19.90    6.70
  -2   5 -11   18.60    5.50
  -2   5 -11   14.20    3.60
   2  -5  11   12.20    3.90
   2  -5  11   16.50    3.70
  -3   5 -11  247.38   16.90
  -3   5 -11  242.58   10.30
  -3   5 -11  244.88   14.20
   3  -5  11  236.28    9.30
  -4   5 -11  110.29   10.60
  -4   5 -11  123.09    6.20
  -4   5 -11   89.69   11.50
   4  -5  11  110.39    5.30
  -5   5 -11   68.29    9.20
   5  -5  11   70.09   11.40
  -6   5 -11   10.00    6.00
   6  -5  11    5.10    4.50
  -7   5 -11   57.49   10.20
   7  -5  11   57.99   11.00
  -8   5 -11   24.60    7.60
   8  -5  11   29.90    8.60
  -9   5 -11   27.60    8.80
   9  -5  11   13.80    6.70
 -10   5 -11   24.90   11.50
  10  -5  11   14.50    6.90
 -11   5 -11   64.09   13.20
  11  -5  11   41.40   10.10
   8   4 -11   32.80    9.60
  -8  -4  11   45.30    9.20
   7   4 -11  123.19   23.90
  -7  -4  11  109.09   13.80
   6   4 -11   47.00   10.10
  -6  -4  11   26.70    7.40
   5   4 -11    2.10    4.40
  -5  -4  11    9.70    5.00
   4   4 -11   22.60    6.70
  -4  -4  11   15.80    5.30
   3   4 -11  116.89   14.60
  -3  -4  11  115.29   10.10
   2   4 -11  148.89   13.40
   2   4 -11  148.79    7.00
  -2  -4  11  157.58   10.70
   1   4 -11  192.98    8.80
   1   4 -11  223.48   15.70
  -1  -4  11  193.58   11.20
   0   4 -11   56.29    6.60
   0   4 -11   77.79   11.60
   0   4 -11   75.59    6.40
   0  -4  11   75.89    7.00
   0  -4  11   53.49    5.00
  -1   4 -11    1.10    3.60
  -1   4 -11    2.40    2.60
  -1   4 -11   -0.60    3.00
   1  -4  11    1.70    2.60
   1  -4  11    1.80    2.50
  -2   4 -11  650.93   21.90
  -2   4 -11  654.43   27.10
  -2   4 -11  603.74   18.60
   2  -4  11  638.84   18.20
   2  -4  11  588.44   19.90
  -3   4 -11   31.60    8.10
  -3   4 -11   28.50    6.30
  -3   4 -11   25.00    3.70
   3  -4  11   34.90    4.00
  -4   4 -11   54.79    8.90
   4  -4  11   65.79    3.70
   4  -4  11   63.09   10.60
  -5   4 -11  146.99   12.00
   5  -4  11  131.79   12.80
  -6   4 -11  120.69   13.30
   6  -4  11   87.69   11.80
  -7   4 -11   32.40    8.50
   7  -4  11   32.80    8.80
  -8   4 -11    2.70    5.50
   8  -4  11    7.70    5.20
  -9   4 -11    0.70    5.40
   9  -4  11    6.90    5.70
 -10   4 -11   99.09   13.50
  10  -4  11  119.39   16.50
 -11   4 -11    4.90    6.50
  11  -4  11   -0.40    5.30
   8   3 -11   93.29   15.60
  -8  -3  11  104.29   13.10
   7   3 -11   42.90   10.30
  -7  -3  11   56.59   10.30
   6   3 -11   51.39    9.80
  -6  -3  11   39.30    7.50
   5   3 -11   50.09   10.00
  -5  -3  11   28.20    6.30
   4   3 -11    0.20    3.70
  -4  -3  11   -4.00    3.00
   3   3 -11  162.08   13.80
  -3  -3  11  172.08   11.50
   2   3 -11  131.59   12.40
   2   3 -11  147.29    6.00
   1   3 -11   -0.80    2.30
   1   3 -11    1.20    1.70
   1   3 -11    9.00    4.50
   1   3 -11   -1.40    2.00
  -1  -3  11    0.10    2.60
   0   3 -11   68.59    6.80
   0   3 -11   62.39    9.60
   0   3 -11   58.69    6.30
   0  -3  11   53.59    4.80
   0  -3  11   54.29    6.40
  -1   3 -11  110.69    7.60
  -1   3 -11  102.69   10.40
  -1   3 -11   98.49    6.60
   1  -3  11  110.29    7.00
   1  -3  11  110.99    7.00
  -2   3 -11    5.40    2.30
  -2   3 -11    8.20    3.40
  -2   3 -11    3.90    4.00
   2  -3  11    2.40    2.60
   2  -3  11    8.90    2.70
  -3   3 -11  109.89    5.70
  -3   3 -11  107.39    8.50
  -3   3 -11  111.99   11.00
   3  -3  11  102.89   12.90
   3  -3  11  102.19    7.70
   3  -3  11  118.69    5.70
  -4   3 -11   40.00    6.40
  -4   3 -11   43.60    3.10
   4  -3  11   40.60    8.70
   4  -3  11   41.70    2.90
  -5   3 -11  593.74   22.60
   5  -3  11  597.64   25.90
  -6   3 -11   35.70    7.60
   6  -3  11   38.10    8.60
  -7   3 -11   10.00    5.40
   7  -3  11   26.00    8.30
  -8   3 -11   12.20    6.30
   8  -3  11   22.50    7.10
  -9   3 -11   84.49   11.00
   9  -3  11   94.89   14.00
 -10   3 -11   31.40    8.60
  10  -3  11   26.80    8.10
 -11   3 -11   51.19   14.70
  11  -3  11   50.09   10.90
 -12   3 -11  113.99   14.80
  12  -3  11   95.89   16.60
   9   2 -11    9.10    7.10
  -9  -2  11    4.20    5.60
   8   2 -11    5.20    6.40
   7   2 -11   41.00   10.30
  -7  -2  11   24.10    6.70
   6   2 -11  464.15   24.10
  -6  -2  11  440.96   20.90
   5   2 -11   39.60    8.50
  -5  -2  11   39.50    7.60
   4   2 -11  376.36   20.20
  -4  -2  11  367.46   17.40
   3   2 -11  112.19   13.20
  -3  -2  11  101.09    9.00
   2   2 -11   55.09    5.70
   2   2 -11   63.19    9.90
   2   2 -11   49.80    3.80
  -2  -2  11   49.90    7.00
   1   2 -11  292.27   10.30
   1   2 -11  281.37   16.40
   1   2 -11  299.67   10.50
   1   2 -11  278.77   12.50
  -1  -2  11  304.97   13.10
   0   2 -11  673.73   19.60
   0   2 -11  668.33   19.40
   0   2 -11  721.13   27.20
   0  -2  11  680.33   20.80
  -1   2 -11  210.68    9.20
  -1   2 -11  200.28   10.00
   1  -2  11  209.88    9.60
   1  -2  11  217.18    9.60
  -2   2 -11    1.40    2.50
  -2   2 -11   -1.80    1.40
   2  -2  11    1.40    2.00
  -3   2 -11   59.59    4.00
  -3   2 -11   55.29    7.50
   3  -2  11   61.09    6.90
   3  -2  11   64.19    4.40
   3  -2  11   53.79    9.10
  -4   2 -11  301.37    8.20
  -4   2 -11  277.97   13.90
   4  -2  11  316.97   17.50
  -5   2 -11  269.07   16.60
   5  -2  11  248.78   15.90
  -6   2 -11  105.19   10.00
   6  -2  11  108.59   12.90
  -7   2 -11   97.39   11.70
   7  -2  11   90.79   11.40
  -8   2 -11  303.37   17.50
   8  -2  11  313.57   19.60
  -9   2 -11    9.20    4.90
   9  -2  11   -2.10    4.00
 -10   2 -11   67.09   10.80
  10  -2  11   78.29   12.10
 -11   2 -11    1.50    5.40
  11  -2  11    4.00    5.40
 -12   2 -11  117.29   15.10
   9   1 -11   21.60    8.30
  -9  -1  11   28.80    7.60
   8   1 -11  279.37   19.50
  -8  -1  11  267.37   17.80
   7   1 -11    3.00    5.80
  -7  -1  11   -2.50    3.80
   6   1 -11   61.19   10.30
  -6  -1  11   55.49    9.40
   5   1 -11   44.80    9.60
  -5  -1  11   48.60    8.30
   4   1 -11  322.07   18.00
  -4  -1  11  287.87   15.20
   3   1 -11   50.99    9.10
   3   1 -11   50.79    2.90
   3   1 -11   45.20    2.70
  -3  -1  11   60.09    8.10
   2   1 -11  367.26   11.50
   2   1 -11  362.56   18.40
   2   1 -11  378.06   11.40
  -2  -1  11  362.26   15.40
   1   1 -11  532.15   22.50
   1   1 -11  514.35   15.20
   1   1 -11  507.95   17.60
   1   1 -11  535.05   15.90
  -1  -1  11  549.95   18.60
   0   1 -11   98.79    9.70
   0   1 -11  102.19    6.80
   0   1 -11   99.59    6.20
   0   1 -11   99.89    6.20
   0  -1  11   97.29    7.00
  -1   1 -11  236.28   14.20
  -1   1 -11  221.68    9.40
  -1   1 -11  238.08   10.40
  -1   1 -11  225.68   10.10
   1  -1  11  228.68    9.80
  -2   1 -11  249.58   11.40
  -2   1 -11  252.27    9.30
   2  -1  11  253.87   15.20
   2  -1  11  251.97    9.70
   2  -1  11  265.77   11.40
  -3   1 -11 1024.90   24.10
  -3   1 -11 1060.19   29.50
   3  -1  11  997.00   33.90
   3  -1  11 1007.00   28.60
   3  -1  11 1053.39   24.90
  -4   1 -11  186.98    5.80
  -4   1 -11  195.68   11.00
  -4   1 -11  182.58    6.20
   4  -1  11  184.08   11.80
   4  -1  11  187.38   15.30
  -5   1 -11   78.49    8.90
   5  -1  11   87.99   11.60
  -6   1 -11   51.79    7.70
   6  -1  11   74.09   10.30
  -7   1 -11  320.67   16.90
   7  -1  11  334.17   19.10
  -8   1 -11   37.00    7.40
   8  -1  11   37.90    8.30
  -9   1 -11  108.89   11.80
   9  -1  11  103.19   12.80
 -10   1 -11   63.09   11.20
  10  -1  11   41.80    9.90
 -11   1 -11  142.49   13.70
  11  -1  11  163.98   16.50
 -12   1 -11   95.49   16.20
  12  -1  11   72.69   15.70
   9   0 -11  118.99   15.00
  -9   0  11  118.19   13.40
   8   0 -11    5.00    4.80
  -8   0  11   -2.20    4.50
   7   0 -11    3.10    4.70
  -7   0  11   -3.00    3.50
   6   0 -11    1.80    4.50
  -6   0  11    3.00    4.10
   5   0 -11  106.99   12.80
  -5   0  11  116.09   10.50
   4   0 -11   78.59    3.30
   4   0 -11   90.99   11.00
   4   0 -11   82.29    3.50
  -4   0  11   78.79    9.60
   3   0 -11   35.40    3.10
   3   0 -11   35.40    4.50
   3   0 -11   29.50   10.00
   2   0 -11  729.13   26.30
   2   0 -11  701.83   19.20
   2   0 -11  694.13   18.00
  -2   0  11  689.93   22.90
   1   0 -11   26.10    5.70
   1   0 -11   28.10    4.50
   1   0 -11   30.60    4.30
   1   0 -11   28.90    3.70
  -1   0  11   25.00    4.40
   0   0 -11   28.50    6.70
   0   0 -11   35.90    5.90
   0   0 -11   36.10    4.50
   0   0 -11   32.50    4.60
   0   0 -11   24.80    4.00
   0   0  11   34.70    4.70
  -1   0 -11  181.58    9.10
  -1   0 -11  198.58    9.30
  -1   0 -11  198.98   12.60
  -1   0 -11  182.98    8.50
  -1   0 -11  221.68   13.20
   1   0  11  207.88    9.30
  -2   0 -11  137.69   11.40
  -2   0 -11  155.68    8.70
  -2   0 -11  149.09    6.90
  -2   0 -11  146.39    8.50
   2   0  11  149.88    7.40
   2   0  11  151.28   11.30
  -3   0 -11    1.00    2.00
  -3   0 -11    5.00    2.60
  -3   0 -11    5.30    1.80
   3   0  11    1.30    3.20
   3   0  11    6.10    2.80
   3   0  11    7.30    2.20
  -4   0 -11   48.00    3.20
  -4   0 -11   59.29    7.20
  -4   0 -11   53.79    3.60
   4   0  11   41.30    6.80
   4   0  11   63.79    6.90
  -5   0 -11  232.88    5.70
  -5   0 -11  233.98    5.50
  -5   0 -11  228.18   12.40
  -6   0 -11  308.57   15.10
   6   0  11  317.97   17.80
  -7   0 -11   21.30    5.70
   7   0  11   20.40    6.10
  -8   0 -11   71.99    9.20
   8   0  11   63.19   10.10
  -9   0 -11   14.80    5.30
   9   0  11   19.40    7.60
 -10   0 -11   20.60    6.60
  10   0  11   29.80    8.20
 -11   0 -11    4.00    5.40
  11   0  11    5.00    5.70
 -12   0 -11  141.59   17.10
  12   0  11  131.69   18.20
 -13   0 -11   12.60    6.30
  13   0  11   12.60    7.80
   9  -1 -11   -0.40    4.90
  -9   1  11    1.10    5.30
   8  -1 -11    7.60    5.90
  -8   1  11   18.80    6.80
   7  -1 -11   45.70    8.90
  -7   1  11   59.79   10.20
   6  -1 -11  154.28    5.40
   6  -1 -11  177.08   13.60
  -6   1  11  150.78   12.40
   5  -1 -11    6.70    4.30
  -5   1  11    4.90    3.80
   4  -1 -11  139.99    6.00
   4  -1 -11  144.19    6.40
  -4   1  11  144.79   10.80
   3  -1 -11   57.99    8.00
   3  -1 -11   62.29    4.70
   3  -1 -11   58.39    4.20
  -3   1  11   75.59    9.80
   2  -1 -11   63.19    5.10
   2  -1 -11   52.79    7.30
   2  -1 -11   61.49    8.90
   2  -1 -11   61.89    4.50
   2  -1 -11   74.09    8.90
  -2   1  11   42.50    5.90
   1  -1 -11  264.77   11.00
   1  -1 -11  273.97   14.50
   1  -1 -11  274.57   14.40
   1  -1 -11  266.27   11.60
   1  -1 -11  262.27   10.10
  -1   1  11  269.97   12.40
   0  -1 -11  288.97   14.70
   0  -1 -11  257.07   13.90
   0  -1 -11  275.97   10.80
   0  -1 -11  266.07   10.90
   0  -1 -11  263.07   11.20
   0   1  11  276.77   11.90
  -1  -1 -11  607.64   19.20
  -1  -1 -11  602.94   18.60
  -1  -1 -11  639.94   23.10
  -1  -1 -11  597.44   17.70
  -1  -1 -11  591.64   22.50
   1   1  11  601.74   18.70
   1   1  11  608.54   23.20
  -2  -1 -11   24.60    5.10
  -2  -1 -11   38.60    4.10
  -2  -1 -11   29.10    4.60
  -2  -1 -11   31.80    4.70
   2   1  11   35.10    4.60
   2   1  11   35.00    6.80
  -3  -1 -11  251.57   11.60
  -3  -1 -11  265.87    9.00
  -3  -1 -11  256.77    9.80
  -3  -1 -11  245.38   13.60
  -3  -1 -11  273.47   12.20
   3   1  11  259.07   14.40
  -4  -1 -11  203.08    7.10
  -4  -1 -11  203.98    8.10
  -4  -1 -11  206.48   10.90
  -4  -1 -11  197.08   10.70
   4   1  11  197.48   12.90
  -5  -1 -11  392.66   16.40
  -5  -1 -11  409.86   11.20
  -5  -1 -11  392.66   10.50
   5   1  11  382.06   18.80
  -6  -1 -11  249.78    7.00
  -6  -1 -11  248.48    7.00
  -6  -1 -11  272.27   13.80
   6   1  11  245.58   15.40
  -7  -1 -11  227.78   13.30
  -7  -1 -11  215.98    5.80
  -7  -1 -11  216.38    6.00
   7   1  11  212.28   14.90
  -8  -1 -11   52.59    8.40
  -8  -1 -11   39.90    2.40
  -8  -1 -11   37.80    2.30
   8   1  11   43.10    9.20
  -9  -1 -11   26.80    2.40
  -9  -1 -11   26.60    6.50
   9   1  11   38.60    8.40
 -10  -1 -11   43.90    3.30
 -10  -1 -11   42.80    7.60
  10   1  11   26.90    8.20
 -11  -1 -11  115.09    5.40
 -11  -1 -11  105.89   12.50
  11   1  11  115.29   15.80
  11   1  11  113.49    5.80
 -12  -1 -11   60.59   11.00
 -12  -1 -11   67.39    4.60
  12   1  11   70.39   12.70
  12   1  11   61.09    5.10
 -13  -1 -11   37.30    9.70
 -13  -1 -11   42.00    4.50
  13   1  11   28.80    4.50
  13   1  11   55.09   12.60
  10  -2 -11    6.20    6.50
 -10   2  11    5.60    5.20
   9  -2 -11   57.49    4.20
   9  -2 -11   51.59    9.70
  -9   2  11   66.59    4.70
   8  -2 -11   98.19   13.30
   8  -2 -11   74.99    4.90
  -8   2  11   80.89    5.30
  -8   2  11   73.19   10.70
   7  -2 -11  231.48   15.40
   7  -2 -11  197.68    8.30
  -7   2  11  216.48   15.10
  -7   2  11  209.38    8.60
   6  -2 -11   -2.90    3.50
   6  -2 -11   -1.40    1.80
  -6   2  11    2.80    2.10
  -6   2  11    6.70    5.00
   5  -2 -11   48.50    4.40
  -5   2  11   42.10    7.20
  -5   2  11   51.49    4.50
   4  -2 -11    5.30    2.40
   4  -2 -11   -0.30    3.30
  -4   2  11    2.70    3.30
  -4   2  11    5.30    2.30
   3  -2 -11   58.89    6.10
   3  -2 -11   45.10    6.90
   3  -2 -11   47.70    7.60
  -3   2  11   56.09    4.80
  -3   2  11   42.30    6.80
   2  -2 -11  554.44   26.40
   2  -2 -11  525.95   20.00
   2  -2 -11  477.05   19.70
   2  -2 -11  472.25   16.20
  -2   2  11  480.45   18.60
  -2   2  11  479.15   15.30
   1  -2 -11 1185.38   34.70
   1  -2 -11 1153.98   34.70
   1  -2 -11 1227.18   30.20
   1  -2 -11 1183.18   31.20
   1  -2 -11 1181.78   31.30
  -1   2  11 1189.38   32.90
   0  -2 -11  235.68   10.30
   0  -2 -11  250.97   13.10
   0  -2 -11  242.48   10.40
   0  -2 -11  239.78   12.90
   0  -2 -11  238.28   11.00
   0   2  11  243.68   11.50
  -1  -2 -11   26.10    4.20
  -1  -2 -11   29.20    4.80
  -1  -2 -11   39.10    6.70
  -1  -2 -11   35.80    4.50
   1   2  11   35.40    4.80
   1   2  11   31.90    6.30
  -2  -2 -11  143.89   10.00
  -2  -2 -11  149.99    8.50
  -2  -2 -11  154.38    7.30
  -2  -2 -11  156.98    8.20
   2   2  11  131.49    9.90
  -3  -2 -11  601.24   17.70
  -3  -2 -11  543.55   19.40
  -3  -2 -11  558.44   21.20
  -3  -2 -11  584.74   16.30
  -3  -2 -11  571.84   19.20
   3   2  11  578.94   22.30
  -4  -2 -11  515.65   15.50
  -4  -2 -11  508.15   14.40
  -4  -2 -11  519.25   18.40
  -4  -2 -11  495.85   18.60
  -4  -2 -11  477.65   19.70
   4   2  11  495.95   20.90
  -5  -2 -11  123.29    6.20
  -5  -2 -11  124.99    8.90
  -5  -2 -11  117.59    5.70
   5   2  11  111.49   10.10
  -6  -2 -11  117.19    9.10
  -6  -2 -11  124.49    5.80
  -6  -2 -11  117.79    5.70
   6   2  11  112.89   10.90
  -7  -2 -11    4.30    1.80
  -7  -2 -11    4.60    1.70
  -7  -2 -11   -0.50    3.00
   7   2  11    1.90    4.10
  -8  -2 -11   69.29    4.30
  -8  -2 -11   70.89    9.10
   8   2  11   62.69    4.60
   8   2  11   80.49   11.80
  -9  -2 -11   87.99   10.90
  -9  -2 -11   94.79    5.20
   9   2  11   80.69   11.80
   9   2  11   80.99    5.50
 -10  -2 -11  288.77   10.10
 -10  -2 -11  315.07   17.60
  10   2  11  306.67   20.30
  10   2  11  281.97   11.10
 -11  -2 -11   21.30    7.50
 -11  -2 -11   27.50    3.90
  11   2  11   23.10    8.30
  11   2  11   28.80    4.70
 -12  -2 -11   20.20    3.70
 -12  -2 -11   12.40    6.50
  12   2  11   18.90    9.10
  12   2  11   15.30    4.00
 -13  -2 -11   37.80    9.20
 -13  -2 -11   20.80    3.90
  13   2  11   32.10    9.70
  10  -3 -11   39.30    9.10
 -10   3  11   14.10    6.10
 -10   3  11   19.80    4.20
   9  -3 -11   74.39   11.30
   9  -3 -11   68.19    5.90
  -9   3  11   81.09    6.80
  -9   3  11  115.89   19.30
   8  -3 -11  121.79    7.40
   8  -3 -11  138.99   12.70
  -8   3  11  124.19    8.00
  -8   3  11   95.89   11.50
   7  -3 -11    2.20    4.20
   7  -3 -11    0.90    2.40
  -7   3  11    1.50    4.20
  -7   3  11    1.80    2.70
   6  -3 -11  279.27   11.60
   6  -3 -11  306.77   18.70
  -6   3  11  283.87   16.70
  -6   3  11  311.67   12.50
   5  -3 -11    2.70    2.40
   5  -3 -11    2.90    3.50
  -5   3  11    0.70    3.30
  -5   3  11    1.70    2.60
   4  -3 -11  269.57   11.50
   4  -3 -11  259.67   14.30
   4  -3 -11  276.97   14.40
  -4   3  11  303.27   12.00
  -4   3  11  276.97   15.10
   3  -3 -11  201.58   11.80
   3  -3 -11  180.68   11.40
   3  -3 -11  207.38   10.00
  -3   3  11  191.08    9.30
   2  -3 -11  418.66   15.60
   2  -3 -11  397.06   19.20
   2  -3 -11  432.06   17.30
  -2   3  11  420.96   17.40
  -2   3  11  425.76   15.00
   1  -3 -11  298.07   12.70
   1  -3 -11  309.47   14.40
   1  -3 -11  339.37   13.70
   1  -3 -11  314.87   14.60
  -1   3  11  326.47   14.30
  -1   3  11  315.77   12.60
   0  -3 -11    6.50    2.80
   0  -3 -11    5.10    2.60
   0  -3 -11    4.40    2.50
   0  -3 -11    6.00    2.90
   0   3  11    6.90    3.10
   0   3  11    6.80    2.80
  -1  -3 -11  278.87   15.00
  -1  -3 -11  288.67   12.10
  -1  -3 -11  295.67   11.60
  -1  -3 -11  272.97   12.70
   1   3  11  298.57   14.30
   1   3  11  294.67   12.40
   1   3  11  302.77   12.80
  -2  -3 -11  114.59    6.80
  -2  -3 -11  129.29    8.10
  -2  -3 -11  124.49    7.80
  -2  -3 -11  116.69    8.20
  -2  -3 -11  122.99    8.80
   2   3  11  126.19    9.30
  -3  -3 -11   71.79    5.20
  -3  -3 -11   76.89    7.20
  -3  -3 -11   79.09    6.70
  -3  -3 -11   73.19    5.90
  -3  -3 -11   77.69    6.80
   3   3  11   67.89    8.60
  -4  -3 -11  162.98    7.80
  -4  -3 -11  165.68    9.80
  -4  -3 -11  167.98   10.30
  -4  -3 -11  154.18   10.50
  -4  -3 -11  162.38    8.40
   4   3  11  167.88   11.60
  -5  -3 -11  453.85   14.80
  -5  -3 -11  465.35   17.90
  -5  -3 -11  457.45   14.60
   5   3  11  450.85   20.00
  -6  -3 -11   61.89    4.90
  -6  -3 -11   61.89    4.90
  -6  -3 -11   74.29    8.50
  -7  -3 -11    6.20    3.50
  -7  -3 -11    2.10    1.90
   7   3  11    3.80    4.50
   7   3  11    2.50    2.10
  -8  -3 -11    6.10    4.50
  -8  -3 -11    6.30    2.40
   8   3  11    1.90    2.20
   8   3  11    8.50    5.30
  -9  -3 -11  526.35   22.20
  -9  -3 -11  495.35   15.40
   9   3  11  548.15   26.10
   9   3  11  490.75   16.80
 -10  -3 -11    9.30    5.40
 -10  -3 -11    7.70    2.80
  10   3  11   13.30    6.70
  10   3  11    8.90    3.40
 -11  -3 -11    8.70    5.30
 -11  -3 -11    8.10    3.00
  11   3  11    3.10    5.10
  11   3  11    5.00    5.70
 -12  -3 -11   62.09    6.00
 -12  -3 -11   49.90    9.40
  12   3  11   69.09    8.00
  12   3  11   57.49   17.00
 -13  -3 -11   93.29   12.70
 -13  -3 -11  101.69    7.70
  13   3  11  105.69   15.90
  10  -4 -11   10.70    5.90
 -10   4  11   27.30    5.50
 -10   4  11   13.40    6.70
   9  -4 -11   28.80    7.60
   9  -4 -11   27.00    5.20
  -9   4  11   30.10    5.90
   8  -4 -11    3.80    2.90
   8  -4 -11    3.60    4.60
  -8   4  11    5.80    3.40
  -8   4  11    4.00    4.80
   7  -4 -11  141.09   11.40
   7  -4 -11  119.99    8.50
  -7   4  11  163.08   10.00
  -7   4  11  138.39   12.90
   6  -4 -11    9.80    4.50
  -6   4  11   14.60    5.90
  -6   4  11    4.40    3.40
   5  -4 -11   31.70    6.20
   5  -4 -11   24.80    4.70
  -5   4  11   34.10    6.30
  -5   4  11   40.00    7.50
  -5   4  11   33.80    5.80
   4  -4 -11   24.70    4.70
   4  -4 -11   23.40    5.40
   4  -4 -11   25.00    5.40
  -4   4  11   24.10    6.00
  -4   4  11   25.60    5.10
   3  -4 -11  574.24   20.70
   3  -4 -11  616.54   20.90
   3  -4 -11  546.75   19.30
  -3   4  11  558.54   19.10
  -3   4  11  566.74   22.40
   2  -4 -11    4.60    2.90
   2  -4 -11    2.50    2.60
   2  -4 -11    2.00    2.20
  -2   4  11   -0.80    2.30
  -2   4  11    4.10    2.70
   1  -4 -11   34.90    5.40
   1  -4 -11   23.00    4.60
   1  -4 -11   25.50    4.80
   1  -4 -11   36.40    5.90
  -1   4  11   19.90    4.00
  -1   4  11   29.60    5.70
   0  -4 -11  564.14   18.60
   0  -4 -11  606.84   24.50
   0  -4 -11  585.94   20.00
   0  -4 -11  536.05   19.30
   0   4  11  563.84   20.10
   0   4  11  557.64   19.00
  -1  -4 -11  262.67   12.50
  -1  -4 -11  260.87   12.40
  -1  -4 -11  242.18   12.00
  -1  -4 -11  249.38   12.50
   1   4  11  275.27   13.20
   1   4  11  276.87   12.40
  -2  -4 -11   14.40    3.40
  -2  -4 -11    6.60    2.70
  -2  -4 -11    8.20    3.30
  -2  -4 -11    8.40    3.20
   2   4  11   15.80    4.40
   2   4  11   13.50    3.70
  -3  -4 -11   11.90    3.00
  -3  -4 -11    2.90    2.80
  -3  -4 -11    9.70    3.20
  -3  -4 -11    4.10    3.00
  -3  -4 -11    7.20    3.10
   3   4  11    9.50    4.00
  -4  -4 -11  367.46   15.30
  -4  -4 -11  348.57   13.10
  -4  -4 -11  326.67   13.40
  -4  -4 -11  332.27   15.30
   4   4  11  350.06   16.40
  -5  -4 -11  797.52   23.10
  -5  -4 -11  773.62   22.70
  -5  -4 -11  784.12   25.40
   5   4  11  794.42   28.10
  -6  -4 -11    3.30    2.30
  -6  -4 -11   -0.40    2.40
   6   4  11    1.10    2.00
  -7  -4 -11    9.60    3.10
  -7  -4 -11    7.10    4.00
   7   4  11   10.80    3.20
   7   4  11   10.30    4.80
  -8  -4 -11  273.47   11.50
  -8  -4 -11  299.97   15.40
   8   4  11  321.47   18.80
   8   4  11  275.17   12.40
  -9  -4 -11    8.00    4.80
  -9  -4 -11    7.70    3.00
   9   4  11    3.90    3.30
   9   4  11   -3.50    4.00
 -10  -4 -11    6.60    4.90
 -10  -4 -11   15.30    3.80
  10   4  11    7.90    5.60
  10   4  11    7.60    3.60
 -11  -4 -11  254.47   16.40
 -11  -4 -11  239.58   11.40
  11   4  11  268.87   19.90
  11   4  11  228.98   12.70
 -12  -4 -11  117.89    8.50
 -12  -4 -11  120.49   13.40
  12   4  11  139.79   24.50
 -13  -4 -11   14.70    4.10
 -13  -4 -11   12.80    6.30
  13   4  11   14.80    7.90
   9  -5 -11   55.69    9.20
  -9   5  11   59.89   10.10
   8  -5 -11   49.00    8.00
  -8   5  11   73.89   12.20
  -8   5  11   56.29    8.10
   7  -5 -11   20.70    5.50
  -7   5  11   17.40    5.20
  -7   5  11   39.90    8.60
   6  -5 -11  128.59    9.90
   6  -5 -11  120.59    8.70
  -6   5  11  112.89    9.10
  -6   5  11  126.59    9.80
  -6   5  11  133.69   12.40
   5  -5 -11    4.00    3.00
   5  -5 -11    5.70    3.50
   5  -5 -11    4.60    3.00
  -5   5  11   -2.10    3.40
  -5   5  11    8.30    4.20
   4  -5 -11  295.97   13.90
   4  -5 -11  332.67   14.20
   4  -5 -11  312.17   14.30
  -4   5  11  303.37   14.30
  -4   5  11  329.47   17.10
   3  -5 -11   61.69    7.30
   3  -5 -11   54.99    6.80
   3  -5 -11   50.79    6.80
  -3   5  11   56.89    8.80
  -3   5  11   47.40    6.60
   2  -5 -11   35.30    5.90
   2  -5 -11   45.00    6.10
   2  -5 -11   50.59    6.20
  -2   5  11   43.00    7.40
  -2   5  11   41.60    6.40
   1  -5 -11  827.62   26.60
   1  -5 -11  879.61   25.20
   1  -5 -11  812.52   24.70
  -1   5  11  830.22   27.40
  -1   5  11  848.52   26.10
   0  -5 -11  791.62   25.80
   0  -5 -11  803.32   26.10
   0  -5 -11  785.82   23.80
   0  -5 -11  753.22   24.00
   0   5  11  787.32   24.50
   0   5  11  813.12   25.00
  -1  -5 -11   18.60    4.60
  -1  -5 -11   12.70    3.20
  -1  -5 -11   13.20    3.30
  -1  -5 -11   16.60    4.20
   1   5  11   15.40    3.90
   1   5  11   18.90    4.20
  -2  -5 -11  346.27   14.80
  -2  -5 -11  335.17   15.30
  -2  -5 -11  326.57   14.00
  -2  -5 -11  324.27   15.20
   2   5  11  314.97   14.30
   2   5  11  332.07   14.70
  -3  -5 -11  349.17   14.00
  -3  -5 -11  340.77   14.80
  -3  -5 -11  342.57   14.60
   3   5  11  339.17   15.50
   3   5  11  327.27   14.70
  -4  -5 -11  295.47   12.80
  -4  -5 -11  284.37   13.90
  -4  -5 -11  307.47   13.40
  -4  -5 -11  297.87   14.10
   4   5  11  306.57   15.20
  -5  -5 -11   67.29    6.30
   5   5  11   61.39    5.90
   5   5  11   63.49    9.10
  -6  -5 -11   24.40    5.60
  -6  -5 -11   32.20    5.30
   6   5  11   35.20    5.40
  -7  -5 -11  311.57   13.30
  -7  -5 -11  303.97   15.40
   7   5  11  325.87   18.20
   7   5  11  296.27   15.00
  -8  -5 -11   -0.90    2.50
  -8  -5 -11   -1.20    3.40
   8   5  11    2.80    2.90
   8   5  11    2.70    4.70
  -9  -5 -11  206.68   13.60
  -9  -5 -11  206.68   10.70
   9   5  11  212.18   16.40
   9   5  11  186.58   11.40
 -10  -5 -11   11.30    3.70
 -10  -5 -11    5.60    4.90
  10   5  11    5.20    5.20
 -11  -5 -11  258.97   16.50
  11   5  11  246.08   19.60
 -12  -5 -11   26.20    5.20
 -12  -5 -11   26.00    7.40
  12   5  11   16.10    7.70
   9  -6 -11  204.98   13.50
  -9   6  11  186.58   16.90
  -9   6  11  208.08   14.10
   8  -6 -11   55.49    8.10
  -8   6  11   66.19    9.90
  -8   6  11   35.60    8.70
   7  -6 -11    5.80    3.90
  -7   6  11    9.10    3.80
  -7   6  11    6.20    4.70
  -7   6  11   12.60    6.00
   6  -6 -11   25.90    5.50
  -6   6  11   28.10    6.70
  -6   6  11   33.70    8.00
   5  -6 -11  490.75   18.40
   5  -6 -11  509.75   18.00
  -5   6  11  478.55   22.60
  -5   6  11  502.45   20.50
   4  -6 -11    3.30    2.60
   4  -6 -11    0.30    2.10
  -4   6  11    5.30    4.20
  -4   6  11    4.40    3.60
   3  -6 -11  168.28   10.80
   3  -6 -11  175.98    9.30
   3  -6 -11  161.58    8.80
  -3   6  11  189.78   13.00
  -3   6  11  187.78   11.50
   2  -6 -11  536.45   21.90
   2  -6 -11  499.45   19.90
   2  -6 -11  524.05   17.00
   2  -6 -11  504.95   17.00
  -2   6  11  494.85   21.20
  -2   6  11  486.15   19.50
   1  -6 -11  528.95   20.60
   1  -6 -11  551.34   21.70
   1  -6 -11  531.65   17.40
   1  -6 -11  542.85   17.60
  -1   6  11  526.65   20.10
   0  -6 -11  174.88    9.00
   0  -6 -11  170.18   11.20
   0  -6 -11  183.58   11.30
   0   6  11  176.38   10.90
   0   6  11  179.18    9.60
  -1  -6 -11    2.70    2.20
  -1  -6 -11   -0.40    2.20
  -1  -6 -11    1.80    2.70
  -1  -6 -11   -0.70    1.70
   1   6  11   -1.60    2.20
   1   6  11   -1.20    1.90
  -2  -6 -11   30.70    4.80
  -2  -6 -11   25.40    5.40
  -2  -6 -11   20.00    4.30
   2   6  11   29.10    6.10
   2   6  11   28.80    5.30
  -3  -6 -11 1027.20   29.90
  -3  -6 -11 1016.90   30.60
   3   6  11  990.30   30.20
   3   6  11 1008.10   30.80
  -4  -6 -11   60.09    7.10
  -4  -6 -11   70.89    8.40
   4   6  11   58.79    6.90
   4   6  11   68.89    8.90
   4   6  11   67.99    9.80
  -5  -6 -11   75.59    7.30
  -5  -6 -11   70.29    8.60
   5   6  11   65.59    7.70
   5   6  11   92.89   10.50
  -6  -6 -11  405.86   18.00
  -6  -6 -11  434.56   16.90
   6   6  11  400.16   22.90
   6   6  11  377.96   16.30
  -7  -6 -11   54.79    8.30
  -7  -6 -11   52.39    6.80
   7   6  11   75.99   11.20
   7   6  11   56.19    7.30
  -8  -6 -11  595.44   20.80
  -8  -6 -11  549.45   22.70
   8   6  11  604.04   26.60
  -9  -6 -11   91.29   10.20
  -9  -6 -11   82.99    7.90
   9   6  11   72.89   11.40
 -10  -6 -11  172.08   10.80
 -10  -6 -11  186.38   13.40
  10   6  11  166.68   15.80
 -11  -6 -11    1.10    4.60
 -11  -6 -11   -3.60    2.70
  11   6  11   -0.10    5.10
 -12  -6 -11  160.58   13.90
 -12  -6 -11  139.39   10.50
  12   6  11  140.59   17.60
   9  -7 -11   37.70    6.90
  -9   7  11   37.70    9.00
  -9   7  11   37.40    8.10
   8  -7 -11    1.30    3.40
  -8   7  11   -1.90    4.40
  -8   7  11    3.00    4.20
   7  -7 -11   25.00    5.20
   7  -7 -11   17.00    5.20
  -7   7  11   25.40    6.80
  -7   7  11   29.60    8.30
   6  -7 -11  198.78   10.60
   6  -7 -11  201.48   10.80
  -6   7  11  223.88   14.40
  -6   7  11  194.98   15.50
   5  -7 -11    3.40    2.90
   5  -7 -11    1.50    2.20
  -5   7  11    0.30    4.20
  -5   7  11    2.50    4.20
   4  -7 -11    3.80    2.50
   4  -7 -11    3.30    2.20
  -4   7  11    0.80    3.30
   3  -7 -11  379.26   19.30
   3  -7 -11  390.86   13.50
   3  -7 -11  393.66   13.40
  -3   7  11  425.86   18.80
   2  -7 -11  545.95   16.70
   2  -7 -11  549.05   23.10
   2  -7 -11  566.54   16.90
  -2   7  11  542.25   21.60
   1  -7 -11  268.57   10.60
   1  -7 -11  240.88   14.50
   1  -7 -11  242.58   10.00
  -1   7  11  253.67   13.90
   0  -7 -11   28.40    4.30
   0  -7 -11   18.20    5.40
   0   7  11   21.30    4.00
   0   7  11   17.10    4.70
  -1  -7 -11   52.89    5.10
  -1  -7 -11   58.49    8.90
   1   7  11   61.49    5.80
   1   7  11   51.49    6.90
  -2  -7 -11   73.79    6.20
  -2  -7 -11   58.99    7.60
   2   7  11   81.79    7.00
   2   7  11   83.19    9.50
  -3  -7 -11    2.90    3.00
  -3  -7 -11    3.90    2.70
   3   7  11    4.50    3.10
   3   7  11    6.60    4.20
  -4  -7 -11   96.59    8.60
  -4  -7 -11   90.99    7.80
   4   7  11   92.79    8.60
   4   7  11   93.19    8.40
  -5  -7 -11  765.92   25.80
   5   7  11  741.53   26.80
   5   7  11  751.82   26.30
  -6  -7 -11   59.09    7.80
  -6  -7 -11   53.79    7.90
   6   7  11   61.39    9.60
  -7  -7 -11  172.28   11.30
  -7  -7 -11  183.68   12.40
   7   7  11  198.58   14.50
  -8  -7 -11   99.99    8.90
  -8  -7 -11   87.79    9.90
   8   7  11  125.79   12.60
  -9  -7 -11   91.99   11.40
  -9  -7 -11   93.59    8.90
   9   7  11   78.39   11.60
 -10  -7 -11   40.60    8.50
 -10  -7 -11   50.09    7.60
  10   7  11   28.10    8.50
 -11  -7 -11  250.77   14.20
 -11  -7 -11  243.28   16.10
  11   7  11  239.28   19.50
 -12  -7 -11   23.50    5.70
 -12  -7 -11   16.90    6.70
  12   7  11   13.00    7.80
   9  -8 -11   43.10    6.70
  -9   8  11   23.20    8.20
  -9   8  11   22.30    7.10
   8  -8 -11   14.50    4.30
   8  -8 -11   18.10    4.50
  -8   8  11   13.70    6.20
  -8   8  11   25.10    7.10
   7  -8 -11  210.78   10.60
   7  -8 -11  214.48   10.40
  -7   8  11  229.68   17.30
  -7   8  11  202.38   15.10
   6  -8 -11    2.40    2.10
   6  -8 -11   -0.30    2.20
  -6   8  11    7.20    5.20
  -6   8  11   -1.90    3.60
   5  -8 -11  138.29    7.00
   5  -8 -11  136.49   13.10
   5  -8 -11  151.58    7.40
  -5   8  11  146.89   12.40
  -5   8  11  152.98   13.60
   4  -8 -11   79.69    7.60
   4  -8 -11   74.49    4.90
   4  -8 -11   76.29   10.70
  -4   8  11   75.59   10.90
   3  -8 -11    2.60    3.60
   3  -8 -11    2.40    1.70
  -3   8  11   -3.80    3.00
   2  -8 -11   -1.20    1.40
   2  -8 -11    1.50    3.20
  -2   8  11   -4.00    2.70
   1  -8 -11  308.07   10.80
   1  -8 -11  308.77   17.10
   1  -8 -11  312.37   11.00
  -1   8  11  355.16   17.30
   0  -8 -11  140.99   11.40
   0  -8 -11  134.69    7.00
   0   8  11  120.69   10.20
   0   8  11  130.09    7.40
  -1  -8 -11  289.57   16.10
  -1  -8 -11  285.67   11.50
   1   8  11  289.27   12.20
   1   8  11  293.77   15.50
  -2  -8 -11  180.18    9.60
   2   8  11  177.48   11.90
   2   8  11  189.38   10.30
  -3  -8 -11   80.09    9.00
  -3  -8 -11   83.19   14.30
   3   8  11   78.39    7.50
   3   8  11   59.29    8.20
  -4  -8 -11   60.59    7.90
   4   8  11   62.79    8.10
   4   8  11   51.29    7.20
  -5  -8 -11  417.96   18.90
   5   8  11  389.06   18.40
   5   8  11  364.96   17.70
  -6  -8 -11    3.00    3.80
  -6  -8 -11    2.10    3.20
   6   8  11   -0.50    3.50
   6   8  11    5.50    3.80
  -7  -8 -11  430.66   19.70
  -7  -8 -11  398.96   18.30
   7   8  11  388.96   20.70
  -8  -8 -11   18.80    5.40
  -8  -8 -11   23.70    6.20
   8   8  11   24.00    7.60
  -9  -8 -11   33.80    7.70
  -9  -8 -11   30.30    6.50
   9   8  11   39.90    9.80
 -10  -8 -11  513.05   21.30
 -10  -8 -11  499.55   23.00
  10   8  11  502.15   27.20
 -11  -8 -11   33.30    7.30
 -11  -8 -11   44.70    8.90
   8  -9 -11   54.89   13.00
   8  -9 -11   61.79    5.20
   8  -9 -11   51.39    5.60
  -8   9  11   52.89   10.30
   7  -9 -11    5.70    5.50
  -7   9  11    3.30    4.60
   6  -9 -11   88.89    3.80
   6  -9 -11   84.69    3.80
   6  -9 -11   75.39   11.90
  -6   9  11  102.69   14.10
   5  -9 -11    7.40    5.00
  -5   9  11    0.80    4.30
   4  -9 -11   46.50    9.00
  -4   9  11   56.69   10.10
   3  -9 -11   21.00    7.00
  -3   9  11   24.30    6.30
   2  -9 -11  667.93   14.70
   2  -9 -11  700.93   28.00
   2  -9 -11  658.93   14.80
  -2   9  11  675.03   26.90
   1  -9 -11  465.85   13.20
   1  -9 -11  478.25   13.00
   1  -9 -11  473.55   22.10
  -1   9  11  450.35   21.10
   0  -9 -11   67.09    4.90
   0  -9 -11   84.29   11.10
   0   9  11   71.29    5.30
   0   9  11   77.89   10.60
  -1  -9 -11  161.08   12.40
  -1  -9 -11  136.59    7.70
   1   9  11  148.69    8.30
   1   9  11  180.38   12.60
  -2  -9 -11  557.74   18.70
  -2  -9 -11  578.44   23.90
   2   9  11  578.54   19.40
   2   9  11  566.54   23.40
  -3  -9 -11  252.07   13.90
  -3  -9 -11  265.17   15.60
   3   9  11  282.37   13.50
   3   9  11  259.57   15.00
  -4  -9 -11  123.69   10.90
  -4  -9 -11  112.29    8.90
   4   9  11  127.19    9.90
   4   9  11  112.09   10.20
  -5  -9 -11  189.98   13.10
   5   9  11  202.18   13.20
   5   9  11  206.38   13.50
  -6  -9 -11   80.49    9.90
   6   9  11   77.89   10.70
   6   9  11   84.09   11.20
  -7  -9 -11    6.10    4.40
  -7  -9 -11    5.80    4.10
   7   9  11    5.30    5.00
  -8  -9 -11   -1.00    3.00
  -8  -9 -11    3.80    3.90
   8   9  11   -1.20    4.00
  -9  -9 -11  258.27   16.10
  -9  -9 -11  245.48   15.10
   9   9  11  267.87   18.90
 -10  -9 -11  149.19   12.20
 -10  -9 -11  148.59   12.90
  10   9  11  108.69   14.60
 -11  -9 -11   13.30    6.30
 -11  -9 -11   13.00    5.50
  11   9  11    8.40    6.70
   8 -10 -11   -9.00    4.20
  -8  10  11    1.60    5.50
   7 -10 -11  172.68   16.80
  -7  10  11  182.78   15.90
   6 -10 -11    5.80    5.30
  -6  10  11    3.30    4.80
   5 -10 -11   21.80    7.00
  -5  10  11   46.60    9.40
   4 -10 -11    8.90    4.90
  -4  10  11    8.60    5.50
   3 -10 -11  192.98   15.30
  -3  10  11  172.28   14.20
   2 -10 -11   67.59   10.40
  -2  10  11   56.19    9.10
   1 -10 -11  166.88   13.80
  -1  10  11  178.78   13.70
   0 -10 -11   46.90    4.00
   0 -10 -11   51.69    9.40
   0  10  11   51.49    8.70
  -1 -10 -11  299.87   11.40
  -1 -10 -11  302.37   17.60
   1  10  11  304.87   11.90
   1  10  11  300.57   17.20
  -2 -10 -11   -0.60    3.20
  -2 -10 -11    7.00    3.10
   2  10  11    2.90    2.70
   2  10  11    4.40    4.00
  -3 -10 -11   35.10    7.30
   3  10  11   30.80    7.00
   3  10  11   30.60    5.80
  -4 -10 -11  229.48   12.80
  -4 -10 -11  252.37   15.90
   4  10  11  255.07   13.90
   4  10  11  267.77   15.80
  -5 -10 -11   61.49    9.20
   5  10  11   59.89    9.10
   5  10  11   56.79    8.10
  -6 -10 -11    5.30    4.30
   6  10  11    3.30    4.10
   6  10  11    6.50    4.30
  -7 -10 -11    1.00    3.80
  -7 -10 -11    1.60    4.00
   7  10  11    6.10    4.30
   7  10  11    2.10    4.30
  -8 -10 -11  125.09   12.90
  -8 -10 -11  125.59   11.40
   8  10  11  104.79   13.00
  -9 -10 -11  243.08   16.00
  -9 -10 -11  249.68   15.80
   9  10  11  223.38   17.80
 -10 -10 -11   -0.70    3.70
 -10 -10 -11   -1.40    4.10
  10  10  11    1.20    5.20
   7 -11 -11   39.10   10.10
  -7  11  11   49.70   11.60
   6 -11 -11   19.70    7.40
  -6  11  11   35.50    9.10
   5 -11 -11   16.20    6.40
  -5  11  11   25.00    7.50
   4 -11 -11  218.28   17.40
  -4  11  11  254.77   17.90
   3 -11 -11   30.00    8.20
  -3  11  11   39.10    9.20
   2 -11 -11   27.30    8.00
  -2  11  11   26.10    7.10
   1 -11 -11   35.60    7.90
  -1  11  11   49.90    9.40
   0 -11 -11  583.84   14.20
   0 -11 -11  583.24   26.30
   0  11  11  555.34   25.40
  -1 -11 -11   27.40    7.50
  -1 -11 -11   28.50    4.00
   1  11  11   38.90    8.60
   1  11  11   20.60    3.70
  -2 -11 -11   91.49    6.90
  -2 -11 -11   87.99   11.10
   2  11  11   98.99   12.60
   2  11  11   79.99    6.80
  -3 -11 -11   13.10    5.90
   3  11  11   16.70    4.50
   3  11  11   24.40    6.70
  -4 -11 -11  120.09   13.50
  -4 -11 -11   83.19    8.10
   4  11  11   83.89   11.00
   4  11  11  104.69    9.10
  -5 -11 -11   48.00    8.60
   5  11  11   65.89   10.50
  -6 -11 -11    3.80    4.10
   6  11  11    1.70    3.90
   6  11  11    5.50    4.10
  -7 -11 -11  134.79   12.60
   7  11  11  138.99   12.10
   7  11  11  134.59   13.00
  -8 -11 -11  118.39   13.70
  -8 -11 -11  111.89   13.10
   8  11  11  112.09   14.00
  -9 -11 -11   71.89   10.40
  -9 -11 -11   66.79   10.50
   9  11  11   76.99   12.50
 -10 -11 -11   58.79   10.90
 -10 -11 -11   47.10    9.60
   6 -12 -11    2.50    5.60
  -6  12  11    3.50    6.40
   5 -12 -11  228.78   18.50
  -5  12  11  205.98   17.70
   4 -12 -11   20.90    7.70
  -4  12  11   20.00    7.40
   3 -12 -11   74.79   11.50
  -3  12  11   70.69   12.40
   2 -12 -11  113.19   14.90
  -2  12  11   87.69   13.00
   1 -12 -11  208.58   16.30
  -1  12  11  190.18   15.70
   0 -12 -11    3.80    4.90
   0  12  11    0.20    4.20
  -1 -12 -11    4.40    4.20
  -1 -12 -11   10.50    2.60
   1  12  11    3.40    4.10
   1  12  11   11.50    2.70
  -2 -12 -11   28.10    7.00
  -2 -12 -11   45.50    5.90
   2  12  11   37.00    7.70
   2  12  11   47.30    6.00
  -3 -12 -11  372.96   16.10
  -3 -12 -11  338.17   19.90
   3  12  11  347.27   19.80
   3  12  11  363.76   15.60
  -4 -12 -11   60.59   10.80
   4  12  11   55.29    8.10
   4  12  11   42.40    8.30
  -5 -12 -11   10.60    5.50
   5  12  11    6.60    4.80
   5  12  11    9.30    4.40
  -6 -12 -11  113.69   13.50
   6  12  11  113.19   11.60
   6  12  11  136.39   12.40
  -7 -12 -11   73.19   10.70
   7  12  11   85.49   11.90
   7  12  11   63.59   10.30
  -8 -12 -11  144.39   15.80
  -8 -12 -11  136.59   13.00
   8  12  11  120.09   14.50
  -9 -12 -11  126.09   15.40
  -9 -12 -11  114.39   16.00
   9  12  11  114.69   15.30
   5 -13 -11   35.70    9.50
  -5  13  11   51.69   12.00
  -4  13  11   39.20   10.10
   3 -13 -11   20.50    7.10
  -3  13  11   30.80    8.40
   2 -13 -11  316.77   21.10
  -2  13  11  333.07   21.50
   1 -13 -11   -2.10    3.60
  -1  13  11   10.80    6.40
   0 -13 -11   27.40    8.00
   0  13  11   44.90    9.60
  -1 -13 -11    5.00    2.10
  -1 -13 -11   -0.70    3.80
   1  13  11    3.20    2.00
   1  13  11    9.20    5.80
  -2 -13 -11  259.97   17.80
  -2 -13 -11  206.58   10.20
   2  13  11  225.08   10.60
   2  13  11  203.08   15.90
  -3 -13 -11    6.00    3.50
  -3 -13 -11    6.60    5.60
   3  13  11   11.10    4.00
   3  13  11    7.70    4.70
  -4 -13 -11   57.19   10.90
   4  13  11   39.60    7.00
   4  13  11   44.90    8.60
  -5 -13 -11    3.80    4.90
   5  13  11    6.40    4.30
   5  13  11    1.40    3.40
  -6 -13 -11  140.29   16.20
   6  13  11  102.59   12.20
   6  13  11  100.59   12.20
  -7 -13 -11  127.49   17.00
   7  13  11  111.89   14.20
   7  13  11  154.28   13.60
   4 -14 -11   -3.90    5.00
  -4  14  11    1.70    6.00
   3 -14 -11  248.98   19.80
  -3  14  11  261.97   20.40
   2 -14 -11    7.70    6.90
  -2  14  11    0.40    5.60
   1 -14 -11   45.90   12.00
  -1  14  11   64.09   18.00
   0 -14 -11   12.10    6.10
   0  14  11   12.60    6.60
  -1 -14 -11   57.09   10.80
  -1 -14 -11   54.89    3.10
   1  14  11   74.69   12.60
  -2 -14 -11   -1.30    3.80
  -2 -14 -11   -0.70    2.00
   2  14  11    3.90    5.00
   2  14  11    3.10    2.40
  -3 -14 -11  110.09   17.00
  -3 -14 -11   96.89    8.20
   3  14  11  110.79   13.40
   3  14  11  110.59    8.50
  -4 -14 -11   34.00   12.20
   4  14  11   74.89    9.20
   4  14  11   58.69   10.30
  -5 -14 -11   47.80   10.40
   5  14  11   36.10    7.40
  -6 -14 -11   68.89   11.90
   6  14  11   63.59   10.00
   6  14  11   67.79   12.00
   2 -15 -11   32.40    9.70
  -2  15  11   41.10   10.70
   1 -15 -11   19.40    7.80
  -1  15  11   11.90    7.30
   0 -15 -11   21.80    7.00
   0  15  11   32.80    9.00
  -1 -15 -11   -1.10    3.60
   1  15  11   15.10    6.80
  -2 -15 -11   77.29   13.10
  -2 -15 -11   80.09    6.80
   2  15  11  117.09   15.90
   2  15  11   95.39    6.40
  -3 -15 -11   36.90    8.90
   3  15  11   24.60    5.20
   3  15  11   27.40    7.60
  -4 -15 -11   26.20    8.00
   4  15  11   29.80    8.90
   4  15  11   41.70    7.20
   1   9 -12   66.89   12.90
   1   9 -12   71.29    8.20
  -1  -9  12   83.79   10.90
   0   9 -12   34.80    9.90
   0  -9  12   31.70    6.80
  -1   9 -12   94.39   11.40
  -1   9 -12   97.39   19.10
   1  -9  12  109.09    9.90
  -2   9 -12   58.59    9.40
  -2   9 -12   78.29   13.90
   2  -9  12   68.59    8.30
  -3   9 -12   -4.40    4.70
  -3   9 -12    8.40    5.20
   3  -9  12    2.10    3.30
  -4   9 -12    9.00    6.80
  -4   9 -12   22.70    8.10
   4  -9  12    9.40    3.30
  -5   9 -12   29.90    8.30
  -5   9 -12   16.20    7.60
   5  -9  12   25.40    3.80
   3   8 -12   68.99   12.40
  -3  -8  12   91.29   11.30
   2   8 -12   90.79    6.40
   2   8 -12   91.79   15.60
  -2  -8  12  101.19   11.40
   1   8 -12   12.80    4.30
   1   8 -12   23.20    8.30
  -1  -8  12   14.20    5.50
   0   8 -12   81.89    9.30
   0   8 -12   57.09   10.70
   0  -8  12   79.89    9.60
  -1   8 -12    5.00    5.70
  -1   8 -12   10.40    4.70
   1  -8  12    6.50    4.20
  -2   8 -12    0.80    4.50
  -2   8 -12    0.00    4.90
   2  -8  12   -1.40    2.70
  -3   8 -12   26.20    8.30
  -3   8 -12   11.80    4.50
  -3   8 -12   31.60    7.50
   3  -8  12   19.70    4.30
  -4   8 -12   74.19   11.00
  -4   8 -12   81.89   12.50
  -4   8 -12   72.29    6.80
   4  -8  12   89.29    6.40
  -5   8 -12    5.80    2.50
  -5   8 -12    5.60    5.70
  -5   8 -12    3.70    5.50
   5  -8  12    8.40    2.30
  -6   8 -12    2.60    5.30
  -6   8 -12   13.20    7.10
  -7   8 -12   92.99   17.40
  -7   8 -12   61.49   12.30
   4   7 -12   50.99   12.40
  -4  -7  12   62.49    9.20
  -3  -7  12   12.10    5.30
   2   7 -12   13.40    3.10
   2   7 -12   32.30    9.40
  -2  -7  12   17.70    5.60
   1   7 -12   86.29    7.30
   1   7 -12   99.99   15.10
  -1  -7  12  102.69    9.80
  -1  -7  12   83.29    6.20
   0   7 -12    1.70    5.00
   0   7 -12    3.70    3.50
   0  -7  12    1.10    2.60
   0  -7  12   -0.70    2.90
  -1   7 -12   -3.10    4.00
  -1   7 -12   -0.60    3.30
  -2   7 -12   59.09    7.80
  -2   7 -12   63.29   11.70
  -2   7 -12   65.49    9.20
   2  -7  12   58.19    6.70
  -3   7 -12  102.59   14.10
  -3   7 -12   64.49   11.00
  -3   7 -12  105.59   12.20
   3  -7  12   99.99    7.00
  -4   7 -12   39.80    8.10
  -4   7 -12   25.20    4.30
  -4   7 -12   38.00   10.10
   4  -7  12   36.20    4.40
  -5   7 -12   37.40    9.80
  -5   7 -12   27.80    3.40
  -5   7 -12   36.30    8.60
  -6   7 -12    5.50    5.50
  -6   7 -12    7.20    5.60
  -7   7 -12   51.59   10.30
  -7   7 -12   64.19   11.60
   7  -7  12   32.80    9.10
   8  -7  12   68.59   13.00
  -9   7 -12   28.90    9.50
   9  -7  12    8.90    6.80
   5   6 -12   28.90   10.00
  -5  -6  12   10.10    5.90
   4   6 -12    0.50    5.40
  -4  -6  12    2.30    4.70
   3   6 -12   27.70    9.00
  -3  -6  12   46.00    8.30
   2   6 -12  237.68    8.40
   2   6 -12  232.48   18.20
   2   6 -12  223.88    8.80
  -2  -6  12  246.18   14.30
   1   6 -12    9.80    5.70
   1   6 -12   11.10    3.50
  -1  -6  12    7.90    4.30
  -1  -6  12   10.20    2.90
   0   6 -12   11.40    6.50
   0   6 -12   19.60    4.90
   0  -6  12   17.50    4.80
   0  -6  12   10.70    3.60
  -1   6 -12   91.19   13.30
  -1   6 -12   97.99    8.80
   1  -6  12   81.49    7.10
   1  -6  12   97.69    7.90
  -2   6 -12  159.88   10.00
  -2   6 -12  208.88   16.60
   2  -6  12  205.28   10.10
  -3   6 -12   -1.30    3.60
  -3   6 -12   -1.50    3.90
  -3   6 -12    1.70    2.40
   3  -6  12    3.50    2.60
  -4   6 -12    7.90    2.80
  -4   6 -12   11.70    5.70
  -4   6 -12   -0.90    4.10
   4  -6  12    6.10    2.30
  -5   6 -12    2.30    5.00
  -5   6 -12    2.80    1.50
  -5   6 -12   -1.30    4.60
   5  -6  12    3.00    1.20
  -6   6 -12   13.10    6.00
  -6   6 -12    8.50    5.70
   6  -6  12   -0.20    4.90
  -7   6 -12  108.99   14.40
   7  -6  12  133.59   16.80
  -8   6 -12  122.89   16.20
   8  -6  12   90.49   12.90
  -9   6 -12   86.89   13.70
   9  -6  12  109.89   16.30
   6   5 -12   13.10    8.90
   5   5 -12   20.90    8.00
  -5  -5  12   19.00    6.30
  -4  -5  12  105.39   12.20
   3   5 -12  187.28   16.50
  -3  -5  12  188.68   13.10
   2   5 -12   64.79    4.40
   2   5 -12   74.19   12.50
  -2  -5  12   69.29    8.50
   1   5 -12   40.80    5.40
   1   5 -12   37.80    9.40
  -1  -5  12   39.10    6.80
   0   5 -12   90.09    7.50
   0   5 -12   79.59   11.10
   0  -5  12   87.09    8.00
   0  -5  12   70.29    6.00
  -1   5 -12  405.06   16.50
  -1   5 -12  379.86   15.70
  -1   5 -12  406.56   22.40
   1  -5  12  426.96   15.70
   1  -5  12  402.96   15.20
  -2   5 -12    4.50    4.20
  -2   5 -12    3.00    4.90
  -2   5 -12    1.30    2.60
   2  -5  12    5.60    3.00
  -3   5 -12  121.79    7.50
  -3   5 -12  105.89   11.10
  -3   5 -12  109.19   13.30
   3  -5  12  143.49    7.20
  -4   5 -12   91.29   11.10
  -4   5 -12   73.09    5.10
  -4   5 -12  116.29   15.90
   4  -5  12   73.09    4.60
  -5   5 -12   -2.90    4.20
  -5   5 -12   -4.30    3.40
   5  -5  12   -0.70    4.40
  -6   5 -12   43.60    8.50
   6  -5  12   37.00    9.10
  -7   5 -12   82.29   11.60
   7  -5  12   92.29   12.80
  -8   5 -12  142.59   16.60
   8  -5  12  149.09   18.30
  -9   5 -12   23.90    8.30
   9  -5  12   10.90    6.60
 -10   5 -12   31.70   10.40
  10  -5  12   27.20    8.90
   7   4 -12   12.60    7.50
  -7  -4  12   14.70    6.10
   6   4 -12   60.59   11.50
  -6  -4  12   71.29   11.10
   5   4 -12   39.10    9.80
  -5  -4  12   54.89    9.20
   4   4 -12  113.09   15.70
  -4  -4  12  128.59   11.50
   3   4 -12  352.06   21.20
  -3  -4  12  341.27   17.00
   2   4 -12   31.70    5.40
   2   4 -12   27.50    5.20
   2   4 -12   51.19   10.40
  -2  -4  12   35.30    6.40
   1   4 -12   14.00    3.20
   1   4 -12    7.90    2.70
   1   4 -12    9.60    5.80
  -1  -4  12   16.20    5.30
   0   4 -12  220.38   10.70
   0   4 -12  259.47   17.50
   0  -4  12  217.78    9.80
   0  -4  12  210.18   11.20
  -1   4 -12    5.90    4.70
  -1   4 -12    8.30    4.00
  -1   4 -12    3.30    2.60
   1  -4  12    6.80    3.30
   1  -4  12    5.40    3.10
  -2   4 -12  649.93   22.60
  -2   4 -12  619.34   19.50
  -2   4 -12  678.63   28.70
   2  -4  12  663.93   19.20
   2  -4  12  650.63   21.20
  -3   4 -12   95.39   10.30
  -3   4 -12   82.39   11.60
  -3   4 -12   78.69    5.70
   3  -4  12   94.59    5.80
  -4   4 -12  162.98   12.00
  -4   4 -12  150.98    6.60
  -4   4 -12  150.78   13.90
   4  -4  12  159.18   14.40
  -5   4 -12   35.80    7.50
   5  -4  12   37.60    8.90
  -6   4 -12   30.20    7.70
   6  -4  12   41.60    8.70
  -7   4 -12   35.70    7.90
   7  -4  12   17.00    6.90
  -8   4 -12   16.00    7.40
   8  -4  12   24.30    7.60
  -9   4 -12   19.30    7.10
   9  -4  12    9.00    5.90
  10  -4  12   76.59   13.00
 -11   4 -12   -3.70    5.90
   8   3 -12   55.49   13.00
  -8  -3  12   54.79   10.20
   6   3 -12   39.70    9.40
  -6  -3  12   51.89    9.30
   5   3 -12   31.00    8.10
  -5  -3  12   30.90    7.70
   4   3 -12    4.80    5.30
  -4  -3  12    1.20    4.00
   3   3 -12   42.30    9.60
  -3  -3  12   34.00    6.50
   2   3 -12   95.39    6.00
   2   3 -12  113.69    7.60
   2   3 -12  106.39   13.50
  -2  -3  12  104.79    9.20
   1   3 -12   57.89    5.20
   1   3 -12   54.59    4.70
   1   3 -12   62.29   10.40
  -1  -3  12   48.10    6.50
   0   3 -12   19.60    4.20
   0   3 -12   16.90    3.60
   0   3 -12    9.70    3.50
   0   3 -12   25.20    6.40
   0  -3  12   21.50    4.50
  -1   3 -12  298.97   17.90
  -1   3 -12  280.77   12.50
   1  -3  12  289.57   12.00
   1  -3  12  263.57   13.10
  -2   3 -12    6.10    2.50
  -2   3 -12    3.90    4.50
  -2   3 -12    1.50    3.20
   2  -3  12    2.10    2.50
   2  -3  12    4.70    2.70
  -3   3 -12  385.26   20.50
  -3   3 -12  354.76   11.80
  -3   3 -12  348.87   15.80
   3  -3  12  357.36   11.60
  -4   3 -12   18.50    5.70
   4  -3  12   24.40    7.40
   4  -3  12   13.70    2.30
  -5   3 -12   45.10    8.20
   5  -3  12   40.60    9.30
  -6   3 -12   46.20    8.10
   6  -3  12   50.19    9.10
  -7   3 -12   84.29   11.00
   7  -3  12   98.49   14.00
  -8   3 -12  168.88   14.20
   8  -3  12  160.48   15.30
  -9   3 -12  132.89   15.40
   9  -3  12  130.29   16.30
 -10   3 -12   55.49   10.60
  10  -3  12   54.29   10.90
 -11   3 -12   11.60    6.80
  11  -3  12   17.00    7.90
   8   2 -12   32.20    9.80
  -8  -2  12   26.00    7.70
   7   2 -12    9.50    6.80
  -7  -2  12    9.20    5.80
   6   2 -12  362.96   21.80
  -6  -2  12  341.07   18.90
   5   2 -12    9.60    6.50
  -5  -2  12    5.00    4.30
   4   2 -12  500.15   24.40
  -4  -2  12  490.25   21.00
   3   2 -12  176.68   14.50
  -3  -2  12  164.58   11.60
   2   2 -12  122.19   12.00
   2   2 -12  112.89    5.70
  -2  -2  12   98.59    8.80
   1   2 -12    2.20    2.20
   1   2 -12    3.10    2.30
   1   2 -12   -3.10    3.00
  -1  -2  12    1.80    2.80
   0   2 -12  483.85   17.00
   0   2 -12  498.65   23.00
   0   2 -12  512.05   16.30
   0   2 -12  480.35   15.90
   0  -2  12  506.15   17.50
  -1   2 -12  320.37   12.70
  -1   2 -12  332.37   13.30
  -1   2 -12  295.67   11.90
  -1   2 -12  328.87   18.20
   1  -2  12  324.77   12.60
  -2   2 -12   39.20    8.20
  -2   2 -12   34.40    4.30
  -2   2 -12   32.20    5.60
   2  -2  12   37.60    4.50
   2  -2  12   33.20    5.20
  -3   2 -12   61.09    4.40
  -3   2 -12   59.39    7.20
   3  -2  12   72.49    5.00
   3  -2  12   63.89    7.10
   3  -2  12   82.69   11.50
  -4   2 -12   95.29    8.80
  -4   2 -12   92.69    4.40
   4  -2  12   87.49   12.30
   4  -2  12   96.59    4.50
  -5   2 -12   31.00    6.10
   5  -2  12   33.20    7.80
  -6   2 -12   27.40    6.10
   6  -2  12   16.60    6.00
  -7   2 -12  480.05   21.70
   7  -2  12  458.55   23.80
  -8   2 -12  627.64   26.40
   8  -2  12  666.33   29.70
  -9   2 -12    4.80    5.50
   9  -2  12   10.30    6.60
 -10   2 -12   49.80    9.00
  10  -2  12   39.80    9.80
  11  -2  12   19.40    8.30
 -12   2 -12   45.30   10.50
  12  -2  12   45.00   11.40
   8   1 -12   95.79   14.50
  -8  -1  12   94.49   12.40
   7   1 -12   16.60    7.70
  -7  -1  12    9.20    5.20
   6   1 -12    1.30    5.00
  -6  -1  12   -3.90    3.80
   5   1 -12  163.68   14.20
  -5  -1  12  164.48   12.70
   4   1 -12  735.33   29.30
  -4  -1  12  676.83   25.50
   3   1 -12  352.66    9.60
   3   1 -12  362.96   19.70
   3   1 -12  350.16    9.30
  -3  -1  12  381.86   17.20
   2   1 -12  151.58   12.50
   2   1 -12  139.69    6.70
   2   1 -12  139.19    6.40
  -2  -1  12  139.89   11.50
   1   1 -12   67.39    5.30
   1   1 -12   61.89    7.20
   1   1 -12   80.19    5.50
   1   1 -12   74.89    9.90
  -1  -1  12   76.39    7.10
   0   1 -12   70.49    5.80
   0   1 -12   95.99   12.10
   0   1 -12   68.59    5.70
   0   1 -12   76.29    6.30
   0  -1  12   70.59    6.50
  -1   1 -12   43.00    7.60
  -1   1 -12   61.19    6.50
  -1   1 -12   50.79    5.40
  -1   1 -12   57.69    6.40
   1  -1  12   42.60    5.30
  -2   1 -12   -2.20    2.90
  -2   1 -12   -1.20    2.10
  -2   1 -12    0.40    2.60
  -2   1 -12    0.60    1.70
   2  -1  12    5.30    2.50
  -3   1 -12  683.13   17.70
  -3   1 -12  721.73   22.90
   3  -1  12  641.44   21.60
   3  -1  12  685.73   18.50
   3  -1  12  659.13   27.00
  -4   1 -12  133.09    9.60
  -4   1 -12  129.09    5.50
  -4   1 -12  126.09    7.10
   4  -1  12  126.49   11.60
  -5   1 -12   36.90    7.10
   5  -1  12   23.30    6.10
  -6   1 -12   86.79   11.00
   6  -1  12   72.99   10.60
  -7   1 -12  483.85   21.40
   7  -1  12  470.25   23.70
  -8   1 -12   18.40    6.20
   8  -1  12   12.50    5.90
  -9   1 -12   68.39   10.40
   9  -1  12   45.50    9.80
 -10   1 -12   70.09   10.30
  10  -1  12   92.19   14.20
 -11   1 -12  176.18   15.30
  11  -1  12  170.08   17.00
 -12   1 -12   49.50   10.00
  12  -1  12   46.40   11.60
   9   0 -12   46.60   11.30
  -9   0  12   56.39   10.70
   8   0 -12   -1.10    4.60
   7   0 -12   -0.30    4.80
  -7   0  12    8.10    5.40
   6   0 -12  166.38   14.30
  -6   0  12  155.38   13.10
   5   0 -12   27.20    7.10
  -5   0  12   13.20    4.90
   4   0 -12  217.28   14.90
   4   0 -12  211.88    6.20
   4   0 -12  218.48    6.10
  -4   0  12  222.48   13.70
   3   0 -12   79.99   11.20
   3   0 -12   74.49    4.60
  -3   0  12   60.99    8.30
   2   0 -12  103.79    6.30
   2   0 -12  110.29   10.60
   2   0 -12  105.89    5.80
  -2   0  12  112.49    9.00
   1   0 -12    3.20    2.10
   1   0 -12    3.70    2.40
   1   0 -12    1.90    2.40
  -1   0  12    5.20    3.00
   0   0 -12   25.80    4.40
   0   0 -12   37.40    7.10
   0   0 -12   28.70    4.50
   0   0 -12   28.90    4.30
   0   0  12   30.40    4.90
  -1   0 -12   35.40    4.60
  -1   0 -12   33.60    4.90
  -1   0 -12   41.30    5.60
  -1   0 -12   45.70    7.90
   1   0  12   41.30    5.40
  -2   0 -12  846.72   22.70
  -2   0 -12  906.51   25.70
  -2   0 -12  871.91   25.70
   2   0  12  884.41   23.80
   2   0  12  846.02   30.60
  -3   0 -12   15.00    2.60
  -3   0 -12   10.60    3.30
  -3   0 -12   13.70    3.80
   3   0  12   20.40    3.40
   3   0  12   18.40    6.60
  -4   0 -12    5.60    1.70
  -4   0 -12    5.20    3.40
   4   0  12    2.30    3.60
  -5   0 -12    5.20    1.10
  -5   0 -12   -0.50    3.40
  -5   0 -12    5.50    1.40
   5   0  12    1.00    3.20
  -6   0 -12   36.20    6.40
   6   0  12   35.80    7.20
  -7   0 -12  357.66   17.50
   7   0  12  313.07   19.10
  -8   0 -12   36.40    6.70
   8   0  12   50.69   10.20
  -9   0 -12   77.69   10.60
   9   0  12   80.99   12.80
 -10   0 -12   88.49   12.00
  10   0  12   99.29   15.00
 -11   0 -12   12.50    6.40
  11   0  12   -1.10    4.50
 -12   0 -12   15.40    7.30
  12   0  12   33.80   10.10
   9  -1 -12   -4.40    4.40
  -9   1  12    6.30    5.00
   8  -1 -12   57.69   11.00
  -8   1  12   59.59   10.60
   7  -1 -12   80.29   11.90
  -7   1  12   87.79   11.70
   6  -1 -12  244.38   16.50
  -6   1  12  250.37   16.00
   5  -1 -12   16.20    5.60
   5  -1 -12   21.20    2.60
  -5   1  12   17.80    5.40
   4  -1 -12   66.59    4.20
   4  -1 -12   56.69    9.00
   4  -1 -12   62.09    4.50
  -4   1  12   55.19    7.70
   3  -1 -12  169.68    7.90
   3  -1 -12  165.38   12.40
   3  -1 -12  163.98    7.20
  -3   1  12  167.98   11.30
   2  -1 -12  102.09    9.70
   2  -1 -12   89.19    5.70
   2  -1 -12   83.59    6.10
  -2   1  12  100.39    8.60
   1  -1 -12    2.30    3.30
   1  -1 -12   -0.20    1.70
   1  -1 -12    2.30    2.30
   1  -1 -12    1.80    2.10
  -1   1  12    1.80    2.40
   0  -1 -12  154.68    8.70
   0  -1 -12  159.68   11.50
   0  -1 -12  148.89    8.30
   0  -1 -12  147.59    8.00
   0   1  12  158.18    9.40
  -1  -1 -12 1240.28   33.50
  -1  -1 -12 1305.57   38.70
  -1  -1 -12 1285.87   33.00
  -1  -1 -12 1261.37   31.80
   1   1  12 1273.87   33.20
  -2  -1 -12  262.97   11.80
  -2  -1 -12  260.67   10.10
  -2  -1 -12  260.57   12.20
   2   1  12  262.07   15.20
   2   1  12  255.17   10.80
  -3  -1 -12  498.05   14.50
  -3  -1 -12  498.15   17.90
  -3  -1 -12  508.05   18.50
  -3  -1 -12  504.75   15.90
   3   1  12  515.75   22.10
  -4  -1 -12    3.60    1.70
  -4  -1 -12    7.90    3.30
  -4  -1 -12    4.20    2.10
   4   1  12    3.70    3.50
  -5  -1 -12   68.59    5.60
  -5  -1 -12   67.99    4.20
   5   1  12   73.49   10.60
  -6  -1 -12  195.68    5.70
  -6  -1 -12  200.88    5.90
  -6  -1 -12  191.98   12.10
   6   1  12  198.58   14.40
  -7  -1 -12  998.00   32.20
   7   1  12  999.60   36.10
  -8  -1 -12  389.56   18.90
   8   1  12  388.96   21.60
  -9  -1 -12  182.38   13.60
   9   1  12  176.38   15.50
 -10  -1 -12   42.80    9.40
  10   1  12   34.60    9.20
 -11  -1 -12   86.09   11.60
  11   1  12   75.19   13.10
 -12  -1 -12   12.10   11.50
  12   1  12   34.90   10.40
   9  -2 -12   -2.90    4.60
   9  -2 -12    5.70    1.60
  -9   2  12   13.70    6.90
   8  -2 -12  119.49    5.80
   8  -2 -12  114.39   14.20
  -8   2  12  135.89    6.70
  -8   2  12  143.49   15.90
   7  -2 -12  134.59   12.70
   7  -2 -12  122.89    6.00
  -7   2  12  133.69    6.10
  -7   2  12  130.19   14.50
   6  -2 -12   -2.10    1.80
   6  -2 -12    2.70    4.10
  -6   2  12    2.00    4.20
  -6   2  12   -0.60    1.80
   5  -2 -12  487.15   21.30
   5  -2 -12  431.26   13.60
  -5   2  12  426.16   20.30
  -5   2  12  419.06   13.40
   4  -2 -12  281.57   11.20
   4  -2 -12  330.87   19.40
  -4   2  12  306.07   11.00
  -4   2  12  308.87   16.30
   3  -2 -12  566.44   18.00
   3  -2 -12  598.34   23.40
  -3   2  12  575.14   17.20
  -3   2  12  593.54   22.50
   2  -2 -12   97.99    9.10
   2  -2 -12   91.69    6.10
   2  -2 -12   94.19    6.80
  -2   2  12   95.09    8.50
   1  -2 -12   38.50    7.00
   1  -2 -12   30.30    6.20
   1  -2 -12   30.00    4.70
   1  -2 -12   27.20    4.40
   1  -2 -12   32.50    5.10
  -1   2  12   30.70    5.40
   0  -2 -12  645.84   23.60
   0  -2 -12  633.14   19.20
   0  -2 -12  593.84   20.00
   0  -2 -12  597.94   19.10
   0  -2 -12  598.24   23.00
   0   2  12  612.34   20.70
  -1  -2 -12   26.00    4.80
  -1  -2 -12   25.80    4.10
  -1  -2 -12   26.90    5.90
  -1  -2 -12   28.20    5.40
   1   2  12   22.10    5.60
   1   2  12   26.80    4.80
  -2  -2 -12  136.69   10.20
  -2  -2 -12  130.99    7.00
  -2  -2 -12  134.09    8.40
  -2  -2 -12  126.89    8.60
   2   2  12  144.29   10.90
   2   2  12  135.59    8.10
  -3  -2 -12  895.61   26.40
  -3  -2 -12  879.71   24.30
  -3  -2 -12  869.31   26.90
  -3  -2 -12  860.61   22.70
   3   2  12  866.91   29.80
  -4  -2 -12  277.37    9.80
  -4  -2 -12  274.27   10.80
  -4  -2 -12  269.97   13.00
   4   2  12  273.17   15.60
  -5  -2 -12   87.79    5.50
  -5  -2 -12   84.29    4.80
   5   2  12   57.89    9.60
  -6  -2 -12  429.56   12.40
  -6  -2 -12  426.06   12.60
  -6  -2 -12  430.86   18.20
   6   2  12  414.66   20.70
  -7  -2 -12  164.98    6.70
  -7  -2 -12  161.78    6.60
  -7  -2 -12  179.38   12.20
   7   2  12  170.48   14.00
  -8  -2 -12  500.45   14.70
  -8  -2 -12  503.95   21.70
  -8  -2 -12  503.65   13.90
   8   2  12  538.75   25.50
  -9  -2 -12   35.00    7.70
  -9  -2 -12   32.40    3.30
   9   2  12   30.80    8.30
 -10  -2 -12  163.58    6.60
 -10  -2 -12  146.09   13.00
  10   2  12  160.98    7.20
  10   2  12  162.28   15.50
 -11  -2 -12   97.69    5.20
 -11  -2 -12   85.59   11.70
  11   2  12   83.19   13.10
  11   2  12   76.49    5.50
 -12  -2 -12   27.20    8.60
 -12  -2 -12   32.20    3.80
  12   2  12   26.90    4.10
  12   2  12   25.00    9.60
   9  -3 -12   11.90    6.30
   9  -3 -12   15.70    3.60
  -9   3  12   15.90    6.90
  -9   3  12   16.60    3.80
   8  -3 -12  117.99   13.50
   8  -3 -12  105.89    6.80
  -8   3  12  114.89   14.00
  -8   3  12  116.89    7.40
   7  -3 -12    6.90    2.90
   7  -3 -12   10.60    5.30
  -7   3  12    5.20    4.70
  -7   3  12    5.70    2.90
   6  -3 -12  179.28   13.00
   6  -3 -12  142.49    8.00
  -6   3  12  148.99   12.80
  -6   3  12  143.39    8.30
   5  -3 -12   84.39    6.40
  -5   3  12   93.09   11.80
  -5   3  12   83.69    6.40
   4  -3 -12  592.84   23.00
   4  -3 -12  601.24   19.00
  -4   3  12  579.14   18.50
  -4   3  12  575.24   23.50
   3  -3 -12  116.79    9.80
   3  -3 -12  108.49    7.50
   3  -3 -12   92.39    8.80
  -3   3  12  102.89    9.70
  -3   3  12  107.09    7.10
   2  -3 -12  282.07   14.60
   2  -3 -12  327.77   13.50
   2  -3 -12  290.87   14.70
  -2   3  12  304.47   12.30
  -2   3  12  283.77   14.60
   1  -3 -12   60.19    7.60
   1  -3 -12   77.19    9.00
   1  -3 -12   66.49    8.50
   1  -3 -12   58.89    7.00
  -1   3  12   53.29    6.70
  -1   3  12   62.69    5.80
   0  -3 -12   19.50    4.90
   0  -3 -12   21.90    5.20
   0  -3 -12   21.70    4.60
   0  -3 -12   23.40    4.10
   0   3  12   24.60    4.40
   0   3  12   33.40    5.30
  -1  -3 -12  225.88   12.00
  -1  -3 -12  231.88   12.70
  -1  -3 -12  249.58   11.50
  -1  -3 -12  223.68   11.70
   1   3  12  250.47   11.90
   1   3  12  234.58   13.30
  -2  -3 -12  305.77   14.80
  -2  -3 -12  304.07   11.70
  -2  -3 -12  304.67   13.30
  -2  -3 -12  278.67   13.40
  -2  -3 -12  311.07   13.00
   2   3  12  298.17   15.30
  -3  -3 -12  247.08   12.00
  -3  -3 -12  217.98   10.60
  -3  -3 -12  239.28   12.30
  -3  -3 -12  226.68   12.80
  -3  -3 -12  233.58    9.80
   3   3  12  242.28   13.90
  -4  -3 -12   26.20    4.40
  -4  -3 -12   27.40    4.00
  -4  -3 -12   21.30    4.50
   4   3  12   23.30    6.10
  -5  -3 -12  470.75   15.50
  -5  -3 -12  477.05   21.30
  -5  -3 -12  455.15   14.60
   5   3  12  490.05   22.70
  -6  -3 -12   46.30    4.40
  -6  -3 -12   52.69    4.80
  -6  -3 -12   41.20    6.50
   6   3  12   50.79    8.40
  -7  -3 -12   35.00    4.40
  -7  -3 -12   42.40    6.70
  -7  -3 -12   33.40    4.10
   7   3  12   20.10    6.10
  -8  -3 -12    0.30    1.70
  -8  -3 -12    0.60    3.60
   8   3  12   -1.40    4.00
   8   3  12    0.40    2.00
  -9  -3 -12  263.67    9.90
  -9  -3 -12  268.67   16.00
   9   3  12  259.77   18.20
   9   3  12  263.47   10.80
 -10  -3 -12   31.40    7.30
 -10  -3 -12   22.20    3.60
  10   3  12   28.20    4.50
  10   3  12   33.90    9.80
 -11  -3 -12    8.00    2.90
 -11  -3 -12   12.20    6.20
  11   3  12   10.30    7.10
  11   3  12   13.70    3.60
 -12  -3 -12   51.39    5.60
 -12  -3 -12   70.69   12.60
  12   3  12   40.70    7.60
  12   3  12   52.79   12.30
   9  -4 -12   10.60    5.90
   9  -4 -12    5.00    3.90
  -9   4  12   12.90    9.10
  -9   4  12    8.40    3.80
   8  -4 -12    7.10    3.50
   8  -4 -12   14.20    5.90
  -8   4  12    9.20    3.80
  -8   4  12   16.20    6.30
   7  -4 -12  240.68   11.80
   7  -4 -12  265.17   15.70
  -7   4  12  269.47   17.60
  -7   4  12  265.57   12.70
   6  -4 -12   10.60    5.60
  -6   4  12   10.40    5.40
  -6   4  12   12.90    4.10
   5  -4 -12   82.09    9.90
   5  -4 -12   87.99    9.60
  -5   4  12   96.69   12.20
  -5   4  12  107.59    7.90
   4  -4 -12   57.89    8.30
   4  -4 -12   54.39    6.90
   4  -4 -12   80.09    8.10
  -4   4  12   71.99   10.30
  -4   4  12   72.99    6.80
   3  -4 -12   87.19    7.30
   3  -4 -12   84.19    8.00
   3  -4 -12   90.29    8.40
  -3   4  12   85.39    7.10
  -3   4  12   79.49    9.30
   2  -4 -12    3.60    2.70
   2  -4 -12    1.30    2.20
  -2   4  12    2.90    2.70
   1  -4 -12   12.50    4.10
   1  -4 -12   10.10    3.60
   1  -4 -12    9.60    3.80
  -1   4  12   13.90    4.50
  -1   4  12    9.80    3.30
   0  -4 -12  488.75   18.80
   0  -4 -12  493.25   18.50
   0  -4 -12  459.15   17.00
   0   4  12  474.55   17.40
   0   4  12  476.25   18.60
  -1  -4 -12  616.84   21.20
  -1  -4 -12  565.64   21.00
  -1  -4 -12  585.94   21.20
  -1  -4 -12  587.04   19.20
   1   4  12  648.74   20.90
   1   4  12  567.84   21.60
  -2  -4 -12  205.48   11.40
  -2  -4 -12  186.78   10.40
  -2  -4 -12  198.88    9.80
  -2  -4 -12  174.78   10.70
  -2  -4 -12  182.08   10.40
   2   4  12  177.88   11.40
  -3  -4 -12   26.80    4.30
  -3  -4 -12   14.00    3.90
  -3  -4 -12   29.20    5.20
  -3  -4 -12   21.20    4.50
   3   4  12   14.40    4.60
  -4  -4 -12  223.88   12.10
  -4  -4 -12  221.78   10.20
  -4  -4 -12  227.98   11.00
   4   4  12  224.68   13.60
  -5  -4 -12   38.60    5.00
  -5  -4 -12   31.00    5.70
  -5  -4 -12   26.70    4.50
   5   4  12   34.60    6.60
  -6  -4 -12  659.63   20.50
  -6  -4 -12  678.83   20.50
  -6  -4 -12  692.73   24.40
   6   4  12  683.23   27.10
  -7  -4 -12  291.67   11.70
  -7  -4 -12  278.07   14.90
   7   4  12  267.67   11.60
   7   4  12  264.47   16.80
  -8  -4 -12  567.84   22.80
  -8  -4 -12  583.34   17.80
   8   4  12  581.04   26.30
   8   4  12  523.95   18.20
  -9  -4 -12   61.79    8.50
  -9  -4 -12   68.29    5.90
   9   4  12   63.19   11.10
   9   4  12   61.39    6.90
 -10  -4 -12   20.10    6.90
 -10  -4 -12   27.40    4.50
  10   4  12   24.60    8.20
 -11  -4 -12  217.28   15.80
 -11  -4 -12  210.78   10.30
  11   4  12  219.58   18.90
  11   4  12  208.98   11.70
 -12  -4 -12   82.49    7.00
 -12  -4 -12   73.19   11.00
  12   4  12   68.09    9.60
  12   4  12   80.39   14.60
   9  -5 -12   49.70    8.90
  -9   5  12   42.20   10.00
  -9   5  12   49.99    8.00
   8  -5 -12   45.00    8.40
  -8   5  12   54.09    8.10
  -8   5  12   38.00    9.00
   7  -5 -12   49.90    8.40
  -7   5  12   43.70    8.60
  -7   5  12   44.20    7.20
   6  -5 -12   92.29    9.00
   6  -5 -12   87.09    7.50
  -6   5  12  111.09    9.00
  -6   5  12   96.49   13.00
   5  -5 -12  125.59    9.90
   5  -5 -12  137.59    9.30
   5  -5 -12  160.28   10.70
  -5   5  12  144.79   12.70
  -5   5  12  140.49   10.00
   4  -5 -12  545.45   21.00
   4  -5 -12  539.95   20.10
   4  -5 -12  569.94   20.80
  -4   5  12  588.64   20.90
  -4   5  12  571.44   24.10
   3  -5 -12   75.69    7.20
   3  -5 -12   72.89    7.30
   3  -5 -12   82.99    7.60
  -3   5  12   84.99    7.60
  -3   5  12   81.99   10.40
   2  -5 -12  119.09    8.60
   2  -5 -12  134.79    8.90
   2  -5 -12  126.99    9.30
  -2   5  12  117.49    8.80
  -2   5  12  136.99   10.70
   1  -5 -12  159.28    9.80
   1  -5 -12  176.18   10.80
   1  -5 -12  177.68   10.20
  -1   5  12  171.28   11.50
  -1   5  12  163.78   10.00
   0  -5 -12  548.55   19.70
   0  -5 -12  578.64   20.20
   0  -5 -12  586.04   21.70
   0  -5 -12  535.05   20.70
   0   5  12  557.04   20.20
  -1  -5 -12  327.07   14.30
  -1  -5 -12  333.47   15.50
  -1  -5 -12  319.57   15.10
  -1  -5 -12  334.57   14.10
   1   5  12  329.47   14.70
   1   5  12  354.36   15.50
  -2  -5 -12  356.86   15.40
  -2  -5 -12  331.07   14.00
  -2  -5 -12  339.27   14.90
   2   5  12  366.16   15.50
   2   5  12  334.87   15.50
  -3  -5 -12  820.42   26.40
  -3  -5 -12  842.12   26.30
  -3  -5 -12  818.92   26.60
  -3  -5 -12  819.32   25.00
   3   5  12  807.82   26.40
   3   5  12  887.41   28.40
  -4  -5 -12   45.70    6.40
  -4  -5 -12   55.99    7.00
  -4  -5 -12   62.89    8.10
   4   5  12   47.70    7.40
  -5  -5 -12  291.37   13.00
  -5  -5 -12  322.47   15.20
  -5  -5 -12  281.37   13.10
   5   5  12  292.77   16.10
  -6  -5 -12  327.17   13.80
  -6  -5 -12  323.57   15.80
   6   5  12  309.37   15.20
   6   5  12  337.97   18.00
  -7  -5 -12 1283.17   34.20
  -7  -5 -12 1326.37   38.70
   7   5  12 1280.57   41.70
   7   5  12 1249.77   39.60
  -8  -5 -12  125.39    8.40
  -8  -5 -12  123.29   10.90
   8   5  12  128.09    8.90
   8   5  12  130.69   12.90
  -9  -5 -12    1.00    2.60
  -9  -5 -12    1.20    3.80
   9   5  12   -2.80    3.70
   9   5  12   -0.30    2.50
 -10  -5 -12   30.50    8.00
 -10  -5 -12   17.80    4.20
  10   5  12   27.90    8.50
  10   5  12   20.70    5.30
 -11  -5 -12  219.98   11.40
 -11  -5 -12  230.38   16.00
  11   5  12  241.78   19.50
 -12  -5 -12   22.70    4.90
 -12  -5 -12   22.60    8.00
  12   5  12   44.00   10.80
   9  -6 -12  109.99   10.80
  -9   6  12   95.09   11.40
  -9   6  12   71.29   12.40
   8  -6 -12   15.30    5.50
  -8   6  12   21.30    7.80
  -8   6  12   13.90    5.00
   7  -6 -12    6.70    4.20
  -7   6  12   13.30    6.10
  -7   6  12    3.00    3.70
   6  -6 -12   19.70    5.00
   6  -6 -12   22.70    5.30
  -6   6  12   26.80    7.30
  -6   6  12   24.90    6.20
   5  -6 -12  694.43   23.00
  -5   6  12  692.13   25.10
  -5   6  12  696.03   28.50
   4  -6 -12  388.36   15.50
   4  -6 -12  365.76   15.50
  -4   6  12  373.06   17.10
  -4   6  12  381.56   19.70
   3  -6 -12  170.88   10.10
   3  -6 -12  204.38   10.60
  -3   6  12  204.68   12.20
  -3   6  12  218.38   14.30
   2  -6 -12   28.80    5.10
   2  -6 -12   22.50    4.60
  -2   6  12   25.00    6.20
  -2   6  12   21.40    5.20
   1  -6 -12   62.69    9.30
   1  -6 -12   50.39    6.50
   1  -6 -12   57.69    6.70
  -1   6  12   49.90    7.20
   0  -6 -12   45.40    6.00
   0  -6 -12   53.49    7.90
   0  -6 -12   52.99    6.50
   0   6  12   40.00    5.90
  -1  -6 -12   39.50    5.90
  -1  -6 -12   37.30    6.70
   1   6  12   34.80    6.00
   1   6  12   39.00    6.00
  -2  -6 -12  270.97   14.00
  -2  -6 -12  280.17   14.40
  -2  -6 -12  247.98   12.50
   2   6  12  265.47   13.80
   2   6  12  283.07   13.70
  -3  -6 -12  734.33   24.00
  -3  -6 -12  772.42   25.30
  -3  -6 -12  697.53   23.90
   3   6  12  740.13   25.30
  -4  -6 -12    2.90    2.80
  -4  -6 -12    2.90    2.20
  -4  -6 -12   10.40    3.80
  -4  -6 -12    7.00    3.50
   4   6  12    2.20    2.90
   4   6  12    0.90    2.90
  -5  -6 -12    7.30    4.00
  -5  -6 -12    6.20    3.10
   5   6  12    6.90    4.20
   5   6  12    5.80    3.30
  -6  -6 -12  670.63   24.90
  -6  -6 -12  695.23   23.10
   6   6  12  723.03   27.40
   6   6  12  660.03   22.80
  -7  -6 -12  185.88   12.70
  -7  -6 -12  216.88   11.70
   7   6  12  180.78   11.10
   7   6  12  209.38   15.00
  -8  -6 -12   68.59    8.90
  -8  -6 -12   82.99    7.70
   8   6  12   83.79   11.40
  -9  -6 -12   13.80    5.60
  -9  -6 -12   12.90    4.10
   9   6  12   10.40    5.80
 -10  -6 -12  202.48   11.70
 -10  -6 -12  193.78   14.00
  10   6  12  188.68   16.80
 -11  -6 -12    0.40    3.30
 -11  -6 -12    5.60    4.90
  11   6  12    4.40    5.70
 -12  -6 -12   49.90    7.40
  12   6  12   49.60   12.00
   9  -7 -12    0.00    3.50
  -9   7  12   -3.80    4.20
  -9   7  12    4.80    4.60
   8  -7 -12    4.80    3.70
  -8   7  12    6.00    4.50
   7  -7 -12   11.10    4.30
   7  -7 -12    9.80    4.20
  -7   7  12   13.20    6.50
  -7   7  12   13.90    5.40
   6  -7 -12  257.67   12.40
   6  -7 -12  247.48   12.80
  -6   7  12  259.47   17.80
  -6   7  12  264.47   15.70
   5  -7 -12   29.40    5.20
   5  -7 -12   46.20    6.20
  -5   7  12   32.50    7.50
  -5   7  12   45.10    8.10
   4  -7 -12   77.69    6.60
   4  -7 -12   88.79    7.00
  -4   7  12   82.59   10.40
  -4   7  12   55.39    8.90
   3  -7 -12  111.49    7.40
   3  -7 -12  118.59   13.30
   3  -7 -12  108.89    7.30
  -3   7  12  121.99   11.50
   2  -7 -12   42.00    5.50
   2  -7 -12   60.19    9.20
   2  -7 -12   34.10    5.00
  -2   7  12   49.40    8.60
   1  -7 -12  607.24   19.00
   1  -7 -12  603.54   24.10
   1  -7 -12  557.44   18.40
  -1   7  12  587.14   23.00
   0  -7 -12   57.19    6.60
   0  -7 -12   69.89    9.50
   0  -7 -12   46.90    5.80
   0   7  12   57.79    9.60
  -1  -7 -12  222.78   10.80
  -1  -7 -12  215.88   13.50
   1   7  12  223.98   11.50
  -2  -7 -12  239.78   11.70
  -2  -7 -12  241.28   13.90
   2   7  12  225.48   13.20
   2   7  12  246.98   12.50
  -3  -7 -12   34.70    6.50
  -3  -7 -12   37.70    6.00
   3   7  12   33.80    6.10
   3   7  12   42.50    6.80
  -4  -7 -12    1.90    3.00
  -4  -7 -12    3.10    2.60
   4   7  12    0.90    3.10
   4   7  12    7.10    3.60
  -5  -7 -12  398.86   17.50
  -5  -7 -12  424.56   18.70
   5   7  12  373.36   18.40
   5   7  12  384.66   18.00
  -6  -7 -12   82.29    9.70
  -6  -7 -12   98.79    9.00
   6   7  12  107.59   10.60
  -7  -7 -12  408.56   19.40
  -7  -7 -12  409.06   17.90
   7   7  12  429.46   21.70
  -8  -7 -12   66.29    9.40
  -8  -7 -12   60.29    8.20
   8   7  12   51.59   10.00
  -9  -7 -12  206.28   12.30
  -9  -7 -12  197.58   14.10
   9   7  12  207.98   16.70
 -10  -7 -12   13.00    4.50
 -10  -7 -12    7.80    5.30
  10   7  12   12.30    6.50
 -11  -7 -12   96.09    9.30
 -11  -7 -12  100.39   13.30
  11   7  12   99.49   15.30
 -12  -7 -12   13.20    6.20
 -12  -7 -12    7.90    4.30
  12   7  12   -0.70    4.90
   8  -8 -12   19.60    4.80
  -8   8  12   14.70    6.40
  -8   8  12   11.40    7.50
   7  -8 -12  230.18   11.90
   7  -8 -12  290.07   12.50
  -7   8  12  251.27   16.50
  -7   8  12  281.07   19.40
   6  -8 -12    8.20    3.10
   6  -8 -12    6.90    3.20
  -6   8  12    7.00    4.90
  -6   8  12   10.60    6.10
   5  -8 -12   67.99    5.70
   5  -8 -12   77.79   11.50
   5  -8 -12   75.19    5.90
  -5   8  12   74.79   10.10
  -5   8  12   56.49    9.60
   4  -8 -12  171.18    8.20
   4  -8 -12  152.18   14.00
   4  -8 -12  171.98    8.10
  -4   8  12  200.08   13.90
   3  -8 -12   38.70    4.60
   3  -8 -12   38.90    4.70
   3  -8 -12   32.00    7.80
  -3   8  12   33.10    7.00
   2  -8 -12   13.80    2.90
   2  -8 -12   16.30    5.50
   2  -8 -12    7.90    2.70
  -2   8  12   10.00    4.80
   1  -8 -12   63.29    5.20
   1  -8 -12   54.89    8.70
   1  -8 -12   63.79    5.40
  -1   8  12   63.59    9.10
   0  -8 -12  248.68   10.70
   0  -8 -12  258.07   15.50
   0   8  12  250.47   14.60
  -1  -8 -12  460.85   20.80
  -1  -8 -12  439.36   15.60
   1   8  12  431.36   19.50
   1   8  12  439.26   16.40
  -2  -8 -12  231.38   11.30
  -2  -8 -12  227.88   14.10
   2   8  12  235.68   12.10
   2   8  12  249.58   14.30
  -3  -8 -12   99.79    9.70
  -3  -8 -12   87.79    7.50
   3   8  12  102.49   11.20
   3   8  12   97.49    8.40
  -4  -8 -12   68.49    9.70
  -4  -8 -12   53.49    7.20
   4   8  12   55.49    7.90
   4   8  12   61.99    8.70
  -5  -8 -12    9.10    4.00
   5   8  12   12.00    4.40
   5   8  12    1.70    3.50
  -6  -8 -12  476.95   21.40
  -6  -8 -12  516.15   20.90
   6   8  12  483.85   22.20
  -7  -8 -12 1232.48   37.50
  -7  -8 -12 1283.67   39.60
   7   8  12 1261.17   41.40
  -8  -8 -12  345.07   16.80
  -8  -8 -12  338.67   18.10
   8   8  12  334.27   20.20
  -9  -8 -12    4.20    4.80
  -9  -8 -12    5.70    3.90
   9   8  12    1.00    4.80
 -10  -8 -12  351.76   17.10
 -10  -8 -12  343.57   19.10
  10   8  12  324.07   22.00
 -11  -8 -12    9.80    5.70
 -11  -8 -12   14.80    5.10
  11   8  12   10.20    6.90
   8  -9 -12   81.49    6.20
   8  -9 -12   75.69   12.70
  -8   9  12   73.69   12.60
  -8   9  12   88.89   12.80
   7  -9 -12   -8.50    3.70
   7  -9 -12    2.70    2.20
   7  -9 -12    0.50    2.00
  -7   9  12    4.90    5.20
   6  -9 -12   46.90   10.40
   6  -9 -12   42.00    6.20
  -6   9  12   45.20    9.00
   5  -9 -12   90.89    4.50
   5  -9 -12   84.89   12.70
   5  -9 -12   84.59    4.30
  -5   9  12  104.29   14.10
   4  -9 -12  304.37    8.70
   4  -9 -12  310.27    8.60
   4  -9 -12  332.67   20.00
  -4   9  12  291.87   17.70
   3  -9 -12  425.96   11.50
   3  -9 -12  440.66   11.50
   3  -9 -12  459.05   23.00
  -3   9  12  456.15   22.00
   2  -9 -12   84.49   11.50
   2  -9 -12   78.39    4.50
  -2   9  12   69.99   10.20
   1  -9 -12  179.98   13.90
   1  -9 -12  165.28    7.40
   1  -9 -12  164.58    7.30
  -1   9  12  173.78   13.00
   0  -9 -12  213.98   14.90
   0  -9 -12  214.48    9.30
   0   9  12  219.58   14.30
  -1  -9 -12  167.08   13.10
  -1  -9 -12  165.38    8.70
   1   9  12  160.38   12.30
   1   9  12  167.08    9.20
  -2  -9 -12  357.26   18.60
  -2  -9 -12  355.66   14.40
   2   9  12  360.26   18.20
   2   9  12  380.86   15.40
  -3  -9 -12  499.25   22.40
  -3  -9 -12  489.15   18.60
   3   9  12  530.85   22.60
   3   9  12  537.15   20.00
  -4  -9 -12   11.30    4.80
  -4  -9 -12    9.00    3.70
   4   9  12   10.00    4.90
   4   9  12   14.80    4.80
  -5  -9 -12  876.51   30.30
   5   9  12  853.11   29.90
   5   9  12  783.82   29.30
  -6  -9 -12   44.10    7.90
   6   9  12   53.59    9.00
   6   9  12   44.10    7.30
  -7  -9 -12   91.19   10.60
  -7  -9 -12  102.79   12.30
   7   9  12   99.39   12.70
  -8  -9 -12  131.29   11.20
  -8  -9 -12  122.59   11.80
   8   9  12  134.99   15.60
  -9  -9 -12   96.19   11.60
  -9  -9 -12   93.49   10.60
   9   9  12   85.39   13.40
 -10  -9 -12   58.89    9.50
 -10  -9 -12   72.09   10.90
  10   9  12   49.80   10.40
 -11  -9 -12   64.99    9.50
  11   9  12   76.99   14.00
   7 -10 -12  111.39   15.90
  -7  10  12  101.39   15.10
   6 -10 -12    8.70    6.60
  -6  10  12   11.60    5.80
   5 -10 -12  129.79   15.50
  -5  10  12  125.39   14.20
   4 -10 -12   36.40    8.80
  -4  10  12   45.40    8.80
   3 -10 -12   28.10    8.20
  -3  10  12   35.60    8.10
   2 -10 -12    9.10    5.20
  -2  10  12   19.40    6.40
   1 -10 -12   61.79   10.80
   1 -10 -12   51.69    3.30
   1 -10 -12   53.89    3.30
  -1  10  12   59.89   10.40
   0 -10 -12  200.68    8.50
   0 -10 -12  199.28    8.40
   0 -10 -12  186.48   14.60
   0  10  12  211.88   14.70
  -1 -10 -12  184.18    9.10
  -1 -10 -12  170.78   14.00
   1  10  12  208.58    9.80
   1  10  12  198.78   14.10
  -2 -10 -12   94.49    7.10
  -2 -10 -12   67.29    9.40
   2  10  12   96.49    7.60
   2  10  12   77.79   10.00
  -3 -10 -12   97.59    8.10
  -3 -10 -12  135.99   12.10
   3  10  12  118.29   10.90
   3  10  12  105.39    8.70
  -4 -10 -12  498.65   20.30
  -4 -10 -12  561.44   24.20
   4  10  12  510.75   23.00
   4  10  12  544.15   21.30
  -5 -10 -12   31.00    7.20
   5  10  12   20.40    5.70
  -6 -10 -12   -2.60    3.20
   6  10  12    0.10    3.50
   6  10  12   13.40    5.30
  -7 -10 -12    7.80    5.00
  -7 -10 -12    8.60    4.40
   7  10  12    8.90    5.20
  -8 -10 -12   58.09    9.80
  -8 -10 -12   41.10    7.90
   8  10  12   52.99    9.80
  -9 -10 -12   85.09   11.80
  -9 -10 -12   72.19    9.90
   9  10  12   75.29   12.30
 -10 -10 -12   23.00    6.80
 -10 -10 -12   24.20    7.10
  10  10  12   23.60    8.30
   7 -11 -12   26.20    8.70
  -7  11  12   24.50    8.10
   6 -11 -12   81.39   13.90
  -6  11  12   77.79   12.50
   5 -11 -12    5.40    5.80
  -5  11  12    7.60    6.00
   4 -11 -12  141.39   17.10
  -4  11  12  126.29   14.20
   3 -11 -12    4.00    4.80
  -3  11  12   -0.80    4.00
   2 -11 -12   28.10    8.10
  -2  11  12   22.10    7.30
   1 -11 -12    4.70    5.00
  -1  11  12   16.90    6.30
   0 -11 -12  511.85   25.10
   0 -11 -12  524.15   17.90
   0 -11 -12  537.85   14.20
   0  11  12  485.65   23.90
  -1 -11 -12   76.19    5.70
  -1 -11 -12   89.69   12.60
   1  11  12   94.69   12.40
   1  11  12   82.39    6.00
  -2 -11 -12   22.10    6.80
  -2 -11 -12   16.70    4.00
   2  11  12    9.60    4.80
   2  11  12   16.90    4.10
  -3 -11 -12  182.18   10.90
  -3 -11 -12  220.88   15.40
   3  11  12  184.78   11.20
   3  11  12  174.78   13.60
  -4 -11 -12    2.70    4.20
   4  11  12   16.40    5.90
   4  11  12   17.40    5.20
  -5 -11 -12    7.30    4.60
   5  11  12   10.20    5.40
   5  11  12   17.20    5.70
  -6 -11 -12  164.18   13.60
   6  11  12  151.08   12.80
   6  11  12  143.49   12.50
  -7 -11 -12  454.35   22.30
  -7 -11 -12  403.46   21.10
   7  11  12  426.16   22.20
   7  11  12  404.86   20.90
  -8 -11 -12  188.48   14.80
  -8 -11 -12  191.28   14.40
   8  11  12  180.78   15.50
  -9 -11 -12    8.60    5.60
  -9 -11 -12    3.90    4.60
   9  11  12   20.20    7.60
   6 -12 -12   -0.30    5.00
   5 -12 -12  253.07   21.20
  -5  12  12  223.38   18.30
   4 -12 -12  115.19   15.00
  -4  12  12  110.69   15.10
   3 -12 -12    1.70    5.30
  -3  12  12   13.30    6.30
   2 -12 -12   49.50   10.40
  -2  12  12   36.00    8.40
   1 -12 -12  150.98   14.50
  -1  12  12  166.68   18.10
   0 -12 -12   15.60    5.70
   0  12  12   12.10    5.30
  -1 -12 -12   -0.60    1.70
  -1 -12 -12    2.30    4.50
   1  12  12    0.20    3.70
   1  12  12    0.90    1.90
  -2 -12 -12  143.69    8.60
  -2 -12 -12  143.99   13.50
   2  12  12  147.19    8.90
   2  12  12  145.99   13.30
  -3 -12 -12  282.77   18.30
  -3 -12 -12  263.97   13.10
   3  12  12  279.07   13.60
   3  12  12  274.77   17.50
  -4 -12 -12   -2.80    3.80
   4  12  12   -1.10    3.20
   4  12  12    2.00    3.00
  -5 -12 -12   24.50    7.20
   5  12  12   23.30    7.00
   5  12  12   21.70    6.00
  -6 -12 -12  611.64   27.50
   6  12  12  606.24   26.80
   6  12  12  617.84   26.00
  -7 -12 -12  272.37   17.90
   7  12  12  272.57   17.50
   7  12  12  262.37   17.70
  -8 -12 -12    0.40    3.90
  -8 -12 -12   -2.80    4.00
   8  12  12   -0.90    4.30
   5 -13 -12  135.99   18.30
  -5  13  12  112.69   16.80
   4 -13 -12   26.10    8.50
  -4  13  12   19.70    8.90
   3 -13 -12   13.80    9.30
  -3  13  12    4.80    5.50
   2 -13 -12   76.19   11.60
  -2  13  12  118.49   15.60
   1 -13 -12    7.50    6.10
  -1  13  12   15.00    6.50
   0 -13 -12   24.80    7.20
   0  13  12   22.00    7.40
  -1 -13 -12   59.69   11.20
  -1 -13 -12   46.60    5.50
   1  13  12   60.99   11.60
   1  13  12   51.49    4.10
  -2 -13 -12  256.87   18.00
  -2 -13 -12  212.28   10.40
   2  13  12  234.88   10.90
   2  13  12  250.17   17.60
  -3 -13 -12    8.50    5.20
  -3 -13 -12    5.20    3.60
   3  13  12    4.30    3.10
   3  13  12    7.30    5.60
  -4 -13 -12   62.69   10.30
   4  13  12   35.10    8.20
   4  13  12   50.09    7.80
  -5 -13 -12  112.99   14.30
   5  13  12  128.59   15.60
   5  13  12  130.99   11.20
  -6 -13 -12  296.17   19.50
   6  13  12  280.47   18.50
   6  13  12  311.17   18.00
  -7 -13 -12   45.60   10.60
   7  13  12   24.00    7.30
   7  13  12   19.70    7.00
   3 -14 -12  122.09   16.90
  -3  14  12  151.58   18.80
   2 -14 -12    9.30    6.70
  -2  14  12   15.80    7.60
   1 -14 -12   90.09   14.40
  -1  14  12   60.49   11.60
   0 -14 -12  104.59   20.00
   0  14  12  106.89   22.20
  -2 -14 -12   -1.00    2.10
   2  14  12    3.40    2.50
  -3 -14 -12   66.89    8.10
   3  14  12   74.59    8.50
  -4 -14 -12   72.79   11.60
   4  14  12   83.59   13.00
   4  14  12   74.99    9.20
  -5 -14 -12   25.60    7.90
   5  14  12   28.50    6.50
   5  14  12   28.70    7.20
  -6 -14 -12  195.28   16.80
   6  14  12  182.28   14.20
   6  14  12  188.88   15.70
   1 -15 -12   38.40   10.30
  -1  15  12   42.10   10.70
   0 -15 -12   85.89   14.10
   0  15  12  105.99   15.00
  -1 -15 -12    9.40    6.80
   1  15  12    3.50    5.50
  -2 -15 -12   80.19   12.50
   2  15  12   74.59   12.50
   2  15  12   82.69    5.70
  -3 -15 -12   59.09   12.00
   3  15  12   33.60    5.70
   3  15  12   38.60    9.60
   1   8 -13  107.49   15.20
   1   8 -13  108.29    8.40
  -1  -8  13   91.69    8.60
  -1  -8  13  114.69   10.90
   0   8 -13  110.79    9.60
   0   8 -13  100.59   16.00
   0  -8  13  105.59    9.90
  -1   8 -13   19.80   10.70
  -1   8 -13   20.10    5.80
   1  -8  13   19.30    5.30
  -2   8 -13   13.50    5.70
  -2   8 -13    5.40    6.70
  -3   8 -13   64.99   12.50
  -3   8 -13   73.79   10.50
  -3   8 -13   56.59    7.40
   3  -8  13   64.99    7.00
  -4   8 -13  118.29   15.90
  -4   8 -13  136.99    9.00
  -4   8 -13  152.88   13.70
   4  -8  13  157.48    8.00
  -5   8 -13   18.80    7.70
  -5   8 -13    8.40    2.60
  -5   8 -13   29.00    8.80
   5  -8  13   16.30    2.70
  -6   8 -13    0.50    5.80
  -6   8 -13    6.40    5.80
   3   7 -13    4.60    6.40
  -3  -7  13    3.60    5.00
   2   7 -13  109.49   15.70
   2   7 -13  102.49    6.40
   2   7 -13  100.09    5.50
  -2  -7  13  140.69   11.90
   1   7 -13  166.98    9.60
   1   7 -13  193.48   18.30
  -1  -7  13  195.88   13.00
   0   7 -13    3.50    3.50
   0   7 -13    6.60    6.60
   0  -7  13    2.40    2.90
   0  -7  13    4.60    3.90
  -1   7 -13    0.60    4.90
  -1   7 -13    2.00    5.10
   1  -7  13    2.00    3.20
  -2   7 -13  166.08   12.40
  -2   7 -13  186.78   17.00
   2  -7  13  153.38    9.60
  -3   7 -13  138.99    9.60
  -3   7 -13  178.78   16.50
  -3   7 -13  179.28   13.50
   3  -7  13  179.38    9.20
  -4   7 -13   37.20    8.20
  -4   7 -13   26.80    8.00
  -4   7 -13   40.70    5.40
   4  -7  13   41.90    4.70
  -5   7 -13    0.50    2.10
  -5   7 -13    1.20    5.10
  -5   7 -13   10.20    5.90
   5  -7  13    2.60    1.60
  -6   7 -13  141.49   17.90
  -6   7 -13  213.68   16.90
  -7   7 -13  125.79   15.30
  -7   7 -13  151.68   18.70
  -8   7 -13    5.50    6.60
   4   6 -13   66.99   13.70
  -4  -6  13   55.79    9.50
  -3  -6  13    1.20    4.10
   2   6 -13   96.99    5.70
   2   6 -13  113.89   16.20
  -2  -6  13  111.39   10.60
   1   6 -13   -1.00    2.20
   1   6 -13    1.30    4.90
   1   6 -13    7.90    3.30
  -1  -6  13   -3.40    3.00
   0   6 -13    7.90    6.30
   0   6 -13   11.50    4.50
   0  -6  13    5.40    3.80
   0  -6  13    6.30    3.30
  -1   6 -13  109.69    9.30
  -1   6 -13  113.99   15.70
   1  -6  13  128.29    9.20
  -2   6 -13  393.26   23.10
  -2   6 -13  327.97   14.90
  -2   6 -13  380.36   17.60
   2  -6  13  375.56   14.40
  -3   6 -13   55.69    8.80
  -3   6 -13   59.39   11.60
  -3   6 -13   32.10    5.10
   3  -6  13   50.49    5.50
  -4   6 -13   -5.80    3.20
  -4   6 -13   -3.50    3.90
  -4   6 -13   -0.20    2.00
   4  -6  13    0.40    1.70
  -5   6 -13  160.58   13.90
  -5   6 -13  105.49   14.00
   5  -6  13  143.69    4.40
  -6   6 -13  232.18   17.10
  -6   6 -13  229.28   18.50
  -7   6 -13    4.80    6.10
   7  -6  13    9.20    6.90
  -8   6 -13   -1.60    5.10
   8  -6  13   -2.60    4.20
  -9   6 -13   13.40    7.70
   9  -6  13    7.50   11.40
   5   5 -13   24.90    8.30
  -5  -5  13   16.80    6.30
   4   5 -13   15.80    7.40
  -4  -5  13   12.10    5.30
   3   5 -13   25.10    8.80
  -3  -5  13   16.60    5.80
   2   5 -13   71.99   11.30
  -2  -5  13   93.89   10.70
   1   5 -13    0.60    2.30
   1   5 -13    7.60    2.90
   1   5 -13    6.90    6.10
  -1  -5  13    6.70    4.10
   0   5 -13  139.59   16.50
   0   5 -13  122.59    8.70
   0  -5  13  121.09    9.90
   0  -5  13  121.39    9.40
  -1   5 -13  314.97   20.40
  -1   5 -13  310.97   14.60
   1  -5  13  308.87   13.30
   1  -5  13  340.47   14.10
  -2   5 -13    1.80    2.60
  -2   5 -13    5.60    4.30
  -2   5 -13    0.80    4.70
   2  -5  13    8.20    3.20
  -3   5 -13   52.29   10.50
  -3   5 -13   58.59    9.30
  -3   5 -13   60.29    5.80
   3  -5  13   82.29    5.90
  -4   5 -13  228.18   14.90
  -4   5 -13  206.18    8.90
  -4   5 -13  214.18   17.20
   4  -5  13  214.58    8.10
  -5   5 -13   49.10    8.70
  -5   5 -13   55.59   11.20
  -6   5 -13   -6.10    4.40
   6  -5  13   -1.00    4.90
  -7   5 -13    1.90    5.60
   7  -5  13    0.90    4.70
  -8   5 -13   18.90    8.30
   8  -5  13   10.50    6.40
  -9   5 -13   14.20   10.60
   9  -5  13   20.40    9.10
 -10   5 -13   36.90   10.40
  10  -5  13   57.39   12.40
   6   4 -13   16.80    7.40
  -6  -4  13   41.60   11.70
   5   4 -13    6.20    5.60
  -5  -4  13   -1.70    4.00
   4   4 -13    2.90    4.90
  -4  -4  13   -2.60    3.70
   3   4 -13   12.50    7.40
  -3  -4  13    8.00    4.60
   2   4 -13  128.09   15.90
  -2  -4  13  126.89   10.40
   1   4 -13  231.38   17.30
   1   4 -13  221.98    9.50
   1   4 -13  236.58   10.10
  -1  -4  13  235.58   12.90
   0   4 -13  285.67   12.10
   0   4 -13  334.87   20.30
   0   4 -13  326.37   13.40
   0  -4  13  309.87   14.10
  -1   4 -13   -0.30    4.50
  -1   4 -13   -0.20    2.30
  -1   4 -13    1.40    3.60
   1  -4  13    0.30    2.50
   1  -4  13    1.50    2.60
  -2   4 -13  524.05   26.10
  -2   4 -13  526.95   17.90
  -2   4 -13  584.24   21.10
   2  -4  13  553.04   17.60
  -3   4 -13  568.54   22.40
  -3   4 -13  551.04   17.30
  -3   4 -13  584.14   27.60
   3  -4  13  571.44   16.80
  -4   4 -13  139.39   11.70
  -4   4 -13  146.69   14.40
  -4   4 -13  146.39    6.80
   4  -4  13  149.59    6.40
  -5   4 -13  126.19   11.80
   5  -4  13   90.99   12.50
  -6   4 -13  183.38   14.50
   6  -4  13  176.78   16.00
  -7   4 -13    8.10    6.00
   7  -4  13    0.50    4.80
  -8   4 -13   -7.70    4.50
   8  -4  13    1.60    4.90
  -9   4 -13   39.10    9.10
   9  -4  13   49.40   10.30
 -10   4 -13   43.30   10.40
  10  -4  13   30.00   10.50
   7   3 -13  101.49   15.50
  -7  -3  13   83.49   11.50
   6   3 -13   52.99   12.10
  -6  -3  13   59.89    9.70
   5   3 -13  106.49   14.60
  -5  -3  13  111.99   13.00
   4   3 -13   16.20    6.20
  -4  -3  13   36.20    7.60
   3   3 -13   17.50    6.80
  -3  -3  13    8.10    4.50
   2   3 -13  193.18   15.70
   2   3 -13  181.88    7.40
  -2  -3  13  189.18   12.20
   1   3 -13  276.17   10.60
   1   3 -13  259.37   17.80
   1   3 -13  281.97   10.90
  -1  -3  13  262.27   13.50
   0   3 -13   -0.20    4.20
   0   3 -13    2.40    3.00
   0   3 -13    2.70    2.60
   0  -3  13    0.50    3.00
  -1   3 -13  366.46   21.00
  -1   3 -13  348.67   14.10
  -1   3 -13  369.56   15.20
   1  -3  13  415.96   15.10
  -2   3 -13  166.88   14.90
  -2   3 -13  179.88   10.90
  -2   3 -13  172.08    8.80
   2  -3  13  174.78    8.90
   2  -3  13  177.18   10.20
  -3   3 -13 1067.69   38.00
  -3   3 -13 1000.60   31.00
  -3   3 -13  993.90   25.80
   3  -3  13 1018.00   25.80
  -4   3 -13   77.09    4.60
  -4   3 -13   82.99    9.40
   4  -3  13   98.29   13.90
  -5   3 -13  366.36   17.90
   5  -3  13  335.97   20.80
  -6   3 -13  379.06   19.10
   6  -3  13  353.96   21.40
  -7   3 -13   49.30    8.60
   7  -3  13   43.70    9.20
  -8   3 -13    2.50    4.90
   8  -3  13    3.70    5.50
  -9   3 -13   14.80    7.00
   9  -3  13    9.90    5.90
 -10   3 -13   85.89   20.50
  10  -3  13   64.99   13.20
 -11   3 -13   22.60    8.50
  11  -3  13   18.70    8.20
  -7  -2  13    7.50    5.80
   6   2 -13  320.77   21.40
  -6  -2  13  333.97   19.20
   5   2 -13  168.28   15.70
  -5  -2  13  191.28   14.20
   4   2 -13    7.50    5.50
  -4  -2  13    4.20    4.20
   3   2 -13   20.20    6.80
  -3  -2  13   15.80    5.20
   2   2 -13   11.70    5.20
   2   2 -13   11.30    2.70
   2   2 -13    8.40    2.50
  -2  -2  13   11.00    4.20
   1   2 -13   19.20    3.70
   1   2 -13   22.40    4.00
   1   2 -13   14.70    5.40
  -1  -2  13   21.90    5.10
   0   2 -13  349.67   13.40
   0   2 -13  362.26   20.20
   0   2 -13  359.46   13.50
   0   2 -13  357.66   14.40
   0  -2  13  365.56   15.00
  -1   2 -13  190.38   10.30
  -1   2 -13  186.58   14.60
  -1   2 -13  193.28   11.40
  -1   2 -13  185.28    9.60
   1  -2  13  185.88    9.80
  -2   2 -13  162.58   13.70
  -2   2 -13  153.58   10.10
  -2   2 -13  146.09    7.80
   2  -2  13  153.48    9.30
   2  -2  13  171.08    8.70
  -3   2 -13   -1.90    3.40
  -3   2 -13    1.30    3.70
  -3   2 -13    0.90    1.90
   3  -2  13    3.00    2.10
   3  -2  13    9.40    5.40
  -4   2 -13  163.28   11.40
  -4   2 -13  159.88    6.30
   4  -2  13  162.68   14.20
   4  -2  13  162.48    7.70
  -5   2 -13  118.29   10.50
   5  -2  13   95.19   12.10
  -6   2 -13  231.38   14.70
   6  -2  13  224.58   16.70
  -7   2 -13    2.00    4.70
   7  -2  13    0.90    4.10
  -8   2 -13    2.70    4.60
   8  -2  13   15.30    6.80
  -9   2 -13   22.00    7.50
   9  -2  13   29.70    9.10
 -10   2 -13   35.10    8.30
  10  -2  13   50.29   10.90
 -11   2 -13    5.70    6.00
   8   1 -13   16.10    7.60
  -8  -1  13   28.60    8.30
   7   1 -13   -4.90    4.20
  -7  -1  13    2.50    5.00
   6   1 -13    0.50    4.90
  -6  -1  13    0.60    4.60
   5   1 -13    2.40    4.60
  -5  -1  13   12.60    5.80
   4   1 -13   -2.00    3.70
  -4  -1  13    3.70    4.10
   3   1 -13   57.09    3.40
   3   1 -13   63.19   10.30
   3   1 -13   55.79    3.40
  -3  -1  13   55.99    8.20
   2   1 -13  348.97   12.00
   2   1 -13  353.76   11.60
   2   1 -13  380.16   20.30
  -2  -1  13  367.06   16.70
   1   1 -13  658.63   26.90
   1   1 -13  614.74   18.80
   1   1 -13  609.74   18.20
  -1  -1  13  604.24   21.50
   0   1 -13  111.19    7.80
   0   1 -13  113.89    7.40
   0   1 -13  112.59    7.40
   0   1 -13  123.19   11.90
   0  -1  13  127.59    8.60
  -1   1 -13   28.80    7.00
  -1   1 -13   49.80    6.30
   1  -1  13   43.90    5.90
  -2   1 -13   74.09    9.80
  -2   1 -13   87.39    7.30
  -2   1 -13   85.99    6.00
  -2   1 -13   97.59    8.00
   2  -1  13   87.89    6.50
  -3   1 -13  410.76   12.70
  -3   1 -13  425.96   17.20
   3  -1  13  400.96   21.10
   3  -1  13  400.46   13.40
  -4   1 -13  362.06   10.40
  -4   1 -13  354.36   12.10
   4  -1  13  365.06   20.10
  -5   1 -13   33.30    6.90
   5  -1  13   17.60    6.40
  -6   1 -13  160.38   12.10
   6  -1  13  127.69   13.00
  -7   1 -13   77.29   10.70
   7  -1  13  124.29   15.40
  -8   1 -13   42.40    8.10
   8  -1  13   36.60    9.20
  -9   1 -13  151.18   13.70
   9  -1  13  147.49   15.00
 -10   1 -13  176.18   15.10
  10  -1  13  210.98   18.20
 -11   1 -13   46.60   11.30
  11  -1  13   75.39   14.40
 -12   1 -13    2.50    5.70
  12  -1  13   10.50    7.00
   8   0 -13    7.00    5.60
  -8   0  13   -1.90    4.30
   7   0 -13    6.90    5.90
  -7   0  13   12.50    6.20
   6   0 -13  130.39   15.50
  -6   0  13  136.99   12.80
   5   0 -13   11.70    5.60
  -5   0  13   10.50    5.50
   4   0 -13   28.20    7.50
   4   0 -13   26.70    2.10
   4   0 -13   30.90    2.20
  -4   0  13   29.40    6.50
   3   0 -13   66.29    4.40
   3   0 -13   61.39   10.00
   3   0 -13   67.39    4.60
  -3   0  13   81.29    9.90
   2   0 -13 1704.03   41.60
   2   0 -13 1792.52   40.50
   2   0 -13 1842.02   51.99
  -2   0  13 1781.52   47.00
   1   0 -13  270.37   16.50
   1   0 -13  276.17   11.70
   1   0 -13  302.57   11.40
  -1   0  13  284.07   13.80
   0   0 -13   15.80    3.80
   0   0 -13   23.00    6.30
   0   0 -13    3.70    2.50
   0   0 -13   14.50    3.80
   0   0  13   21.90    4.60
  -1   0 -13  242.48   15.50
  -1   0 -13  241.78   12.10
  -1   0 -13  251.47   11.50
   1   0  13  239.18   11.30
  -2   0 -13 2122.19   57.59
  -2   0 -13 1963.70   50.09
  -2   0 -13 2083.79   50.19
  -2   0 -13 2008.30   46.80
   2   0  13 2092.39   57.99
   2   0  13 2082.59   48.30
  -3   0 -13  173.08   10.40
  -3   0 -13  153.28    7.10
   3   0  13  153.48   12.90
   3   0  13  159.28    8.00
  -4   0 -13   44.90    3.60
  -4   0 -13   42.40    7.40
  -4   0 -13   41.20    3.90
   4   0  13   46.10    9.10
  -5   0 -13  572.04   14.10
  -5   0 -13  603.64   22.20
  -5   0 -13  553.54   13.30
   5   0  13  571.44   25.60
  -6   0 -13 1156.38   35.40
   6   0  13 1134.19   39.70
  -7   0 -13    6.90    4.40
   7   0  13    4.10    5.20
  -8   0 -13   -3.70    3.70
   8   0  13   -0.30    3.70
  -9   0 -13   53.09    8.90
   9   0  13   61.19   10.80
 -10   0 -13  159.48   14.20
  10   0  13  172.78   16.50
 -11   0 -13   -4.80    4.40
  11   0  13   -7.70    4.10
 -12   0 -13    8.90    6.40
  12   0  13    2.50    5.80
   8  -1 -13   15.70    7.40
  -8   1  13    1.50    4.60
   7  -1 -13   90.89   12.80
  -7   1  13   75.59   10.70
   6  -1 -13  169.68   14.50
  -6   1  13  168.28   13.80
   5  -1 -13  104.39    4.70
   5  -1 -13  124.29    4.70
   5  -1 -13  109.29   13.50
  -5   1  13  123.29   11.50
   4  -1 -13  151.68   12.60
   4  -1 -13  145.59    6.20
   4  -1 -13  134.09    6.40
  -4   1  13  137.99   11.50
   3  -1 -13   54.49    4.50
   3  -1 -13   55.99    9.70
   3  -1 -13   53.59    4.90
  -3   1  13   52.09    8.00
   2  -1 -13   31.00    4.80
   2  -1 -13   30.70    7.10
   2  -1 -13   30.50    4.30
  -2   1  13   23.70    5.30
   1  -1 -13   14.20    3.60
   1  -1 -13   15.40    3.80
   1  -1 -13   15.30    5.10
  -1   1  13    8.00    3.60
   0  -1 -13   66.69    7.10
   0  -1 -13   56.59    6.40
   0  -1 -13   62.19    7.10
   0   1  13   55.79    7.30
  -1  -1 -13 1192.48   31.20
  -1  -1 -13 1146.09   32.20
   1   1  13 1110.99   31.30
  -2  -1 -13  515.85   18.90
  -2  -1 -13  506.75   16.10
  -2  -1 -13  520.05   18.30
   2   1  13  544.75   17.70
  -3  -1 -13   13.40    4.30
  -3  -1 -13    6.40    2.70
  -3  -1 -13    9.30    2.60
   3   1  13    9.60    5.00
  -4  -1 -13   31.10    5.60
  -4  -1 -13   31.20    3.50
  -4  -1 -13   29.70    4.00
   4   1  13   26.20    6.20
  -5  -1 -13  557.54   14.50
  -5  -1 -13  571.34   18.20
  -5  -1 -13  566.74   21.60
   5   1  13  593.24   25.60
  -6  -1 -13  367.06    9.20
  -6  -1 -13  368.16    9.60
  -6  -1 -13  363.66   17.40
   6   1  13  368.76   20.40
  -7  -1 -13   10.40    5.00
   7   1  13   -3.20    3.40
  -8  -1 -13    0.80    4.20
   8   1  13    3.40    4.70
  -9  -1 -13    2.50    4.20
   9   1  13    1.80    4.70
 -10  -1 -13    7.80    5.70
  10   1  13    4.80    5.20
 -11  -1 -13    3.50    5.50
  11   1  13   -2.50    4.60
 -12  -1 -13    9.90    6.30
  12   1  13   25.80    9.60
   8  -2 -13   66.49   11.40
  -8   2  13   51.49   10.10
   7  -2 -13   31.30    8.40
  -7   2  13   12.10    5.70
   6  -2 -13    1.50    4.30
   6  -2 -13   -2.60    1.70
  -6   2  13    3.70    4.30
   5  -2 -13   32.70    4.10
   5  -2 -13   21.50    6.30
  -5   2  13   17.20    5.80
   4  -2 -13    5.40    2.50
   4  -2 -13    9.60    4.70
   4  -2 -13    7.40    2.60
  -4   2  13   10.90    4.80
   3  -2 -13   21.30    5.90
   3  -2 -13   31.90    4.90
   3  -2 -13   33.60    4.50
  -3   2  13   32.80    6.90
   2  -2 -13  257.77   10.80
   2  -2 -13  272.77   12.10
   2  -2 -13  269.57   18.00
  -2   2  13  281.67   14.70
   1  -2 -13  282.57   12.80
   1  -2 -13  324.97   16.60
   1  -2 -13  292.67   12.00
  -1   2  13  299.37   14.50
   0  -2 -13  736.63   22.50
   0  -2 -13  699.53   23.20
   0  -2 -13  748.23   27.20
   0  -2 -13  737.33   22.20
   0   2  13  766.12   24.30
  -1  -2 -13   10.60    3.50
  -1  -2 -13    8.70    3.00
  -1  -2 -13    6.30    3.60
  -1  -2 -13   12.00    3.90
   1   2  13   13.30    3.80
  -2  -2 -13   32.80    5.40
  -2  -2 -13   44.70    5.20
  -2  -2 -13   39.80    6.20
   2   2  13   40.80    7.70
   2   2  13   48.50    6.20
  -3  -2 -13  306.17   13.80
  -3  -2 -13  309.97   12.50
  -3  -2 -13  280.27   10.80
   3   2  13  311.87   17.30
  -4  -2 -13  530.55   19.90
  -4  -2 -13  524.25   16.70
  -4  -2 -13  510.95   15.10
   4   2  13  505.85   22.70
  -5  -2 -13   26.00    5.50
  -5  -2 -13   19.90    3.40
  -5  -2 -13   17.30    2.80
   5   2  13   22.30    6.80
  -6  -2 -13    6.10    1.90
  -6  -2 -13    8.50    2.20
  -6  -2 -13    8.20    4.00
   6   2  13    2.10    4.10
  -7  -2 -13   62.29    8.40
  -7  -2 -13   71.19    4.00
   7   2  13   83.39   12.80
  -8  -2 -13   -0.50    1.20
  -8  -2 -13    1.10    4.00
   8   2  13   -2.20    4.00
  -9  -2 -13  361.66   11.70
  -9  -2 -13  368.16    9.80
  -9  -2 -13  394.76   19.90
   9   2  13  401.36   23.10
 -10  -2 -13   54.09    3.30
 -10  -2 -13   54.59    5.20
 -10  -2 -13   69.79   11.10
  10   2  13   54.39   11.20
 -11  -2 -13   70.89   12.10
 -11  -2 -13   51.39    4.10
  11   2  13   60.79   12.40
 -12  -2 -13   34.10    9.40
  12   2  13   17.90    7.40
   8  -3 -13   20.70    7.10
   8  -3 -13   17.60    3.50
  -8   3  13   21.50    7.20
  -8   3  13   28.30    4.00
   7  -3 -13   50.39    5.50
   7  -3 -13   46.20    8.80
  -7   3  13   44.90    5.20
  -7   3  13   60.69   10.50
   6  -3 -13   69.69    5.90
   6  -3 -13   90.99   11.70
  -6   3  13   62.69    9.50
  -6   3  13   87.89    6.30
   5  -3 -13    9.10    4.60
   5  -3 -13   12.20    3.20
  -5   3  13    9.60    3.20
  -5   3  13    9.70    5.20
   4  -3 -13   27.10    4.90
   4  -3 -13   20.00    5.60
  -4   3  13   39.70    7.80
  -4   3  13   33.40    4.90
   3  -3 -13  646.24   24.50
   3  -3 -13  604.24   20.20
  -3   3  13  593.04   23.80
  -3   3  13  613.34   19.30
   2  -3 -13  595.34   22.90
   2  -3 -13  567.64   19.90
  -2   3  13  580.14   18.80
  -2   3  13  566.24   22.30
   1  -3 -13 1399.26   40.60
   1  -3 -13 1522.85   55.09
   1  -3 -13 1385.26   40.50
  -1   3  13 1345.57   35.80
  -1   3  13 1399.06   39.40
   0  -3 -13    7.40    3.60
   0  -3 -13    5.60    3.40
   0  -3 -13    9.90    3.40
   0  -3 -13    5.70    2.60
   0  -3 -13    5.60    3.20
   0   3  13    2.90    2.90
  -1  -3 -13  793.72   30.90
  -1  -3 -13  846.42   26.70
  -1  -3 -13  817.72   24.20
  -1  -3 -13  873.31   25.60
   1   3  13  851.21   29.50
   1   3  13  869.81   26.50
  -2  -3 -13  885.71   24.80
  -2  -3 -13  954.10   27.30
  -2  -3 -13  850.91   27.70
  -2  -3 -13  882.61   26.80
   2   3  13  896.41   30.60
  -3  -3 -13  758.22   21.70
  -3  -3 -13  773.82   24.80
  -3  -3 -13  770.82   23.50
   3   3  13  768.32   27.90
  -4  -3 -13    5.60    2.60
  -4  -3 -13   10.60    2.80
   4   3  13   11.70    5.80
  -5  -3 -13  922.51   25.00
  -5  -3 -13  886.11   23.60
  -5  -3 -13  909.41   28.80
   5   3  13  877.81   32.00
  -6  -3 -13  168.78    8.20
  -6  -3 -13  148.99   11.00
  -6  -3 -13  155.68    7.50
   6   3  13  165.98   13.50
  -7  -3 -13  135.89    6.90
  -7  -3 -13  117.29   10.40
  -7  -3 -13  124.39    6.70
   7   3  13  129.99   12.70
  -8  -3 -13   75.49    9.00
  -8  -3 -13   88.39    5.70
  -8  -3 -13   97.09    5.50
   8   3  13  101.79   13.80
  -9  -3 -13  288.17   11.00
  -9  -3 -13  301.27   17.30
  -9  -3 -13  294.17   10.20
   9   3  13  303.27   20.20
 -10  -3 -13   72.49   10.20
 -10  -3 -13   65.69    4.90
  10   3  13   64.69   12.10
  10   3  13   60.29    5.30
 -11  -3 -13   64.99    5.00
 -11  -3 -13   74.49   11.80
  11   3  13   58.09   11.60
  11   3  13   47.80    5.50
 -12  -3 -13   23.60    3.80
 -12  -3 -13   16.90    6.70
  12   3  13   21.40    8.30
  12   3  13   16.20    3.90
   8  -4 -13    9.40    3.50
   8  -4 -13    9.70    5.50
  -8   4  13   13.20    3.90
  -8   4  13   10.20    5.60
   7  -4 -13  183.28   13.90
   7  -4 -13  161.38   10.60
  -7   4  13  212.68   16.20
  -7   4  13  186.08   10.30
   6  -4 -13   71.49    9.90
   6  -4 -13   60.79    7.90
  -6   4  13   68.49   10.30
  -6   4  13   73.39    6.90
   5  -4 -13  168.78   14.00
  -5   4  13  158.38   13.40
  -5   4  13  162.88    9.60
   4  -4 -13    0.50    3.30
   4  -4 -13    1.20    2.70
  -4   4  13    0.90    3.70
  -4   4  13   -0.60    2.30
   3  -4 -13   55.79    7.00
   3  -4 -13   50.59    8.60
   3  -4 -13   64.79    8.90
  -3   4  13   60.39    7.10
  -3   4  13   52.89    8.20
   2  -4 -13  857.51   28.80
   2  -4 -13  854.21   27.10
   2  -4 -13  862.21   28.40
  -2   4  13  894.41   29.90
  -2   4  13  886.81   26.20
   1  -4 -13  208.48   11.80
   1  -4 -13  229.48   12.80
   1  -4 -13  214.78   12.50
  -1   4  13  210.28   11.00
  -1   4  13  192.58   12.50
   0  -4 -13  388.36   17.20
   0  -4 -13  410.76   17.10
   0  -4 -13  407.36   17.90
   0   4  13  406.86   16.20
   0   4  13  412.76   17.60
  -1  -4 -13  824.12   24.90
  -1  -4 -13  833.62   27.80
  -1  -4 -13  867.01   27.40
  -1  -4 -13  856.01   27.60
   1   4  13  825.02   28.40
   1   4  13  866.71   26.30
  -2  -4 -13  903.81   29.60
  -2  -4 -13  901.51   26.20
  -2  -4 -13  943.11   28.40
  -2  -4 -13  949.60   28.50
   2   4  13  976.90   31.30
  -3  -4 -13  214.68   10.30
  -3  -4 -13  223.78   11.50
  -3  -4 -13  187.68   11.30
   3   4  13  222.58   13.60
  -4  -4 -13  500.95   16.80
  -4  -4 -13  504.35   18.00
  -4  -4 -13  487.35   19.30
   4   4  13  499.05   21.80
  -5  -4 -13  401.16   15.00
  -5  -4 -13  378.96   14.00
  -5  -4 -13  356.56   16.70
   5   4  13  363.06   18.90
  -6  -4 -13  384.76   14.30
  -6  -4 -13  356.06   13.60
  -6  -4 -13  390.96   17.70
   6   4  13  367.06   19.60
  -7  -4 -13   15.40    3.50
  -7  -4 -13   17.70    3.80
  -7  -4 -13   13.10    5.10
   7   4  13   18.00    5.70
  -8  -4 -13   26.80    4.20
  -8  -4 -13   28.70    6.90
   8   4  13   33.10    8.50
   8   4  13   25.60    4.50
  -9  -4 -13    7.50    2.70
  -9  -4 -13    8.00    4.90
   9   4  13    4.40    3.00
   9   4  13    6.50    5.10
 -10  -4 -13  144.39    8.00
 -10  -4 -13  152.68   13.20
  10   4  13  150.58   15.20
  10   4  13  152.78    9.10
 -11  -4 -13   43.70    9.20
 -11  -4 -13   48.90    5.70
  11   4  13   57.29   12.50
  11   4  13   48.80    8.30
 -12  -4 -13   24.70    7.90
 -12  -4 -13   23.20    4.20
  12   4  13   33.40   10.10
  12   4  13   17.00    4.70
   8  -5 -13   27.40    7.20
  -8   5  13   17.00    8.00
  -8   5  13   14.70    4.70
   7  -5 -13   -0.60    3.40
  -7   5  13    6.60    3.70
  -7   5  13    4.20    4.50
   6  -5 -13  162.58   10.10
  -6   5  13  160.48   14.10
  -6   5  13  156.18   10.40
   5  -5 -13    8.10    3.40
   5  -5 -13   11.90    4.70
  -5   5  13    6.10    3.50
  -5   5  13   15.50    6.00
   4  -5 -13   21.30    5.50
   4  -5 -13   10.50    3.90
   4  -5 -13   10.40    4.30
  -4   5  13   14.00    5.00
  -4   5  13   25.50    5.40
   3  -5 -13    5.80    3.20
   3  -5 -13    7.00    3.60
   3  -5 -13    2.30    2.80
  -3   5  13    6.10    3.40
  -3   5  13    8.40    4.90
   2  -5 -13   14.30    4.40
   2  -5 -13   10.80    3.90
   2  -5 -13   18.30    5.00
  -2   5  13   17.70    4.40
  -2   5  13   25.30    6.50
   1  -5 -13  575.34   21.00
   1  -5 -13  524.15   20.90
   1  -5 -13  587.14   21.10
  -1   5  13  584.94   22.90
  -1   5  13  550.34   20.30
   0  -5 -13  405.26   17.20
   0  -5 -13  432.66   18.60
   0  -5 -13  417.36   17.50
   0  -5 -13  383.66   19.40
   0   5  13  435.26   17.30
  -1  -5 -13  507.65   19.70
  -1  -5 -13  540.35   20.80
  -1  -5 -13  518.55   20.90
   1   5  13  520.05   20.70
   1   5  13  536.45   19.80
  -2  -5 -13  103.79    7.70
  -2  -5 -13   99.99    8.30
  -2  -5 -13  102.29    8.70
   2   5  13   93.89    8.80
   2   5  13   91.79    8.20
  -3  -5 -13  449.86   18.00
  -3  -5 -13  440.26   16.60
  -3  -5 -13  428.06   18.60
  -3  -5 -13  461.25   26.30
   3   5  13  476.45   20.00
  -4  -5 -13  133.49   10.00
  -4  -5 -13  125.79    9.10
  -4  -5 -13  134.09    8.50
   4   5  13  120.39   10.60
  -5  -5 -13  121.89    8.70
  -5  -5 -13  140.49   10.50
   5   5  13  115.09   11.00
  -6  -5 -13  115.59    8.30
  -6  -5 -13  104.79    9.60
   6   5  13  121.69   11.70
  -7  -5 -13    0.40    2.50
  -7  -5 -13    1.10    3.50
   7   5  13    0.10    3.80
   7   5  13    2.00    2.90
  -8  -5 -13  223.88   14.40
  -8  -5 -13  239.18   11.30
   8   5  13  228.68   16.70
   8   5  13  201.88   11.00
  -9  -5 -13   43.40    5.80
  -9  -5 -13   39.60    7.90
   9   5  13   27.70    8.00
   9   5  13   45.10    6.40
 -10  -5 -13   35.30    5.40
 -10  -5 -13   37.10    7.90
  10   5  13   37.80    6.30
  10   5  13   55.29   11.60
 -11  -5 -13   26.00    4.90
 -11  -5 -13   22.70    7.30
  11   5  13   21.10    8.60
 -12  -5 -13   35.60    9.00
  12   5  13   36.80   10.60
   8  -6 -13   10.20    5.00
  -8   6  13    1.80    3.90
  -8   6  13    0.50    4.70
  -7   6  13    3.50    3.90
  -7   6  13    0.20    4.60
   6  -6 -13    3.10    3.50
  -6   6  13   -3.40    3.50
   5  -6 -13   35.50    6.40
   5  -6 -13   47.00    7.10
  -5   6  13   31.20    7.80
  -5   6  13   37.60    7.10
   4  -6 -13   27.30    5.50
   4  -6 -13   16.40    4.60
  -4   6  13   21.40    7.00
  -4   6  13   19.60    5.60
   3  -6 -13  286.27   15.90
   3  -6 -13  305.67   14.10
  -3   6  13  309.47   17.70
  -3   6  13  307.07   15.20
   2  -6 -13  824.12   25.90
   2  -6 -13  786.82   25.30
  -2   6  13  846.12   27.60
  -2   6  13  840.82   30.00
   1  -6 -13  564.84   20.30
   1  -6 -13  619.24   24.20
   1  -6 -13  570.24   20.40
  -1   6  13  556.54   21.30
   0  -6 -13    8.60    4.60
   0  -6 -13    0.70    2.20
   0  -6 -13   -0.10    2.30
   0   6  13    6.30    3.40
  -1  -6 -13  168.88   11.50
  -1  -6 -13  143.09   10.90
   1   6  13  170.48   10.90
   1   6  13  172.98   11.20
  -2  -6 -13  601.04   21.80
  -2  -6 -13  651.83   23.70
   2   6  13  627.44   24.00
   2   6  13  651.13   23.20
  -3  -6 -13  391.86   16.30
  -3  -6 -13  412.66   17.80
  -3  -6 -13  380.66   16.90
   3   6  13  417.16   18.40
   3   6  13  430.16   18.20
  -4  -6 -13   12.60    3.60
  -4  -6 -13    9.70    3.80
  -4  -6 -13   13.40    4.90
   4   6  13    9.70    4.50
  -5  -6 -13    4.10    3.80
  -5  -6 -13    4.50    2.90
  -5  -6 -13    4.70    3.30
   5   6  13    5.10    4.60
  -6  -6 -13  387.96   18.40
  -6  -6 -13  392.06   16.50
   6   6  13  352.46   15.60
   6   6  13  407.16   20.50
  -7  -6 -13    8.90    4.90
  -7  -6 -13   10.60    3.90
   7   6  13   15.00    4.20
   7   6  13    5.00    4.50
  -8  -6 -13  391.16   16.20
  -8  -6 -13  407.36   19.60
   8   6  13  381.96   21.70
  -9  -6 -13  199.88   11.20
  -9  -6 -13  195.08   14.00
   9   6  13  183.88   16.00
 -10  -6 -13  211.28   15.00
  10   6  13  200.88   17.70
 -11  -6 -13    2.20    4.40
 -11  -6 -13   -1.80    3.00
  11   6  13    1.70    6.60
 -12  -6 -13   -0.20    3.30
 -12  -6 -13   -5.20    4.00
  12   6  13   -1.00    6.00
   8  -7 -13    0.70    4.10
  -8   7  13   -1.20    4.80
  -8   7  13    1.60    4.00
   7  -7 -13   60.99    8.60
   7  -7 -13   75.39    9.00
  -7   7  13   63.29    9.90
  -7   7  13   73.69   12.70
   6  -7 -13  173.58   11.10
   6  -7 -13  170.38   10.80
  -6   7  13  190.18   13.30
  -6   7  13  229.98   17.00
   5  -7 -13   26.60    5.30
   5  -7 -13   16.90    4.60
  -5   7  13   13.00    6.00
  -5   7  13   13.80    5.10
   4  -7 -13    1.50    2.60
   4  -7 -13    0.70    2.20
  -4   7  13    0.80    3.70
  -4   7  13    0.90    4.30
   3  -7 -13 1104.89   37.10
   3  -7 -13 1048.40   29.10
   3  -7 -13  975.90   29.00
  -3   7  13 1050.39   33.50
  -3   7  13 1010.90   35.80
   2  -7 -13 1265.87   33.50
   2  -7 -13 1318.47   41.00
   2  -7 -13 1200.68   33.30
  -2   7  13 1210.38   37.20
   1  -7 -13    1.30    4.00
   1  -7 -13    2.40    2.50
   1  -7 -13   -0.60    2.20
  -1   7  13    1.20    3.10
   0  -7 -13  119.49    8.10
   0  -7 -13  121.59    8.60
   0  -7 -13  121.69   10.80
   0   7  13  116.09    9.80
  -1  -7 -13 1013.40   30.00
  -1  -7 -13 1089.19   34.50
   1   7  13 1078.99   31.50
   1   7  13 1050.99   33.20
  -2  -7 -13  610.24   33.60
  -2  -7 -13  642.44   22.20
   2   7  13  685.73   23.60
   2   7  13  682.43   24.70
  -3  -7 -13   70.89    7.10
  -3  -7 -13   64.19    8.30
   3   7  13   81.19    9.40
   3   7  13   68.99    8.50
  -4  -7 -13    0.40    2.80
   4   7  13    3.90    3.80
   4   7  13    4.90    3.70
  -5  -7 -13 1405.46   42.10
  -5  -7 -13 1406.26   40.70
   5   7  13 1572.44   59.49
  -6  -7 -13  153.98   10.70
  -6  -7 -13  139.49   11.50
   6   7  13  144.69   12.40
  -7  -7 -13   21.80    6.20
  -7  -7 -13   11.80    5.20
   7   7  13   21.90    6.90
  -8  -7 -13   54.39    7.80
  -8  -7 -13   50.69    9.10
   8   7  13   42.70    8.70
  -9  -7 -13  216.78   14.90
  -9  -7 -13  192.78   12.00
   9   7  13  216.98   17.30
 -10  -7 -13    5.80    5.20
 -10  -7 -13    1.20    3.30
  10   7  13    6.30    5.60
 -11  -7 -13    3.90    5.00
 -11  -7 -13    5.00    3.70
  11   7  13   13.90    8.20
   8  -8 -13   18.10    5.00
  -8   8  13   28.40    8.30
  -8   8  13   16.90    7.50
   7  -8 -13  202.28   11.00
  -7   8  13  183.68   14.40
  -7   8  13  155.68   23.90
   6  -8 -13   11.40    3.90
   6  -8 -13   13.50    3.90
  -6   8  13   11.90    5.80
  -6   8  13   26.20    6.70
   5  -8 -13   28.70    5.00
   5  -8 -13   44.80    9.50
   5  -8 -13   32.60    5.00
  -5   8  13   36.40    8.10
  -5   8  13   32.10    8.70
   4  -8 -13   23.60    4.20
   4  -8 -13   29.00    4.80
   4  -8 -13   37.40    8.90
  -4   8  13   32.80    7.30
   3  -8 -13   26.60    4.40
   3  -8 -13   38.40    5.10
   3  -8 -13   21.40    6.90
  -3   8  13   35.20    7.30
   2  -8 -13   14.10    5.80
   2  -8 -13   14.80    3.50
   2  -8 -13    9.10    3.00
  -2   8  13    4.80    4.50
   1  -8 -13    2.70    2.60
   1  -8 -13   -1.00    3.50
   1  -8 -13    4.90    2.50
  -1   8  13    4.20    4.00
   0  -8 -13  614.04   20.00
   0  -8 -13  586.54   19.20
   0  -8 -13  626.54   25.40
   0   8  13  569.94   23.60
  -1  -8 -13  607.94   20.60
  -1  -8 -13  673.03   26.30
   1   8  13  647.14   21.90
   1   8  13  666.43   25.10
  -2  -8 -13   14.80    5.20
   2   8  13   17.60    4.70
   2   8  13   18.00    5.10
  -3  -8 -13   15.60    5.30
  -3  -8 -13   14.50    4.10
   3   8  13    9.50    4.60
   3   8  13   18.30    5.20
  -4  -8 -13  317.27   16.50
   4   8  13  299.37   15.70
   4   8  13  281.77   15.90
  -5  -8 -13  357.46   17.60
   5   8  13  360.26   21.90
   5   8  13  359.76   18.00
  -6  -8 -13  134.49   11.70
  -6  -8 -13  142.79   11.10
   6   8  13  138.39   12.20
  -7  -8 -13   46.40    7.70
  -7  -8 -13   52.49    8.50
   7   8  13   52.19    9.90
  -8  -8 -13   14.00    5.40
  -8  -8 -13   18.20    5.50
   8   8  13   12.90    6.00
  -9  -8 -13   43.50    7.50
  -9  -8 -13   59.69    9.90
   9   8  13   40.70    9.30
 -10  -8 -13  149.69   13.30
 -10  -8 -13  124.29   10.60
  10   8  13  113.19   15.10
 -11  -8 -13    1.70    3.90
 -11  -8 -13    6.80    6.50
  11   8  13    3.00    5.80
   7  -9 -13   12.60    3.50
   7  -9 -13   12.10    3.20
   7  -9 -13   11.00    6.40
  -7   9  13   13.60    6.30
   6  -9 -13   -2.10    1.80
   6  -9 -13    1.90    2.00
   6  -9 -13   -1.40    4.70
  -6   9  13    1.20    4.50
   5  -9 -13    5.10    2.10
   5  -9 -13    5.30    2.20
   5  -9 -13   11.50    5.90
  -5   9  13    1.20    4.70
   4  -9 -13   13.50    2.80
   4  -9 -13    7.60    5.80
   4  -9 -13    9.40    3.10
  -4   9  13   11.80    5.30
   3  -9 -13   25.40    7.50
   3  -9 -13   13.80    2.90
   3  -9 -13   12.00    2.70
  -3   9  13    9.10    5.10
   2  -9 -13  282.47   10.40
   2  -9 -13  299.57   18.50
   2  -9 -13  276.97   10.20
  -2   9  13  285.17   17.00
   1  -9 -13  539.65   24.50
   1  -9 -13  499.85   15.90
   1  -9 -13  478.75   15.50
  -1   9  13  533.45   23.20
   0  -9 -13  450.45   22.20
   0  -9 -13  455.05   16.00
   0  -9 -13  452.55   15.50
   0   9  13  485.95   21.80
  -1  -9 -13  313.97   13.00
  -1  -9 -13  335.27   18.60
   1   9  13  322.27   13.80
   1   9  13  296.07   16.80
  -2  -9 -13  234.68   15.30
  -2  -9 -13  228.18   11.60
   2   9  13  206.28   13.90
   2   9  13  233.98   12.30
  -3  -9 -13  493.05   19.10
  -3  -9 -13  488.55   22.40
   3   9  13  506.35   20.00
   3   9  13  531.65   22.70
  -4  -9 -13    3.80    3.70
   4   9  13    9.50    4.30
   4   9  13    6.40    4.30
  -5  -9 -13  209.58   14.20
   5   9  13  232.88   14.80
   5   9  13  222.38   14.60
  -6  -9 -13   46.70    8.30
  -6  -9 -13   35.00    7.50
   6   9  13   26.60    6.80
   6   9  13   43.90    8.60
  -7  -9 -13  117.39   10.80
  -7  -9 -13  126.39   13.50
   7   9  13  117.09   13.70
  -8  -9 -13   23.90    6.40
  -8  -9 -13   20.40    6.60
   8   9  13   38.60    8.40
  -9  -9 -13  268.47   15.60
  -9  -9 -13  222.38   15.90
   9   9  13  259.77   18.90
 -10  -9 -13   13.00    5.60
 -10  -9 -13   18.30    6.20
  10   9  13   19.20    8.30
   7 -10 -13  112.09   16.20
  -7  10  13  111.19   15.40
   6 -10 -13    9.70    6.70
  -6  10  13    5.30    5.20
   5 -10 -13   -2.70    4.70
  -5  10  13    5.00    4.70
   4 -10 -13  143.69   16.20
  -4  10  13  107.29   13.60
   3 -10 -13  139.99   16.60
  -3  10  13  114.09   13.90
   2 -10 -13  520.85   12.30
   2 -10 -13  527.05   12.30
   2 -10 -13  557.14   26.20
  -2  10  13  523.65   24.50
   1 -10 -13  483.85   24.30
   1 -10 -13  476.55   13.70
  -1  10  13  494.65   23.30
   0 -10 -13  328.27   11.80
   0 -10 -13  321.57   19.30
   0 -10 -13  335.87   12.30
   0  10  13  324.07   18.40
  -1 -10 -13  499.35   23.40
  -1 -10 -13  442.86   15.70
   1  10  13  425.96   21.30
   1  10  13  464.85   16.50
  -2 -10 -13  574.54   19.90
  -2 -10 -13  633.14   26.60
   2  10  13  595.14   25.30
   2  10  13  595.14   20.80
  -3 -10 -13  321.27   18.40
  -3 -10 -13  267.57   13.50
   3  10  13  307.27   14.80
   3  10  13  284.77   17.00
  -4 -10 -13  688.73   27.40
   4  10  13  651.93   24.50
   4  10  13  613.74   26.00
  -5 -10 -13   58.49    9.50
   5  10  13   64.99    9.50
   5  10  13   84.09   10.50
  -6 -10 -13   26.00    6.80
   6  10  13   32.10    7.00
   6  10  13   28.70    7.10
  -7 -10 -13   -2.00    3.50
  -7 -10 -13   -3.20    3.60
   7  10  13   -1.80    3.30
  -8 -10 -13  115.59   13.30
  -8 -10 -13  117.39   13.50
   8  10  13  133.59   16.50
  -9 -10 -13   83.59   12.00
  -9 -10 -13   89.19   10.90
   9  10  13  104.19   14.00
 -10 -10 -13   95.99   12.90
 -10 -10 -13  120.19   12.90
  10  10  13   84.99   15.30
   6 -11 -13  148.99   19.10
  -6  11  13  163.88   15.60
  -5  11  13    4.20    5.70
   4 -11 -13   84.79   13.50
  -4  11  13   71.99   11.90
   3 -11 -13   87.89   13.00
  -3  11  13   70.19   12.10
   2 -11 -13  122.19   14.40
  -2  11  13  142.39   13.50
   1 -11 -13   19.50    6.60
  -1  11  13   24.30    7.00
   0 -11 -13  421.96   13.50
   0 -11 -13  411.66   22.60
   0 -11 -13  415.36   12.60
   0  11  13  431.56   22.20
  -1 -11 -13  522.35   25.00
  -1 -11 -13  485.55   16.00
   1  11  13  470.75   23.30
   1  11  13  491.85   16.50
  -2 -11 -13   45.60    9.20
  -2 -11 -13   52.49    6.50
   2  11  13   63.59    7.40
   2  11  13   52.79    9.70
  -3 -11 -13  251.77   17.00
  -3 -11 -13  230.48   12.50
   3  11  13  279.97   17.10
   3  11  13  271.07   13.70
  -4 -11 -13   76.79   11.60
   4  11  13   95.79   10.70
   4  11  13   51.69    8.60
  -5 -11 -13  135.39   15.00
   5  11  13  147.29   12.90
   5  11  13  140.99   11.60
  -6 -11 -13   48.00    9.30
   6  11  13   34.90    7.90
   6  11  13   28.70    6.70
  -7 -11 -13   63.29   10.00
  -7 -11 -13   53.99    9.10
   7  11  13   46.90    9.00
   7  11  13   69.49   11.40
  -8 -11 -13   32.00    8.10
  -8 -11 -13   21.80    7.10
   8  11  13   28.70    8.90
  -9 -11 -13    0.40    4.00
  -9 -11 -13   -6.30    3.80
   9  11  13   -3.20    3.80
   5 -12 -13   32.20    9.70
  -5  12  13   18.10    7.30
   4 -12 -13   10.00    7.50
  -4  12  13    7.50    6.50
   3 -12 -13   -2.40    4.40
  -3  12  13   -1.10    4.10
   2 -12 -13  113.19   15.20
  -2  12  13  125.99   15.60
   1 -12 -13  150.18   14.60
  -1  12  13  154.98   14.50
   0 -12 -13   55.39   10.20
   0  12  13  103.09   14.50
  -1 -12 -13   37.90    4.70
  -1 -12 -13   31.00    7.50
   1  12  13   53.29    5.70
   1  12  13   34.20    7.70
  -2 -12 -13  213.48   16.50
  -2 -12 -13  202.28   10.40
   2  12  13  220.78   16.10
   2  12  13  215.18   10.90
  -3 -12 -13  114.39    8.80
  -3 -12 -13  106.39   12.60
   3  12  13  150.38    9.90
   3  12  13  130.49   12.50
  -4 -12 -13   52.59    9.20
   4  12  13   63.49   11.30
   4  12  13   36.40    6.80
  -5 -12 -13   73.79   10.80
   5  12  13  105.19   13.80
   5  12  13   96.19   11.30
  -6 -12 -13  100.99   13.10
   6  12  13   94.29   12.20
   6  12  13   79.59   11.20
  -7 -12 -13    2.10    4.30
   7  12  13   10.30    5.30
   7  12  13    6.50    5.30
  -8 -12 -13  106.19   14.00
  -8 -12 -13   78.69   11.80
   8  12  13   93.29   13.10
   4 -13 -13   10.70    7.20
  -4  13  13    1.40    5.70
   3 -13 -13  163.98   19.90
  -2  13  13  347.87   22.20
   1 -13 -13   52.49   11.30
  -1  13  13   40.40    9.40
   0 -13 -13   -0.80    3.60
   0  13  13    5.20    5.40
  -1 -13 -13  256.87   18.50
  -1 -13 -13  223.18    9.30
   1  13  13  248.38   17.90
  -2 -13 -13  334.27   20.90
  -2 -13 -13  322.57   13.20
   2  13  13  330.77   20.50
   2  13  13  337.07   13.50
  -3 -13 -13   11.80    4.20
  -3 -13 -13   12.10    6.20
   3  13  13   19.40    4.90
   3  13  13   18.30    6.90
  -4 -13 -13    4.10    5.30
   4  13  13    7.50    3.90
   4  13  13    0.30    4.40
  -5 -13 -13  107.79   13.80
   5  13  13   93.79   11.30
   5  13  13  103.69   14.00
  -6 -13 -13   88.39   15.40
   6  13  13   97.89   14.70
   6  13  13   71.29   10.70
  -7 -13 -13  128.59   15.10
   7  13  13  103.89   12.80
   7  13  13  125.19   14.30
   2 -14 -13   23.50    8.60
  -2  14  13   25.20    8.90
   1 -14 -13    1.00    4.80
  -1  14  13   13.70    7.50
   0 -14 -13  213.08   18.00
   0  14  13  208.18   17.60
  -1 -14 -13  255.17   19.40
   1  14  13  292.37   20.00
  -2 -14 -13   49.70    5.70
  -2 -14 -13   38.70    9.20
   2  14  13   52.59    5.80
   2  14  13   47.20   10.90
  -3 -14 -13   17.30    4.90
  -3 -14 -13   14.60    7.10
   3  14  13   20.70    7.90
   3  14  13   24.30    5.30
  -4 -14 -13  164.88   15.70
   4  14  13  169.08   11.60
   4  14  13  162.18   14.90
  -5 -14 -13  121.79   15.40
   5  14  13  101.29   10.30
   5  14  13  124.69   15.50
  -1 -15 -13   -2.70    4.30
  -1   8 -14   35.80    9.30
  -1   8 -14   70.59    9.70
   1  -8  14   58.59    7.90
  -2   8 -14    3.40    6.10
  -2   8 -14    0.70    4.50
   2  -8  14    1.00    3.20
  -3   8 -14   42.60    8.50
  -3   8 -14   42.40   10.70
   3  -8  14   49.80    6.40
  -4   8 -14  150.98   13.80
  -4   8 -14  158.48   20.40
   4  -8  14  132.29    7.50
   2   7 -14   24.40    2.90
   2   7 -14   45.60   11.80
  -2  -7  14   50.29    9.10
   1   7 -14   50.99    6.40
   1   7 -14   42.80   10.00
  -1  -7  14   59.89    8.90
   0   7 -14    5.20    6.20
   0   7 -14   14.00    4.50
   0  -7  14   11.60    5.00
   0  -7  14    8.30    3.40
  -1   7 -14    5.70    4.00
   1  -7  14    0.20    3.10
  -2   7 -14  110.99   16.80
  -2   7 -14  125.39   11.10
   2  -7  14  122.59    8.80
  -3   7 -14   81.19   10.80
  -3   7 -14   58.99    7.40
  -3   7 -14   93.19   15.00
   3  -7  14   78.59    6.70
  -4   7 -14   43.50    5.70
  -4   7 -14   70.69   11.00
  -4   7 -14   52.89   11.90
   4  -7  14   54.29    5.10
  -5   7 -14   54.19   10.00
  -5   7 -14   44.70   12.40
   5  -7  14   40.40    2.80
  -6   7 -14   35.30    8.80
   3   6 -14    2.70    5.40
  -3  -6  14    8.50    5.10
   2   6 -14   92.29    4.90
   2   6 -14  109.39   16.60
   2   6 -14   91.19    4.60
  -2  -6  14  103.49   11.70
   1   6 -14   -3.40    2.10
   1   6 -14    1.10    2.60
   1   6 -14    7.20    6.80
  -1  -6  14    2.00    3.80
   0   6 -14   13.80    7.30
   0   6 -14   21.30    5.00
   0  -6  14   18.50    5.10
  -1   6 -14  187.48   17.30
  -1   6 -14  181.68   11.80
   1  -6  14  191.78   11.20
  -2   6 -14  245.38   19.20
  -2   6 -14  230.38   14.00
   2  -6  14  239.48   11.70
  -3   6 -14    8.00    6.00
  -3   6 -14   30.20    7.00
   3  -6  14   10.30    3.20
  -4   6 -14   -1.70    4.90
  -4   6 -14    1.00    2.30
  -4   6 -14    5.30    5.10
   4  -6  14    4.40    2.20
  -5   6 -14   63.69   11.10
  -5   6 -14   39.90   10.70
  -6   6 -14   42.50    9.70
  -6   6 -14   37.40    9.70
  -7   6 -14   11.50    6.80
  -7   6 -14   11.50    7.50
   7  -6  14    7.90    7.20
  -8   6 -14    3.60    6.80
   8  -6  14    9.60    7.70
   4   5 -14   30.50    8.30
  -4  -5  14   43.50    8.20
   3   5 -14  116.39   22.50
  -3  -5  14  121.99   11.40
   2   5 -14   11.00    2.70
   2   5 -14   14.30    2.40
   2   5 -14   17.10    8.10
  -2  -5  14   18.70    5.60
   1   5 -14   25.80    8.60
   1   5 -14   37.20    5.10
   1   5 -14   25.40    4.20
  -1  -5  14   37.20    7.00
   0   5 -14   99.59    7.90
   0   5 -14   86.59    7.20
   0   5 -14   92.09   13.30
   0  -5  14   91.29    8.70
  -1   5 -14  388.06   23.70
  -1   5 -14  427.46   17.50
   1  -5  14  415.56   16.50
  -2   5 -14    3.70    3.10
  -2   5 -14    4.10    4.30
  -2   5 -14    9.30    6.30
   2  -5  14    7.00    3.50
  -3   5 -14   49.60   10.50
  -3   5 -14   67.79    6.30
  -3   5 -14   72.19   10.00
   3  -5  14   70.69    5.90
  -4   5 -14  341.87   12.30
  -4   5 -14  388.06   19.40
  -4   5 -14  359.46   22.70
   4  -5  14  351.96   11.40
  -5   5 -14   35.90    8.80
  -5   5 -14   49.80   10.80
  -6   5 -14   -5.40    4.30
  -6   5 -14   -0.30    5.00
   6  -5  14   -1.70    4.20
  -7   5 -14   -3.50    5.00
   7  -5  14   -3.50    4.60
  -8   5 -14   43.20   10.50
   8  -5  14   45.70   10.60
  -9   5 -14    5.50    7.00
   9  -5  14    4.30    6.70
   5   4 -14   22.50    8.40
  -5  -4  14   27.30    7.60
   4   4 -14   24.90   11.30
  -4  -4  14   28.60    7.30
   3   4 -14   38.90    9.20
  -3  -4  14   48.20    8.20
   2   4 -14   26.10    8.00
   2   4 -14   23.50    3.30
  -2  -4  14   24.80    6.00
   1   4 -14   58.29   11.30
   1   4 -14   38.00    4.90
   1   4 -14   53.99    5.70
  -1  -4  14   51.09    7.40
   0   4 -14  259.27   18.80
   0   4 -14  233.78   11.60
   0   4 -14  220.88   11.70
   0  -4  14  254.97   13.00
  -1   4 -14   26.40    8.50
  -1   4 -14   20.40    5.10
   1  -4  14   30.40    5.30
  -2   4 -14  203.18   12.50
  -2   4 -14  195.48   10.40
  -2   4 -14  200.38   16.80
   2  -4  14  217.88   10.50
  -3   4 -14  541.55   18.00
  -3   4 -14  620.74   23.40
  -3   4 -14  636.44   29.40
   3  -4  14  608.34   17.80
  -4   4 -14   98.79   14.60
  -4   4 -14   99.79   11.70
  -4   4 -14  101.39    6.00
   4  -4  14  108.79    5.70
  -5   4 -14    5.70    5.00
  -5   4 -14    1.10    5.60
   5  -4  14    7.20    5.60
  -6   4 -14    0.10    4.70
   6  -4  14   -3.40    4.20
  -7   4 -14   -3.30    4.90
   7  -4  14   -0.30    4.70
  -8   4 -14   -2.70    5.10
   8  -4  14    3.10    5.50
   9  -4  14   -5.90    3.90
 -10   4 -14   -3.60    5.90
  10  -4  14    3.40    5.70
   6   3 -14   30.50   10.20
  -6  -3  14   24.30    7.50
   5   3 -14   15.20    7.30
  -5  -3  14   11.50    5.60
   4   3 -14   -4.20    3.70
  -4  -3  14    0.50    4.10
   3   3 -14    3.60    4.80
  -3  -3  14    1.90    4.00
   2   3 -14    5.60    5.40
   2   3 -14   12.50    2.60
  -2  -3  14    7.50    4.40
   1   3 -14  130.29   15.60
   1   3 -14  122.69    7.40
   1   3 -14  119.29    7.20
  -1  -3  14  125.79   10.00
   0   3 -14   17.40    6.40
   0   3 -14   29.00    4.90
   0   3 -14   26.40    5.00
   0  -3  14   22.20    5.10
  -1   3 -14  286.97   13.70
  -1   3 -14  343.97   20.60
  -1   3 -14  279.97   12.90
  -1   3 -14  276.67   12.80
   1  -3  14  325.37   13.60
  -2   3 -14  182.58   12.10
  -2   3 -14  199.98   16.30
  -2   3 -14  195.48   11.70
   2  -3  14  211.28   10.10
  -3   3 -14  648.34   29.50
  -3   3 -14  617.44   22.90
  -3   3 -14  591.64   18.00
   3  -3  14  615.64   18.20
  -4   3 -14   31.60    3.70
  -4   3 -14   40.00    9.10
  -4   3 -14   37.50    7.00
   4  -3  14   33.40    3.80
  -5   3 -14   30.00    7.60
   5  -3  14   19.50    7.20
  -6   3 -14   14.10    5.50
   6  -3  14   11.00    5.90
  -7   3 -14    0.70    4.50
   7  -3  14    4.70    5.20
  -8   3 -14   50.99    9.90
   8  -3  14   30.20    8.60
  -9   3 -14   -3.20    4.60
   9  -3  14    0.10    5.10
 -10   3 -14    1.90    6.10
  10  -3  14   19.70    8.50
   6   2 -14  256.97   30.40
  -6  -2  14  244.58   18.30
   5   2 -14    1.50    5.30
  -5  -2  14    1.40    4.30
   4   2 -14  134.19   17.00
  -4  -2  14  137.29   12.20
   3   2 -14   97.89   13.70
  -3  -2  14  120.29   10.90
   2   2 -14   81.99    5.20
   2   2 -14   70.39    4.90
   2   2 -14   90.29   13.00
  -2  -2  14   75.39    9.10
   1   2 -14    3.80    2.80
   1   2 -14   -0.90    1.90
   1   2 -14    2.30    4.50
  -1  -2  14    2.30    3.50
   0   2 -14  405.16   15.30
   0   2 -14  441.26   15.60
   0   2 -14  428.76   22.80
   0  -2  14  456.55   17.50
  -1   2 -14  348.47   20.60
  -1   2 -14  356.36   14.60
  -1   2 -14  368.86   15.10
  -1   2 -14  344.67   14.00
   1  -2  14  390.86   15.00
  -2   2 -14  181.18   11.10
  -2   2 -14  184.98    9.10
  -2   2 -14  188.78   15.30
   2  -2  14  184.38    9.60
  -3   2 -14  182.68    8.50
  -3   2 -14  186.68   15.50
   3  -2  14  205.38    9.30
  -4   2 -14  146.79    6.40
  -4   2 -14  143.19   11.20
   4  -2  14  140.09   16.30
   4  -2  14  148.89    6.70
  -5   2 -14   90.19   10.70
   5  -2  14   92.79   13.30
  -6   2 -14    9.80    5.30
   6  -2  14   11.30    5.50
  -7   2 -14   62.69    9.90
   7  -2  14   51.29   10.00
  -8   2 -14   54.39    9.90
   8  -2  14   71.79   12.80
  -9   2 -14    4.90    5.80
   9  -2  14    7.20    5.70
 -10   2 -14   44.50   14.60
  10  -2  14   34.60   10.40
 -11   2 -14   28.10    8.70
  11  -2  14   35.90   10.10
   7   1 -14   56.09   15.40
  -7  -1  14   34.40    7.90
   6   1 -14   16.20    7.90
  -6  -1  14    2.80    4.90
   5   1 -14   26.70    8.00
  -5  -1  14   26.30    7.30
   4   1 -14   91.99   12.50
  -4  -1  14  143.39   12.10
   3   1 -14  140.79    5.30
   3   1 -14  151.38   14.10
   3   1 -14  152.18    5.60
  -3  -1  14  134.49   11.40
   2   1 -14   31.10    7.40
   2   1 -14   34.70    4.30
   2   1 -14   26.60    4.10
  -2  -1  14   30.20    6.20
   1   1 -14   86.99   11.30
   1   1 -14   94.59    6.60
   1   1 -14   80.39    6.40
  -1  -1  14   91.69    8.50
   0   1 -14  146.39    8.80
   0   1 -14  154.68   13.70
   0   1 -14  157.28    9.00
   0  -1  14  145.49    9.80
  -1   1 -14   75.89    6.90
  -1   1 -14   87.99   12.70
  -1   1 -14   68.59    6.30
  -1   1 -14   78.89    7.20
   1  -1  14   70.59    7.40
  -2   1 -14   66.89    5.80
  -2   1 -14   86.39    8.90
  -2   1 -14   70.39   10.40
  -2   1 -14   81.99    8.60
   2  -1  14   78.49    6.70
  -3   1 -14  467.05   23.30
  -3   1 -14  423.16   13.70
  -3   1 -14  448.86   18.30
   3  -1  14  441.46   14.70
   3  -1  14  420.86   22.90
  -4   1 -14  362.16   11.90
  -4   1 -14  349.17   10.90
  -4   1 -14  398.26   17.70
   4  -1  14  365.06   21.00
  -5   1 -14   66.49    2.70
  -5   1 -14   76.79    2.90
  -5   1 -14   68.29    9.60
   5  -1  14   78.89   12.60
  -6   1 -14   40.10    7.50
   6  -1  14   38.20    8.10
  -7   1 -14   55.49    8.60
   7  -1  14   49.30    9.90
  -8   1 -14   -0.30    4.40
   8  -1  14    3.50    5.40
  -9   1 -14   19.00    6.50
   9  -1  14   19.30    7.20
 -10   1 -14  103.59   13.70
  10  -1  14   81.49   13.30
 -11   1 -14   25.70    8.40
  11  -1  14   23.50    9.70
   7   0 -14    6.80    5.70
  -7   0  14   11.50    6.30
   6   0 -14   10.00    6.40
  -6   0  14    6.30    5.10
   5   0 -14   11.50    6.80
  -5   0  14   -0.30    3.60
   4   0 -14   61.79   10.10
  -4   0  14   87.79   11.10
   3   0 -14   80.19   11.00
   3   0 -14   83.69    5.30
   3   0 -14   81.49    4.90
  -3   0  14  104.59   11.60
   2   0 -14  208.68    9.80
   2   0 -14  228.28    9.30
   2   0 -14  223.18   15.70
  -2   0  14  221.58   13.20
   1   0 -14  108.19    7.60
   1   0 -14  122.19    7.40
   1   0 -14   99.79   12.10
   0   0 -14   23.60    6.30
   0   0 -14   16.80    4.20
   0   0 -14   18.00    4.30
   0   0  14   27.80    5.40
  -1   0 -14  184.48   10.30
  -1   0 -14  164.38    9.20
  -1   0 -14  182.18   10.20
  -1   0 -14  184.48   14.30
   1   0  14  181.58   10.40
  -2   0 -14 1185.78   31.20
  -2   0 -14 1223.48   34.60
  -2   0 -14 1276.37   41.50
  -2   0 -14 1276.07   34.50
   2   0  14 1249.07   32.70
  -3   0 -14  220.68    9.10
  -3   0 -14  247.78   12.90
   3   0  14  206.38    9.80
   3   0  14  227.08   16.10
  -4   0 -14   94.19    9.00
  -4   0 -14   88.59    5.20
  -4   0 -14   93.39    5.90
   4   0  14   93.39   12.80
  -5   0 -14   77.49    4.00
  -5   0 -14   74.29    4.20
  -5   0 -14   73.59    9.60
   5   0  14   81.39   12.00
  -6   0 -14   59.99    8.70
   6   0  14   69.59   11.10
  -7   0 -14  128.79   11.60
   7   0  14   92.29   12.60
  -8   0 -14    2.00    4.30
   8   0  14   -2.50    4.20
  -9   0 -14   19.80    6.90
   9   0  14   15.10    7.30
 -10   0 -14   27.70    8.40
  10   0  14   21.40    8.30
 -11   0 -14    3.80    5.70
  11   0  14   -1.70    5.40
   8  -1 -14    1.60    5.40
  -8   1  14   -0.10    4.70
   7  -1 -14  106.19   14.70
  -7   1  14   88.19   18.20
   6  -1 -14    1.30    4.90
  -6   1  14    9.60    5.40
   5  -1 -14    7.70    1.50
   5  -1 -14   15.50    6.20
   5  -1 -14   13.60    1.80
  -5   1  14    7.50    4.60
   4  -1 -14    1.40    4.00
   4  -1 -14    3.70    1.90
   4  -1 -14    3.60    2.00
  -4   1  14    9.40    4.90
   3  -1 -14  214.58   15.30
   3  -1 -14  201.98    9.20
   3  -1 -14  206.98    8.60
  -3   1  14  213.78   13.90
   2  -1 -14   31.80    4.40
   2  -1 -14   32.50    7.70
   2  -1 -14   26.70    4.50
  -2   1  14   18.60    5.40
   1  -1 -14    6.00    4.60
   1  -1 -14    4.00    2.70
   1  -1 -14    2.40    2.70
   0  -1 -14  166.68    9.30
   0  -1 -14  177.18   13.50
   0   1  14  177.68   10.90
  -1  -1 -14 1336.27   37.50
  -1  -1 -14 1472.15   44.30
  -1  -1 -14 1418.96   36.50
  -1  -1 -14 1381.66   35.60
   1   1  14 1372.06   37.00
  -2  -1 -14  410.16   14.40
  -2  -1 -14  392.36   16.60
  -2  -1 -14  402.26   16.20
  -2  -1 -14  444.36   21.40
   2   1  14  390.36   15.30
   2   1  14  424.86   21.40
  -3  -1 -14   71.89    8.80
  -3  -1 -14   68.49    6.10
  -3  -1 -14   54.29    5.50
   3   1  14   46.70    8.50
  -4  -1 -14  212.48    8.40
  -4  -1 -14  197.38    9.10
  -4  -1 -14  211.18   12.50
   4   1  14  199.08   15.00
  -5  -1 -14  139.79    6.00
  -5  -1 -14  156.98   11.30
  -5  -1 -14  150.98    7.00
   5   1  14  132.49   12.60
  -6  -1 -14   19.60    2.10
  -6  -1 -14   21.00    2.30
  -6  -1 -14   17.20    5.70
   6   1  14   21.80    7.30
  -7  -1 -14   44.10    7.80
   7   1  14   41.80    8.60
  -8  -1 -14  187.18   13.90
   8   1  14  165.58   15.50
  -9  -1 -14   -1.50    4.00
   9   1  14   -3.90    4.20
 -10  -1 -14   34.60    8.80
  10   1  14   44.90   10.00
 -11  -1 -14    5.60    6.30
  11   1  14    1.10    6.00
 -12  -1 -14   16.10    7.00
  12   1  14   27.00    9.30
   8  -2 -14   50.49   10.30
  -8   2  14   35.20    8.10
   7  -2 -14   83.69   12.50
  -7   2  14   97.59   18.10
   6  -2 -14    0.10    4.40
   6  -2 -14    0.50    1.70
   6  -2 -14   -2.20    1.50
  -6   2  14   -0.80    4.60
   5  -2 -14   -1.80    4.10
   5  -2 -14    4.10    1.80
   5  -2 -14   -0.40    1.80
  -5   2  14   -1.40    3.60
   4  -2 -14  339.47   11.80
   4  -2 -14  328.77   12.40
   4  -2 -14  367.76   19.40
  -4   2  14  328.87   18.10
   3  -2 -14  110.79    6.90
   3  -2 -14  123.09    7.70
   3  -2 -14  103.49   12.10
  -3   2  14  124.19   11.00
   2  -2 -14   49.40    6.40
   2  -2 -14   49.30    5.70
   2  -2 -14   54.19    8.50
  -2   2  14   39.70    7.00
   1  -2 -14    1.10    2.50
   1  -2 -14    4.80    4.10
   1  -2 -14   -0.70    2.20
   0  -2 -14  660.93   23.20
   0  -2 -14  752.82   22.70
   0  -2 -14  702.63   27.40
   0   2  14  777.32   25.00
  -1  -2 -14  266.07   12.50
  -1  -2 -14  251.07   15.60
  -1  -2 -14  272.67   13.30
  -1  -2 -14  243.48   11.40
   1   2  14  264.67   12.90
  -2  -2 -14   21.60    4.80
   2   2  14   14.00    5.50
   2   2  14   22.80    4.50
  -3  -2 -14  680.23   19.80
  -3  -2 -14  706.13   21.90
  -3  -2 -14  705.43   23.70
   3   2  14  713.33   28.10
  -4  -2 -14  689.93   23.60
  -4  -2 -14  652.23   20.20
  -4  -2 -14  644.64   18.40
   4   2  14  676.13   27.50
  -5  -2 -14   -0.90    1.60
  -5  -2 -14    1.20    3.50
  -5  -2 -14    1.50    2.20
   5   2  14    1.70    3.70
  -6  -2 -14   81.09    9.60
  -6  -2 -14   76.59    5.00
  -6  -2 -14   73.99    4.40
   6   2  14   48.60    8.80
  -7  -2 -14   10.70    2.40
  -7  -2 -14   16.70    5.70
   7   2  14    6.70    5.50
  -8  -2 -14   88.69    3.60
  -8  -2 -14   80.79   10.40
  -8  -2 -14   90.99    3.70
   8   2  14  106.39   14.30
  -9  -2 -14  163.68   13.70
   9   2  14  187.88   16.60
 -10  -2 -14   21.80    6.90
  10   2  14   40.20    9.50
 -11  -2 -14   78.39   19.90
 -12  -2 -14    3.00    5.60
  12   2  14   13.10    7.50
   8  -3 -14   32.40    8.30
  -8   3  14   15.80    6.70
   7  -3 -14    6.90    2.60
   7  -3 -14    7.80    5.30
  -7   3  14    6.80    2.60
  -7   3  14   14.60    8.00
   6  -3 -14   10.70    3.20
   6  -3 -14   14.20    5.90
  -6   3  14    6.10    2.80
  -6   3  14    7.80    4.80
   5  -3 -14   82.39    6.20
   5  -3 -14   97.79   12.10
  -5   3  14   80.89    6.20
  -5   3  14   96.19   12.60
   4  -3 -14   15.20    3.70
   4  -3 -14   13.80    5.00
  -4   3  14   11.70    5.10
  -4   3  14   16.60    3.80
   3  -3 -14    0.70    2.30
   3  -3 -14    1.60    3.60
  -3   3  14    1.60    3.60
  -3   3  14   -0.90    2.20
   2  -3 -14    7.70    4.80
   2  -3 -14   14.20    4.10
  -2   3  14   17.50    5.60
   1  -3 -14  431.16   16.00
   1  -3 -14  434.26   22.50
   1  -3 -14  390.26   16.80
  -1   3  14  421.86   18.80
   0  -3 -14   93.49   11.50
   0  -3 -14   80.89    9.20
   0  -3 -14   77.59    7.10
   0   3  14   93.29   10.00
  -1  -3 -14   97.09    8.30
  -1  -3 -14   97.59   11.50
  -1  -3 -14  110.79    7.60
  -1  -3 -14  103.09    8.20
   1   3  14   85.79    8.10
  -2  -3 -14  954.60   28.60
  -2  -3 -14  926.51   26.30
  -2  -3 -14  981.80   29.00
   2   3  14  941.11   36.60
  -3  -3 -14 1031.40   40.60
  -3  -3 -14 1018.00   27.40
  -3  -3 -14 1044.80   29.70
   3   3  14 1028.70   35.20
  -4  -3 -14   51.89    6.50
  -4  -3 -14   43.70    5.20
  -4  -3 -14   54.29    7.80
   4   3  14   27.80    6.50
  -5  -3 -14  230.68   10.70
  -5  -3 -14  255.87   14.00
  -5  -3 -14  230.38    9.60
   5   3  14  244.38   16.10
  -6  -3 -14    2.40    2.20
  -6  -3 -14    3.30    1.80
  -6  -3 -14   -3.10    2.90
   6   3  14    2.10    3.60
  -7  -3 -14   31.40    4.20
  -7  -3 -14   31.50    6.30
  -7  -3 -14   42.00    4.00
   7   3  14   46.10    9.70
  -8  -3 -14   82.89   10.20
  -8  -3 -14   87.19    5.40
  -8  -3 -14   89.99    5.30
   8   3  14   87.99   13.00
  -9  -3 -14   44.40    4.10
  -9  -3 -14   39.60    3.80
  -9  -3 -14   35.10    7.80
   9   3  14   33.60    9.10
 -10  -3 -14   37.10    4.10
 -10  -3 -14   44.70    3.90
 -10  -3 -14   40.10    8.70
  10   3  14   58.99   12.60
 -11  -3 -14    9.70    7.40
 -11  -3 -14   14.00    2.80
 -11  -3 -14   13.90    2.60
 -12  -3 -14    8.30    2.30
 -12  -3 -14    9.60    6.40
  12   3  14   15.80    7.50
   8  -4 -14    2.40    4.90
  -8   4  14    2.40    2.80
  -8   4  14   -1.40    4.10
   7  -4 -14   40.50    8.30
  -7   4  14   33.20    5.40
  -7   4  14   23.30    7.90
   6  -4 -14   46.30    8.70
   6  -4 -14   27.60    5.50
  -6   4  14   29.30    7.80
  -6   4  14   37.60    5.80
   5  -4 -14    4.80    4.40
   5  -4 -14    4.50    2.60
  -5   4  14    1.80    2.70
  -5   4  14    5.60    5.00
   4  -4 -14    9.00    3.30
   4  -4 -14    8.80    4.50
  -4   4  14    6.70    3.20
  -4   4  14   11.40    5.10
   3  -4 -14   85.59    7.70
   3  -4 -14  100.29    9.80
  -3   4  14   91.49   10.50
  -3   4  14   95.89    7.60
   2  -4 -14  137.09    9.60
   2  -4 -14  129.09   10.60
  -2   4  14  127.99   11.10
  -2   4  14  126.29    8.80
   1  -4 -14    6.30    3.20
   1  -4 -14    6.20    3.80
  -1   4  14    6.00    3.40
  -1   4  14    3.90    3.50
   0  -4 -14  237.48   14.10
   0  -4 -14  229.58   12.90
   0   4  14  254.77   12.50
   0   4  14  239.28   13.70
  -1  -4 -14  810.52   27.00
  -1  -4 -14  787.22   28.20
  -1  -4 -14  803.62   25.70
   1   4  14  814.22   29.00
  -2  -4 -14 1221.28   34.80
  -2  -4 -14 1219.78   35.10
  -2  -4 -14 1210.88   32.70
   2   4  14 1230.98   38.30
  -3  -4 -14   88.59    6.80
  -3  -4 -14  102.19    8.80
  -3  -4 -14   95.19    8.20
  -4  -4 -14  499.15   18.40
  -4  -4 -14  489.35   19.90
  -4  -4 -14  506.25   17.10
   4   4  14  523.05   23.00
  -5  -4 -14   74.19    9.50
  -5  -4 -14   62.99    5.60
  -5  -4 -14   73.29    6.70
   5   4  14   61.89   10.10
  -6  -4 -14    6.70    2.60
  -6  -4 -14    1.30    3.60
  -6  -4 -14    5.50    2.90
   6   4  14    5.70    4.70
  -7  -4 -14  212.08   10.10
  -7  -4 -14  234.98   10.50
  -7  -4 -14  235.98   14.50
   7   4  14  262.57   17.40
  -8  -4 -14   28.90    6.70
  -8  -4 -14   31.90    4.50
  -8  -4 -14   28.40    4.40
   8   4  14   33.80    8.70
  -9  -4 -14   13.60    6.00
  -9  -4 -14    5.70    2.40
  -9  -4 -14    6.80    2.90
   9   4  14    5.60    5.80
 -10  -4 -14   65.79   10.20
 -10  -4 -14   62.79    5.50
  10   4  14   60.69   11.90
 -11  -4 -14  105.69    6.80
 -11  -4 -14   83.09   12.30
  11   4  14  109.79    7.80
 -12  -4 -14    9.10    3.30
 -12  -4 -14    4.80    5.70
  12   4  14   17.30    7.80
   8  -5 -14   12.40    6.20
  -8   5  14    5.20    3.60
  -8   5  14    3.90    4.90
   7  -5 -14    9.70    5.40
  -7   5  14   23.10    5.40
   6  -5 -14  110.49   10.70
  -6   5  14  102.59    8.70
  -6   5  14  116.99   14.60
   5  -5 -14   57.19    8.80
   5  -5 -14   66.69    9.10
  -5   5  14   50.79    9.60
  -5   5  14   66.69    8.10
   4  -5 -14   48.80    8.20
   4  -5 -14   56.49    7.70
  -4   5  14   33.60    7.30
  -4   5  14   50.39    7.10
   3  -5 -14  147.99   11.80
   3  -5 -14  163.78   11.40
  -3   5  14  160.08   13.00
  -3   5  14  168.18   10.50
   2  -5 -14   89.09    8.50
   2  -5 -14   85.99   10.10
  -2   5  14   84.89    7.80
  -2   5  14   78.99   10.60
   1  -5 -14  155.88   10.90
   1  -5 -14  168.88   11.30
  -1   5  14  178.48   10.90
  -1   5  14  169.98   12.50
   0  -5 -14  370.06   17.20
   0  -5 -14  389.66   18.20
   0  -5 -14  352.06   16.70
   0   5  14  367.16   16.20
  -1  -5 -14 1197.48   36.30
  -1  -5 -14 1250.27   37.10
   1   5  14 1246.28   37.70
   1   5  14 1272.87   35.90
  -2  -5 -14    6.80    4.20
  -2  -5 -14   19.10    5.10
  -2  -5 -14   18.40    5.00
   2   5  14   10.00    4.50
  -3  -5 -14 1162.78   34.70
  -3  -5 -14 1205.88   33.00
  -3  -5 -14 1202.48   35.40
   3   5  14 1210.18   37.60
  -4  -5 -14  223.08   11.10
  -4  -5 -14  204.28   11.80
  -4  -5 -14  220.38   13.00
   4   5  14  214.58   16.70
  -5  -5 -14   43.30    6.90
  -5  -5 -14   42.90    6.30
  -5  -5 -14   48.00    6.10
   5   5  14   39.20    7.90
  -6  -5 -14  140.39    9.20
  -6  -5 -14  154.38    9.20
  -6  -5 -14  154.18   11.60
   6   5  14  135.29   12.60
  -7  -5 -14  100.69   11.10
  -7  -5 -14  112.89    8.10
  -7  -5 -14  103.79    7.90
   7   5  14  111.89   13.80
  -8  -5 -14   34.30    7.10
  -8  -5 -14   43.30    5.80
  -8  -5 -14   33.40    5.40
   8   5  14   45.90    9.10
  -9  -5 -14    6.70    4.80
  -9  -5 -14   11.70    3.60
   9   5  14    6.50    3.60
   9   5  14    0.10    4.40
 -10  -5 -14  122.29    8.10
 -10  -5 -14  135.99   13.00
  10   5  14  113.49    8.70
  10   5  14  138.29   18.10
 -11  -5 -14   17.50    4.10
  11   5  14   19.80    5.00
  11   5  14   24.30   12.40
 -12  -5 -14   25.30    8.00
 -12  -5 -14   18.40    4.30
  12   5  14   -0.10    5.80
   8  -6 -14    7.00    4.80
  -8   6  14   15.30    7.30
  -8   6  14   11.00    4.80
   7  -6 -14   18.90    5.90
  -7   6  14   21.80    5.90
  -7   6  14   13.60    6.00
  -6   6  14    0.60    4.60
  -6   6  14    2.00    3.70
   5  -6 -14   77.19    9.60
  -5   6  14   58.79    9.80
   4  -6 -14  104.09    9.10
   4  -6 -14   90.29    8.60
  -4   6  14   98.39   13.10
  -4   6  14   95.99    9.10
   3  -6 -14    3.20    3.00
   3  -6 -14    0.20    2.20
  -3   6  14   -3.70    3.40
  -3   6  14    0.50    3.00
   2  -6 -14   56.79    7.50
   2  -6 -14   47.50    6.90
  -2   6  14   38.80    6.60
  -2   6  14   36.90    7.10
   1  -6 -14   35.00    7.20
   1  -6 -14   42.50    6.70
   1  -6 -14   48.80    7.00
  -1   6  14   51.69    8.70
   0  -6 -14  109.29    9.10
   0  -6 -14  104.89    8.60
   0  -6 -14  106.09   10.20
   0   6  14  139.39   18.70
  -1  -6 -14    3.50    4.20
  -1  -6 -14    3.80    2.80
   1   6  14    4.10    3.50
   1   6  14    2.80    3.20
  -2  -6 -14  479.45   19.60
  -2  -6 -14  515.85   21.10
   2   6  14  508.95   21.10
   2   6  14  510.55   20.60
  -3  -6 -14  678.33   25.10
  -3  -6 -14  719.83   25.60
   3   6  14  721.53   26.60
   3   6  14  724.33   25.60
  -4  -6 -14  160.98   11.70
  -4  -6 -14  153.88   10.80
  -4  -6 -14  173.58   11.90
   4   6  14  159.18   14.40
  -5  -6 -14   27.60    5.90
  -5  -6 -14   27.00    5.20
  -5  -6 -14   26.10    6.10
   5   6  14   35.80    7.40
  -6  -6 -14  321.17   14.90
  -6  -6 -14  293.87   16.20
  -6  -6 -14  287.97   13.90
   6   6  14  310.37   18.30
  -7  -6 -14   61.09    7.70
  -7  -6 -14   47.70    6.80
  -7  -6 -14   56.29    8.90
   7   6  14   71.19   11.70
  -8  -6 -14   76.59    8.20
  -8  -6 -14   70.09    9.60
   8   6  14   78.69   14.00
   8   6  14   74.49   11.80
  -9  -6 -14  101.29    8.20
  -9  -6 -14  115.49   13.50
   9   6  14   92.29   13.40
 -10  -6 -14  102.99   11.80
 -10  -6 -14  139.49    9.40
  10   6  14  104.19   15.50
 -11  -6 -14   -2.50    2.60
 -11  -6 -14   -1.40    5.90
  11   6  14   -1.00    5.20
   7  -7 -14   17.40    5.40
  -7   7  14    8.60    5.90
  -7   7  14   31.70    7.10
   6  -7 -14   19.90    5.40
   6  -7 -14   27.10    6.10
  -6   7  14   20.60    6.50
  -6   7  14   19.30    5.80
   5  -7 -14   65.79    8.60
   5  -7 -14   53.49    7.50
  -5   7  14   64.09   11.20
  -5   7  14   52.99    8.50
   4  -7 -14   30.20    5.70
   4  -7 -14   47.70    6.90
  -4   7  14   48.90    8.50
  -4   7  14   39.50    8.80
   3  -7 -14  133.59   12.00
   3  -7 -14  138.49   12.90
   3  -7 -14  134.39    9.20
  -3   7  14  134.89   12.70
  -3   7  14  126.69   10.70
   2  -7 -14  194.38   14.70
   2  -7 -14  182.98   10.70
   2  -7 -14  186.38   10.80
  -2   7  14  197.28   13.00
   1  -7 -14   84.29    7.50
   1  -7 -14  107.89    8.40
   1  -7 -14  122.69   13.20
  -1   7  14   97.69   10.70
   0  -7 -14   61.09    7.60
   0  -7 -14   57.19   11.40
   0  -7 -14   43.30    7.80
   0   7  14   49.99    7.30
  -1  -7 -14  696.03   23.90
  -1  -7 -14  732.33   27.40
   1   7  14  727.93   26.20
   1   7  14  735.43   25.30
  -2  -7 -14  490.35   19.50
  -2  -7 -14  560.44   22.80
   2   7  14  523.85   21.00
   2   7  14  520.05   21.50
  -3  -7 -14  409.16   21.50
   3   7  14  365.16   18.00
   3   7  14  402.76   18.50
  -4  -7 -14    5.70    4.20
  -4  -7 -14    0.50    3.60
   4   7  14   -2.10    2.80
   4   7  14   -2.90    2.70
  -5  -7 -14  571.64   22.60
  -5  -7 -14  585.34   23.70
   5   7  14  573.94   24.30
  -6  -7 -14   15.20    5.50
  -6  -7 -14    9.20    4.20
   6   7  14   16.00    5.30
  -7  -7 -14  120.79   11.20
   7   7  14  114.29   13.60
  -8  -7 -14  126.79    9.90
  -8  -7 -14  130.39   13.90
   8   7  14  142.49   13.80
  -9  -7 -14  110.39   13.00
  -9  -7 -14   98.89    8.90
   9   7  14   93.59   13.70
 -10  -7 -14    8.00    4.00
 -10  -7 -14   10.40    5.50
  10   7  14    5.20    6.10
 -11  -7 -14    2.70    4.60
 -11  -7 -14   -4.00    2.60
  11   7  14   -3.40    4.90
   7  -8 -14   72.29    8.40
  -7   8  14   76.99   12.40
  -7   8  14   76.09   10.90
   6  -8 -14    2.70    3.20
  -6   8  14    1.80    4.50
  -6   8  14   -0.70    3.50
   5  -8 -14   11.60    3.90
   5  -8 -14    6.00    3.40
   5  -8 -14    5.10    5.10
  -5   8  14    4.80    4.90
  -5   8  14   18.10    5.80
   4  -8 -14  226.48   11.00
   4  -8 -14  246.38   17.70
   4  -8 -14  194.48   10.50
  -4   8  14  206.58   14.30
   3  -8 -14   17.20    4.10
   3  -8 -14   19.20    4.30
   3  -8 -14    8.80    5.50
  -3   8  14   12.10    5.40
   2  -8 -14   75.89   10.70
   2  -8 -14   89.19    7.00
   2  -8 -14   87.99    7.00
  -2   8  14   93.69   10.50
   1  -8 -14    0.00    2.50
   1  -8 -14   -1.20    3.40
   1  -8 -14   -0.90    1.90
  -1   8  14   -2.80    3.30
   0  -8 -14  568.44   20.20
   0  -8 -14  555.54   19.60
   0  -8 -14  607.74   25.50
   0   8  14  600.04   23.90
  -1  -8 -14  825.42   30.50
   1   8  14  811.02   26.40
   1   8  14  788.92   28.90
  -2  -8 -14    5.10    2.90
  -2  -8 -14    6.20    4.30
   2   8  14    7.60    3.80
   2   8  14    5.80    4.10
  -3  -8 -14   36.70    6.20
  -3  -8 -14   35.70    7.00
   3   8  14   36.50    7.40
   3   8  14   43.90    7.60
  -4  -8 -14  535.05   22.60
   4   8  14  545.15   23.00
   4   8  14  533.95   22.40
  -5  -8 -14   74.49    9.80
  -5  -8 -14   74.29    9.80
   5   8  14   64.19    9.60
   5   8  14   58.89    9.40
  -6  -8 -14    7.70    4.70
  -6  -8 -14   12.20    4.80
   6   8  14   18.70    6.10
  -7  -8 -14  307.97   15.90
  -7  -8 -14  280.97   16.80
   7   8  14  246.78   17.20
  -8  -8 -14  167.78   13.60
  -8  -8 -14  167.08   11.90
   8   8  14  162.38   14.80
  -9  -8 -14   91.89   10.40
  -9  -8 -14   72.79   11.20
   9   8  14   89.19   13.70
 -10  -8 -14   95.39   10.50
 -10  -8 -14   83.69   12.80
  10   8  14  103.99   15.00
 -11  -8 -14    9.80    5.90
 -11  -8 -14    5.30    4.00
  11   8  14   11.40    7.20
   7  -9 -14    2.80    2.70
   7  -9 -14   -3.60    5.20
  -7   9  14   -1.40    4.20
   6  -9 -14   -1.70    4.90
   6  -9 -14    3.10    2.50
   6  -9 -14    2.60    2.50
  -6   9  14    7.80    5.40
   5  -9 -14   29.70    8.60
   5  -9 -14   25.20    4.30
   5  -9 -14   21.60    3.80
  -5   9  14   28.80    7.40
   4  -9 -14   28.00    4.30
   4  -9 -14   27.70    4.20
   4  -9 -14   29.30    8.40
  -4   9  14   26.20    7.40
   3  -9 -14   76.89    5.70
   3  -9 -14  100.79   13.90
   3  -9 -14   73.19    5.70
  -3   9  14   91.09   11.30
   2  -9 -14   14.70    6.30
   2  -9 -14    5.90    2.60
   2  -9 -14    6.80    2.60
  -2   9  14   10.70    5.20
   1  -9 -14  221.48   10.40
   1  -9 -14  224.48   16.00
   1  -9 -14  213.18   10.00
  -1   9  14  220.88   14.90
   0  -9 -14  385.96   20.80
   0  -9 -14  405.86   15.50
   0  -9 -14  376.36   14.50
   0   9  14  381.56   19.60
  -1  -9 -14   55.99    9.70
  -1  -9 -14   56.09    6.90
   1   9  14   57.49    7.40
   1   9  14   63.59    9.90
  -2  -9 -14  170.48   10.30
  -2  -9 -14  181.18   13.80
   2   9  14  179.28   11.20
   2   9  14  189.28   13.50
  -3  -9 -14  895.81   32.10
  -3  -9 -14  850.61   27.80
   3   9  14  866.61   29.00
   3   9  14  883.51   31.50
  -4  -9 -14   29.10    7.30
   4   9  14   31.40    6.80
   4   9  14   31.00    6.70
  -5  -9 -14  140.69   11.90
   5   9  14  140.29   11.90
   5   9  14  134.89   11.70
  -6  -9 -14   74.89   10.60
  -6  -9 -14   78.49   10.20
   6   9  14   86.39   11.70
  -7  -9 -14   -2.40    3.10
  -7  -9 -14   -0.10    4.20
   7   9  14   -2.50    3.80
  -8  -9 -14    2.40    4.60
  -8  -9 -14    6.90    4.40
   8   9  14   -1.20    3.80
  -9  -9 -14  126.59   14.80
  -9  -9 -14  111.89   10.60
   9   9  14  122.09   16.20
 -10  -9 -14    7.70    5.90
 -10  -9 -14   11.40    5.00
  10   9  14   18.90    8.20
   6 -10 -14   11.30    6.80
  -6  10  14    8.90    5.60
  -5  10  14   -0.70    4.30
   4 -10 -14    3.00    5.10
  -4  10  14   15.50    6.60
   3 -10 -14    8.00    1.70
   3 -10 -14    5.50    5.40
   3 -10 -14    8.90    1.80
  -3  10  14    7.90    5.50
   2 -10 -14   61.29    4.80
   2 -10 -14   46.70    9.20
  -2  10  14   58.29    9.70
   1 -10 -14  247.48   17.40
   1 -10 -14  210.28    9.10
   1 -10 -14  215.88    9.20
  -1  10  14  221.88   15.50
   0 -10 -14  313.67   19.20
   0 -10 -14  260.77   11.20
   0 -10 -14  296.17   12.00
   0  10  14  267.37   17.00
  -1 -10 -14  151.08   13.50
  -1 -10 -14  122.59    8.20
   1  10  14  144.69    9.20
   1  10  14  157.88   12.80
  -2 -10 -14  623.94   27.10
  -2 -10 -14  577.34   25.20
   2  10  14  639.74   26.50
   2  10  14  635.24   22.00
  -3 -10 -14  481.75   19.10
  -3 -10 -14  505.15   23.80
   3  10  14  528.25   23.70
   3  10  14  508.05   20.40
  -4 -10 -14  276.57   17.20
   4  10  14  303.67   15.90
   4  10  14  267.27   16.80
  -5 -10 -14   26.40    6.80
   5  10  14   39.30    7.90
   5  10  14   35.50    8.20
  -6 -10 -14    9.50    5.20
   6  10  14    4.70    4.70
   6  10  14    7.40    4.80
  -7 -10 -14   32.80    7.40
  -7 -10 -14   33.80    8.00
   7  10  14   39.20    8.50
  -8 -10 -14   67.49   10.10
  -8 -10 -14   52.09    9.40
   8  10  14   80.39   12.60
  -9 -10 -14   39.20    7.80
   9  10  14   37.50    9.90
 -10 -10 -14  103.89   12.10
 -10 -10 -14  135.49   16.00
  10  10  14   93.89   15.30
   5 -11 -14   28.10    9.10
  -5  11  14   19.80    7.30
   4 -11 -14   33.70   14.70
  -4  11  14   32.30    8.70
   3 -11 -14   12.40    5.80
  -3  11  14   13.20    6.50
   2 -11 -14   31.70    8.30
  -2  11  14   21.50    7.70
   1 -11 -14  132.49    5.10
   1 -11 -14  138.09    5.20
   1 -11 -14  150.58   17.30
  -1  11  14  119.69   14.20
   0 -11 -14  308.37   11.20
   0 -11 -14  290.17   10.80
   0 -11 -14  314.77   20.00
   0  11  14  282.97   18.20
  -1 -11 -14  667.23   29.20
  -1 -11 -14  640.04   20.20
   1  11  14  659.43   28.20
   1  11  14  650.53   20.80
  -2 -11 -14  164.68   14.30
  -2 -11 -14  139.49    9.20
   2  11  14  156.38   13.20
   2  11  14  161.98   10.10
  -3 -11 -14  138.59   13.10
  -3 -11 -14  149.59   10.20
   3  11  14  163.78   11.00
   3  11  14  154.38   13.10
  -4 -11 -14   69.69   10.20
   4  11  14   76.19   11.00
   4  11  14   74.29    9.60
  -5 -11 -14   80.89   11.10
   5  11  14   70.19   10.00
   5  11  14   76.79   11.70
  -6 -11 -14    5.70    4.40
   6  11  14    3.80    4.70
   6  11  14    3.80    4.00
  -7 -11 -14  108.39   13.00
  -7 -11 -14  121.59   13.70
   7  11  14   93.29   12.40
  -8 -11 -14   47.90    9.10
   8  11  14   34.30    9.00
  -9 -11 -14   10.50    5.30
  -9 -11 -14   13.30    6.00
   9  11  14   23.60    8.30
   5 -12 -14   22.80    8.70
   4 -12 -14   49.20   11.10
  -4  12  14   43.80   10.50
   3 -12 -14   -6.70    7.80
  -3  12  14   20.30    7.40
   2 -12 -14  178.78   20.00
  -2  12  14  156.68   14.90
   1 -12 -14   62.09   10.90
  -1  12  14   89.39   12.80
   0 -12 -14  118.59    5.10
   0 -12 -14  117.99    5.10
   0 -12 -14  126.49   14.50
   0  12  14  142.39   16.70
  -1 -12 -14   81.89   11.60
  -1 -12 -14   91.59    6.30
   1  12  14  104.89    6.90
   1  12  14  104.29   14.00
  -2 -12 -14  221.48   11.20
  -2 -12 -14  230.98   17.40
   2  12  14  225.38   16.50
   2  12  14  225.48   11.50
  -3 -12 -14  109.49    8.90
  -3 -12 -14  110.39   13.20
   3  12  14  116.89    9.20
   3  12  14  113.79   14.40
  -4 -12 -14  114.39   14.60
   4  12  14  113.19    9.90
   4  12  14   90.99   12.40
  -5 -12 -14   31.80    8.00
   5  12  14   31.70    7.00
   5  12  14   35.50    8.90
  -6 -12 -14  229.18   16.80
   6  12  14  209.78   16.50
   6  12  14  260.47   16.60
  -7 -12 -14    7.40    5.00
  -7 -12 -14    4.60    4.90
   7  12  14    3.20    4.60
   7  12  14    8.40    5.80
  -8 -12 -14    3.70    4.50
  -8 -12 -14    0.00    4.30
   8  12  14    4.30    5.10
   3 -13 -14   62.59   12.80
  -3  13  14   97.89   15.10
   2 -13 -14   49.80   10.40
  -2  13  14   79.49   19.60
   1 -13 -14    9.40    7.70
  -1  13  14   19.20    8.30
   0 -13 -14    2.40    4.50
   0  13  14    5.30    4.90
  -1 -13 -14  235.88   18.10
  -1 -13 -14  193.38    8.00
   1  13  14  213.18   17.00
  -2 -13 -14  273.07   19.20
  -2 -13 -14  267.97   11.90
   2  13  14  291.27   19.40
   2  13  14  273.17   12.10
  -3 -13 -14   57.99   10.10
  -3 -13 -14   58.69    7.60
   3  13  14   55.59    7.50
   3  13  14   67.79   11.60
  -4 -13 -14   13.10    6.10
   4  13  14   14.60    5.30
  -5 -13 -14  117.69   15.30
   5  13  14  109.69   13.20
   5  13  14  107.89   10.50
   6  13  14   58.49    9.90
   6  13  14   84.99   11.90
   1 -14 -14   23.80    7.90
  -1  14  14   25.60    8.50
   0 -14 -14  359.36   23.20
   0  14  14  313.47   21.40
  -1 -14 -14  269.47   20.00
   1  14  14  245.78   18.80
  -2 -14 -14   76.59    6.20
  -2 -14 -14   70.49   11.40
   2  14  14   84.29    6.40
   2  14  14   87.89   13.30
  -3 -14 -14    2.40    4.70
   3  14  14   -1.40    2.50
   3  14  14   -2.00    3.70
  -4 -14 -14  128.79   16.30
   4  14  14  124.29   10.10
  -5 -14 -14   66.19   11.70
   5  14  14   73.59   12.60
   5  14  14   64.99    9.60
  -1   7 -15    3.40    3.60
  -1   7 -15    1.90    5.20
   1  -7  15    1.70    3.80
  -2   7 -15   22.70    6.50
  -2   7 -15    7.40    7.10
   2  -7  15   12.50    5.00
  -3   7 -15    5.60    6.00
  -3   7 -15    7.10    4.90
   3  -7  15    2.80    2.80
  -4   7 -15   18.80    8.30
  -4   7 -15   27.70    7.20
   4  -7  15   12.60    3.20
   2   6 -15  133.59   18.40
  -2  -6  15  125.99   11.70
   1   6 -15   16.50    5.80
   1   6 -15   27.40    9.00
   1   6 -15   19.60    4.00
  -1  -6  15   18.60    5.80
   0   6 -15    5.00    6.60
   0   6 -15    2.20    3.10
   0   6 -15    0.50    3.00
   0  -6  15    1.80    3.60
  -1   6 -15   40.20   10.90
   1  -6  15   55.89    7.60
  -2   6 -15   14.40    5.00
   2  -6  15   22.90    4.80
  -3   6 -15    4.30    3.40
  -3   6 -15   14.10    5.60
  -3   6 -15    6.70    7.70
   3  -6  15    9.00    3.20
  -4   6 -15    1.70    2.60
  -4   6 -15   -4.90    6.20
  -4   6 -15    2.60    4.80
   4  -6  15    3.10    2.10
  -5   6 -15   68.99   11.00
  -6   6 -15   74.89   12.20
  -6   6 -15   63.09   12.20
  -7   6 -15    6.50   12.60
  -7   6 -15    7.60    6.70
   3   5 -15  113.99   16.80
  -3  -5  15  142.89   12.60
   2   5 -15   13.60    7.50
  -2  -5  15   14.10    5.20
   1   5 -15   14.90    3.60
   1   5 -15   29.60    4.60
  -1  -5  15   30.80    6.50
   0   5 -15    4.70    3.40
   0   5 -15   11.60    3.80
   0   5 -15    6.70    6.50
   0  -5  15    7.30    4.00
  -1   5 -15  115.89   15.60
  -1   5 -15  130.59   10.00
   1  -5  15  138.69    9.90
  -2   5 -15    3.10    5.30
  -2   5 -15    4.40    4.10
  -2   5 -15   12.00    5.20
   2  -5  15   14.30    4.20
  -3   5 -15   -0.80    4.40
  -3   5 -15   -3.00    4.80
  -3   5 -15    1.70    2.80
   3  -5  15    3.40    2.50
  -4   5 -15  228.88    9.80
  -4   5 -15  242.88   19.30
  -4   5 -15  222.48   15.50
   4  -5  15  242.58    9.20
  -5   5 -15   30.60    8.60
  -5   5 -15   52.59   10.40
  -6   5 -15    3.10    5.20
  -6   5 -15    1.50    5.20
  -7   5 -15   -3.30    5.40
  -8   5 -15  120.99   15.10
   8  -5  15  111.49   16.30
   4   4 -15   40.20   10.00
  -4  -4  15   68.89   10.80
   3   4 -15   11.50    7.70
  -3  -4  15    9.90    5.20
   2   4 -15    6.40    5.20
   2   4 -15    2.30    1.60
   2   4 -15    0.30    1.70
  -2  -4  15    3.70    4.10
   1   4 -15   42.10    5.30
   1   4 -15   25.20    4.50
   1   4 -15   20.60    8.00
  -1  -4  15   36.20    6.90
   0   4 -15  102.79    7.90
   0   4 -15  109.19   15.00
   0   4 -15  125.89    8.60
   0  -4  15  106.19    9.40
  -1   4 -15   51.39   10.50
  -1   4 -15   59.89    7.90
   1  -4  15   63.69    7.70
  -2   4 -15    4.20    4.30
  -2   4 -15    5.60    5.40
  -2   4 -15   -0.40    2.60
   2  -4  15    2.90    3.00
  -3   4 -15  161.98    9.10
  -3   4 -15  184.38   16.90
  -3   4 -15  197.18   13.30
   3  -4  15  187.18    9.20
  -4   4 -15   18.70    6.80
  -4   4 -15   10.50    5.50
  -4   4 -15   14.80    3.20
   4  -4  15   13.90    2.90
  -5   4 -15   14.80    7.10
  -5   4 -15   16.50    6.90
  -6   4 -15   12.20    6.30
   6  -4  15   11.40    6.40
  -7   4 -15   46.60    9.70
   7  -4  15   44.30    9.80
  -8   4 -15   -0.70    5.70
  -9   4 -15   -4.60    5.40
   9  -4  15   -2.60    5.20
   5   3 -15   10.90    6.40
  -4  -3  15    1.20    4.80
   3   3 -15    4.50    5.70
  -3  -3  15    9.10    5.30
   2   3 -15   64.79   11.40
   2   3 -15   57.79    5.00
  -2  -3  15   77.49    9.90
   1   3 -15   72.19   11.60
   1   3 -15   71.89    6.00
   1   3 -15   62.09    5.70
  -1  -3  15   59.19    8.20
   0   3 -15   23.80    5.00
   0   3 -15   23.30    7.70
   0  -3  15   16.60    5.10
  -1   3 -15   16.80    4.50
  -1   3 -15   26.50    5.70
  -1   3 -15   19.60    6.90
   1  -3  15   34.40    5.80
  -2   3 -15    9.10    3.40
  -2   3 -15    5.80    5.20
  -2   3 -15   15.90    5.50
   2  -3  15   13.40    3.80
  -3   3 -15  130.69    7.80
  -3   3 -15  150.48   11.40
  -3   3 -15  145.79   14.80
   3  -3  15  135.79    8.00
  -4   3 -15   -0.50    4.10
  -4   3 -15    0.20    1.90
  -4   3 -15    3.80    4.70
   4  -3  15    2.10    1.90
  -5   3 -15   65.19    9.70
   5  -3  15   92.99   14.60
  -6   3 -15  111.49   12.30
   6  -3  15   74.69   11.40
  -7   3 -15    8.90    5.70
   7  -3  15   -5.20    3.50
  -8   3 -15   26.40    8.80
   8  -3  15   37.50    9.50
  -9   3 -15    9.80    8.10
   9  -3  15   11.00    8.30
 -10   3 -15   74.89   12.90
  10  -3  15   41.40   10.20
   6   2 -15  131.59   17.40
  -6  -2  15  148.09   16.50
  -5  -2  15    6.00    4.90
   4   2 -15  194.68   17.00
  -4  -2  15  162.68   13.60
   3   2 -15  280.97   19.80
  -3  -2  15  265.47   16.20
   2   2 -15  180.78   16.00
   2   2 -15  171.08    7.40
   2   2 -15  168.58    7.80
  -2  -2  15  186.58   12.80
   1   2 -15    7.50    3.00
   1   2 -15   13.10    3.50
   1   2 -15   18.00    7.20
  -1  -2  15   15.20    4.90
   0   2 -15   62.69   11.20
   0   2 -15   68.99    7.30
   0  -2  15   70.19    9.80
  -1   2 -15   29.00    7.40
  -1   2 -15   47.20    6.50
  -1   2 -15   45.80    6.60
   1  -2  15   43.40    6.50
  -2   2 -15  149.39    8.70
  -2   2 -15  181.08   15.60
  -2   2 -15  178.48   11.20
   2  -2  15  152.58    9.20
  -3   2 -15  146.29    7.80
  -3   2 -15  162.58   11.40
  -3   2 -15  176.28   15.70
   3  -2  15  163.08    8.80
  -4   2 -15    5.20    2.20
  -4   2 -15    9.80    5.60
  -4   2 -15    9.00    4.90
   4  -2  15    5.10    5.40
  -5   2 -15  298.37   16.80
   5  -2  15  285.37   20.00
  -6   2 -15   74.49   10.60
   6  -2  15   53.89   11.20
  -7   2 -15   43.00    8.50
   7  -2  15   49.90   10.90
  -8   2 -15   99.59   13.20
   8  -2  15   89.59   13.00
  -9   2 -15  171.58   15.00
   9  -2  15  107.09   15.30
 -10   2 -15    1.00    5.40
  10  -2  15    2.10    6.40
   6   1 -15   -2.20    9.50
  -6  -1  15    7.30    5.60
   5   1 -15   85.29   13.20
  -5  -1  15   87.29   12.20
   4   1 -15  213.28   17.40
  -4  -1  15  221.18   15.10
   3   1 -15   96.49    4.10
   3   1 -15  106.69    4.50
   3   1 -15  123.69   15.40
  -3  -1  15  120.49   11.00
   2   1 -15    1.70    2.20
   2   1 -15    7.80    5.80
   2   1 -15    2.60    2.50
  -2  -1  15    3.20    3.80
   1   1 -15   74.99    6.50
   1   1 -15   79.39    6.40
   1   1 -15   78.59   11.20
  -1  -1  15   79.89    9.10
   0   1 -15  103.79   13.70
   0   1 -15   73.59    6.80
   0  -1  15   90.19   10.00
  -1   1 -15    5.80    3.20
  -1   1 -15    3.60    3.00
  -1   1 -15    2.30    4.60
  -1   1 -15    6.20    3.50
   1  -1  15    5.80    3.50
  -2   1 -15   -1.00    4.00
  -2   1 -15   -0.60    2.60
  -2   1 -15   -0.50    3.20
   2  -1  15    0.70    2.60
  -3   1 -15   22.10    5.70
  -3   1 -15   24.20    4.10
  -3   1 -15   19.30    7.40
   3  -1  15   20.90    4.10
  -4   1 -15  120.59   10.50
  -4   1 -15  140.69    7.20
   4  -1  15  140.49   16.50
  -5   1 -15  140.29    4.90
  -5   1 -15  132.09   11.50
  -5   1 -15  139.89    5.20
   5  -1  15  161.38   15.10
  -6   1 -15   47.90    9.20
   6  -1  15   45.00   10.10
  -7   1 -15  143.39   12.80
   7  -1  15  150.78   14.90
  -8   1 -15  179.48   14.70
   8  -1  15  164.48   16.20
  -9   1 -15   10.30    6.40
   9  -1  15    5.50    5.60
  10  -1  15   53.19   13.30
 -11   1 -15    7.40    6.70
  11  -1  15    9.30    7.30
   6   0 -15   10.30    6.40
   5   0 -15   51.19   10.90
  -5   0  15   32.30    7.90
   4   0 -15   69.59   11.50
  -4   0  15   86.59   11.50
   3   0 -15    1.50    1.80
   3   0 -15    0.20    2.00
   3   0 -15    3.90    5.10
  -3   0  15    3.70    3.80
   2   0 -15  219.98   16.30
   2   0 -15  215.08   10.20
   2   0 -15  227.78    9.60
  -2   0  15  223.48   13.90
   1   0 -15  108.29    7.80
   1   0 -15   94.49   12.10
   1   0 -15  123.59    7.70
  -1   0  15  120.99    9.90
   0   0 -15   12.00    5.40
   0   0 -15    2.60    2.90
   0   0 -15    2.90    3.10
   0   0  15   -1.30    2.60
  -1   0 -15   83.39   10.90
  -1   0 -15   72.99    6.60
  -1   0 -15  109.39    8.30
  -1   0 -15   81.29    7.40
   1   0  15   93.79    8.10
  -2   0 -15   -2.30    3.80
  -2   0 -15   -0.30    2.10
  -2   0 -15   -1.40    3.00
   2   0  15   -2.80    2.00
  -3   0 -15   44.50    7.30
  -3   0 -15   28.30    4.30
   3   0  15   32.00    4.90
   3   0  15   27.10    7.40
  -4   0 -15   87.29    6.10
  -4   0 -15   84.19    9.40
  -4   0 -15   85.79    5.40
   4   0  15   93.29   13.20
  -5   0 -15   44.40    3.50
  -5   0 -15   66.59    9.50
   5   0  15   48.00   10.30
  -6   0 -15  141.09   12.00
   6   0  15  142.29   14.10
  -7   0 -15    1.60    4.10
   7   0  15    3.30    4.40
  -8   0 -15    3.40    4.60
   8   0  15   -2.20    4.10
  -9   0 -15   58.99    9.80
   9   0  15   59.09   12.40
 -10   0 -15   22.00   12.60
 -11   0 -15    8.30    6.90
  11   0  15   -2.20    5.60
   7  -1 -15   34.60    9.50
  -7   1  15   38.60    8.90
   6  -1 -15   -2.40    4.20
  -6   1  15   10.30    5.70
   5  -1 -15    6.90    5.50
  -5   1  15    3.60    4.80
   4  -1 -15   48.90    4.10
   4  -1 -15   50.19    4.00
   4  -1 -15   47.60    9.50
  -4   1  15   57.89    9.60
   3  -1 -15  525.05   17.10
   3  -1 -15  563.54   16.30
   3  -1 -15  556.44   25.90
  -3   1  15  576.94   23.80
   2  -1 -15   45.70    5.30
   2  -1 -15   40.10    5.70
   2  -1 -15   39.00    7.90
  -2   1  15   43.20    7.50
   1  -1 -15    1.90    3.30
   1  -1 -15   -0.10    2.20
   1  -1 -15    1.30    2.50
  -1   1  15    1.00    3.10
   0  -1 -15  123.69    8.80
   0  -1 -15  110.29    8.10
   0  -1 -15  124.49   12.10
   0   1  15  138.09   10.10
  -1  -1 -15  304.77   18.20
  -1  -1 -15  284.47   13.20
  -1  -1 -15  280.57   13.70
  -1  -1 -15  270.37   12.40
   1   1  15  282.77   13.70
  -2  -1 -15   18.60    4.70
  -2  -1 -15    9.50    3.00
  -2  -1 -15    9.50    5.30
   2   1  15   17.40    4.20
  -3  -1 -15    0.60    1.90
  -3  -1 -15   -1.70    2.90
  -3  -1 -15   -0.30    2.10
   3   1  15    0.90    4.00
  -4  -1 -15  107.19    9.60
  -4  -1 -15  120.09    6.50
  -4  -1 -15  131.89    7.70
   4   1  15   86.49   11.30
  -5  -1 -15  195.38    8.40
  -5  -1 -15  177.88    7.20
  -5  -1 -15  188.48   12.70
   5   1  15  181.58   15.00
  -6  -1 -15   43.20    3.20
  -6  -1 -15   49.99    7.90
  -6  -1 -15   41.50    2.80
   6   1  15   34.20    7.60
  -7  -1 -15    4.40    4.60
   7   1  15    2.30    4.90
  -8  -1 -15  367.46   19.80
   8   1  15  393.56   23.50
  -9  -1 -15   46.50    9.60
   9   1  15   54.89   11.80
 -10  -1 -15   -1.70    4.00
  10   1  15   -2.90    5.00
 -11  -1 -15    3.20    5.20
  11   1  15    7.90    6.70
   7  -2 -15   69.59   12.50
  -7   2  15   42.70    9.60
   6  -2 -15    1.90    4.90
   6  -2 -15    2.70    1.90
  -6   2  15   21.00    7.30
   5  -2 -15   47.90    4.20
   5  -2 -15   48.50    4.20
   5  -2 -15   44.60    9.30
  -5   2  15   40.50    8.50
   4  -2 -15  603.04   18.30
   4  -2 -15  591.24   26.30
   4  -2 -15  594.44   17.40
  -4   2  15  581.34   25.40
   3  -2 -15  142.69    8.70
   3  -2 -15  159.48   13.50
   3  -2 -15  154.48    8.20
  -3   2  15  166.88   13.00
   2  -2 -15    9.30    3.40
   2  -2 -15   16.70    5.90
   2  -2 -15   13.10    4.30
  -2   2  15   14.50    5.50
   1  -2 -15  101.99    7.60
   1  -2 -15  110.09   13.10
   1  -2 -15   96.99    8.10
  -1   2  15  108.89    9.80
   0  -2 -15  112.79    8.30
   0  -2 -15  107.09    8.80
   0  -2 -15  119.59   11.40
   0   2  15  127.19   10.10
  -1  -2 -15   31.70    7.00
  -1  -2 -15   39.70    8.50
  -1  -2 -15   28.90    5.50
  -1  -2 -15   34.50    6.00
   1   2  15   33.50    5.90
  -2  -2 -15   11.40    4.30
  -2  -2 -15    5.50    4.20
  -2  -2 -15    4.10    2.40
   2   2  15    6.40    4.70
   2   2  15    9.00    3.50
  -3  -2 -15   91.99    6.50
  -3  -2 -15  103.49    8.90
  -3  -2 -15   97.29    7.70
   3   2  15   79.99   11.00
  -4  -2 -15  267.37   10.30
  -4  -2 -15  266.87   11.80
  -4  -2 -15  266.37   14.10
   4   2  15  250.37   17.10
  -5  -2 -15   40.40    6.80
  -5  -2 -15   47.10    4.30
  -5  -2 -15   37.60    4.90
   5   2  15   53.59   10.70
  -6  -2 -15    4.90    4.40
  -6  -2 -15    6.80    2.40
  -6  -2 -15    4.10    1.90
   6   2  15    3.90    4.50
  -7  -2 -15  263.57   15.90
  -7  -2 -15  244.98    9.00
   7   2  15  277.77   19.00
  -8  -2 -15  335.97   18.70
   8   2  15  359.06   22.30
  -9  -2 -15   -1.20    4.00
   9   2  15   -1.70    4.60
 -10  -2 -15    8.00    5.70
  10   2  15   10.30    7.00
 -11  -2 -15   53.59    9.70
  11   2  15   82.79   14.60
   7  -3 -15   -3.30    4.00
   7  -3 -15    1.10    2.00
   7  -3 -15    1.80    2.20
  -7   3  15   -2.30    4.00
   6  -3 -15   17.80    6.40
   6  -3 -15   19.90    3.70
   6  -3 -15   21.50    4.00
  -6   3  15   11.60    5.80
   5  -3 -15  270.67   17.30
   5  -3 -15  283.07   11.30
   5  -3 -15  258.17   11.20
  -5   3  15  283.47   18.10
   4  -3 -15   75.49    6.50
   4  -3 -15   80.89   11.40
   4  -3 -15   63.89    6.00
  -4   3  15   60.29    9.90
   3  -3 -15    2.00    3.80
   3  -3 -15    9.70    3.60
  -3   3  15    4.70    4.60
   2  -3 -15   23.20    6.60
   2  -3 -15   13.60    4.20
   2  -3 -15   23.50    4.70
  -2   3  15   15.90    5.70
   1  -3 -15  582.04   24.30
   1  -3 -15  572.04   21.10
   1  -3 -15  559.44   19.40
  -1   3  15  549.65   22.50
   0  -3 -15    1.00    2.80
   0  -3 -15   -3.90    2.30
   0  -3 -15    6.50    4.10
  -1  -3 -15    1.10    3.40
  -1  -3 -15    0.50    2.80
   1   3  15    0.70    2.80
  -2  -3 -15   45.00    5.60
  -2  -3 -15   43.80   10.00
  -2  -3 -15   36.60    6.30
   2   3  15   56.39   10.00
  -3  -3 -15   96.59    7.90
  -3  -3 -15   95.69    8.60
  -3  -3 -15   89.79    6.60
   3   3  15   72.79    9.80
  -4  -3 -15   57.49    6.90
  -4  -3 -15   49.30    5.60
  -4  -3 -15   42.60    7.10
   4   3  15   45.30    9.00
  -5  -3 -15    3.30    2.10
  -5  -3 -15    6.20    4.50
  -5  -3 -15    5.40    3.10
   5   3  15   -1.70    3.30
  -6  -3 -15   29.40    3.90
  -6  -3 -15   30.70    6.10
  -6  -3 -15   37.30    5.00
   6   3  15   23.00    6.90
  -7  -3 -15  250.27    9.70
  -7  -3 -15  246.48   15.10
  -7  -3 -15  229.88    9.00
   7   3  15  239.98   17.70
  -8  -3 -15    4.00    2.10
  -8  -3 -15   14.00    6.30
  -8  -3 -15    6.70    2.10
   8   3  15   14.20    6.10
  -9  -3 -15   -0.70    1.50
  -9  -3 -15    2.10    4.40
  -9  -3 -15    2.10    1.60
   9   3  15   -3.20    3.80
 -10  -3 -15   41.00    8.30
 -10  -3 -15   41.90    3.80
  10   3  15   40.90    9.70
 -11  -3 -15    2.50    1.70
 -11  -3 -15    1.00    5.60
  11   3  15    3.90    6.30
   7  -4 -15   22.30    7.30
  -7   4  15   16.60    4.00
  -7   4  15   36.00    9.20
   6  -4 -15   70.79    8.40
   6  -4 -15   65.59   11.00
  -6   4  15   65.49    7.00
  -6   4  15   50.89   10.20
   5  -4 -15    2.70    4.30
   5  -4 -15    3.80    2.40
  -5   4  15   -3.30    3.70
  -5   4  15   -3.50    2.20
   4  -4 -15   56.89    9.50
   4  -4 -15   53.39    7.10
  -4   4  15   58.09    7.10
  -4   4  15   54.09    9.40
   3  -4 -15   20.70    4.70
   3  -4 -15   18.00    5.80
  -3   4  15   28.10    7.30
  -3   4  15   22.80    4.90
   2  -4 -15  309.47   16.70
   2  -4 -15  290.67   14.50
  -2   4  15  295.67   13.50
  -2   4  15  312.77   17.20
   1  -4 -15    2.20    3.50
   1  -4 -15    7.60    4.10
  -1   4  15    3.20    3.70
   0  -4 -15  213.38   16.20
   0  -4 -15  227.98   12.20
   0   4  15  203.18   13.20
  -1  -4 -15  160.78   10.70
  -1  -4 -15  151.88   11.10
  -1  -4 -15  182.68   13.10
  -2  -4 -15   59.19    7.50
  -2  -4 -15   60.09    7.70
  -2  -4 -15   70.39    8.50
   2   4  15   61.89    9.90
  -3  -4 -15    8.00    3.90
  -3  -4 -15    4.10    3.20
  -3  -4 -15    5.50    2.70
   3   4  15    5.20    4.40
  -4  -4 -15  103.49    8.40
  -4  -4 -15  101.09    7.10
  -4  -4 -15  108.09    9.60
   4   4  15  110.09   13.60
  -5  -4 -15   69.79    9.70
  -5  -4 -15   55.79    5.40
  -5  -4 -15   65.69    7.50
   5   4  15   65.89   10.80
  -6  -4 -15   37.50    5.50
  -6  -4 -15   48.00    8.10
  -6  -4 -15   39.40    5.10
   6   4  15   39.00    9.10
  -7  -4 -15   71.99    9.40
  -7  -4 -15   73.89    5.90
  -7  -4 -15   88.89    6.70
   7   4  15   90.19   13.10
  -8  -4 -15   16.50    6.40
  -8  -4 -15   19.50    3.80
  -8  -4 -15   18.50    3.60
   8   4  15   23.30    8.20
  -9  -4 -15   80.89    5.80
  -9  -4 -15   93.49    6.30
  -9  -4 -15   89.29   11.90
   9   4  15   79.79   12.80
 -10  -4 -15   92.19   11.90
 -10  -4 -15   85.89    6.20
 -10  -4 -15   92.39    6.00
  10   4  15   74.19   12.50
 -11  -4 -15   39.90    4.60
 -11  -4 -15   42.40    5.30
 -11  -4 -15   51.89   10.00
  11   4  15   68.89   13.80
   7  -5 -15   39.30    8.30
  -7   5  15   27.70    5.50
  -7   5  15   27.80    8.10
   6  -5 -15   14.60    5.90
  -6   5  15   21.30    5.20
  -6   5  15   13.50    6.40
   5  -5 -15  232.38   14.90
  -5   5  15  231.58   12.50
  -5   5  15  266.27   18.10
   4  -5 -15  145.39   11.60
  -4   5  15  154.08   10.10
  -4   5  15  137.79   13.30
  -3   5  15  519.75   20.00
  -3   5  15  602.74   25.60
   2  -5 -15   66.89    9.00
  -2   5  15   63.89    9.70
  -2   5  15   85.69    9.50
   1  -5 -15  164.08   11.80
  -1   5  15  162.18   10.70
  -1   5  15  173.68   12.90
   0  -5 -15  209.28   13.30
   0  -5 -15  194.08   13.00
   0   5  15  206.48   13.80
  -1  -5 -15  372.56   20.00
  -1  -5 -15  399.76   18.70
  -1  -5 -15  373.06   16.70
   1   5  15  354.46   16.50
  -2  -5 -15  125.99   10.20
  -2  -5 -15  147.39   10.60
   2   5  15  125.39   12.70
  -3  -5 -15  358.06   17.10
  -3  -5 -15  390.76   17.30
  -3  -5 -15  357.76   16.80
   3   5  15  389.96   19.40
  -4  -5 -15   27.80    4.90
  -4  -5 -15   29.70    5.80
  -4  -5 -15   33.20    6.80
   4   5  15   50.79    9.40
  -5  -5 -15  194.48   11.40
  -5  -5 -15  197.48   13.10
  -5  -5 -15  191.08   10.30
   5   5  15  205.68   15.00
  -6  -5 -15   91.59    7.90
  -6  -5 -15   90.89    7.10
  -6  -5 -15   92.69   10.60
   6   5  15  105.89   13.90
  -7  -5 -15   91.19    7.50
  -7  -5 -15   72.79    9.40
  -7  -5 -15   80.49    6.90
   7   5  15   83.49   12.60
  -8  -5 -15   42.00    5.90
  -8  -5 -15   54.49    9.10
  -8  -5 -15   43.70    5.80
   8   5  15   56.99   10.90
  -9  -5 -15  195.88    9.90
  -9  -5 -15  160.58    9.60
  -9  -5 -15  188.28   14.40
   9   5  15  212.08   17.50
 -10  -5 -15   32.20    8.20
 -10  -5 -15   28.70    4.80
 -10  -5 -15   26.40    4.80
  10   5  15   35.30   10.10
 -11  -5 -15    1.20    2.60
 -11  -5 -15    7.60    5.60
  11   5  15   -7.30    3.60
  11   5  15    3.50    3.40
   7  -6 -15   25.60    6.90
  -7   6  15   16.30    7.00
  -7   6  15   38.50    7.10
   6  -6 -15   80.69   10.00
  -6   6  15   82.79   15.70
  -6   6  15   78.19    9.40
   5  -6 -15  180.68   12.60
  -5   6  15  179.68   15.50
  -5   6  15  162.08   11.50
   4  -6 -15  369.46   17.60
  -4   6  15  391.86   21.50
  -4   6  15  377.76   17.50
   3  -6 -15    9.00    4.30
  -3   6  15    6.60    4.00
  -3   6  15    5.40    5.00
   2  -6 -15  226.78   13.20
   2  -6 -15  208.88   14.40
  -2   6  15  235.68   13.30
  -2   6  15  220.48   15.40
   1  -6 -15  139.49   12.10
   1  -6 -15  129.19   10.10
   1  -6 -15  139.29   10.40
  -1   6  15  120.59    9.80
   0  -6 -15  171.68   12.70
   0  -6 -15  160.58   11.40
   0  -6 -15  148.39   12.10
   0   6  15  189.58   12.10
  -1  -6 -15   17.40    5.40
   1   6  15   23.80    5.90
   1   6  15   31.60    7.00
  -2  -6 -15   62.49    8.80
   2   6  15   53.09    7.40
   2   6  15   59.19    8.60
  -3  -6 -15   65.59    8.70
  -3  -6 -15   49.10    7.50
  -4  -6 -15  163.38   11.90
  -4  -6 -15  166.78   11.40
   4   6  15  155.18   12.70
  -5  -6 -15   10.20    4.70
  -5  -6 -15    1.20    3.00
   5   6  15   13.30    5.50
  -6  -6 -15  171.38   11.00
  -6  -6 -15  157.58   11.40
  -6  -6 -15  169.98   12.80
   6   6  15  155.38   13.80
  -7  -6 -15  243.18   14.50
  -7  -6 -15  301.37   16.90
  -7  -6 -15  270.57   13.50
   7   6  15  291.07   18.70
  -8  -6 -15   60.69    7.60
  -8  -6 -15   47.90    8.90
   8   6  15   41.90    9.10
  -9  -6 -15   24.30    5.00
  -9  -6 -15   18.90    6.30
   9   6  15   17.50    7.20
 -10  -6 -15   21.60    4.90
 -10  -6 -15   13.30    6.00
  10   6  15   13.50    6.80
 -11  -6 -15    5.00    5.10
  11   6  15   -3.50    4.50
   7  -7 -15   15.10    5.50
  -7   7  15   18.90    5.70
  -7   7  15   14.10    7.00
   6  -7 -15   35.90    7.30
  -6   7  15   24.10    8.50
  -6   7  15   26.20    6.30
   5  -7 -15  145.29   10.70
  -5   7  15  165.28   15.40
  -5   7  15  159.18   11.90
   4  -7 -15   29.50    5.90
   4  -7 -15   20.20    5.20
  -4   7  15   35.30    7.30
  -4   7  15   35.80    9.00
   3  -7 -15  196.78   15.40
   3  -7 -15  186.78   11.40
   3  -7 -15  167.18   10.90
  -3   7  15  160.98   12.00
  -3   7  15  168.08   14.50
   2  -7 -15  373.56   16.70
   2  -7 -15  401.46   21.30
   2  -7 -15  405.06   17.00
  -2   7  15  371.36   18.00
   1  -7 -15    8.00    3.50
   1  -7 -15   12.80    5.70
   1  -7 -15    7.30    3.70
  -1   7  15   11.20    5.10
   0  -7 -15   81.79    7.80
   0  -7 -15  112.59    9.20
   0  -7 -15  101.39   11.50
   0   7  15  107.29    9.80
  -1  -7 -15  206.18   14.10
  -1  -7 -15  185.58   11.50
   1   7  15  193.48   12.50
   1   7  15  213.38   13.30
  -2  -7 -15   11.80    4.70
   2   7  15    7.30    4.10
   2   7  15   21.30    5.80
  -3  -7 -15   99.69   11.20
   3   7  15   75.29    9.10
   3   7  15  104.29   11.90
  -4  -7 -15    5.50    3.80
  -4  -7 -15   -1.30    3.10
   4   7  15    7.30    4.30
  -5  -7 -15  155.18   13.00
  -5  -7 -15  156.18   12.30
   5   7  15  156.88   13.00
  -6  -7 -15   17.00    5.80
   6   7  15   17.70    6.40
  -7  -7 -15    5.30    4.80
  -7  -7 -15    3.10    3.60
   7   7  15   10.90    6.00
  -8  -7 -15   60.19    7.90
  -8  -7 -15   64.59    9.80
   8   7  15   52.99    9.80
  -9  -7 -15  125.69   14.00
  -9  -7 -15  126.59    9.90
   9   7  15  142.69   17.90
 -10  -7 -15    4.60    3.80
  10   7  15    5.00    5.80
 -11  -7 -15    6.60    6.00
 -11  -7 -15    7.40    4.10
  11   7  15   -1.80    5.10
   6  -8 -15    4.90    3.60
   6  -8 -15    5.60    3.50
  -6   8  15   15.50    6.50
  -6   8  15    4.40    4.60
   5  -8 -15   -0.90    4.70
   5  -8 -15    4.60    3.20
   5  -8 -15    7.10    3.70
  -5   8  15    5.80    5.10
  -5   8  15    5.10    5.00
   4  -8 -15  509.45   26.20
   4  -8 -15  477.35   18.20
  -4   8  15  527.35   23.00
   3  -8 -15  208.78   11.30
   3  -8 -15  214.98   12.00
   3  -8 -15  219.68   16.80
  -3   8  15  240.58   15.10
   2  -8 -15    5.20    3.00
   2  -8 -15    0.90    4.30
   2  -8 -15    3.20    2.80
  -2   8  15    2.00    3.80
   1  -8 -15    6.20    4.40
   1  -8 -15    6.80    3.50
  -1   8  15    8.70    4.50
   0  -8 -15  345.47   15.40
   0  -8 -15  392.16   16.60
   0  -8 -15  383.46   20.40
   0   8  15  359.26   18.40
  -1  -8 -15  133.39   14.60
  -1  -8 -15  101.39    8.30
   1   8  15  115.79   10.70
   1   8  15  124.39    9.80
  -2  -8 -15    7.30    4.80
  -2  -8 -15   13.50    4.10
   2   8  15   15.20    5.10
   2   8  15   12.00    4.80
  -3  -8 -15   44.20    8.00
   3   8  15   57.79    9.30
   3   8  15   42.20    7.60
  -4  -8 -15  148.89   12.00
   4   8  15  162.48   12.40
   4   8  15  149.19   12.10
  -5  -8 -15    5.30    3.90
  -5  -8 -15   13.00    5.20
   5   8  15    9.10    5.00
  -6  -8 -15   98.49   11.50
  -6  -8 -15  114.39   10.40
   6   8  15   99.39   13.30
  -7  -8 -15  319.37   18.30
  -7  -8 -15  340.47   16.90
   7   8  15  294.77   19.30
  -8  -8 -15  349.07   17.10
  -8  -8 -15  346.07   19.50
   8   8  15  310.67   20.40
  -9  -8 -15   10.10    4.50
  -9  -8 -15   13.00    6.00
   9   8  15    7.00    6.00
 -10  -8 -15   16.70    6.70
 -10  -8 -15   18.90    5.30
  10   8  15   13.40    8.20
   6  -9 -15   18.00    7.00
   6  -9 -15   12.00    3.60
  -6   9  15    9.60    5.40
   5  -9 -15  217.78   10.90
   5  -9 -15  251.77   29.40
   5  -9 -15  244.38   10.90
  -5   9  15  248.98   16.50
   4  -9 -15  140.09    8.30
   4  -9 -15  174.78   16.00
   4  -9 -15  151.88    8.60
  -4   9  15  173.98   13.80
   3  -9 -15  106.39    7.30
   3  -9 -15  120.69    7.60
   3  -9 -15  138.19   17.10
  -3   9  15  108.89   13.20
   2  -9 -15    4.50    2.80
   2  -9 -15    3.70    2.70
   2  -9 -15    3.80    4.90
  -2   9  15    4.70    4.30
   1  -9 -15  438.46   16.40
   1  -9 -15  467.35   17.00
   1  -9 -15  473.15   23.90
  -1   9  15  459.45   22.00
   0  -9 -15  182.98   10.30
   0  -9 -15  219.78   11.60
   0  -9 -15  211.18   15.70
   0   9  15  197.08   14.10
  -1  -9 -15    7.60    3.30
  -1  -9 -15   11.20    4.80
   1   9  15   -1.90    3.30
   1   9  15    4.10    3.10
  -2  -9 -15  213.98   14.90
  -2  -9 -15  154.98   10.30
   2   9  15  147.89   10.90
   2   9  15  179.68   13.30
  -3  -9 -15  424.26   21.10
   3   9  15  417.76   19.00
   3   9  15  379.16   19.70
  -4  -9 -15    2.80    4.30
   4   9  15    3.00    3.90
   4   9  15    3.60    4.30
  -5  -9 -15    8.20    4.30
   5   9  15    4.60    4.30
   5   9  15    9.20    5.20
  -6  -9 -15  140.49   11.90
  -6  -9 -15  128.39   12.30
   6   9  15  124.79   12.30
  -7  -9 -15  110.39   10.70
  -7  -9 -15  111.79   12.90
   7   9  15  125.39   15.20
  -8  -9 -15   26.10    6.50
  -8  -9 -15   34.30    8.20
   8   9  15   48.10    9.50
  -9  -9 -15   14.40   10.40
 -10  -9 -15   -6.20    3.80
 -10  -9 -15    3.20    4.10
  10   9  15   10.40    8.40
   5 -10 -15   45.70   10.50
   5 -10 -15   38.50    4.70
  -5  10  15   51.29   10.20
   4 -10 -15    7.30    6.60
  -4  10  15    4.90    5.20
   3 -10 -15    4.00    2.10
   3 -10 -15   13.50    6.70
   3 -10 -15    4.00    2.10
  -3  10  15    5.20    5.00
   2 -10 -15  141.79   16.60
   2 -10 -15  119.39    6.70
   2 -10 -15  119.69    6.70
  -2  10  15  125.99   14.20
   1 -10 -15  375.46   13.60
   1 -10 -15  376.26   13.80
   1 -10 -15  355.86   21.70
  -1  10  15  388.96   20.80
   0 -10 -15  112.49    7.90
   0 -10 -15  107.09    7.40
   0 -10 -15  117.49   14.60
   0  10  15  124.29   11.90
  -1 -10 -15    4.00    4.60
  -1 -10 -15   14.80    4.10
   1  10  15    8.00    5.30
   1  10  15    5.00    3.50
  -2 -10 -15  225.18   12.10
  -2 -10 -15  229.38   16.30
   2  10  15  212.68   12.50
  -3 -10 -15   63.19    9.60
   3  10  15   76.29    9.90
   3  10  15   91.79    8.90
  -4 -10 -15   81.59   10.80
   4  10  15   99.19   12.60
  -5 -10 -15   41.00    7.90
   5  10  15   41.60    8.30
   5  10  15   47.30    8.70
  -6 -10 -15   20.80    6.50
  -6 -10 -15   15.20    5.60
   6  10  15   14.30    6.20
  -7 -10 -15   -1.70    3.40
  -7 -10 -15   -1.00    3.40
   7  10  15   -2.10    3.90
  -8 -10 -15    5.30    4.60
  -8 -10 -15    2.70    6.00
   8  10  15   -2.10    4.40
  -9 -10 -15    3.00    5.00
  -9 -10 -15    3.70    4.20
   9  10  15    5.60    5.80
   5 -11 -15   40.00   10.50
  -5  11  15   34.70    8.70
   4 -11 -15   61.49   12.50
  -4  11  15   60.69   10.60
   3 -11 -15  109.19   20.20
  -3  11  15   78.59   11.50
   2 -11 -15   61.79   10.70
  -2  11  15   85.19   12.50
   1 -11 -15   31.30    8.70
   1 -11 -15   33.40    4.50
   1 -11 -15   30.30    3.70
  -1  11  15   40.60    9.10
   0 -11 -15  156.98   14.90
   0 -11 -15  126.49    7.40
   0 -11 -15  135.99    7.80
   0  11  15  115.09   13.20
  -1 -11 -15  188.58   10.00
  -1 -11 -15  178.98   15.50
   1  11  15  193.88   15.10
  -2 -11 -15    3.90    3.00
  -2 -11 -15    0.30    3.90
   2  11  15    3.90    3.30
   2  11  15    1.00    4.60
  -3 -11 -15  138.29   11.40
  -3 -11 -15  154.78   14.00
   3  11  15  139.79   10.60
   3  11  15  135.39   12.70
  -4 -11 -15   18.50    6.00
   4  11  15   32.80    8.40
  -5 -11 -15   32.10    7.50
   5  11  15   32.80    7.60
   5  11  15   28.90    7.10
  -6 -11 -15   18.40    6.30
   6  11  15   11.40    6.20
   6  11  15   25.80    7.40
  -7 -11 -15   26.20    7.40
   7  11  15   28.10    7.80
  -8 -11 -15   47.60    9.40
  -8 -11 -15   49.20    9.70
   8  11  15   60.09   11.10
   4 -12 -15  217.38   19.30
   3 -12 -15   87.29   13.50
  -3  12  15   94.89   13.00
   2 -12 -15  103.59   18.10
  -2  12  15   95.79   13.70
   1 -12 -15   38.00    9.30
  -1  12  15   40.10    8.90
   0 -12 -15  135.69    6.60
   0 -12 -15  131.59   15.30
   0  12  15  152.48   14.40
  -1 -12 -15   38.30    9.80
  -1 -12 -15   23.70    4.40
   1  12  15   33.50    8.30
  -2 -12 -15  213.08   17.00
  -2 -12 -15  201.68   11.90
   2  12  15  200.38   15.70
   2  12  15  187.78   11.00
  -3 -12 -15   47.20    8.90
  -3 -12 -15   33.70    6.30
   3  12  15   53.19    7.80
   3  12  15   49.30    9.60
  -4 -12 -15   61.19   11.40
   4  12  15   69.99   11.40
  -5 -12 -15    0.80    4.10
   5  12  15   -1.70    3.50
   5  12  15    4.30    5.90
  -6 -12 -15  227.98   16.80
   6  12  15  226.98   16.60
   6  12  15  246.88   16.50
  -7 -12 -15   27.80    7.50
  -7 -12 -15   47.30    9.80
   7  12  15   50.29   10.10
   2 -13 -15   35.00    9.40
  -2  13  15   52.29   10.40
   1 -13 -15   79.29   15.10
  -1  13  15   70.29   12.80
   0 -13 -15   51.99   11.20
   0  13  15   35.30   11.10
  -1 -13 -15  107.49    6.30
  -1 -13 -15   96.89    6.00
   1  13  15  168.78   25.00
  -2 -13 -15   86.79   15.60
  -2 -13 -15   99.59    7.60
   2  13  15  111.49    8.00
   2  13  15  134.89   20.30
  -3 -13 -15   15.20    6.90
  -3 -13 -15    3.70    3.60
   3  13  15    7.20    4.80
   3  13  15   11.50    4.30
  -4 -13 -15    8.90    6.70
   4  13  15   -0.60    3.60
   4  13  15    4.00    4.50
   5  13  15  113.39   10.90
   5  13  15  102.39   12.70
  -6 -13 -15   79.49   12.40
   6  13  15   61.69   10.20
   6  13  15   66.29   11.90
   0 -14 -15  109.49   14.50
   0  14  15  145.49   18.00
  -1 -14 -15   45.10    9.30
   1  14  15   47.20   10.00
  -2 -14 -15    8.70    6.50
   2  14  15   14.30    3.70
   2  14  15    8.90    6.00
  -3 -14 -15    3.40    4.80
   3  14  15    0.10    4.20
   3  14  15   -0.40    2.70
  -1   6 -16   -2.00    5.40
  -1   6 -16    9.10    4.20
   1  -6  16   -0.60    3.00
  -2   6 -16    5.10    4.30
  -2   6 -16    4.20    6.20
  -3   6 -16   12.50    5.80
  -3   6 -16   10.50    7.50
   3  -6  16    7.70    3.00
  -4   6 -16    9.70    5.50
  -4   6 -16    9.80    7.00
   4  -6  16   10.20    2.90
  -5   6 -16   28.50    9.00
  -5   6 -16   20.70    7.50
   1   5 -16   19.40    3.80
   1   5 -16    8.70    6.00
  -1  -5  16   28.90    6.90
   0   5 -16   26.50    9.00
   0   5 -16   13.30    4.00
   0   5 -16    8.00    4.00
   0  -5  16    7.60    4.20
  -1   5 -16   61.29    9.80
  -1   5 -16   48.70   10.20
   1  -5  16   53.89    7.20
  -2   5 -16    9.00    5.00
  -2   5 -16    9.60    8.00
   2  -5  16    1.00    2.60
  -3   5 -16   -0.90    2.70
  -3   5 -16    2.20    4.80
   3  -5  16    2.30    2.60
  -4   5 -16   65.69   14.30
  -4   5 -16   76.29    6.10
  -4   5 -16   82.59   11.10
   4  -5  16   86.89    5.70
  -5   5 -16    0.50    5.20
  -5   5 -16   -1.50    5.00
  -6   5 -16    0.90    5.80
  -6   5 -16   -4.10    5.20
  -7   5 -16    5.50    6.30
  -7   5 -16    2.70    8.20
   7  -5  16   13.70    8.00
   3   4 -16   25.10    9.30
  -3  -4  16   21.60    6.50
   2   4 -16   -0.80    4.90
  -2  -4  16    4.90    4.60
   1   4 -16   78.99    6.10
   1   4 -16   58.79    6.30
   1   4 -16   87.59   15.80
  -1  -4  16   60.39    8.70
   0   4 -16  320.07   13.70
   0   4 -16  304.97   21.90
   0   4 -16  238.88   12.10
   0  -4  16  294.37   15.00
  -1   4 -16  168.58   16.80
  -1   4 -16  150.88   10.80
   1  -4  16  167.58   10.60
  -2   4 -16   17.60    5.90
  -2   4 -16   30.90   10.10
   2  -4  16   28.50    5.00
  -3   4 -16   53.29    8.10
  -3   4 -16   82.89   10.80
  -3   4 -16   51.49   10.30
   3  -4  16   74.99    6.50
  -4   4 -16   33.70    9.80
  -4   4 -16   35.90    7.80
  -4   4 -16   38.00    4.60
   4  -4  16   47.10    4.80
  -5   4 -16   85.79   13.60
  -5   4 -16   94.79   13.00
  -6   4 -16   54.29   10.00
  -6   4 -16   60.59   13.10
   6  -4  16   82.09   22.30
  -7   4 -16   55.99   10.50
   7  -4  16   77.29   14.70
  -8   4 -16   11.90    8.00
   8  -4  16   27.60    9.60
   4   3 -16   29.10    9.40
  -4  -3  16   12.60    6.00
   3   3 -16    1.70    5.50
  -3  -3  16    5.80    4.90
   2   3 -16  122.09   16.70
  -2  -3  16  127.29   11.40
   1   3 -16  174.38    9.20
   1   3 -16  200.48   17.40
   1   3 -16  181.28    9.00
  -1  -3  16  162.58   12.20
   0   3 -16   57.89   10.70
   0   3 -16   73.19    8.10
   0   3 -16   63.69    7.30
   0  -3  16   89.09    9.70
  -1   3 -16   24.80    5.70
  -1   3 -16   32.90    9.50
   1  -3  16   34.40    7.00
  -2   3 -16   -1.00    3.00
  -2   3 -16    0.40    4.50
  -2   3 -16    4.00    4.10
   2  -3  16   -1.50    2.50
  -3   3 -16    7.80    6.10
  -3   3 -16    5.30    4.50
  -3   3 -16   -0.50    2.50
   3  -3  16    3.80    2.80
  -4   3 -16   58.39    8.80
  -4   3 -16   64.29   10.70
  -4   3 -16   47.80    4.90
   4  -3  16   61.59    5.00
  -5   3 -16  178.98   16.80
  -5   3 -16  148.59   12.90
  -6   3 -16  152.88   13.50
   6  -3  16  145.79   19.10
  -7   3 -16    2.30    5.50
   7  -3  16   -3.70    4.30
  -8   3 -16    1.30    6.00
   8  -3  16    8.70    6.60
  -9   3 -16    2.10    6.00
   9  -3  16   -0.60    5.10
   5   2 -16    9.60    6.70
  -5  -2  16   36.70    8.30
   4   2 -16   19.60    8.40
  -4  -2  16   23.70    7.00
   3   2 -16  163.38   16.30
  -3  -2  16  166.58   13.20
   2   2 -16  209.08    8.30
   2   2 -16  218.98    8.90
   2   2 -16  229.78   18.30
  -2  -2  16  218.48   14.10
   1   2 -16    0.70    4.90
   1   2 -16   11.00    3.70
   1   2 -16   12.10    3.70
  -1  -2  16    6.40    4.30
   0   2 -16    4.10    5.10
   0   2 -16    9.30    4.00
   0   2 -16   12.20    4.00
   0  -2  16    5.50    3.90
  -1   2 -16   21.00    7.10
  -1   2 -16   12.00    4.50
   1  -2  16   13.00    4.30
  -2   2 -16   44.60    5.90
  -2   2 -16   39.60    9.70
  -2   2 -16   51.29    7.50
   2  -2  16   47.60    6.40
  -3   2 -16  213.58   10.00
  -3   2 -16  250.07   14.20
  -3   2 -16  246.18   18.90
   3  -2  16  240.18   10.90
  -4   2 -16    1.30    5.00
  -4   2 -16    1.20    2.10
  -4   2 -16    4.50    4.80
  -5   2 -16   70.29   10.10
  -5   2 -16   68.89    2.50
  -5   2 -16   71.59    2.50
   5  -2  16   56.99   11.10
  -6   2 -16    9.60    5.90
   6  -2  16    8.50    6.20
  -7   2 -16   12.00    6.30
   7  -2  16   12.40    6.80
  -8   2 -16   19.20    7.40
   8  -2  16   33.00   10.00
  -9   2 -16   58.39   10.70
   9  -2  16   66.09   12.50
   5   1 -16    0.10    5.80
  -5  -1  16    1.90    6.30
   4   1 -16  176.88   16.60
  -4  -1  16  197.58   14.80
   3   1 -16   78.89    3.40
   3   1 -16   74.69    3.10
   3   1 -16   90.99   14.20
  -3  -1  16   97.69   11.60
   2   1 -16    4.20    2.60
   2   1 -16    3.60    2.60
   2   1 -16    7.20    6.00
  -2  -1  16    4.10    4.30
   1   1 -16   52.29    9.70
   1   1 -16   63.99    6.00
   1   1 -16   47.30    6.10
  -1  -1  16   71.39    9.30
   0   1 -16  286.17   19.60
   0   1 -16  255.87   12.80
   0   1 -16  289.77   13.00
   0  -1  16  299.27   14.90
  -1   1 -16  108.89   14.90
  -1   1 -16  106.09    8.70
   1  -1  16   97.09    8.60
  -2   1 -16    6.20    5.60
  -2   1 -16    1.70    2.80
   2  -1  16    2.40    2.70
  -3   1 -16   15.90    5.60
  -3   1 -16   26.60    8.30
  -3   1 -16   16.90    3.60
   3  -1  16   20.30    4.20
  -4   1 -16   10.40    4.50
  -4   1 -16    7.80    2.40
  -4   1 -16   10.80    3.00
   4  -1  16   -2.50    4.70
  -5   1 -16   25.20    6.50
  -5   1 -16   31.80    3.10
  -5   1 -16   25.70    3.10
   5  -1  16   25.70    8.20
  -6   1 -16   83.69   10.50
   6  -1  16   67.89   11.20
  -7   1 -16  103.09   13.40
   7  -1  16   74.39   11.90
  -8   1 -16  164.88   14.60
   8  -1  16  175.08   16.90
  -9   1 -16   -4.80    4.80
   9  -1  16   -1.50    5.20
 -10   1 -16   40.90   10.40
  10  -1  16   51.59   11.60
   6   0 -16   13.90    7.00
  -6   0  16   10.50    5.50
   5   0 -16   46.80   11.00
  -5   0  16   40.60    8.50
   4   0 -16  192.78   16.60
  -4   0  16  171.88   14.10
   3   0 -16    0.50    1.80
   3   0 -16    2.00    5.20
   3   0 -16    0.50    1.80
  -3   0  16    1.70    3.90
   2   0 -16   67.29    6.30
   2   0 -16  106.59   14.50
   2   0 -16   81.09    6.30
  -2   0  16   81.99   10.30
   1   0 -16  405.16   22.50
   1   0 -16  413.56   14.80
   1   0 -16  365.36   15.20
  -1   0  16  348.17   17.50
   0   0 -16  261.17   12.50
   0   0 -16  293.77   19.10
   0   0 -16  292.17   13.70
   0   0  16  258.67   14.20
  -1   0 -16   10.90    4.40
  -1   0 -16    5.20    5.10
   1   0  16    8.80    4.10
  -2   0 -16   53.09   10.90
  -2   0 -16   32.40    5.10
   2   0  16   41.70    6.40
  -3   0 -16   46.20    7.30
  -3   0 -16   49.70   10.10
  -3   0 -16   41.80    5.00
   3   0  16   48.00    6.10
  -4   0 -16   22.30    4.00
  -4   0 -16   21.40    3.50
  -4   0 -16   25.00    6.40
   4   0  16   29.60    7.80
  -5   0 -16  456.65   12.80
  -5   0 -16  536.35   22.00
  -5   0 -16  491.05   14.10
   5   0  16  425.26   24.60
  -6   0 -16  218.58   14.70
   6   0  16  204.68   17.50
  -7   0 -16   13.90    6.40
   7   0  16    6.30    5.40
  -8   0 -16   -0.60    4.10
   8   0  16    0.60    5.20
  -9   0 -16   65.09   10.80
   9   0  16   76.09   14.50
 -10   0 -16   18.70    7.80
  10   0  16   16.00    8.10
   6  -1 -16   69.59   12.00
  -6   1  16   62.59   10.40
   5  -1 -16   67.79   11.80
  -5   1  16   46.80    9.60
   4  -1 -16    1.10    4.40
   4  -1 -16   -1.10    1.50
   4  -1 -16    4.30    1.80
  -4   1  16    2.10    4.20
   3  -1 -16  263.57   18.20
   3  -1 -16  244.18   10.00
   3  -1 -16  240.38   10.60
  -3   1  16  268.67   16.40
   2  -1 -16  157.38    9.50
   2  -1 -16  184.88   15.10
   2  -1 -16  183.18    9.20
  -2   1  16  186.18   13.30
   1  -1 -16  239.88   11.30
   1  -1 -16  226.88   12.00
   1  -1 -16  240.48   16.90
  -1   1  16  237.48   14.30
   0  -1 -16   41.50    6.50
   0  -1 -16   49.60    6.60
   0  -1 -16   37.30    8.60
   0   1  16   39.20    7.00
  -1  -1 -16    7.10    3.90
  -1  -1 -16   17.10    7.00
   1   1  16    3.30    3.30
  -2  -1 -16    4.90    4.30
  -2  -1 -16    6.40    4.30
  -2  -1 -16    2.10    2.60
   2   1  16    0.60    2.60
  -3  -1 -16  114.09    8.30
  -3  -1 -16  126.99   10.20
  -3  -1 -16  131.99    8.80
   3   1  16  134.89   16.30
  -4  -1 -16  311.77   12.80
  -4  -1 -16  318.97   16.20
  -4  -1 -16  301.47   11.30
   4   1  16  328.77   20.40
  -5  -1 -16  184.38    7.50
  -5  -1 -16  177.78    8.50
  -5  -1 -16  187.18   13.00
   5   1  16  172.78   15.40
  -6  -1 -16   40.80    3.80
  -6  -1 -16   46.80    3.50
  -6  -1 -16   53.89    8.60
   6   1  16   30.40    8.20
  -7  -1 -16    8.40    5.10
   7   1  16    4.70    5.20
  -8  -1 -16  188.28   15.10
   8   1  16  200.28   17.50
  -9  -1 -16   14.60    6.70
   9   1  16   16.70    8.00
 -10  -1 -16    1.80    4.80
  10   1  16    7.40    6.90
 -11  -1 -16   27.40    9.00
  11   1  16   11.20    7.30
   6  -2 -16   79.69   13.00
  -6   2  16   58.49   10.00
   5  -2 -16    0.70    1.90
   5  -2 -16   -1.90    4.30
   5  -2 -16    4.20    1.90
  -5   2  16    2.50    4.70
   4  -2 -16  231.28   16.60
   4  -2 -16  196.48    9.40
   4  -2 -16  204.58    8.90
  -4   2  16  215.08   15.60
   3  -2 -16   75.29   11.70
   3  -2 -16   64.39    7.20
   3  -2 -16   66.29    5.80
  -3   2  16   49.80    9.00
   2  -2 -16   35.80    8.20
   2  -2 -16   45.80    5.80
  -2   2  16   34.50    7.60
   1  -2 -16   76.89    8.60
   1  -2 -16   63.09   10.10
   1  -2 -16   74.09    6.90
  -1   2  16   84.99   10.60
   0  -2 -16   42.10    6.50
   0  -2 -16   46.50    7.30
   0  -2 -16   38.80    8.40
   0   2  16   42.40    7.30
  -1  -2 -16   81.79    8.60
  -1  -2 -16   96.79   12.80
   1   2  16   88.99    9.90
  -2  -2 -16   17.00    3.90
  -2  -2 -16   11.40    5.90
  -2  -2 -16   15.50    4.90
   2   2  16   13.40    4.20
  -3  -2 -16  165.28   11.10
  -3  -2 -16  152.18    9.80
  -3  -2 -16  147.69    8.40
   3   2  16  163.28   14.10
  -4  -2 -16   44.20    6.00
  -4  -2 -16   49.20    5.30
  -4  -2 -16   58.39    8.60
   4   2  16   28.90    7.60
  -5  -2 -16   22.80    3.60
  -5  -2 -16   23.10    4.40
  -5  -2 -16   23.80    6.20
   5   2  16   24.50    8.00
  -6  -2 -16    3.90    4.20
  -6  -2 -16    1.70    1.70
  -6  -2 -16   -0.20    2.00
   6   2  16   -0.50    4.20
  -7  -2 -16  329.57   10.00
  -7  -2 -16  374.76   19.20
   7   2  16  325.87   21.30
  -8  -2 -16  110.89   13.30
   8   2  16   96.79   13.20
  -9  -2 -16   -0.90    4.30
   9   2  16   -4.80    3.80
 -10  -2 -16    8.10    6.80
  10   2  16    9.20    6.70
 -11  -2 -16  191.78   16.70
  11   2  16  145.89   19.40
   6  -3 -16    1.20    2.60
   6  -3 -16    8.30    5.70
   6  -3 -16    6.70    2.50
  -6   3  16    4.80    5.40
   5  -3 -16  236.98   10.10
   5  -3 -16  261.47   17.60
   5  -3 -16  223.28   10.30
  -5   3  16  251.57   17.50
   4  -3 -16   40.70    5.90
   4  -3 -16   52.79    9.80
   4  -3 -16   45.00    5.70
  -4   3  16   31.50    7.40
   3  -3 -16    3.70    5.00
   3  -3 -16    6.20    3.20
   3  -3 -16    2.00    2.90
  -3   3  16    5.40    4.50
   2  -3 -16   24.20    6.70
   2  -3 -16   27.60    5.20
   2  -3 -16   32.80    6.20
  -2   3  16   24.60    6.60
   1  -3 -16  401.66   17.80
   1  -3 -16  423.26   16.50
   1  -3 -16  464.15   22.00
  -1   3  16  407.86   19.70
   0  -3 -16  224.98   12.00
   0  -3 -16  230.78   15.70
   0   3  16  208.08   13.30
  -1  -3 -16  303.37   18.10
   1   3  16  290.97   15.40
  -2  -3 -16    5.90    3.50
  -2  -3 -16    9.80    4.00
  -2  -3 -16    3.00    4.20
   2   3  16    0.90    4.00
  -3  -3 -16    7.10    3.50
  -3  -3 -16    8.60    2.90
  -3  -3 -16    8.70    4.30
   3   3  16    9.30    4.70
  -4  -3 -16  219.38   11.60
  -4  -3 -16  187.98   12.60
   4   3  16  213.18   16.10
  -5  -3 -16  298.17   16.00
  -5  -3 -16  304.97   11.50
  -5  -3 -16  309.17   13.20
   5   3  16  288.47   18.70
  -6  -3 -16  183.18    9.20
  -6  -3 -16  201.08   13.70
  -6  -3 -16  169.18    7.90
   6   3  16  158.48   15.00
  -7  -3 -16  197.78    8.70
  -7  -3 -16  195.18    8.10
  -7  -3 -16  231.38   15.10
   7   3  16  223.08   17.60
  -8  -3 -16    6.30    2.20
  -8  -3 -16    7.20    2.00
  -8  -3 -16    0.10    4.30
   8   3  16   20.40    8.10
  -9  -3 -16    8.50    5.50
  -9  -3 -16    3.50    2.60
   9   3  16   -1.40    5.20
 -10  -3 -16  120.49   16.60
 -11  -3 -16    1.40    5.60
  11   3  16   -2.60    4.60
   6  -4 -16   96.89   12.60
   6  -4 -16  120.99   14.40
  -6   4  16  151.28   17.30
  -6   4  16  101.59    7.30
   5  -4 -16   18.30    4.10
   5  -4 -16   25.10    7.10
  -5   4  16   23.40    4.70
  -5   4  16   19.30    6.80
   4  -4 -16    9.60    5.60
   4  -4 -16   12.10    3.70
  -4   4  16    7.30    5.20
  -4   4  16   11.10    3.90
   3  -4 -16   28.00    7.00
   3  -4 -16   38.50    6.40
  -3   4  16   25.20    6.60
   2  -4 -16  293.27   13.70
   2  -4 -16  274.77   16.60
  -2   4  16  310.27   17.70
   1  -4 -16  248.38   15.60
   1  -4 -16  246.28   12.80
  -1   4  16  233.08   15.00
   0  -4 -16  181.28   13.50
   0   4  16  160.28   12.20
  -1  -4 -16    0.50    3.10
  -1  -4 -16    1.70    3.20
  -1  -4 -16    3.10    3.50
  -2  -4 -16   -0.40    2.80
  -2  -4 -16    3.60    3.40
   2   4  16   -1.10    3.60
  -3  -4 -16   62.89    6.10
  -3  -4 -16   62.79    8.20
  -3  -4 -16   53.29    8.30
   3   4  16   62.19   10.50
  -4  -4 -16  545.75   18.60
  -4  -4 -16  551.54   20.70
  -4  -4 -16  579.54   22.70
   4   4  16  605.64   26.60
  -5  -4 -16  532.55   19.60
  -5  -4 -16  547.35   22.70
  -5  -4 -16  571.84   20.00
   5   4  16  560.34   26.20
  -6  -4 -16  100.59    7.70
  -6  -4 -16  109.59   12.50
  -6  -4 -16   95.99    6.60
   6   4  16  109.99   14.50
  -7  -4 -16   27.30    4.70
  -7  -4 -16   36.10    4.80
  -7  -4 -16   26.90    6.70
   7   4  16   29.20    8.60
  -8  -4 -16    4.30    4.50
  -8  -4 -16    5.70    2.40
  -8  -4 -16    7.60    2.70
   8   4  16   10.60    6.60
  -9  -4 -16  110.19   12.60
  -9  -4 -16  126.19    6.70
  -9  -4 -16  126.49    6.90
   9   4  16  147.29   18.50
 -10  -4 -16   37.80    4.20
 -10  -4 -16   36.90    4.40
 -10  -4 -16   31.40    9.10
 -11  -4 -16   61.39   10.90
 -11  -4 -16   46.40    4.30
  11   4  16   70.29   13.90
   6  -5 -16   69.19   10.70
  -6   5  16   81.29   13.00
  -6   5  16   65.59    7.60
   5  -5 -16   18.40    6.00
  -5   5  16   13.60    4.20
  -5   5  16   22.30    7.90
   4  -5 -16   32.90    7.70
  -4   5  16   29.50    7.80
  -4   5  16   31.30    5.90
   3  -5 -16  251.07   15.50
  -3   5  16  251.97   13.10
  -3   5  16  226.48   16.00
   2  -5 -16   90.39   10.80
  -2   5  16   89.29   11.10
  -2   5  16   77.49    8.80
   1  -5 -16   12.90    5.10
  -1   5  16   17.90    6.20
  -1   5  16   16.20    5.70
   0  -5 -16   -0.20    3.10
   0  -5 -16    0.20    3.20
   0  -5 -16   -2.50    2.90
  -1  -5 -16  253.57   14.80
  -1  -5 -16  223.78   13.20
  -1  -5 -16  212.38   14.50
  -2  -5 -16   59.59   10.00
  -2  -5 -16   48.70    7.90
   2   5  16   67.09   10.50
  -3  -5 -16  346.07   16.70
  -3  -5 -16  351.16   17.00
   3   5  16  358.16   19.20
  -4  -5 -16  190.28   11.90
  -4  -5 -16  187.18   12.70
  -4  -5 -16  185.98   11.70
   4   5  16  215.88   15.20
  -5  -5 -16  109.79    7.90
  -5  -5 -16  121.69    9.40
  -5  -5 -16  109.19   10.50
   5   5  16  123.69   12.50
  -6  -5 -16  204.08   11.40
  -6  -5 -16  199.08   14.00
  -6  -5 -16  187.38   10.20
   6   5  16  216.18   16.50
  -7  -5 -16   43.60    8.30
  -7  -5 -16   58.09    6.50
  -7  -5 -16   44.80    6.10
   7   5  16   40.90    9.50
  -8  -5 -16   59.69    6.70
  -8  -5 -16   46.20    5.90
  -8  -5 -16   53.09    9.70
   8   5  16   50.49   10.60
  -9  -5 -16  132.29    8.10
  -9  -5 -16  132.39   12.60
  -9  -5 -16  102.99    8.40
   9   5  16  114.99   15.00
 -10  -5 -16   69.79   12.00
 -10  -5 -16   67.69    6.10
 -11  -5 -16   41.20    9.50
 -11  -5 -16   38.70    5.10
  11   5  16   45.10   11.70
   6  -6 -16   -3.10    3.50
  -6   6  16   -4.90    3.60
  -6   6  16   -3.40    2.70
   5  -6 -16   26.10    6.70
  -5   6  16   38.90    8.90
  -5   6  16   21.50    5.60
   4  -6 -16  284.67   16.00
  -4   6  16  267.37   14.50
  -4   6  16  276.07   18.60
   3  -6 -16    1.00    3.20
  -3   6  16    0.80    4.10
  -3   6  16    3.00    3.40
   2  -6 -16   99.59   12.60
  -2   6  16   94.29   10.30
  -2   6  16  109.59   13.80
   1  -6 -16   55.29    9.20
   1  -6 -16   70.29    9.30
  -1   6  16   56.29    8.00
   0  -6 -16  416.96   20.40
   0  -6 -16  371.86   21.10
   0   6  16  382.26   17.80
  -1  -6 -16   82.29   10.90
   1   6  16   68.49    9.20
  -2  -6 -16   14.80    5.20
  -2  -6 -16    5.00    3.80
   2   6  16    8.30    4.60
  -3  -6 -16    4.20    3.70
  -3  -6 -16    4.40    3.40
   3   6  16    3.10    4.00
  -4  -6 -16   20.50    5.30
  -4  -6 -16   22.00    6.00
   4   6  16   21.80    6.60
  -5  -6 -16  218.28   14.40
  -5  -6 -16  237.58   13.50
   5   6  16  227.18   16.10
  -6  -6 -16  200.58   12.10
  -6  -6 -16  198.38   14.10
   6   6  16  188.68   15.30
  -7  -6 -16  268.47   13.50
  -7  -6 -16  259.77   16.40
   7   6  16  274.37   18.90
  -8  -6 -16   69.09   10.70
  -8  -6 -16   73.89    8.20
   8   6  16   64.49   11.90
  -9  -6 -16   92.89    8.00
  -9  -6 -16  109.79   13.60
   9   6  16  103.79   14.60
 -10  -6 -16   43.60    9.00
 -10  -6 -16   56.59    6.80
 -11  -6 -16   31.80    5.50
 -11  -6 -16   23.10    7.60
   6  -7 -16   14.50    5.50
  -6   7  16   24.50    6.60
  -6   7  16   15.20    7.30
   5  -7 -16  187.38   14.50
  -5   7  16  185.68   12.80
  -5   7  16  195.08   26.30
   4  -7 -16   19.00    5.40
  -4   7  16   11.80    6.10
  -4   7  16   11.30    4.90
   3  -7 -16  151.48   14.30
   3  -7 -16  191.88   12.10
  -3   7  16  197.98   13.10
  -3   7  16  185.58   15.50
   2  -7 -16  325.67   19.80
   2  -7 -16  339.57   16.50
  -2   7  16  359.06   17.70
   1  -7 -16   93.99   11.70
   1  -7 -16   88.69   10.00
  -1   7  16  106.39   12.10
   0  -7 -16   12.80    4.60
   0  -7 -16    7.30    4.70
   0   7  16   16.00    5.20
  -1  -7 -16   34.10    6.90
  -1  -7 -16   40.10    8.20
   1   7  16   33.20    6.50
  -2  -7 -16  247.48   15.50
   2   7  16  226.48   16.60
   2   7  16  241.98   14.60
  -3  -7 -16    2.50    3.60
  -3  -7 -16    3.10    3.50
   3   7  16   -1.20    3.20
   3   7  16   -2.20    3.00
  -4  -7 -16  265.47   15.30
  -4  -7 -16  265.07   15.80
   4   7  16  250.37   16.10
  -5  -7 -16  677.63   25.30
  -5  -7 -16  651.33   26.40
   5   7  16  667.63   28.20
  -6  -7 -16  217.98   15.00
  -6  -7 -16  221.98   13.40
   6   7  16  215.48   16.10
  -7  -7 -16   -1.70    3.60
  -7  -7 -16   -1.20    2.90
   7   7  16   -1.50    3.90
  -8  -7 -16   76.69   11.10
  -8  -7 -16   71.89    8.60
   8   7  16   80.79   13.20
  -9  -7 -16  196.18   11.80
  -9  -7 -16  195.78   15.70
   9   7  16  173.68   16.60
 -10  -7 -16    0.20    3.10
 -10  -7 -16    5.50    5.40
  10   7  16    0.30    5.30
   6  -8 -16   61.19    8.20
  -6   8  16   86.19   11.70
  -6   8  16   82.69   14.70
   5  -8 -16    0.10    4.30
   5  -8 -16    8.40    4.00
   5  -8 -16    3.00    3.50
  -5   8  16    6.10    5.90
  -5   8  16    6.00    4.80
   4  -8 -16  264.97   19.20
   4  -8 -16  256.97   13.30
   4  -8 -16  219.78   12.80
  -4   8  16  244.18   15.60
   3  -8 -16  206.68   11.90
   3  -8 -16  218.58   17.30
   3  -8 -16  199.18   11.80
  -3   8  16  213.28   14.30
   2  -8 -16   14.90    6.60
   2  -8 -16   10.50    3.70
   2  -8 -16   15.80    4.50
  -2   8  16   12.30    5.60
   1  -8 -16   88.49   12.20
   1  -8 -16   72.29    8.60
   1  -8 -16   85.19    9.60
  -1   8  16   90.19   11.70
   0  -8 -16   -1.40    2.00
   0  -8 -16    1.50    4.40
   0  -8 -16   -0.10    3.00
   0   8  16    5.30    4.10
  -1  -8 -16   26.00    6.10
  -1  -8 -16   25.00    6.80
   1   8  16   29.80    6.50
  -2  -8 -16    5.80    4.20
   2   8  16    7.90    5.10
   2   8  16    5.10    4.30
  -3  -8 -16  223.28   14.90
   3   8  16  191.68   13.60
   3   8  16  196.48   13.80
  -4  -8 -16  382.06   19.50
  -4  -8 -16  390.16   19.50
   4   8  16  388.76   19.60
   4   8  16  363.46   19.30
  -5  -8 -16  114.89   12.70
  -5  -8 -16  109.79   10.40
   5   8  16  118.09   13.80
  -6  -8 -16  211.28   15.00
  -6  -8 -16  188.08   13.20
   6   8  16  187.58   15.20
  -7  -8 -16  360.86   17.80
  -7  -8 -16  355.06   19.70
   7   8  16  365.96   21.50
  -8  -8 -16  318.47   19.40
  -8  -8 -16  357.46   17.40
   8   8  16  387.26   22.80
  -9  -8 -16    1.60    3.40
  -9  -8 -16   -0.30    4.30
   9   8  16   -1.80    4.10
 -10  -8 -16   23.20    6.10
 -10  -8 -16   20.40    7.10
  10   8  16   25.00    8.60
   5  -9 -16   61.29   12.40
   5  -9 -16   79.39    7.20
  -5   9  16   65.49   10.70
   4  -9 -16   40.80    6.30
   4  -9 -16   55.49    7.00
  -4   9  16   63.39   10.00
   3  -9 -16   76.19    7.10
   3  -9 -16   69.59   11.50
   3  -9 -16   73.09    6.90
  -3   9  16  101.19   13.00
   2  -9 -16    7.80    3.50
   2  -9 -16   10.70    6.30
   2  -9 -16    7.90    3.50
  -2   9  16    7.30    4.90
   1  -9 -16  171.48   10.40
   1  -9 -16  149.39   14.50
  -1   9  16  177.28   13.40
   0  -9 -16   48.40    7.20
   0  -9 -16   35.00    5.90
   0  -9 -16   40.80    9.00
   0   9  16   56.59    9.80
  -1  -9 -16   95.29    8.30
  -1  -9 -16  101.89    9.00
  -1  -9 -16  111.19   13.70
   1   9  16  107.09   13.00
  -2  -9 -16   49.30    8.80
   2   9  16   70.39   10.80
   2   9  16   68.09    9.40
  -3  -9 -16  220.58   15.50
   3   9  16  212.68   15.70
   3   9  16  224.28   15.10
  -4  -9 -16   33.00    7.80
   4   9  16   28.60    6.60
   4   9  16   26.30    6.70
  -5  -9 -16    4.70    4.30
  -5  -9 -16   -2.30    2.70
   5   9  16    0.60    3.80
  -6  -9 -16  261.37   16.20
  -6  -9 -16  275.27   17.50
   6   9  16  293.67   18.40
  -7  -9 -16  201.58   15.40
  -7  -9 -16  193.88   13.70
   7   9  16  188.38   15.70
  -8  -9 -16   20.90   10.00
  -8  -9 -16   24.80    6.40
   8   9  16   14.30    6.40
  -9  -9 -16    0.90    4.50
  -9  -9 -16    0.70    3.20
   9   9  16   10.90    6.60
   5 -10 -16    8.20    2.60
   5 -10 -16    4.20    6.60
  -5  10  16    3.40    4.80
   4 -10 -16    4.80    2.30
   4 -10 -16   -0.80    4.90
   4 -10 -16    0.20    2.00
  -4  10  16    2.50    4.50
   3 -10 -16    2.40    5.40
   3 -10 -16   -3.50    1.70
   3 -10 -16    2.70    2.10
  -3  10  16   -1.40    4.10
   2 -10 -16  114.39    7.30
   2 -10 -16  126.89   15.70
   2 -10 -16   98.09    6.90
  -2  10  16  121.39   14.50
   1 -10 -16  203.78   10.40
   1 -10 -16  230.38   11.10
   1 -10 -16  239.28   18.00
  -1  10  16  220.38   15.70
   0 -10 -16    1.10    2.40
   0 -10 -16    3.30    3.30
   0 -10 -16    0.00    4.40
   0  10  16    2.10    3.70
  -1 -10 -16   79.59   12.00
  -1 -10 -16   89.79    8.10
  -1 -10 -16   79.49    7.40
   1  10  16   72.79   11.60
  -2 -10 -16    9.20    3.70
  -2 -10 -16   18.20    6.60
   2  10  16   10.80    4.50
   2  10  16    8.30    5.00
  -3 -10 -16    8.80    5.40
   3  10  16   10.00    5.60
   3  10  16   14.70    5.10
  -4 -10 -16  163.38   13.80
   4  10  16  141.89   11.90
   4  10  16  144.79   13.00
  -5 -10 -16  373.56   20.30
   5  10  16  374.36   19.80
   5  10  16  375.56   20.40
  -6 -10 -16  152.18   13.10
  -6 -10 -16  142.89   13.50
   6  10  16  172.88   14.00
  -7 -10 -16   -1.00    3.60
  -7 -10 -16    2.00    5.00
   7  10  16    1.10    4.20
  -8 -10 -16    6.30    4.50
  -8 -10 -16   -1.20    3.80
   8  10  16    6.50    5.50
  -9 -10 -16   30.10    7.30
  -9 -10 -16   29.50    8.40
   9  10  16   35.10    9.70
   4 -11 -16   56.39   11.70
  -4  11  16   58.49   11.30
   3 -11 -16  145.39   18.60
  -3  11  16  129.19   15.10
   2 -11 -16  127.29   21.10
  -2  11  16  138.09   15.90
   1 -11 -16   33.30    4.50
   1 -11 -16   27.50    4.10
   1 -11 -16   29.80    7.90
  -1  11  16   25.20    7.20
   0 -11 -16    5.00    2.90
   0 -11 -16    7.40    5.50
   0 -11 -16    6.50    3.10
   0  11  16    3.90    4.90
  -1 -11 -16    4.10    3.20
  -1 -11 -16    4.30    4.50
  -1 -11 -16    1.30    2.80
   1  11  16   -1.30    3.70
  -2 -11 -16   52.09    7.60
  -2 -11 -16   71.59   12.10
   2  11  16   51.39    8.70
   2  11  16   78.09    9.20
  -3 -11 -16  220.58   16.80
   3  11  16  238.58   16.70
   3  11  16  232.18   13.80
  -4 -11 -16  258.97   17.70
   4  11  16  253.47   17.20
   4  11  16  270.57   15.80
  -5 -11 -16  259.17   17.40
   5  11  16  249.48   16.00
   5  11  16  244.68   17.00
  -6 -11 -16   -2.00    4.90
  -6 -11 -16    5.10    4.60
   6  11  16   -3.00    3.90
  -7 -11 -16   18.10    6.80
  -7 -11 -16   14.30    5.70
   7  11  16    8.00    5.30
  -8 -11 -16  131.69   12.60
  -8 -11 -16  112.09   14.30
   8  11  16  123.49   16.10
   3 -12 -16   74.39   13.50
  -3  12  16   68.89   18.20
   2 -12 -16   42.10   10.00
  -2  12  16   54.19   11.60
   1 -12 -16    3.50    5.00
  -1  12  16    1.10    5.40
   0 -12 -16   35.60    4.40
   0 -12 -16   21.90    7.30
   0 -12 -16   36.50    4.50
   0  12  16   46.70   10.30
  -1 -12 -16   -1.40    2.10
  -1 -12 -16   -0.10    2.40
  -1 -12 -16   -2.40    4.40
   1  12  16   -4.90    3.10
  -2 -12 -16   79.49   13.20
  -2 -12 -16   67.79    8.00
   2  12  16   65.99   10.30
   2  12  16   74.69    8.60
  -3 -12 -16   46.60   10.60
   3  12  16   41.70    9.20
   3  12  16   47.10    7.40
  -4 -12 -16  160.78   14.70
   4  12  16  122.79   10.90
   4  12  16  155.78   24.30
  -5 -12 -16   -3.50    3.50
   5  12  16    0.90    4.20
   5  12  16   -0.40    3.60
  -6 -12 -16  150.48   14.00
   6  12  16  152.88   13.50
  -7 -12 -16   60.89   10.50
  -7 -12 -16   68.19   11.70
   7  12  16   74.79   12.20
   1 -13 -16   62.89   11.90
  -1  13  16   52.79   11.30
   0 -13 -16   43.70   11.00
   0  13  16   27.30    8.60
  -1 -13 -16    9.00    3.00
  -1 -13 -16    1.90    5.30
  -1 -13 -16    3.20    2.50
   1  13  16    4.70    5.30
  -2 -13 -16    0.90    5.40
  -2 -13 -16    4.30    3.20
   2  13  16   -2.00    4.20
   2  13  16    2.90    2.90
  -3 -13 -16    0.10    4.20
   3  13  16   -0.70    2.60
   3  13  16   -0.70    3.80
  -4 -13 -16    9.50    6.40
   4  13  16    6.00    4.10
   4  13  16    2.20    4.70
  -5 -13 -16  163.88   15.50
   5  13  16  159.88   12.80
   5  13  16  128.69   15.10
  -1   5 -17    9.40    4.10
  -1   5 -17    6.90    7.10
   1  -5  17    0.50    3.30
  -2   5 -17   -1.10    5.10
  -2   5 -17    1.20    3.90
  -3   5 -17   -1.90    5.50
  -3   5 -17    3.80    5.00
   3  -5  17    4.20    2.80
  -4   5 -17   34.60    9.90
  -4   5 -17   40.30    8.50
   4  -5  17   35.10    4.30
  -5   5 -17    1.80    5.50
   1   4 -17   16.80    7.00
   1   4 -17   18.60    3.70
  -1  -4  17   21.80    6.20
   0   4 -17   17.60    8.70
   0   4 -17   29.00    5.30
   0  -4  17   21.10    5.60
  -1   4 -17    2.70    5.30
   1  -4  17    9.70    4.00
  -2   4 -17   -1.90    4.60
  -2   4 -17   -1.10    4.00
   2  -4  17    3.10    2.90
  -3   4 -17  234.88   19.90
  -3   4 -17  186.38   10.50
  -3   4 -17  226.68   14.80
   3  -4  17  203.48   10.40
  -4   4 -17    4.50    6.40
  -4   4 -17   -0.30    4.70
  -4   4 -17    5.10    2.80
   4  -4  17    6.40    2.50
  -5   4 -17   -4.90    4.00
  -5   4 -17   -3.10    4.60
  -6   4 -17   48.20   11.30
  -6   4 -17   20.50    8.20
  -7   4 -17   49.90   10.70
   2   3 -17  115.89   17.10
   2   3 -17   96.69    4.70
   2   3 -17   91.29    4.90
  -2  -3  17  114.39   12.50
   1   3 -17   74.49    6.60
   1   3 -17   89.89    6.60
   1   3 -17   71.89   13.60
  -1  -3  17   79.69    9.80
   0   3 -17    3.70    3.60
   0   3 -17    1.50    3.20
   0  -3  17    8.80    4.40
  -1   3 -17    1.00    5.40
  -1   3 -17   -3.60    3.20
   1  -3  17   -0.30    2.90
  -2   3 -17   51.19    8.20
  -2   3 -17   50.79   11.70
   2  -3  17   58.89    7.20
  -3   3 -17   34.80    6.90
  -3   3 -17   45.90    8.00
  -3   3 -17   30.30    8.60
   3  -3  17   50.09    6.30
  -4   3 -17   34.50   10.30
  -4   3 -17   31.80    4.40
  -4   3 -17   36.10    7.70
   4  -3  17   35.60    4.50
  -5   3 -17    6.10    5.30
  -5   3 -17   29.60   13.40
  -6   3 -17  128.79   14.10
  -6   3 -17  101.89   14.90
   6  -3  17   97.29   14.50
  -7   3 -17    8.00    6.50
   7  -3  17   30.20   10.10
  -8   3 -17    8.10    6.90
   8  -3  17    4.00    6.60
   3   2 -17   94.69   15.00
  -3  -2  17   78.89   10.70
   2   2 -17  101.89    6.10
   2   2 -17  127.29    6.00
  -2  -2  17  123.09   11.40
   1   2 -17   -2.10    2.60
   1   2 -17    0.80    2.60
   1   2 -17   -2.40    3.60
  -1  -2  17    0.40    3.40
   0   2 -17   -1.10    2.80
   0   2 -17   -3.70    4.50
   0   2 -17   -1.10    3.00
   0  -2  17   -3.30    3.00
  -1   2 -17    4.90    5.30
  -1   2 -17    3.70    3.70
   1  -2  17   -1.40    3.10
  -2   2 -17    4.50    4.10
  -2   2 -17   12.10    7.40
   2  -2  17    2.40    3.10
  -3   2 -17    6.60    6.60
  -3   2 -17   15.00    5.50
   3  -2  17   16.30    4.00
  -4   2 -17    4.90    2.60
  -4   2 -17    7.50    5.80
  -4   2 -17    3.20    4.60
  -5   2 -17   13.90    1.90
  -5   2 -17   18.70    7.80
  -5   2 -17   23.90    6.70
  -5   2 -17   14.10    1.90
   5  -2  17   22.70    8.80
  -6   2 -17   21.60    7.40
   6  -2  17   22.30    7.80
  -7   2 -17   -3.60    4.70
   7  -2  17    5.80    8.90
   8  -2  17   18.40    7.70
   4   1 -17  151.78   19.00
  -4  -1  17  160.38   14.30
   3   1 -17   55.89   12.10
  -3  -1  17   34.00    7.80
   2   1 -17   40.10   10.50
   2   1 -17   26.70    4.30
   2   1 -17   30.90    4.50
  -2  -1  17   21.80    6.20
   1   1 -17   22.70    4.50
   1   1 -17   23.30    7.80
   1   1 -17   22.60    4.70
  -1  -1  17   24.30    6.20
   0   1 -17   39.60    6.60
   0   1 -17   48.50   10.30
   0   1 -17   42.40    6.30
   0  -1  17   57.39    8.20
  -1   1 -17    2.60    3.20
  -1   1 -17    4.40    4.90
   1  -1  17    0.80    3.50
  -2   1 -17   66.29    8.70
  -2   1 -17   71.69    8.60
  -2   1 -17   67.99   11.10
   2  -1  17   78.29    8.40
  -3   1 -17    2.30    5.00
  -3   1 -17    2.90    4.20
   3  -1  17   16.10    4.10
  -4   1 -17   88.89   13.30
  -4   1 -17  122.49   11.00
  -4   1 -17   88.79    6.50
  -4   1 -17   79.89    5.70
  -5   1 -17    7.60    5.00
   5  -1  17   -4.50    3.90
  -6   1 -17   15.50    6.10
   6  -1  17   15.60    6.60
  -7   1 -17   62.29    9.60
   7  -1  17   80.79   14.10
  -8   1 -17  264.87   18.50
   8  -1  17  296.17   22.60
  -9   1 -17    4.70    6.00
   9  -1  17   -0.30    5.10
  -5   0  17   51.39    9.90
   4   0 -17  117.19   16.20
  -4   0  17  115.59   13.30
   3   0 -17    6.40    2.30
   3   0 -17    6.90    2.30
   3   0 -17   11.20    6.30
  -3   0  17    5.70    4.90
   2   0 -17   85.49   12.40
   2   0 -17   90.39    6.70
   2   0 -17   99.19    7.40
  -2   0  17   99.29   12.00
   1   0 -17  243.98   11.50
   1   0 -17  223.88   17.70
   1   0 -17  208.58   12.60
  -1   0  17  252.97   15.00
   0   0 -17    0.00    3.00
   0   0 -17    4.50    5.50
   0   0 -17    9.00    4.00
   0   0  17    7.90    4.40
  -1   0 -17  206.28   16.90
  -1   0 -17  205.78   11.80
  -2   0 -17   23.50    6.00
  -2   0 -17   46.30    7.50
  -2   0 -17   40.70   10.00
   2   0  17   35.60    6.00
  -3   0 -17   15.50    3.70
  -3   0 -17   23.40    7.50
  -3   0 -17   20.00    5.50
   3   0  17   15.10    4.30
  -4   0 -17   97.19    6.40
  -4   0 -17  112.39    7.50
  -4   0 -17  113.59   10.70
   4   0  17  132.79   17.00
  -5   0 -17   41.90    3.80
  -5   0 -17   45.80    4.40
  -5   0 -17   44.10    7.80
   5   0  17   41.20    9.30
  -6   0 -17  202.28   14.60
   6   0  17  171.88   16.60
  -7   0 -17  128.09   14.80
   7   0  17  123.29   17.80
  -8   0 -17   53.59   10.70
   8   0  17   22.70    9.30
  -9   0 -17   28.30    7.80
   9   0  17   31.40   10.10
 -10   0 -17   21.60    8.50
  10   0  17   27.80   10.00
   5  -1 -17   55.89   11.50
  -5   1  17   45.80    9.70
   4  -1 -17    4.30    1.80
   4  -1 -17   -4.10    4.20
  -4   1  17   -2.10    4.00
   3  -1 -17  140.99    8.10
   3  -1 -17  153.08   18.30
   3  -1 -17  156.48    7.80
  -3   1  17  155.08   13.30
   2  -1 -17  230.98   17.50
   2  -1 -17  198.78   11.00
   2  -1 -17  225.48   10.50
  -2   1  17  219.58   14.90
   1  -1 -17   88.39    8.20
   1  -1 -17  114.29   14.70
   1  -1 -17  109.19    8.00
  -1   1  17  112.19   10.70
   0  -1 -17    3.10    3.50
   0  -1 -17   18.30    6.90
   0   1  17    9.40    4.60
  -1  -1 -17    0.00    3.30
  -1  -1 -17    4.80    4.70
   1   1  17    2.20    3.70
  -2  -1 -17   15.30    4.80
  -2  -1 -17   19.80    6.80
   2   1  17    9.70    3.80
  -3  -1 -17    3.40    4.20
  -3  -1 -17    6.10    3.20
  -3  -1 -17    6.00    2.90
  -3  -1 -17    8.10    4.10
  -4  -1 -17   11.80    5.10
  -4  -1 -17    9.10    3.00
  -4  -1 -17   11.20    3.50
   4   1  17   22.30    8.10
  -5  -1 -17   10.60    5.00
  -5  -1 -17    6.80    2.30
  -5  -1 -17    5.60    2.70
   5   1  17    4.70    5.00
  -6  -1 -17  184.08   13.90
  -6  -1 -17  145.19    7.60
   6   1  17  114.19   14.70
  -7  -1 -17   37.80    7.90
   7   1  17   40.30    9.70
  -8  -1 -17   62.89   11.10
   8   1  17   55.79   11.80
   9   1  17   15.30    8.30
 -10  -1 -17   37.10    8.30
  10   1  17   59.09   12.70
   5  -2 -17   14.50    2.90
   5  -2 -17   10.00    6.00
   5  -2 -17   13.20    2.70
  -5   2  17    7.20    8.60
   4  -2 -17  106.09    6.90
   4  -2 -17  119.19    6.80
   4  -2 -17  112.79   14.90
  -4   2  17  115.69   14.30
   3  -2 -17   75.79   12.10
   3  -2 -17   71.39    6.60
   3  -2 -17   85.99    6.60
  -3   2  17   88.99   11.30
   2  -2 -17   20.10    4.80
   2  -2 -17   20.80    4.60
   2  -2 -17   23.30    7.50
  -2   2  17   11.30    5.50
   1  -2 -17  202.48   12.40
   1  -2 -17  245.68   12.00
   1  -2 -17  242.68   17.00
  -1   2  17  269.57   15.60
   0  -2 -17   -1.00    2.90
   0  -2 -17    3.20    4.40
   0   2  17   -2.20    3.10
  -1  -2 -17    2.10    4.50
  -1  -2 -17    5.80    3.80
   1   2  17    4.10    3.80
  -2  -2 -17    5.40    4.40
  -2  -2 -17    5.30    4.00
   2   2  17    6.60    3.50
  -3  -2 -17   36.50    6.90
  -3  -2 -17   38.60    6.20
  -3  -2 -17   35.50    5.20
   3   2  17   27.00    8.10
  -4  -2 -17   -0.50    2.40
  -4  -2 -17    5.60    4.20
  -4  -2 -17    2.30    2.30
   4   2  17    1.70    4.40
  -5  -2 -17   -0.30    4.30
  -5  -2 -17   -1.60    1.70
  -5  -2 -17   -0.60    2.30
   5   2  17    0.60    4.30
  -6  -2 -17   27.40    4.10
  -6  -2 -17   33.10    7.60
  -6  -2 -17   26.30    3.40
   6   2  17   50.29   10.70
  -7  -2 -17  264.57   16.70
  -7  -2 -17  247.98    8.60
   7   2  17  279.77   20.20
  -8  -2 -17   74.69   11.10
   8   2  17   75.09   13.10
  -9  -2 -17   18.10    8.60
 -10  -2 -17   -4.20    4.50
  10   2  17   -4.80    4.50
   5  -3 -17  277.87   18.70
   5  -3 -17  232.18   10.30
   5  -3 -17  221.98    9.90
   4  -3 -17   38.70    5.50
   4  -3 -17   41.90    8.80
   4  -3 -17   34.70    8.70
  -4   3  17   40.70    9.50
   3  -3 -17    4.30    3.10
   3  -3 -17    4.40    3.00
   3  -3 -17   -0.20    4.30
  -3   3  17    0.30    3.60
   2  -3 -17  236.58   13.00
   2  -3 -17  250.97   17.00
   2  -3 -17  242.88   12.00
  -2   3  17  227.08   15.50
   1  -3 -17  172.68   10.50
   1  -3 -17  174.38   14.40
  -1   3  17  152.88   12.50
   0  -3 -17    2.50    4.30
   0   3  17   -0.30    3.30
  -1  -3 -17   57.19   10.50
  -1  -3 -17   43.10    6.90
   1   3  17   50.09    8.10
  -2  -3 -17  190.48   12.40
  -2  -3 -17  197.18   12.30
  -2  -3 -17  199.78   15.60
  -3  -3 -17   45.90    7.50
  -3  -3 -17   41.20    5.70
  -3  -3 -17   43.90    7.10
   3   3  17   48.60   10.20
  -4  -3 -17    1.90    2.90
  -4  -3 -17    5.00    4.10
  -4  -3 -17    7.90    2.80
   4   3  17    1.60    4.20
  -5  -3 -17   -0.90    1.80
  -5  -3 -17    0.70    2.60
  -5  -3 -17    4.60    4.30
   5   3  17    6.80    5.70
  -6  -3 -17  170.88    8.00
  -6  -3 -17  176.68   13.20
  -6  -3 -17  175.68    9.20
   6   3  17  183.78   16.10
  -7  -3 -17  233.58    8.90
  -7  -3 -17  265.17   10.10
  -7  -3 -17  236.98   16.00
   7   3  17  260.07   19.40
  -8  -3 -17   29.40    3.10
  -8  -3 -17   32.00    7.50
  -8  -3 -17   29.00    3.20
   8   3  17   24.20    8.20
  -9  -3 -17    9.90    6.50
  -9  -3 -17    6.50    1.10
  -9  -3 -17    8.10    1.20
   9   3  17   -0.10    6.10
 -10  -3 -17  165.48   15.40
  10   3  17  122.59   17.50
   5  -4 -17   13.60    6.10
   5  -4 -17   16.40    4.20
   5  -4 -17   14.50    3.70
  -5   4  17   11.50    8.20
   4  -4 -17    0.60    4.90
   4  -4 -17    3.00    2.90
   4  -4 -17    2.10    2.80
  -4   4  17    3.70    4.60
   3  -4 -17   85.99    7.60
   3  -4 -17   68.69   10.50
  -3   4  17   81.49   11.10
   2  -4 -17  405.36   20.90
   2  -4 -17  377.16   16.00
  -2   4  17  353.36   19.70
   1  -4 -17  137.59   12.60
  -1   4  17  148.29   12.50
   0  -4 -17    8.30    4.70
   0  -4 -17    9.80    4.40
   0   4  17    6.90    4.60
  -1  -4 -17  173.68   14.10
  -1  -4 -17  190.68   11.80
  -1  -4 -17  152.38   11.90
  -2  -4 -17   18.20    5.30
  -2  -4 -17   20.50    6.60
  -2  -4 -17   25.00    5.70
  -3  -4 -17   63.89    8.70
  -3  -4 -17   72.49    8.90
   3   4  17   69.89   11.80
  -4  -4 -17    4.00    2.60
  -4  -4 -17    6.70    3.60
  -4  -4 -17    5.10    4.10
   4   4  17    7.30    5.10
  -5  -4 -17  106.79    8.60
  -5  -4 -17  111.09    7.40
  -5  -4 -17  122.09   11.00
   5   4  17   94.19   11.90
  -6  -4 -17  153.18    9.50
  -6  -4 -17  149.69   10.50
  -6  -4 -17  175.88   13.30
   6   4  17  154.48   18.30
  -7  -4 -17   31.00    4.80
  -7  -4 -17   35.50    7.90
  -7  -4 -17   34.20    4.60
   7   4  17   27.70    8.70
  -8  -4 -17   13.30    3.30
  -8  -4 -17   13.10    2.90
  -8  -4 -17   17.90    6.00
   8   4  17   21.70    8.40
  -9  -4 -17  152.08   18.80
  -9  -4 -17  136.99    6.80
  -9  -4 -17  136.19    6.80
   9   4  17  118.29   16.20
 -10  -4 -17   49.00    4.00
 -10  -4 -17   44.20    9.50
 -10  -4 -17   40.50    3.80
  10   4  17   34.10   10.00
   5  -5 -17   14.80    6.10
  -5   5  17    7.10    5.60
  -5   5  17    6.30    3.60
   4  -5 -17   36.40    7.90
  -4   5  17   33.30    8.20
  -4   5  17   43.10    6.80
   3  -5 -17  179.08   13.80
  -3   5  17  163.18   14.20
   2  -5 -17   72.19   10.20
  -2   5  17   73.29   11.20
  -2   5  17   84.49    9.40
   1  -5 -17    0.60    2.90
   1  -5 -17    2.20    4.10
  -1   5  17    1.60    3.90
   0  -5 -17   49.40    7.50
   0  -5 -17   41.30    8.20
   0  -5 -17   44.10    8.50
  -1  -5 -17   65.39    8.90
  -1  -5 -17   67.29    9.90
  -1  -5 -17   57.99    8.70
  -2  -5 -17   68.39    9.20
  -2  -5 -17   63.59    8.80
   2   5  17   61.59    9.80
  -3  -5 -17   22.60    6.60
  -3  -5 -17   22.50    5.80
   3   5  17   13.50    6.00
  -4  -5 -17    2.50    3.40
  -4  -5 -17    3.80    3.80
   4   5  17    3.50    4.70
  -5  -5 -17    4.70    3.40
  -5  -5 -17    3.10    2.60
  -5  -5 -17    2.50    3.80
   5   5  17    4.10    4.50
  -6  -5 -17   46.30    6.50
  -6  -5 -17   48.80    6.20
  -6  -5 -17   28.30    6.70
   6   5  17   37.00    8.50
  -7  -5 -17    0.50    2.60
  -7  -5 -17    5.90    2.70
  -7  -5 -17    0.70    4.10
   7   5  17   -1.20    4.00
  -8  -5 -17   26.90    4.60
  -8  -5 -17   25.80    7.30
  -8  -5 -17   35.80    5.50
   8   5  17   34.10    9.30
  -9  -5 -17  101.69    7.20
   9   5  17  106.89   15.70
 -10  -5 -17    3.90    2.70
 -10  -5 -17   -0.10    4.90
  10   5  17   -0.90    5.20
   5  -6 -17  106.29   12.60
  -5   6  17  105.89   14.90
  -5   6  17   96.29    8.80
   4  -6 -17  204.08   14.30
  -4   6  17  219.38   17.30
  -4   6  17  205.68   12.70
   3  -6 -17    7.60    4.80
  -3   6  17   17.30    6.40
  -3   6  17   10.30    4.60
   2  -6 -17  105.49   10.40
  -2   6  17  105.29    9.40
  -2   6  17   93.49   11.70
   1  -6 -17   99.69   10.10
   1  -6 -17   86.89   11.60
  -1   6  17   96.19   10.90
   0  -6 -17   63.59    9.40
   0  -6 -17   71.59   10.90
   0   6  17   71.39    9.10
  -1  -6 -17  179.18   13.10
  -1  -6 -17  167.08   13.10
  -1  -6 -17  161.18   11.80
  -2  -6 -17   69.89    9.60
  -2  -6 -17   72.99   10.20
   2   6  17   88.69   11.90
  -3  -6 -17    5.80    4.10
  -3  -6 -17    5.50    3.90
   3   6  17    3.00    4.40
  -4  -6 -17    6.30    4.00
  -4  -6 -17   23.00    5.80
   4   6  17   15.80    6.40
  -5  -6 -17   78.89   11.00
  -5  -6 -17   83.29   10.30
   5   6  17   92.29   13.30
  -6  -6 -17   16.60    5.80
  -6  -6 -17   20.00    5.40
   6   6  17   20.90    6.90
  -7  -6 -17  331.17   15.40
  -7  -6 -17  326.47   18.80
   7   6  17  360.76   22.00
  -8  -6 -17   84.29    7.90
  -8  -6 -17   78.59   11.10
   8   6  17  107.29   15.60
  -9  -6 -17   87.09   12.60
  -9  -6 -17   71.59    7.80
   9   6  17   64.79   12.90
 -10  -6 -17   30.10    8.30
 -10  -6 -17   28.90    5.20
  10   6  17   17.00    7.90
   5  -7 -17  275.57   15.70
  -5   7  17  256.57   19.60
  -5   7  17  245.88   14.80
   4  -7 -17   23.10    6.30
  -4   7  17    9.00    4.60
  -4   7  17   12.50    7.10
   3  -7 -17  137.49   15.90
   3  -7 -17  155.98   11.70
  -3   7  17  135.69   11.20
  -3   7  17  135.99   15.70
   2  -7 -17  491.15   25.20
   2  -7 -17  529.65   24.90
  -2   7  17  498.75   21.50
   1  -7 -17  237.68   16.80
   1  -7 -17  234.58   16.40
  -1   7  17  222.68   14.10
   0  -7 -17  182.48   14.60
   0  -7 -17  234.48   14.50
   0   7  17  236.28   14.40
  -1  -7 -17  125.59   14.10
  -1  -7 -17  119.69   10.90
   1   7  17  152.48   11.80
  -2  -7 -17   -2.20    3.00
  -2  -7 -17    2.20    3.20
   2   7  17   -0.60    3.50
   2   7  17    3.70    4.20
  -3  -7 -17   79.19   10.60
  -3  -7 -17   77.89   10.10
   3   7  17   94.19   12.20
  -4  -7 -17   -2.30    2.90
  -4  -7 -17    4.40    4.10
   4   7  17    3.10    4.10
  -5  -7 -17  114.79   12.50
  -5  -7 -17  103.99   10.00
   5   7  17  110.49   13.50
  -6  -7 -17  312.57   16.20
  -6  -7 -17  306.37   17.90
   6   7  17  305.17   19.60
  -7  -7 -17   82.69   11.00
  -7  -7 -17   87.69    9.80
   7   7  17  109.69   14.70
  -8  -7 -17    3.90    3.50
  -8  -7 -17    3.00    4.40
   8   7  17    0.10    4.40
  -9  -7 -17  106.09    9.00
  -9  -7 -17  104.59   12.90
   9   7  17   77.39   12.90
 -10  -7 -17   36.10    6.20
 -10  -7 -17   27.20    7.90
  10   7  17   55.49   12.50
   5  -8 -17    4.70    5.90
  -5   8  17    8.80    5.20
  -5   8  17    4.60    5.30
   4  -8 -17  106.79   15.10
   4  -8 -17  120.69   10.00
  -4   8  17  118.89   11.10
   3  -8 -17  266.07   14.30
   3  -8 -17  271.27   19.70
  -3   8  17  291.87   16.70
   2  -8 -17   40.50    7.10
   2  -8 -17   47.50   10.40
  -2   8  17   34.80    7.50
   1  -8 -17   20.40    7.30
   1  -8 -17   23.90    5.70
  -1   8  17   23.90    6.60
   0  -8 -17   58.19    8.60
   0  -8 -17   56.49    9.60
   0   8  17   79.19   10.60
  -1  -8 -17   -0.80    3.80
   1   8  17    7.70    4.50
  -2  -8 -17   38.80    7.90
   2   8  17   27.40    6.50
   2   8  17   33.70    7.90
  -3  -8 -17   10.10    4.90
   3   8  17    7.90    4.80
   3   8  17   15.90    5.90
  -4  -8 -17    3.30    4.30
  -4  -8 -17   16.70    5.70
   4   8  17    5.30    4.50
  -5  -8 -17    5.30    4.80
  -5  -8 -17   11.40    4.90
   5   8  17   12.70    5.80
  -6  -8 -17  227.18   14.40
  -6  -8 -17  215.58   15.50
   6   8  17  189.38   15.70
  -7  -8 -17   36.70    8.20
  -7  -8 -17   38.30    7.30
   7   8  17   68.99   12.00
  -8  -8 -17  207.78   25.90
  -8  -8 -17  260.77   14.90
   8   8  17  258.37   19.10
  -9  -8 -17   15.00    6.80
  -9  -8 -17   14.20    5.00
   9   8  17   -3.50    4.70
   4  -9 -17   54.89   11.60
   4  -9 -17   45.20    6.60
  -4   9  17   67.09   11.00
   3  -9 -17  108.79   24.10
   3  -9 -17  102.59    8.50
   3  -9 -17   79.69    7.80
  -3   9  17  111.39   12.80
   2  -9 -17   36.40    6.20
   2  -9 -17   45.00    6.90
   2  -9 -17   31.60    8.50
  -2   9  17   31.90    7.50
   1  -9 -17  142.19   10.20
   1  -9 -17  133.19    9.80
   1  -9 -17  140.49   16.10
  -1   9  17  167.38   13.30
   0  -9 -17   11.60    4.60
   0  -9 -17   16.20    6.50
   0  -9 -17   15.10    4.40
   0   9  17    6.80    5.30
  -1  -9 -17   21.40    6.80
  -1  -9 -17   27.30    6.20
   1   9  17   25.60    6.70
  -2  -9 -17  186.38   15.00
   2   9  17  166.58   14.10
   2   9  17  177.58   13.80
  -3  -9 -17   73.29   10.70
   3   9  17   82.19   10.80
   3   9  17   74.59   11.20
  -4  -9 -17  142.69   12.90
  -4  -9 -17  172.78   13.80
   4   9  17  173.08   13.50
   4   9  17  148.99   12.70
  -5  -9 -17    1.80    3.50
  -5  -9 -17    7.40    5.20
   5   9  17    1.60    4.10
  -6  -9 -17  117.49   11.40
  -6  -9 -17  116.29   13.50
   6   9  17  119.79   14.30
  -7  -9 -17   76.49   10.40
  -7  -9 -17  100.49   16.80
   7   9  17   91.29   13.70
  -8  -9 -17   21.70    7.70
  -8  -9 -17    8.30    4.80
   8   9  17   15.50    7.20
  -9  -9 -17    6.40    5.50
  -9  -9 -17    4.20    4.10
   9   9  17    0.90    5.60
   4 -10 -17   13.60    3.70
   4 -10 -17    1.10    5.90
  -4  10  17    8.00    5.40
   3 -10 -17   11.30    3.60
   3 -10 -17   10.50    3.40
   3 -10 -17   12.60    6.70
  -3  10  17   12.70    6.10
   2 -10 -17  247.28   11.80
   2 -10 -17  258.07   20.80
   2 -10 -17  250.87   11.90
  -2  10  17  271.77   17.40
   1 -10 -17  152.38   18.30
   1 -10 -17  123.89   15.20
   1 -10 -17  124.69    8.80
  -1  10  17  140.79   15.70
   0 -10 -17    5.60    3.20
   0 -10 -17   -1.00    4.50
   0 -10 -17   -0.30    2.50
   0  10  17   -3.00    3.60
  -1 -10 -17  109.19    9.40
  -1 -10 -17  101.99   14.00
  -1 -10 -17   89.89    8.20
   1  10  17   86.69   11.20
  -2 -10 -17  206.58   16.20
   2  10  17  209.98   15.40
   2  10  17  190.68   12.80
  -3 -10 -17    6.90    5.30
   3  10  17    0.70    3.20
   3  10  17   -1.50    3.30
  -4 -10 -17   17.40    6.30
   4  10  17    4.20    4.30
   4  10  17    5.80    5.10
  -5 -10 -17  253.77   17.10
  -5 -10 -17  233.68   16.10
   5  10  17  223.18   15.70
   5  10  17  225.78   16.10
  -6 -10 -17  144.59   20.00
  -6 -10 -17  152.98   13.20
   6  10  17  142.49   16.10
  -7 -10 -17   18.20    6.00
  -7 -10 -17   23.60    7.60
   7  10  17   13.10    6.20
  -8 -10 -17    8.80    5.20
  -8 -10 -17    2.20    5.20
   8  10  17    0.60    5.10
   3 -11 -17  163.88   20.20
  -3  11  17  163.18   18.30
   2 -11 -17  124.19   16.30
   2 -11 -17  105.19    6.50
   2 -11 -17  102.99    6.30
  -2  11  17  114.39   14.80
   1 -11 -17   28.40    4.70
   1 -11 -17   35.10    5.10
  -1  11  17   43.70    9.10
   0 -11 -17   28.50    5.10
   0 -11 -17   26.40    5.00
   0 -11 -17   42.80   10.60
   0  11  17   19.90    7.30
  -1 -11 -17  115.69    8.80
  -1 -11 -17  137.99    9.80
  -1 -11 -17  122.19   15.00
   1  11  17  114.39   13.30
  -2 -11 -17   -3.20    3.60
   2  11  17   -5.10    3.30
   2  11  17   -1.80    2.70
  -3 -11 -17    4.40    4.60
   3  11  17   -3.50    3.70
  -4 -11 -17   29.30    7.60
   4  11  17   57.99    9.30
   4  11  17   45.10    8.40
  -5 -11 -17  115.99   14.60
   5  11  17  106.19   12.80
   5  11  17  111.89   14.70
  -6 -11 -17    0.40    4.00
  -6 -11 -17   -2.10    4.20
   6  11  17   -2.60    3.60
  -7 -11 -17   20.30    6.90
  -7 -11 -17   11.20    5.50
   7  11  17   28.50    8.00
   2 -12 -17    9.10    6.70
  -2  12  17   -1.70    5.00
   1 -12 -17   18.50    8.10
  -1  12  17    6.10    6.20
   0 -12 -17   63.49    5.70
   0 -12 -17   76.89    6.10
   0 -12 -17   83.29   13.80
   0  12  17   97.79   19.20
  -1 -12 -17    2.20    2.90
  -1 -12 -17    2.40    2.80
   1  12  17   -2.60    4.50
  -2 -12 -17    3.40    3.30
  -2 -12 -17    7.50    5.80
   2  12  17    4.30    5.70
   2  12  17    8.80    4.00
  -3 -12 -17    1.30    5.10
   3  12  17    5.40    5.60
   3  12  17    4.80    4.00
  -4 -12 -17   18.70    6.70
   4  12  17   27.10    6.70
   4  12  17   20.50    7.60
  -5 -12 -17   35.40    9.20
   5  12  17   21.80    6.60
   5  12  17   18.80    6.70
  -6 -12 -17   21.70    7.10
  -6 -12 -17   40.70    9.20
   6  12  17   25.40    6.80
   6  12  17   26.10    7.90
  -1 -13 -17   47.30    5.70
  -1 -13 -17   41.30   10.20
   1  13  17   21.60    7.80
  -2 -13 -17   51.79   11.30
   2  13  17   60.79    7.60
   2  13  17   49.60   10.10
  -3 -13 -17    8.00    6.10
   3  13  17    9.00    4.30
   3  13  17    7.60    5.80
  -2   4 -18    3.60    6.40
  -2   4 -18    0.40    4.40
   2  -4  18    6.80    6.30
  -3   4 -18  156.78   20.30
  -3   4 -18  153.68   13.00
   3  -4  18  154.88    9.40
  -4   4 -18    3.20    6.00
  -4   4 -18    3.30    5.90
   4  -4  18    2.50    2.20
   0   3 -18   37.00   10.60
   0   3 -18   25.00    5.50
   0  -3  18   17.30    5.10
  -1   3 -18   -8.60    2.70
  -1   3 -18   -0.50    4.90
   1  -3  18   -2.20    2.80
  -2   3 -18   81.69   14.90
  -2   3 -18   45.00    7.90
   2  -3  18   46.90    6.90
  -3   3 -18   21.10    8.70
  -3   3 -18   12.50    4.20
  -3   3 -18    3.50    4.80
   3  -3  18   17.00    4.20
  -4   3 -18   -0.90    2.40
  -4   3 -18    1.80    4.70
  -4   3 -18    0.10    5.80
  -5   3 -18   31.70    9.00
  -5   3 -18   42.40    8.80
  -6   3 -18   58.69   12.80
  -6   3 -18   46.10   10.00
   2   2 -18  115.89   17.60
   2   2 -18   82.29    6.10
  -2  -2  18   95.79   11.90
   1   2 -18   18.20    4.20
   1   2 -18   22.20    7.10
   1   2 -18   21.70    8.20
  -1  -2  18   21.40    6.10
   0   2 -18   -2.60    3.50
   0   2 -18    5.10    6.00
   0   2 -18    0.10    3.10
   0  -2  18    4.60    4.00
  -1   2 -18   46.00    7.20
  -1   2 -18   31.80   12.50
   1  -2  18   55.39    7.90
  -2   2 -18   38.80    7.10
  -2   2 -18   25.70   10.60
   2  -2  18   36.20    6.10
  -3   2 -18    0.70    4.20
  -3   2 -18    0.50    2.70
   3  -2  18    2.00    2.80
  -4   2 -18   57.49    5.40
  -4   2 -18   58.19    6.20
  -4   2 -18   50.89    8.80
  -5   2 -18   38.90    2.90
  -5   2 -18   41.20   11.30
  -5   2 -18   45.40    8.50
  -5   2 -18   35.40    3.20
  -6   2 -18    7.10    5.30
   6  -2  18   17.00    8.60
  -7   2 -18    2.70    5.50
   7  -2  18    7.00    6.40
   3   1 -18   72.59   12.40
  -3  -1  18   72.19   10.70
   2   1 -18    9.00    6.00
   2   1 -18   10.90    3.20
   2   1 -18   -1.30    2.40
  -2  -1  18   19.60    6.70
   1   1 -18   15.00    4.10
   1   1 -18    9.50    7.20
  -1  -1  18    4.90    4.40
   0   1 -18   68.79    7.90
   0   1 -18   85.59   14.20
   0   1 -18   59.99   10.20
   0  -1  18   74.99    9.90
  -1   1 -18   65.89   11.90
  -1   1 -18   69.39    8.90
   1  -1  18   65.59    8.50
  -2   1 -18   -3.60    4.00
  -2   1 -18   -0.40    3.60
   2  -1  18    0.90    3.00
  -3   1 -18    1.80    4.00
  -3   1 -18   -2.30    2.30
  -3   1 -18   -3.60    4.60
   3  -1  18    5.40    3.20
  -4   1 -18  138.79   11.90
  -4   1 -18  108.29    6.80
  -4   1 -18   87.09   13.30
  -4   1 -18  131.59    8.00
  -5   1 -18    1.90    5.10
  -5   1 -18   -2.10    1.90
  -5   1 -18    0.70    1.80
  -5   1 -18    0.10    4.10
   5  -1  18   -3.70    4.30
  -6   1 -18   -3.70    3.90
  -7   1 -18   22.20    7.50
   7  -1  18   17.90    8.70
  -8   1 -18  207.58   16.90
   8  -1  18  139.39   19.00
   3   0 -18    5.80    7.60
   3   0 -18    3.00    1.90
   3   0 -18    3.60    2.50
  -3   0  18    5.60    4.70
   2   0 -18    6.30    3.00
   2   0 -18    0.20    4.70
   2   0 -18    2.90    2.80
  -2   0  18    1.20    4.10
   1   0 -18  138.09    9.00
   1   0 -18  113.99    9.00
   1   0 -18  153.38   15.40
  -1   0  18  139.09   12.00
   0   0 -18   43.20    6.80
   0   0 -18   48.10   10.50
   0   0  18   40.10    7.20
  -1   0 -18   38.30    6.70
  -1   0 -18   34.80    8.60
   1   0  18   26.70    6.00
  -2   0 -18   24.70    8.50
  -2   0 -18   32.70    6.70
   2   0  18   30.90    5.80
  -3   0 -18   29.70    8.10
  -3   0 -18   49.50    8.30
  -3   0 -18   25.00    4.60
  -4   0 -18   18.60    3.70
  -4   0 -18   35.90    9.40
  -4   0 -18   27.70    4.70
  -4   0 -18   23.80    6.30
  -5   0 -18   46.20    4.90
  -5   0 -18   34.60    3.80
  -5   0 -18   46.70    8.70
   5   0  18   30.70    8.50
  -6   0 -18   58.39   10.00
   6   0  18   38.20   10.20
  -7   0 -18   33.40    8.50
   7   0  18   17.10   11.70
   8   0  18   -2.70    4.60
  -9   0 -18   11.60    6.40
   9   0  18   -1.10    5.00
   4  -1 -18    0.50    1.70
   3  -1 -18   21.00    3.90
   3  -1 -18   30.20    4.60
   3  -1 -18   31.00    8.20
  -3   1  18   42.70    9.40
   2  -1 -18  113.39   14.30
   2  -1 -18  128.39    8.20
  -2   1  18  142.49   12.70
   1  -1 -18  110.69    8.30
   1  -1 -18   89.49    8.60
   1  -1 -18   88.69   12.90
  -1   1  18  112.89   12.50
   0  -1 -18   12.20    6.40
   0  -1 -18   10.60    4.40
   0   1  18    6.20    4.40
  -1  -1 -18   19.00    5.20
  -1  -1 -18   18.30    7.60
   1   1  18   13.60    4.80
  -2  -1 -18   81.19   12.80
  -2  -1 -18   75.79    9.50
   2   1  18   74.59    9.00
  -3  -1 -18    3.40    2.60
  -3  -1 -18    4.60    4.50
  -3  -1 -18    3.20    5.20
  -3  -1 -18    1.20    3.00
  -4  -1 -18   72.79   10.10
  -4  -1 -18   71.79    7.70
  -4  -1 -18   65.49    6.90
   4   1  18   74.09   13.40
  -5  -1 -18   68.59    5.90
  -5  -1 -18   69.69    9.70
  -5  -1 -18   57.19    4.80
   5   1  18   58.19   11.00
  -6  -1 -18   25.70    4.30
  -6  -1 -18   28.60    7.30
   6   1  18   24.70    8.50
  -7  -1 -18   -4.00    4.20
   7   1  18    0.50    4.90
  -8  -1 -18   96.49   13.30
   8   1  18   85.29   14.90
  -9  -1 -18    6.60    5.70
   9   1  18    9.50    7.10
   4  -2 -18   30.80    4.40
   4  -2 -18   32.60    9.20
  -4   2  18   57.09   11.20
   3  -2 -18   99.19   13.40
   3  -2 -18  112.09    8.30
   3  -2 -18  122.39    7.80
  -3   2  18  139.19   13.30
   2  -2 -18   98.19    7.60
   2  -2 -18   93.89   13.70
   2  -2 -18   84.89    8.10
  -2   2  18   94.09   11.60
   1  -2 -18   28.50    5.30
   1  -2 -18   31.80    8.40
  -1   2  18   27.20    6.50
   0  -2 -18   13.10    6.60
   0  -2 -18    5.50    6.50
   0   2  18    8.00    4.70
  -1  -2 -18  168.18   15.00
  -1  -2 -18  146.29   10.60
   1   2  18  149.99   11.60
  -2  -2 -18   61.09    9.20
  -2  -2 -18   49.80    7.70
  -2  -2 -18   80.39   13.10
  -3  -2 -18   70.19   12.20
  -3  -2 -18   57.59    8.60
  -3  -2 -18   62.99    8.10
  -4  -2 -18   58.29    7.10
  -4  -2 -18   52.69    5.90
  -4  -2 -18   59.49    9.20
   4   2  18   57.29   10.30
  -5  -2 -18   11.70    3.10
  -5  -2 -18   13.20    5.60
  -5  -2 -18    8.10    3.50
   5   2  18   20.90    7.60
  -6  -2 -18    0.70    4.30
  -6  -2 -18    0.90    1.90
  -6  -2 -18    3.30    2.40
   6   2  18   10.80    6.60
  -7  -2 -18  181.38    8.10
  -7  -2 -18  203.28   15.30
  -7  -2 -18  176.38    6.50
   7   2  18  174.68   16.90
  -8  -2 -18   70.69   11.00
  -9  -2 -18   51.69   10.40
   9   2  18   41.90   10.70
   4  -3 -18   44.00    5.70
   4  -3 -18   35.20    9.10
  -4   3  18   30.20    8.20
   3  -3 -18   41.60    9.10
   3  -3 -18   46.00    7.00
   3  -3 -18   44.40    6.20
  -3   3  18   51.79    9.40
   2  -3 -18   38.70    8.60
   2  -3 -18   34.90    5.90
  -2   3  18   27.50    7.00
   1  -3 -18    2.70    4.60
  -1   3  18    0.80    4.20
   0  -3 -18   39.80    6.80
   0  -3 -18   44.10    9.40
   0   3  18   43.20    8.50
  -1  -3 -18   35.70    6.90
  -1  -3 -18   37.50    9.30
   1   3  18   32.40    6.80
  -2  -3 -18  111.89   10.00
  -2  -3 -18   81.79   11.80
  -2  -3 -18  100.29    9.60
  -3  -3 -18  170.08   12.20
  -3  -3 -18  153.18   11.00
   3   3  18  116.09   15.40
  -4  -3 -18    1.30    3.70
  -4  -3 -18    1.70    2.40
  -4  -3 -18    2.50    3.00
   4   3  18    4.60    4.80
  -5  -3 -18   -1.90    2.40
  -5  -3 -18   -4.10    3.40
   5   3  18   -4.60    3.00
  -6  -3 -18  124.39    8.00
  -6  -3 -18  127.49   12.00
  -6  -3 -18   93.99    6.30
   6   3  18  128.89   16.90
  -7  -3 -18   44.30    4.20
  -7  -3 -18   49.80    9.50
  -7  -3 -18   47.80    5.10
   7   3  18   60.79   12.60
  -8  -3 -18   32.80    3.90
  -8  -3 -18   39.50    8.60
   8   3  18   48.40   11.80
  -9  -3 -18    3.70    5.80
   9   3  18    8.50    6.50
   4  -4 -18    8.50    3.70
   4  -4 -18    3.30    4.90
  -4   4  18    3.00    6.30
   3  -4 -18   52.39   10.00
   3  -4 -18   48.30    6.70
  -3   4  18   59.79   10.20
   2  -4 -18   54.89   10.10
   2  -4 -18   55.39    8.80
  -2   4  18   60.09   10.20
   1  -4 -18   47.60    6.90
   1  -4 -18   40.00    8.80
  -1   4  18   44.80    8.30
   0  -4 -18   86.89   12.20
   0  -4 -18   91.39    9.70
   0   4  18   84.29   10.70
  -1  -4 -18   88.29   11.00
  -1  -4 -18  109.39   14.00
  -1  -4 -18  101.69    9.50
  -2  -4 -18   41.50    7.10
  -2  -4 -18   46.00    8.00
  -2  -4 -18   57.49   10.00
  -3  -4 -18   28.10    6.70
   3   4  18   24.20    7.10
  -4  -4 -18   51.39    8.40
  -4  -4 -18   50.99    7.90
   4   4  18   49.50   11.00
  -5  -4 -18  284.57   16.70
  -5  -4 -18  314.07   14.60
  -5  -4 -18  279.87   12.10
   5   4  18  252.67   18.80
  -6  -4 -18    4.50    4.40
  -6  -4 -18    5.20    2.60
  -6  -4 -18   10.20    4.00
   6   4  18    3.10    4.40
  -7  -4 -18    8.30    2.80
  -7  -4 -18    6.00    4.90
  -7  -4 -18    7.00    3.20
   7   4  18    2.70    4.60
  -8  -4 -18    2.20    2.50
  -8  -4 -18   -0.40    4.30
  -8  -4 -18    3.60    2.20
   8   4  18   11.00    6.70
  -9  -4 -18   73.59    4.90
  -9  -4 -18   97.69   13.40
  -9  -4 -18   71.39    4.80
   9   4  18   91.29   15.60
 -10  -4 -18    0.60    5.40
   4  -5 -18   23.80    7.30
   4  -5 -18   32.00    6.00
   3  -5 -18   80.09    9.10
   3  -5 -18   91.29   12.00
  -3   5  18   60.29   10.20
   2  -5 -18   98.29   12.90
   2  -5 -18   86.69    9.50
  -2   5  18   92.69   13.20
   1  -5 -18   37.00    6.80
   1  -5 -18   32.00    8.00
  -1   5  18   40.50    8.70
   0  -5 -18   75.19   10.80
   0  -5 -18  100.79    9.50
   0  -5 -18   69.29   10.50
  -1  -5 -18  257.97   17.30
  -1  -5 -18  270.47   15.00
  -1  -5 -18  287.17   16.80
  -2  -5 -18   38.20    8.40
  -2  -5 -18   42.20    7.30
  -2  -5 -18   33.30    6.90
  -3  -5 -18   69.39   10.10
  -3  -5 -18   70.89    9.60
   3   5  18   73.89   12.10
  -4  -5 -18  251.87   15.50
   4   5  18  230.38   17.20
  -5  -5 -18   25.80    6.90
  -5  -5 -18   25.20    5.80
   5   5  18   12.30    6.00
  -6  -5 -18  142.99   12.60
  -6  -5 -18  117.19    9.20
  -6  -5 -18  121.09    8.10
   6   5  18  117.49   15.10
  -7  -5 -18   65.19   10.20
  -7  -5 -18   47.70    6.00
  -7  -5 -18   56.39    7.00
   7   5  18   54.49   11.60
  -8  -5 -18   45.80    5.60
  -8  -5 -18   55.19    6.40
  -8  -5 -18   50.59    9.50
   8   5  18   49.99   11.40
  -9  -5 -18   39.90    5.80
  -9  -5 -18   41.10    5.30
  -9  -5 -18   48.70   12.30
   9   5  18   37.90   10.80
   4  -6 -18  100.79   12.30
  -4   6  18  108.89   15.40
  -4   6  18   88.19   10.00
   3  -6 -18    0.20    3.70
  -3   6  18    5.60    5.10
  -3   6  18    9.40    4.30
   2  -6 -18    0.70    3.60
  -2   6  18    6.60    4.10
  -2   6  18   -1.60    3.70
   1  -6 -18   -0.10    3.60
   1  -6 -18    2.40    4.60
  -1   6  18    4.20    4.20
   0  -6 -18  111.19   11.30
   0  -6 -18  129.19   12.30
   0  -6 -18  131.49   10.90
  -1  -6 -18    0.10    3.70
  -1  -6 -18    6.90    4.20
  -1  -6 -18    7.10    4.60
  -2  -6 -18   -1.80    3.30
  -2  -6 -18   -3.00    2.80
  -2  -6 -18    2.10    3.70
   2   6  18    0.80    4.20
  -3  -6 -18  165.38   12.60
  -3  -6 -18  161.28   12.30
   3   6  18  142.89   13.30
  -4  -6 -18   77.29   10.20
  -4  -6 -18   83.19   10.30
   4   6  18   88.69   12.90
  -5  -6 -18   33.70    7.40
  -5  -6 -18   31.50    6.70
   5   6  18   24.90    7.80
  -6  -6 -18   28.70    7.80
   6   6  18   16.40    6.50
  -7  -6 -18  262.47   17.20
  -7  -6 -18  259.67   13.70
   7   6  18  273.57   19.90
  -8  -6 -18   41.00    6.50
   8   6  18   50.39   11.30
  -9  -6 -18   26.90    5.20
  -9  -6 -18   31.20    7.50
   9   6  18   44.30   11.70
   4  -7 -18    4.00    4.30
  -4   7  18   -2.80    4.70
  -4   7  18   -1.50    3.40
   3  -7 -18    9.20    6.00
   3  -7 -18   10.50    4.90
  -3   7  18    0.90    4.40
  -3   7  18    8.20    4.50
   2  -7 -18  172.78   12.90
   2  -7 -18  183.98   15.80
  -2   7  18  158.98   12.20
   1  -7 -18  125.39   14.80
   1  -7 -18  118.89   11.00
  -1   7  18  108.69   12.30
   0  -7 -18  119.29   14.50
   0  -7 -18   99.59   12.20
   0   7  18   93.79   10.80
  -1  -7 -18    2.10    3.90
  -1  -7 -18    6.20    4.40
  -1  -7 -18    8.20    4.50
   1   7  18    6.60    4.60
  -2  -7 -18   -0.30    3.20
  -2  -7 -18    8.00    4.80
   2   7  18    0.80    3.30
  -3  -7 -18  117.79   13.70
  -3  -7 -18   91.59   11.10
   3   7  18   80.39   11.40
  -4  -7 -18    2.20    3.40
  -4  -7 -18    3.40    4.10
   4   7  18   14.70    5.90
  -5  -7 -18   70.79   10.30
  -5  -7 -18   55.49    8.60
   5   7  18   47.30    9.10
  -6  -7 -18  235.58   14.30
  -6  -7 -18  240.88   16.30
   6   7  18  239.78   17.80
  -7  -7 -18    0.00    4.60
  -7  -7 -18    3.40    3.60
   7   7  18    0.30    4.80
  -8  -7 -18    8.30    4.10
  -8  -7 -18   13.00    6.30
   8   7  18    4.50    5.80
  -9  -7 -18   14.30    4.80
  -9  -7 -18   23.40    7.30
   9   7  18   14.20    7.60
   4  -8 -18   43.00    7.60
   4  -8 -18   35.70    9.60
  -4   8  18   50.79    9.00
   3  -8 -18  197.38   12.90
   3  -8 -18  208.48   24.30
  -3   8  18  184.28   13.70
   2  -8 -18   37.40    9.40
   2  -8 -18   11.00    4.80
  -2   8  18    5.30    4.60
   1  -8 -18    0.00    3.30
   1  -8 -18    6.80    5.60
  -1   8  18    4.90    4.20
   0  -8 -18   62.09    9.40
   0  -8 -18   57.89   10.40
   0   8  18   65.99   10.50
  -1  -8 -18    7.00    4.80
  -1  -8 -18    9.90    4.50
   1   8  18   13.40    5.80
  -2  -8 -18   90.09   12.50
   2   8  18   82.09   11.30
   2   8  18   86.39   11.70
  -3  -8 -18   34.70    7.50
  -3  -8 -18   26.60    7.20
   3   8  18   23.40    6.90
  -4  -8 -18   33.40    7.70
  -4  -8 -18   26.50    7.20
   4   8  18   33.60    7.90
  -5  -8 -18  104.19   12.60
  -5  -8 -18   92.09   11.10
   5   8  18   83.79   12.50
  -6  -8 -18   18.50    6.40
  -6  -8 -18   25.50    6.30
   6   8  18   23.30    7.80
  -7  -8 -18   62.99   14.50
  -7  -8 -18  121.79   10.80
   7   8  18   93.59   13.30
  -8  -8 -18  286.57   18.80
  -8  -8 -18  293.57   15.90
   8   8  18  252.77   19.90
  -9  -8 -18   15.40    7.20
  -9  -8 -18   12.00    4.90
   9   8  18    9.90    6.70
   3  -9 -18  134.69   10.20
   3  -9 -18  121.19   15.50
  -3   9  18  132.09   12.30
   2  -9 -18   -2.90    4.80
   2  -9 -18   -0.50    3.00
  -2   9  18    4.80    4.60
   1  -9 -18   35.90    6.50
   1  -9 -18   30.60    8.50
  -1   9  18   27.40    7.20
   0  -9 -18   11.40    6.20
   0  -9 -18    9.40    5.10
   0   9  18   13.70    5.70
  -1  -9 -18  213.38   16.60
  -1  -9 -18  205.58   13.60
   1   9  18  198.68   14.60
  -2  -9 -18   56.29    9.40
   2   9  18   53.69    9.20
   2   9  18   77.59   11.40
  -3  -9 -18  143.99   13.30
   3   9  18  157.78   12.90
   3   9  18  127.79   12.20
  -4  -9 -18   -4.80    3.70
  -4  -9 -18    4.30    4.50
   4   9  18    3.60    4.20
  -5  -9 -18   14.80    5.90
  -5  -9 -18   13.20    5.60
   5   9  18   14.90    6.20
  -6  -9 -18  193.68   14.20
  -6  -9 -18  212.68   30.20
   6   9  18  178.88   15.60
  -7  -9 -18  122.29   11.40
  -7  -9 -18   88.79   12.40
   7   9  18   91.79   13.00
  -8  -9 -18   45.10    9.40
  -8  -9 -18   38.50    7.70
   8   9  18   37.60    9.50
   3 -10 -18   -2.60    4.60
   3 -10 -18   -2.80    2.50
  -3  10  18   -2.10    4.00
   2 -10 -18   46.80   10.50
   2 -10 -18   73.99    8.30
  -2  10  18   72.69   11.70
   1 -10 -18   12.30    4.10
   1 -10 -18   13.60    4.40
   1 -10 -18    6.90    6.10
  -1  10  18   21.90    7.10
   0 -10 -18   45.80   10.60
   0 -10 -18   24.30    8.20
   0 -10 -18   24.70    5.70
   0  10  18   28.30    7.50
  -1 -10 -18   16.40    6.80
  -1 -10 -18   16.60    5.20
   1  10  18   20.80    6.60
  -2 -10 -18   92.09   13.30
   2  10  18  101.19   11.60
   2  10  18  107.19   14.10
  -3 -10 -18   16.10    6.60
   3  10  18   25.70    7.50
   3  10  18   23.80    6.60
  -4 -10 -18    1.90    4.40
   4  10  18    0.50    4.20
   4  10  18    1.60    3.80
  -5 -10 -18  187.58   14.90
  -5 -10 -18  177.18   23.60
   5  10  18  180.68   14.70
  -6 -10 -18  120.29   14.20
  -6 -10 -18  125.79   14.30
   6  10  18  100.89   13.60
  -7 -10 -18    3.30    4.30
  -7 -10 -18    5.40    5.00
   7  10  18    4.20    5.20
   2 -11 -18   17.30    7.00
   2 -11 -18   14.70    3.80
  -2  11  18   22.00    7.90
   1 -11 -18   22.30    7.90
   1 -11 -18   22.70    4.70
  -1  11  18   28.50    8.40
   0 -11 -18   24.80   11.30
   0 -11 -18   20.40    5.10
   0 -11 -18   27.80    5.50
   0  11  18   25.10    7.00
  -1 -11 -18  107.39    9.10
  -1 -11 -18   87.59   10.10
  -1 -11 -18   83.99   12.70
   1  11  18   85.39   11.60
  -2 -11 -18    4.80    5.10
   2  11  18   -3.40    4.10
   2  11  18    2.00    3.60
  -3 -11 -18    9.40    6.00
   3  11  18    6.30    8.80
   3  11  18    4.00    4.00
  -4 -11 -18  102.19   13.00
   4  11  18   92.49   11.90
   4  11  18  109.89   11.10
  -5 -11 -18   95.49   13.50
  -5 -11 -18   90.19   14.40
   5  11  18   78.79   11.80
   5  11  18   84.09   11.90
  -6 -11 -18    4.10    5.30
  -6 -11 -18    0.50    3.80
   6  11  18    9.50    5.40
   0 -12 -18   99.59    7.40
   0 -12 -18  100.29   14.40
   0  12  18  133.79   15.70
  -1 -12 -18    4.40    5.30
  -1 -12 -18   -0.70    2.40
   1  12  18   10.10    6.60
  -2 -12 -18    4.00    5.70
   2  12  18   -3.50    3.80
   3  12  18   30.40    6.70
   3  12  18   39.40   10.00
   4  12  18   99.09   14.10
   4  12  18  101.49   12.10
  -1   2 -19   34.10    7.00
  -1   2 -19   29.90    9.60
   1  -2  19   38.60    7.10
  -2   2 -19   52.49    8.10
  -2   2 -19   39.40   10.50
   2  -2  19   43.00    6.90
  -3   2 -19   10.50    6.40
  -3   2 -19    7.70    5.00
   3  -2  19    0.60    2.90
  -4   2 -19   20.60    6.40
  -4   2 -19   30.40    9.70
  -4   2 -19   26.20    4.70
  -5   2 -19   83.99   11.80
  -5   2 -19   54.19   11.80
  -5   2 -19   80.49    4.40
  -5   2 -19   73.59    4.30
   1   1 -19    1.60    5.40
   1   1 -19   -4.40    2.70
  -1  -1  19    0.30    4.00
   0   1 -19   47.90    6.80
   0   1 -19   49.40   11.00
   0  -1  19   33.50    6.90
  -1   1 -19   37.90    9.60
  -1   1 -19   58.19    8.00
   1  -1  19   57.19    8.50
  -2   1 -19   26.30    6.60
  -2   1 -19   11.50    6.80
   2  -1  19   22.20    5.20
  -3   1 -19    2.30    3.20
  -3   1 -19    7.50    4.90
  -3   1 -19    6.00    6.80
   3  -1  19    5.10    3.40
  -4   1 -19   36.70    5.00
  -4   1 -19   49.80    6.00
  -4   1 -19   74.29   14.10
  -4   1 -19   50.19    8.70
  -5   1 -19    3.80    2.20
  -5   1 -19    6.00    6.40
  -5   1 -19    4.00    2.10
  -5   1 -19    6.10    5.50
  -6   1 -19   -2.40    4.60
   6  -1  19   -3.10    5.00
  -7   1 -19   24.80   12.30
   7  -1  19   28.30   10.30
   2   0 -19    7.50    6.30
   2   0 -19    6.00    3.10
  -2   0  19   13.30    5.70
   1   0 -19  178.88   10.30
   1   0 -19  125.49   16.80
  -1   0  19  178.48   13.70
   0   0 -19   78.49   20.10
   0   0 -19   61.09    9.50
   0   0  19   76.19   10.60
  -1   0 -19   -4.30    2.90
  -1   0 -19    8.20    6.40
   1   0  19    2.60    3.40
  -2   0 -19   -1.10    4.20
  -2   0 -19   -4.40    3.40
   2   0  19    1.60    3.30
  -3   0 -19   43.50    9.80
  -3   0 -19   29.90    5.80
  -3   0 -19   32.20    6.80
  -4   0 -19   23.30    7.20
  -4   0 -19    3.60    2.90
  -4   0 -19    8.90    7.10
  -5   0 -19   11.60    7.30
  -5   0 -19    5.00    2.60
  -5   0 -19    9.30    5.60
  -5   0 -19    7.20    2.50
   5   0  19   -1.10    9.20
  -6   0 -19   89.29   12.10
   6   0  19   97.49   16.10
  -7   0 -19   54.79   11.10
   7   0  19   55.29   11.30
   2  -1 -19   95.89    7.50
   2  -1 -19   67.39   13.90
  -2   1  19   79.89   11.80
   1  -1 -19   84.79    9.10
   1  -1 -19   55.99   11.40
  -1   1  19   72.29   10.20
   0  -1 -19    2.80    5.40
   0  -1 -19    5.70    4.20
   0   1  19    1.40    4.10
  -1  -1 -19   38.90    9.10
  -1  -1 -19   51.39    7.80
   1   1  19   65.99    9.30
  -2  -1 -19   40.00   10.00
  -2  -1 -19   24.80    6.20
   2   1  19   29.20    6.30
  -3  -1 -19    0.40    2.90
  -3  -1 -19    1.00    4.10
  -3  -1 -19   -6.90    3.40
  -4  -1 -19   25.60    7.90
  -4  -1 -19   31.70    7.30
  -4  -1 -19   29.00    4.70
  -4  -1 -19   46.50    6.60
  -5  -1 -19   71.59    5.60
  -5  -1 -19   92.39    7.00
  -5  -1 -19  110.59   12.30
   5   1  19   93.09   14.30
  -6  -1 -19   99.49    5.70
  -6  -1 -19  115.79   13.70
  -7  -1 -19    5.90    5.50
   7   1  19   11.30    6.60
  -8  -1 -19  117.39   15.50
   8   1  19   70.09   12.90
   3  -2 -19  152.88    8.70
   3  -2 -19  121.19   15.80
  -3   2  19  148.39   14.20
   2  -2 -19  113.59   15.80
   2  -2 -19   63.99    8.40
   2  -2 -19   98.19    7.90
  -2   2  19   72.99   10.60
   1  -2 -19   26.40    5.70
   1  -2 -19    9.20    6.00
  -1   2  19   15.30    5.90
   0  -2 -19   25.40    8.60
   0  -2 -19   27.80    5.90
   0   2  19   24.40    6.70
  -1  -2 -19  114.39   14.50
  -1  -2 -19  124.49   10.40
   1   2  19  151.38   11.80
  -2  -2 -19   10.20    6.30
  -2  -2 -19    7.90    4.50
  -2  -2 -19    2.60    3.50
  -3  -2 -19    0.30    3.90
  -3  -2 -19    1.30    3.20
  -3  -2 -19   -0.70    3.80
  -4  -2 -19   38.60    6.30
  -4  -2 -19   45.20    8.20
  -4  -2 -19   34.90    5.00
   4   2  19   32.20    8.70
  -5  -2 -19   56.09    5.90
  -5  -2 -19   75.49   10.30
  -5  -2 -19   68.79    7.40
   5   2  19   52.09   11.70
  -6  -2 -19    7.40    5.40
  -6  -2 -19    1.90    2.50
  -6  -2 -19    3.80    2.30
   6   2  19   -0.10    4.80
  -7  -2 -19  168.98   14.50
  -7  -2 -19  132.69    5.20
  -7  -2 -19  138.59    5.10
   7   2  19  114.89   16.70
  -8  -2 -19   97.29   12.70
   8   2  19   72.19   12.50
   3  -3 -19  121.69    8.60
   3  -3 -19  133.39   16.70
  -3   3  19  128.89   15.60
   2  -3 -19   14.80    6.40
   2  -3 -19    8.40    4.10
  -2   3  19   12.70    6.00
   1  -3 -19   33.30    6.30
   1  -3 -19   26.90    7.90
  -1   3  19   24.40    6.60
   0  -3 -19  113.39    9.90
   0  -3 -19  129.89   16.00
   0   3  19  102.99   12.70
  -1  -3 -19   58.89   10.70
  -1  -3 -19   53.49    7.90
   1   3  19   44.30    8.10
  -2  -3 -19   26.70    6.40
  -2  -3 -19   15.30    7.30
  -2  -3 -19   18.80    5.70
  -3  -3 -19   40.80    9.30
  -3  -3 -19   36.70    7.50
  -3  -3 -19   42.10    7.30
  -4  -3 -19    0.60    2.90
  -4  -3 -19    4.50    4.70
   4   3  19    4.60    5.10
  -5  -3 -19    4.10    4.60
  -5  -3 -19   -1.50    2.70
  -5  -3 -19    1.40    2.40
   5   3  19   -1.80    4.10
  -6  -3 -19   71.99    5.80
  -6  -3 -19   81.29   11.00
  -6  -3 -19   85.39    7.00
   6   3  19  111.59   16.40
  -7  -3 -19   56.99    4.60
  -7  -3 -19   64.39    5.30
  -7  -3 -19   66.89   10.10
   7   3  19   70.89   14.20
  -8  -3 -19   13.70    6.70
  -8  -3 -19   18.00    2.60
  -8  -3 -19   21.50    3.50
   8   3  19   24.10    9.10
  -9  -3 -19   32.40    8.70
   9   3  19   38.10   11.30
   3  -4 -19   13.90    6.80
  -3   4  19   15.90    6.50
   2  -4 -19   19.60    5.00
   2  -4 -19   14.30    6.60
  -2   4  19   21.90    7.10
   1  -4 -19   94.39    8.90
   1  -4 -19   86.59   12.30
  -1   4  19   81.39   11.30
   0  -4 -19   64.39    9.10
   0  -4 -19   64.79   11.30
   0   4  19   65.19   10.00
  -1  -4 -19   68.09   11.40
  -1  -4 -19   69.29    9.30
  -1  -4 -19   70.09   10.10
  -2  -4 -19   12.20    5.10
  -2  -4 -19   12.90    5.30
  -2  -4 -19   14.30    6.80
  -3  -4 -19    9.00    4.40
  -3  -4 -19   12.60    5.80
  -3  -4 -19    8.20    4.30
   3   4  19    4.10    5.90
  -4  -4 -19   25.90    6.60
  -4  -4 -19   27.20    7.10
   4   4  19   33.20    9.40
  -5  -4 -19  315.67   17.70
  -5  -4 -19  274.17   14.30
  -5  -4 -19  301.17   14.80
   5   4  19  301.07   20.90
  -6  -4 -19   29.10    7.50
  -6  -4 -19   17.30    3.80
  -6  -4 -19   16.90    4.50
   6   4  19    8.00    5.80
  -7  -4 -19    3.50    3.00
  -7  -4 -19    0.40    4.20
  -7  -4 -19    3.60    2.50
   7   4  19    2.40    4.80
  -8  -4 -19   55.19    4.70
  -8  -4 -19   60.69   11.20
  -8  -4 -19   53.59    5.50
   8   4  19   49.00   10.40
  -9  -4 -19  133.39    5.90
  -9  -4 -19  136.19   15.80
   9   4  19  120.89   17.20
   3  -5 -19   37.60    8.50
   3  -5 -19   39.40    6.80
  -3   5  19   26.20    8.40
   2  -5 -19  100.49   10.40
   2  -5 -19   88.59   12.50
  -2   5  19   98.49   13.40
   1  -5 -19   57.69   10.40
   1  -5 -19   57.49    8.30
  -1   5  19   48.90    8.80
   0  -5 -19  133.39   13.20
   0  -5 -19  149.29   11.40
   0  -5 -19  127.79   12.40
  -1  -5 -19  203.68   16.00
  -1  -5 -19  189.28   14.30
  -1  -5 -19  193.38   13.00
  -2  -5 -19   45.90    7.80
  -2  -5 -19   48.30    9.80
  -2  -5 -19   55.69    8.80
  -3  -5 -19   58.59    8.90
  -3  -5 -19   44.00    7.70
   3   5  19   38.90    9.00
  -4  -5 -19  225.28   15.20
  -4  -5 -19  226.98   14.20
   4   5  19  247.58   18.30
  -5  -5 -19   44.40   11.10
  -5  -5 -19   42.30    8.50
   5   5  19   44.70   10.50
  -6  -5 -19   12.00    5.60
  -6  -5 -19   14.60    4.70
   6   5  19    4.10    5.00
  -7  -5 -19   75.89    8.20
  -7  -5 -19   65.29    9.90
  -7  -5 -19   63.79    6.20
   7   5  19   74.79   12.00
  -8  -5 -19   99.49   13.40
  -8  -5 -19  103.89    8.20
  -8  -5 -19  107.89    7.90
   8   5  19  104.19   23.50
  -9  -5 -19   51.19   10.80
  -9  -5 -19   47.00    5.40
   9   5  19   24.10    8.60
   3  -6 -19   53.39   10.00
   3  -6 -19   57.69    8.10
  -3   6  19   31.00   12.50
   2  -6 -19    8.60    5.70
   2  -6 -19   20.90    6.90
   2  -6 -19   21.10    5.90
  -2   6  19   12.10    6.40
   1  -6 -19   12.40    5.60
   1  -6 -19   19.00    7.00
   1  -6 -19   13.60    4.90
   0  -6 -19  195.68   15.20
   0  -6 -19  193.98   14.80
   0  -6 -19  189.38   13.00
  -1  -6 -19   23.40    6.30
  -1  -6 -19   27.00    7.30
  -1  -6 -19   30.80    7.20
  -2  -6 -19    2.40    3.90
  -2  -6 -19   -0.30    3.80
  -2  -6 -19   -0.10    3.30
  -3  -6 -19  172.98   13.00
  -3  -6 -19  178.18   13.60
   3   6  19  157.78   14.50
  -4  -6 -19   23.90    7.30
  -4  -6 -19   17.60    5.80
   4   6  19   20.90    7.40
  -5  -6 -19    1.20    3.50
  -5  -6 -19    4.80    4.70
   5   6  19    1.10    4.50
  -6  -6 -19   16.10    5.30
  -6  -6 -19   25.30    7.30
   6   6  19   16.60    7.40
  -7  -6 -19  235.58   19.70
   7   6  19  214.28   18.30
  -8  -6 -19   31.40    8.70
  -8  -6 -19   34.90    6.00
   3  -7 -19   13.70    6.80
   3  -7 -19   19.70    6.50
  -3   7  19   15.40    5.80
   2  -7 -19   96.49   13.60
   2  -7 -19  116.39   11.40
  -2   7  19   96.19   10.90
   1  -7 -19  202.68   14.60
   1  -7 -19  220.88   17.00
  -1   7  19  200.18   13.70
   0  -7 -19   10.40    5.00
   0  -7 -19   21.40    6.90
   0  -7 -19   14.40    5.70
  -1  -7 -19    0.50    3.60
  -1  -7 -19   -3.80    3.40
  -1  -7 -19    3.60    3.90
  -2  -7 -19    2.10    4.10
  -2  -7 -19    7.00    4.60
  -2  -7 -19    4.40    4.20
  -3  -7 -19   11.60    5.40
  -3  -7 -19    3.30    3.90
   3   7  19    6.80    4.80
  -4  -7 -19   14.30    5.70
  -4  -7 -19   15.70    5.80
   4   7  19   11.30    6.10
  -5  -7 -19   34.70    7.50
  -5  -7 -19   35.70    8.20
   5   7  19   40.40    8.90
  -6  -7 -19  317.27   16.70
  -6  -7 -19  303.77   18.80
   6   7  19  284.87   20.00
  -7  -7 -19   -3.70    3.20
  -7  -7 -19    3.50    5.10
   7   7  19    5.20    5.50
  -8  -7 -19   25.40    5.70
  -8  -7 -19   32.40    8.40
   8   7  19   28.00   11.80
   3  -8 -19   92.19   10.90
   3  -8 -19   84.89   13.90
  -3   8  19   99.99   11.80
   2  -8 -19   58.79    9.20
   2  -8 -19   61.39   14.90
  -2   8  19   55.79    9.20
   1  -8 -19    3.10    5.10
   1  -8 -19    3.40    4.00
  -1   8  19   -1.50    3.30
   0  -8 -19   46.90   10.00
   0  -8 -19   41.60    8.20
   0   8  19   37.90    7.90
  -1  -8 -19   92.49   12.00
  -1  -8 -19   81.99   12.30
   1   8  19   61.49    9.00
  -2  -8 -19   11.40    6.00
  -2  -8 -19   18.80    6.10
  -2  -8 -19   22.20    6.60
  -3  -8 -19   30.00    7.40
  -3  -8 -19   39.40    8.20
   3   8  19   20.10    6.40
  -4  -8 -19   18.80    6.20
  -4  -8 -19   39.60    8.40
   4   8  19   31.20    8.60
  -5  -8 -19  178.08   14.60
  -5  -8 -19  181.58   13.90
   5   8  19  176.08   15.20
  -6  -8 -19   15.20    5.60
  -6  -8 -19   15.60    7.60
   6   8  19    5.10    5.20
  -7  -8 -19   78.49   12.30
  -7  -8 -19   66.59    9.30
   7   8  19   60.09   11.10
  -8  -8 -19  295.47   16.30
  -8  -8 -19  310.97   20.20
   8   8  19  348.37   29.60
   2  -9 -19    9.60    4.40
   2  -9 -19    7.90    6.10
  -2   9  19    1.20    5.10
   1  -9 -19   43.40    7.80
   1  -9 -19   57.09   14.60
  -1   9  19   23.60    6.80
   0  -9 -19   34.90    9.30
   0  -9 -19   47.20    8.10
   0   9  19   46.60    9.20
  -1  -9 -19  215.28   17.30
  -1  -9 -19  250.47   15.50
   1   9  19  248.58   16.50
  -2  -9 -19   73.39   11.20
  -2  -9 -19   92.89   11.60
   2   9  19   98.59   12.80
  -3  -9 -19  138.49   12.90
  -3  -9 -19  138.29   13.40
   3   9  19  135.39   12.70
  -4  -9 -19   26.60    6.90
  -4  -9 -19   23.00    6.90
   4   9  19   28.60    7.70
  -5  -9 -19    1.50    5.60
  -5  -9 -19    6.10    4.40
   5   9  19    7.40    5.40
  -6  -9 -19   92.29   11.40
  -6  -9 -19   86.79   12.30
   6   9  19   67.49   11.30
  -7  -9 -19  123.29   13.40
  -7  -9 -19   99.59   13.40
   7   9  19  111.19   15.30
   1 -10 -19   65.19   12.60
   1 -10 -19   49.10    7.70
  -1  10  19   51.69   10.00
   0  10  19  116.89   13.30
  -1 -10 -19   -0.80    4.00
  -1 -10 -19    6.20    4.20
   1  10  19    4.70    5.20
  -2 -10 -19   63.69   11.10
  -2 -10 -19   79.89   10.80
   2  10  19   79.09   12.80
  -3 -10 -19   38.50    9.10
   3  10  19   32.50    9.80
   3  10  19   30.60    7.60
  -4 -10 -19    1.60    4.20
  -4 -10 -19    3.20    4.50
   4  10  19   -3.00    3.50
  -5 -10 -19  153.58   14.60
  -5 -10 -19  159.58   14.00
   5  10  19  141.19   13.40
  -6 -10 -19   75.39   11.50
  -6 -10 -19   69.89   10.50
   6  10  19   51.59   10.10
   0 -11 -19   26.40    5.80
   0 -11 -19   29.40    9.40
   0  11  19   38.60    9.50
  -1 -11 -19  105.89   12.90
  -1 -11 -19  100.69   14.20
   1  11  19   85.89   11.80
  -2 -11 -19   12.30    4.90
  -2 -11 -19   12.10   10.70
   2  11  19   11.40    5.70
  -3 -11 -19    3.50    4.60
   3  11  19    0.40    4.80
   3  11  19   -1.00    3.20
  -4 -11 -19  180.78   15.90
   4  11  19  200.08   14.90
   4  11  19  180.48   15.40
  -3   1 -20   48.00    8.60
  -3   1 -20   45.80   11.30
   0   0 -20   98.59   14.80
  -1   0 -20   35.70   10.20
  -1   0 -20   22.90    5.90
   1   0  20   37.10    7.00
  -2   0 -20   18.20    8.50
  -2   0 -20   10.80    4.90
   2   0  20    9.20    4.40
  -3   0 -20  116.99   15.80
  -3   0 -20  126.79   11.60
  -3   0 -20  128.99   10.10
  -4   0 -20   12.00    7.00
  -4   0 -20   25.50    6.70
  -4   0 -20   32.80    5.60
  -5   0 -20    4.00    2.60
  -5   0 -20    4.70    6.60
  -5   0 -20    0.30    4.60
   0  -1 -20   22.30    5.80
   0  -1 -20   16.80    7.80
   0   1  20   17.50    6.00
  -1  -1 -20   84.59   18.50
  -1  -1 -20   87.09   10.30
   1   1  20   64.19    9.10
  -2  -1 -20  120.39   20.70
  -2  -1 -20  111.59   10.70
   2   1  20  145.69   11.10
  -3  -1 -20   35.40    7.70
  -3  -1 -20   40.00   12.50
  -4  -1 -20    1.90    3.10
  -4  -1 -20    0.90    2.80
  -4  -1 -20    0.70    4.30
  -4  -1 -20    0.40    5.20
  -5  -1 -20  100.19   12.40
  -5  -1 -20  109.79    7.80
  -5  -1 -20   96.39    7.80
  -5  -1 -20  118.09   15.60
   5   1  20   84.89   13.90
  -6  -1 -20  203.48   15.70
  -6  -1 -20  156.68    7.80
   6   1  20  132.79   17.50
   1  -2 -20   57.09    8.00
   1  -2 -20   64.19   14.70
  -1   2  20   47.70    8.80
   0  -2 -20   32.30    9.10
   0  -2 -20   33.70    6.90
   0   2  20   18.20    6.40
  -1  -2 -20  188.78   12.60
  -1  -2 -20  180.18   16.90
   1   2  20  155.28   12.60
  -2  -2 -20    9.40    4.90
  -2  -2 -20    6.10    4.20
  -2  -2 -20   15.80    6.90
  -3  -2 -20   18.00    8.20
  -3  -2 -20    0.60    3.40
  -3  -2 -20    4.70    4.60
  -4  -2 -20   72.69   14.20
  -4  -2 -20   70.79   10.20
  -4  -2 -20   83.39    9.20
  -5  -2 -20  111.99   12.50
  -5  -2 -20  118.59    8.60
   5   2  20   80.69   20.00
  -6  -2 -20    2.90    4.50
  -6  -2 -20    4.50    2.80
  -6  -2 -20    2.00    2.40
   6   2  20   12.50    8.00
  -7  -2 -20   27.70    8.20
  -7  -2 -20   12.10    1.60
   7   2  20   19.90    9.10
   2  -3 -20   99.79   13.80
   2  -3 -20   73.79    9.40
  -2   3  20   69.49   11.00
   1  -3 -20  119.49   15.30
   1  -3 -20  121.19    9.70
  -1   3  20  122.29   14.50
   0  -3 -20  178.58   12.00
   0  -3 -20  185.28   16.80
   0   3  20  155.08   13.40
  -1  -3 -20   92.09   10.50
  -1  -3 -20   80.69   11.00
  -1  -3 -20   80.39   12.70
  -2  -3 -20   23.60    8.20
  -2  -3 -20   10.10    5.10
  -2  -3 -20   12.10    5.00
  -3  -3 -20  198.88   17.70
  -3  -3 -20  206.88   14.10
  -3  -3 -20  205.58   13.40
  -4  -3 -20   64.59    8.70
  -4  -3 -20   56.09    9.50
  -4  -3 -20   58.59   11.40
   4   3  20   45.80   10.80
  -5  -3 -20    2.90    2.70
  -5  -3 -20   -0.60    2.90
  -5  -3 -20    8.00    5.30
   5   3  20   -3.70    4.90
  -6  -3 -20   73.89    6.90
  -6  -3 -20   70.19   10.60
  -6  -3 -20   65.49    5.90
   6   3  20   75.09   14.90
  -7  -3 -20   79.79    5.80
  -7  -3 -20   82.79   12.40
   7   3  20   66.69   13.20
   2  -4 -20   16.40    7.60
   2  -4 -20   24.10    6.00
  -2   4  20   18.00    7.20
   1  -4 -20  123.19   15.70
   1  -4 -20  129.89   10.50
  -1   4  20  143.39   13.50
   0  -4 -20   64.79   10.20
   0  -4 -20  106.89   14.40
   0  -4 -20   91.29   10.30
   0   4  20   93.29   12.50
  -1  -4 -20   27.70    7.40
  -1  -4 -20   13.40    6.50
  -1  -4 -20   20.90    6.00
  -2  -4 -20  117.99   11.40
  -2  -4 -20  104.29   13.90
  -2  -4 -20  124.19   11.30
  -3  -4 -20  236.08   18.50
  -3  -4 -20  204.68   14.30
  -3  -4 -20  214.88   14.20
  -4  -4 -20   10.20    4.90
  -4  -4 -20    8.70    4.60
   4   4  20    0.00    5.30
  -5  -4 -20  300.07   18.00
  -5  -4 -20  315.77   15.50
   5   4  20  285.57   21.30
  -6  -4 -20   92.49   12.60
  -6  -4 -20   87.49    8.00
  -6  -4 -20   76.79    6.70
   6   4  20   76.69   12.50
  -7  -4 -20  114.59    7.90
  -7  -4 -20  125.69   15.60
   7   4  20   83.39   13.20
   2  -5 -20    4.70    3.90
   2  -5 -20    4.00    4.90
  -2   5  20    5.70    4.90
   1  -5 -20    8.10    5.40
   1  -5 -20    3.60    4.00
   1  -5 -20   14.90    6.50
  -1   5  20   13.70    6.20
   0  -5 -20  108.69   10.40
   0  -5 -20   86.49   12.30
   0  -5 -20   80.59   11.50
  -1  -5 -20  143.39   14.00
  -1  -5 -20  116.79   11.00
  -1  -5 -20  137.49   12.80
  -2  -5 -20  205.28   16.90
  -2  -5 -20  186.58   14.10
  -2  -5 -20  200.38   14.00
  -3  -5 -20    6.10    4.60
  -3  -5 -20   12.60    5.30
  -3  -5 -20    9.00    5.50
  -4  -5 -20  307.67   17.00
  -4  -5 -20  322.27   18.30
   4   5  20  290.07   20.60
  -5  -5 -20   83.09   11.20
  -5  -5 -20   73.39    9.50
   5   5  20   66.29   12.60
  -6  -5 -20    3.10    3.70
  -6  -5 -20   11.60    6.00
   6   5  20   -0.30    4.60
  -7  -5 -20    4.50    5.10
  -7  -5 -20    0.30    3.00
   7   5  20   -2.40    5.20
   2  -6 -20   49.10    8.20
   2  -6 -20   41.50    9.30
   2  -6 -20   29.50   11.40
   1  -6 -20   64.29   10.80
   1  -6 -20   79.79    9.80
   1  -6 -20   73.39   11.40
   0  -6 -20  213.28   16.20
   0  -6 -20  205.38   13.90
   0  -6 -20  193.98   15.60
  -1  -6 -20  121.19   14.90
  -1  -6 -20  121.89   11.30
  -1  -6 -20  111.19   13.50
  -2  -6 -20   -3.00    3.40
  -2  -6 -20    8.60    5.90
  -2  -6 -20    1.00    4.20
  -3  -6 -20  347.47   19.20
  -3  -6 -20  325.07   20.80
  -3  -6 -20  323.27   18.40
   3   6  20  345.67   21.70
  -4  -6 -20   88.89   11.90
  -4  -6 -20   94.79   11.60
   4   6  20   93.19   14.20
  -5  -6 -20   -0.10    3.90
  -5  -6 -20    1.40    4.80
   5   6  20    0.80    4.40
  -6  -6 -20   29.50    6.30
   6   6  20   26.00    8.00
  -7  -6 -20   48.40    8.00
  -7  -6 -20   78.39   11.20
   1  -7 -20  316.67   21.10
   1  -7 -20  333.07   17.90
   1  -7 -20  306.67   18.60
   0  -7 -20   10.90    6.10
   0  -7 -20    6.70    5.00
   0  -7 -20    2.20    4.20
  -1  -7 -20   -1.40    3.90
  -1  -7 -20    4.70    4.30
  -1  -7 -20   -0.60    3.50
  -2  -7 -20   97.49   13.40
  -2  -7 -20   84.99   10.80
  -2  -7 -20   76.39   11.30
  -3  -7 -20   56.39    9.70
  -3  -7 -20   81.79   11.40
   3   7  20   68.09   11.50
  -4  -7 -20    4.50    4.60
  -4  -7 -20    7.20    5.00
   4   7  20    6.30    5.30
  -5  -7 -20   80.99   10.90
  -5  -7 -20   69.19   10.60
   5   7  20   94.99   14.40
  -6  -7 -20  506.95   24.90
  -6  -7 -20  487.25   21.60
   6   7  20  478.35   26.50
  -7  -7 -20    6.10    4.40
  -7  -7 -20    9.30    6.20
   7   7  20   16.60    7.80
   1  -8 -20    3.20    7.50
   1  -8 -20   -2.00    3.40
  -1   8  20    1.50    4.50
   0  -8 -20   15.00    5.80
   0  -8 -20    6.50    5.80
   0  -8 -20   10.40    5.20
   0   8  20   12.20    5.60
  -1  -8 -20  131.69   12.10
  -1  -8 -20  125.69   12.30
  -1  -8 -20  117.29   14.80
  -2  -8 -20   60.99    9.80
  -2  -8 -20   35.10    8.00
  -2  -8 -20   49.50   10.10
  -3  -8 -20   13.00    6.00
  -3  -8 -20   13.50    5.90
   3   8  20    9.90    5.50
  -4  -8 -20   17.80    6.30
  -4  -8 -20   17.90    6.40
   4   8  20   12.70    6.00
  -5  -8 -20  411.16   22.20
  -5  -8 -20  417.66   21.30
   5   8  20  412.96   23.90
  -6  -8 -20   39.60    7.80
  -6  -8 -20   40.60    9.00
   6   8  20   48.60   10.40
   0  -9 -20  112.79   11.20
   0   9  20  116.99   13.50
  -1  -9 -20  224.98   17.90
  -1  -9 -20  199.78   14.70
   1   9  20  211.48   15.50
  -2  -9 -20   38.50    8.80
  -2  -9 -20   30.30    7.80
  -2  -9 -20   31.00    8.60
  -3  -9 -20   82.89   12.00
   3   9  20   94.49   12.80
  -4  -9 -20  178.38   15.10
  -4  -9 -20  169.28   14.50
   4   9  20  169.88   14.80
  -5  -9 -20   10.80    5.10
  -5  -9 -20   16.50    6.90
   5   9  20    6.40    5.10
  -1 -10 -20    2.70    5.10
  -1 -10 -20    0.70    3.40
   1  10  20   -8.40    7.60
  -2 -10 -20  101.39   12.30
  -2 -10 -20  104.29   14.60
   2  10  20  128.79   15.60
  -3 -10 -20  147.19   13.90
  -3 -10 -20  163.18   18.30
   3  10  20  123.49   12.50
  -4 -10 -20   11.20    5.50
  -4 -10 -20   12.20    6.40
   4  10  20    3.00    4.70
  -2  -2 -21    5.00    5.40
  -2  -2 -21    3.40    4.40
  -2  -2 -21   13.10    5.90
  -3  -2 -21   -1.00    2.90
  -3  -2 -21   -6.10    4.10
  -3  -2 -21    0.70    4.10
  -4  -2 -21   41.60    7.40
  -4  -2 -21   55.09   12.70
  -4  -2 -21   52.69    9.30
  -5  -2 -21  215.98   19.60
  -1  -3 -21    0.40    4.10
  -1  -3 -21    1.60    3.80
  -2  -3 -21   -4.00    3.00
  -2  -3 -21    0.50    4.40
  -3  -3 -21  149.99   24.40
  -3  -3 -21  147.29   11.90
  -3  -3 -21  138.79   12.70
  -4  -3 -21   58.29   12.00
  -4  -3 -21   58.59    8.30
  -4  -3 -21   69.19   10.70
  -5  -3 -21   20.60    6.90
  -5  -3 -21   29.70    6.00
   5   3  21   22.40    8.20
   0  -4 -21    4.70    4.80
   0  -4 -21    5.00    4.60
   0  -4 -21    5.90    5.80
  -1  -4 -21   56.19    9.70
  -1  -4 -21   43.00   10.40
  -1  -4 -21   65.49    9.60
  -2  -4 -21  141.09   18.30
  -2  -4 -21  142.89   12.70
  -2  -4 -21  139.99   12.10
  -3  -4 -21  200.18   14.10
  -3  -4 -21  213.38   14.70
  -3  -4 -21  189.98   17.60
  -4  -4 -21    0.40    4.30
  -4  -4 -21   -1.50    3.60
  -4  -4 -21   -6.00    4.60
   4   4  21    4.30    6.90
  -5  -4 -21   41.60    8.60
   5   4  21   81.59   15.80
  -6  -4 -21   49.20    9.90
  -6  -4 -21   29.70    5.70
   6   4  21   12.70    7.00
   0  -5 -21   40.50    7.70
   0  -5 -21   51.39   10.50
   0  -5 -21   46.00    9.50
  -1  -5 -21  161.28   15.60
  -1  -5 -21  155.68   14.00
  -1  -5 -21  155.58   12.70
  -2  -5 -21  226.38   15.90
  -2  -5 -21  216.78   14.90
  -2  -5 -21  206.68   17.60
  -3  -5 -21    0.30    4.00
  -3  -5 -21   -1.10    4.20
  -3  -5 -21    1.30    5.00
  -4  -5 -21  230.78   15.90
  -4  -5 -21  178.28   13.60
   4   5  21  203.68   18.20
  -5  -5 -21   81.59   10.10
  -5  -5 -21   78.19   12.20
   5   5  21   52.09   12.10
  -6  -5 -21   15.00    6.00
   6   5  21   17.20    8.30
   0  -6 -21   36.70    8.50
   0  -6 -21   53.79   10.40
   0  -6 -21   33.60    7.80
  -1  -6 -21  103.29   13.60
  -1  -6 -21  126.69   11.70
  -1  -6 -21  125.09   15.70
  -2  -6 -21    0.30    4.10
  -2  -6 -21   -2.40    4.20
  -2  -6 -21    0.80    4.20
  -3  -6 -21  196.28   14.70
  -3  -6 -21  201.38   15.10
  -3  -6 -21  195.98   17.10
  -4  -6 -21  122.39   11.60
  -4  -6 -21  106.19   12.60
   4   6  21   95.59   14.50
  -5  -6 -21   46.50   10.30
  -5  -6 -21   49.60    8.30
   5   6  21   31.20    9.10
  -1  -7 -21   20.70    6.50
  -1  -7 -21   20.30    7.30
  -1  -7 -21   23.10    7.50
  -2  -7 -21  137.69   14.00
  -2  -7 -21  148.49   14.00
  -2  -7 -21  152.28   13.10
  -3  -7 -21   46.30    8.90
  -3  -7 -21   31.50    8.00
  -3  -7 -21   36.30    8.70
  -4  -7 -21   63.19   10.20
   4   7  21   37.80    9.10
  -5  -7 -21    3.30    4.80
  -5  -7 -21    4.80    4.30
   5   7  21    8.20    6.30
  -2  -8 -21   31.50    8.20
  -2  -8 -21   26.80    7.30
  -2  -8 -21   39.00    9.50
  -3  -8 -21   20.70    6.90
  -3  -8 -21   18.40    6.70
  -4  -8 -21    5.10    4.50
  -4  -8 -21    2.40    5.00
   4   8  21    0.50    4.50
   0   0   0    0.00    0.00

_computing_structure_solution     'SHELXT 2018/2 (Sheldrick, 2018)'
;
_shelx_hkl_checksum   76393

