 
data_1_a
 
_audit_creation_method            'SHELXL-2018/3'
_shelx_SHELXL_version_number      '2018/3'
_chemical_name_systematic         ?
_chemical_name_common             ?
_chemical_melting_point           ?
_chemical_formula_moiety          ?
_chemical_formula_sum
 'C H N O S Zn' 
_chemical_formula_weight          140.46

loop_
 _atom_type_symbol
 _atom_type_description
 _atom_type_scat_dispersion_real
 _atom_type_scat_dispersion_imag
 _atom_type_scat_source
 'C'  'C'   0.0033   0.0016
 'International Tables Vol C Tables 4.2.6.8 and 6.1.1.4'
 'H'  'H'   0.0000   0.0000
 'International Tables Vol C Tables 4.2.6.8 and 6.1.1.4'
 'N'  'N'   0.0061   0.0033
 'International Tables Vol C Tables 4.2.6.8 and 6.1.1.4'
 'O'  'O'   0.0106   0.0060
 'International Tables Vol C Tables 4.2.6.8 and 6.1.1.4'
 'S'  'S'   0.1246   0.1234
 'International Tables Vol C Tables 4.2.6.8 and 6.1.1.4'
 'Zn'  'Zn'   0.2839   1.4301
 'International Tables Vol C Tables 4.2.6.8 and 6.1.1.4'
 
_space_group_crystal_system       triclinic
_space_group_IT_number            2
_space_group_name_H-M_alt         'P -1'
_space_group_name_Hall            '-P 1'
 
_shelx_space_group_comment
;
The symmetry employed for this shelxl refinement is uniquely defined
by the following loop, which should always be used as a source of
symmetry information in preference to the above space-group names.
They are only intended as comments.
;
 
loop_
 _space_group_symop_operation_xyz
 'x, y, z'
 '-x, -y, -z'
 
_cell_length_a                    8.8431(7)
_cell_length_b                    12.0529(9)
_cell_length_c                    15.2934(12)
_cell_angle_alpha                 75.146(2)
_cell_angle_beta                  85.328(3)
_cell_angle_gamma                 70.820(2)
_cell_volume                      1488.1(2)
_cell_formula_units_Z             14
_cell_measurement_temperature     150(2)
_cell_measurement_reflns_used     ?
_cell_measurement_theta_min       ?
_cell_measurement_theta_max       ?
 
_exptl_crystal_description        ?
_exptl_crystal_colour             ?
_exptl_crystal_density_meas       ?
_exptl_crystal_density_method     ?
_exptl_crystal_density_diffrn     2.194          
_exptl_crystal_F_000              952
_exptl_transmission_factor_min    ?
_exptl_transmission_factor_max    ?
_exptl_crystal_size_max           ?
_exptl_crystal_size_mid           ?
_exptl_crystal_size_min           ?
_exptl_absorpt_coefficient_mu     6.074
_shelx_estimated_absorpt_T_min    ?
_shelx_estimated_absorpt_T_max    ?
_exptl_absorpt_correction_type    ?
_exptl_absorpt_correction_T_min   ?
_exptl_absorpt_correction_T_max   ?
_exptl_absorpt_process_details    ?
_exptl_absorpt_special_details    ?
_diffrn_ambient_temperature       150(2)
_diffrn_radiation_wavelength      0.71073
_diffrn_radiation_type            MoK\a
_diffrn_source                    ?
_diffrn_measurement_device_type   ?
_diffrn_measurement_method        ?
_diffrn_detector_area_resol_mean  ?
_diffrn_reflns_number             12876
_diffrn_reflns_av_unetI/netI      0.1204
_diffrn_reflns_av_R_equivalents   0.0743
_diffrn_reflns_limit_h_min        -10
_diffrn_reflns_limit_h_max        10
_diffrn_reflns_limit_k_min        -14
_diffrn_reflns_limit_k_max        14
_diffrn_reflns_limit_l_min        -18
_diffrn_reflns_limit_l_max        18
_diffrn_reflns_theta_min          1.845
_diffrn_reflns_theta_max          25.072
_diffrn_reflns_theta_full         25.073
_diffrn_measured_fraction_theta_max   0.994
_diffrn_measured_fraction_theta_full  0.994
_diffrn_reflns_Laue_measured_fraction_max    0.994
_diffrn_reflns_Laue_measured_fraction_full   0.994
_diffrn_reflns_point_group_measured_fraction_max   0.994
_diffrn_reflns_point_group_measured_fraction_full  0.994
_reflns_number_total              5262
_reflns_number_gt                 3157
_reflns_threshold_expression      'I > 2\s(I)'
_reflns_Friedel_coverage          0.000
_reflns_Friedel_fraction_max      .
_reflns_Friedel_fraction_full     .
 
_reflns_special_details
;
 Reflections were merged by SHELXL according to the crystal
 class for the calculation of statistics and refinement.
 
 _reflns_Friedel_fraction is defined as the number of unique
 Friedel pairs measured divided by the number that would be
 possible theoretically, ignoring centric projections and
 systematic absences.
;
 
_computing_data_collection        ?
_computing_cell_refinement        ?
_computing_data_reduction         ?
_computing_structure_solution     'SHELXT 2018/2 (Sheldrick, 2018)'
_computing_structure_refinement 'SHELXL-2018/3 (Sheldrick, 2018)'
_computing_molecular_graphics     ?
_computing_publication_material   ?
_refine_special_details           ?
_refine_ls_structure_factor_coef  Fsqd
_refine_ls_matrix_type            full
_refine_ls_weighting_scheme       calc
_refine_ls_weighting_details
'w=1/[\s^2^(Fo^2^)+(0.0885P)^2^] where P=(Fo^2^+2Fc^2^)/3'
_atom_sites_solution_primary      ?
_atom_sites_solution_secondary    ?
_atom_sites_solution_hydrogens    mixed
_refine_ls_hydrogen_treatment     mixed
_refine_ls_extinction_method      none
_refine_ls_extinction_coef        .
_refine_ls_number_reflns          5262
_refine_ls_number_parameters      509
_refine_ls_number_restraints      0
_refine_ls_R_factor_all           0.1218
_refine_ls_R_factor_gt            0.0676
_refine_ls_wR_factor_ref          0.1928
_refine_ls_wR_factor_gt           0.1661
_refine_ls_goodness_of_fit_ref    1.050
_refine_ls_restrained_S_all       1.050
_refine_ls_shift/su_max           0.026
_refine_ls_shift/su_mean          0.001
 
loop_
 _atom_site_label
 _atom_site_type_symbol
 _atom_site_fract_x
 _atom_site_fract_y
 _atom_site_fract_z
 _atom_site_U_iso_or_equiv
 _atom_site_adp_type
 _atom_site_occupancy
 _atom_site_site_symmetry_order  
 _atom_site_calc_flag
 _atom_site_refinement_flags_posn
 _atom_site_refinement_flags_adp
 _atom_site_refinement_flags_occupancy
 _atom_site_disorder_assembly
 _atom_site_disorder_group
Zn1_1 Zn 0.13423(9) 0.30475(6) 0.48781(5) 0.0358(3) Uani 1 1 d . . . . .
O1_1 O 0.2529(5) 0.4067(3) 0.4113(3) 0.0398(10) Uani 1 1 d . . . . .
O2_1 O 0.1321(5) 0.3612(3) 0.5978(3) 0.0428(11) Uani 1 1 d . . . . .
O3_1 O 0.2150(6) 0.3179(4) 0.3096(3) 0.0557(13) Uani 1 1 d . . . . .
O4_1 O 0.0105(6) 0.2280(4) 0.6670(3) 0.0531(12) Uani 1 1 d . . . . .
O5_1 O 0.9681(6) 0.9544(4) -0.2892(3) 0.0647(14) Uani 1 1 d . . . . .
O6_1 O 0.8977(7) 1.0911(4) -0.2048(3) 0.0649(16) Uani 1 1 d . . . . .
H1B_1 H 0.910(11) 1.149(8) -0.240(6) 0.097 Uiso 1 1 d . U . . .
N1_1 N -0.3085(6) 0.0720(4) 0.4349(4) 0.0458(14) Uani 1 1 d . . . . .
N2_1 N -0.2401(6) -0.1249(4) 0.4971(4) 0.0395(13) Uani 1 1 d . . . . .
N3_1 N -0.2638(6) 0.2620(4) 0.4001(4) 0.0410(13) Uani 1 1 d . . . . .
N4_1 N -0.0854(6) 0.3233(4) 0.4482(3) 0.0344(12) Uani 1 1 d . . . . .
N5_1 N 0.4368(6) 0.6130(5) 0.1912(3) 0.0440(13) Uani 1 1 d . . . . .
N6_1 N 0.4343(7) 0.5509(5) 0.1273(4) 0.0569(16) Uani 1 1 d . . . . .
N7_1 N 0.0060(8) 0.3774(7) 0.8904(4) 0.0677(19) Uani 1 1 d . . . . .
N8_1 N 0.0777(7) 0.4624(6) 0.8452(4) 0.0621(18) Uani 1 1 d . . . . .
N9_1 N 0.5652(8) 0.9378(6) 0.2564(4) 0.0698(19) Uani 1 1 d . . . . .
N10_1 N 0.7016(6) 0.8500(4) -0.0309(3) 0.0444(14) Uani 1 1 d . . . . .
N11_1 N 0.7163(7) 0.7722(5) -0.0840(4) 0.0516(15) Uani 1 1 d . . . . .
C1_1 C -0.3568(9) 0.0575(6) 0.5243(5) 0.059(2) Uani 1 1 d . . . . .
H1_1 H -0.410099 0.120341 0.553652 0.071 Uiso 1 1 calc R U . . .
C2_1 C -0.3141(8) -0.0625(6) 0.5621(5) 0.0484(17) Uani 1 1 d . . . . .
H2_1 H -0.331686 -0.098634 0.623299 0.058 Uiso 1 1 calc R U . . .
C3_1 C -0.2399(7) -0.0403(5) 0.4221(5) 0.0420(16) Uani 1 1 d . . . . .
H3_1 H -0.196623 -0.056838 0.366103 0.050 Uiso 1 1 calc R U . . .
C4_1 C -0.3291(8) 0.1839(5) 0.3665(5) 0.0522(19) Uani 1 1 d . . . . .
H4A_1 H -0.444231 0.225315 0.352169 0.063 Uiso 1 1 calc R U . . .
H4B_1 H -0.272878 0.166504 0.310423 0.063 Uiso 1 1 calc R U . . .
C5_1 C -0.3456(8) 0.3506(5) 0.4448(4) 0.0404(15) Uani 1 1 d . . . . .
H5_1 H -0.458010 0.380033 0.453418 0.048 Uiso 1 1 calc R U . . .
C6_1 C -0.2333(7) 0.3864(5) 0.4735(4) 0.0356(14) Uani 1 1 d . . . . .
H6_1 H -0.254297 0.446832 0.506416 0.043 Uiso 1 1 calc R U . . .
C7_1 C -0.1085(7) 0.2483(5) 0.4035(4) 0.0388(15) Uani 1 1 d . . . . .
H7_1 H -0.025770 0.192998 0.377737 0.047 Uiso 1 1 calc R U . . .
C8_1 C 0.2625(7) 0.3923(5) 0.3310(4) 0.0384(15) Uani 1 1 d . . . . .
C9_1 C 0.3354(7) 0.4689(6) 0.2628(4) 0.0407(15) Uani 1 1 d . . . . .
C10_1 C 0.3768(8) 0.5661(6) 0.2714(4) 0.0434(16) Uani 1 1 d . . . . .
H10_1 H 0.365360 0.595327 0.324439 0.052 Uiso 1 1 calc R U . . .
C11_1 C 0.3731(9) 0.4655(6) 0.1708(4) 0.0537(18) Uani 1 1 d . . . . .
H11_1 H 0.356166 0.407919 0.143583 0.064 Uiso 1 1 calc R U . . .
C12_1 C 0.0672(8) 0.3118(6) 0.6662(4) 0.0395(15) Uani 1 1 d . . . . .
C13_1 C 0.0595(8) 0.3543(6) 0.7497(4) 0.0445(17) Uani 1 1 d . . . . .
C14_1 C -0.0034(8) 0.3126(6) 0.8335(4) 0.0544(19) Uani 1 1 d . . . . .
H14_1 H -0.046602 0.247616 0.847904 0.065 Uiso 1 1 calc R U . . .
C15_1 C 0.1085(8) 0.4468(6) 0.7603(4) 0.0488(18) Uani 1 1 d . . . . .
H15_1 H 0.157249 0.493499 0.714408 0.059 Uiso 1 1 calc R U . . .
C16_1 C 0.4977(8) 0.7113(6) 0.1679(5) 0.0458(17) Uani 1 1 d . . . . .
C17_1 C 0.4956(9) 0.7780(6) 0.2296(5) 0.057(2) Uani 1 1 d . . . . .
C18_1 C 0.5642(9) 0.8727(6) 0.2017(5) 0.057(2) Uani 1 1 d . . . . .
C19_1 C 0.6320(9) 0.9018(7) 0.1152(5) 0.060(2) Uani 1 1 d . . . . .
C20_1 C 0.6327(8) 0.8300(6) 0.0556(4) 0.0435(16) Uani 1 1 d . . . . .
C21_1 C 0.5646(8) 0.7366(6) 0.0810(4) 0.0461(17) Uani 1 1 d . . . . .
H21_1 H 0.563403 0.690119 0.039565 0.055 Uiso 1 1 calc R U . . .
C22_1 C 0.7902(9) 0.8130(6) -0.1573(5) 0.0546(19) Uani 1 1 d . . . . .
H22_1 H 0.816256 0.776208 -0.206907 0.066 Uiso 1 1 calc R U . . .
C23_1 C 0.8262(8) 0.9169(6) -0.1538(5) 0.0468(17) Uani 1 1 d . . . . .
C24_1 C 0.7670(8) 0.9380(6) -0.0711(5) 0.0482(17) Uani 1 1 d . . . . .
H24_1 H 0.771092 1.002066 -0.046863 0.058 Uiso 1 1 calc R U . . .
C25_1 C 0.9041(9) 0.9883(6) -0.2228(5) 0.0528(18) Uani 1 1 d . . . . .
O103_1 O 0.2453(15) 0.8256(11) 0.9359(9) 0.082(3) Uani 0.5 1 d . . P A -1
N103_1 N 0.1667(18) 0.7785(13) 1.0056(10) 0.080(4) Uani 0.5 1 d . . P A -1
N203_1 N 0.2671(16) 0.7619(16) 0.8715(8) 0.080(4) Uani 0.5 1 d . . P A -1
C103_1 C 0.0527(15) 0.6071(11) 1.0291(8) 0.041(3) Uani 0.5 1 d . . P A -1
C203_1 C 0.1326(17) 0.6899(11) 0.9819(9) 0.047(3) Uani 0.5 1 d . . P A -1
C303_1 C 0.2025(16) 0.6828(10) 0.8952(9) 0.037(3) Uani 0.5 1 d . . P A -1
C403_1 C 0.1907(19) 0.629(2) 0.8414(10) 0.107(9) Uani 0.5 1 d . . P A -1
H403_1 H 0.228605 0.639943 0.780861 0.128 Uiso 0.5 1 calc R U P A -1
C503_1 C 0.0954(18) 0.5322(14) 0.8927(10) 0.057(4) Uani 0.5 1 d . . P A -1
C603_1 C 0.0322(19) 0.5251(12) 0.9847(10) 0.039(3) Uani 0.5 1 d . . P A -1
H603_1 H -0.020139 0.467767 1.012796 0.047 Uiso 0.5 1 calc R U P A -1
O101_1 O 0.5102(15) 0.8628(13) 0.3290(7) 0.095(4) Uani 0.5 1 d . . P B 1
N101_1 N 0.4690(16) 0.7668(13) 0.3062(8) 0.070(4) Uani 0.5 1 d . . P B 1
O102_1 O 0.6370(12) 1.0207(8) 0.1986(7) 0.060(3) Uani 0.5 1 d . . P B 2
N102_1 N 0.6756(13) 0.9887(9) 0.1163(7) 0.045(3) Uani 0.5 1 d . . P B 2
 
loop_
 _atom_site_aniso_label
 _atom_site_aniso_U_11
 _atom_site_aniso_U_22
 _atom_site_aniso_U_33
 _atom_site_aniso_U_23
 _atom_site_aniso_U_13
 _atom_site_aniso_U_12
Zn1_1 0.0409(5) 0.0334(4) 0.0373(4) -0.0153(3) -0.0026(3) -0.0118(3)
O1_1 0.042(3) 0.046(2) 0.035(2) -0.0135(19) -0.002(2) -0.017(2)
O2_1 0.055(3) 0.040(2) 0.039(3) -0.015(2) 0.004(2) -0.018(2)
O3_1 0.078(4) 0.057(3) 0.045(3) -0.022(2) 0.004(3) -0.032(3)
O4_1 0.072(3) 0.045(3) 0.046(3) -0.016(2) 0.009(2) -0.022(2)
O5_1 0.085(4) 0.060(3) 0.060(3) -0.026(3) 0.018(3) -0.034(3)
O6_1 0.092(4) 0.051(3) 0.060(3) -0.020(3) 0.015(3) -0.033(3)
N1_1 0.038(3) 0.037(3) 0.066(4) -0.020(3) -0.015(3) -0.008(2)
N2_1 0.037(3) 0.032(3) 0.051(3) -0.017(3) -0.008(3) -0.007(2)
N3_1 0.036(3) 0.029(3) 0.061(3) -0.017(3) -0.014(3) -0.006(2)
N4_1 0.039(3) 0.027(3) 0.035(3) -0.006(2) -0.002(2) -0.007(2)
N5_1 0.048(4) 0.043(3) 0.035(3) -0.007(3) -0.006(3) -0.008(3)
N6_1 0.072(4) 0.059(4) 0.045(3) -0.012(3) 0.007(3) -0.031(3)
N7_1 0.056(4) 0.101(5) 0.045(4) -0.045(4) -0.009(3) 0.000(4)
N8_1 0.050(4) 0.079(5) 0.039(4) -0.022(3) -0.007(3) 0.011(3)
N9_1 0.082(5) 0.097(5) 0.048(4) -0.026(4) 0.005(4) -0.047(4)
N10_1 0.049(4) 0.040(3) 0.043(3) -0.013(3) -0.004(3) -0.009(3)
N11_1 0.065(4) 0.049(3) 0.048(4) -0.016(3) 0.005(3) -0.027(3)
C1_1 0.064(5) 0.042(4) 0.078(6) -0.033(4) -0.017(4) -0.007(4)
C2_1 0.053(5) 0.045(4) 0.056(4) -0.028(3) -0.001(4) -0.015(3)
C3_1 0.033(4) 0.039(4) 0.059(4) -0.020(3) -0.006(3) -0.009(3)
C4_1 0.052(5) 0.034(4) 0.072(5) -0.010(3) -0.029(4) -0.011(3)
C5_1 0.037(4) 0.030(3) 0.051(4) -0.008(3) -0.003(3) -0.007(3)
C6_1 0.041(4) 0.023(3) 0.046(4) -0.014(3) 0.000(3) -0.010(3)
C7_1 0.037(4) 0.030(3) 0.053(4) -0.019(3) -0.005(3) -0.007(3)
C8_1 0.032(4) 0.037(3) 0.041(4) -0.013(3) -0.004(3) -0.001(3)
C9_1 0.032(4) 0.046(4) 0.038(4) -0.010(3) -0.001(3) -0.003(3)
C10_1 0.043(4) 0.046(4) 0.035(4) -0.006(3) -0.005(3) -0.008(3)
C11_1 0.067(5) 0.052(4) 0.048(4) -0.017(3) 0.006(4) -0.024(4)
C12_1 0.038(4) 0.043(4) 0.032(4) -0.015(3) -0.002(3) -0.001(3)
C13_1 0.048(4) 0.042(4) 0.037(4) -0.014(3) -0.008(3) 0.001(3)
C14_1 0.056(5) 0.063(5) 0.038(4) -0.023(4) -0.001(3) -0.003(4)
C15_1 0.062(5) 0.048(4) 0.022(3) -0.010(3) -0.008(3) 0.004(3)
C16_1 0.041(4) 0.043(4) 0.047(4) -0.002(3) -0.016(3) -0.009(3)
C17_1 0.063(5) 0.062(5) 0.048(5) -0.015(4) -0.017(4) -0.019(4)
C18_1 0.059(5) 0.055(4) 0.060(5) -0.022(4) -0.021(4) -0.013(4)
C19_1 0.059(5) 0.055(5) 0.063(5) -0.019(4) -0.020(4) -0.005(4)
C20_1 0.045(4) 0.040(4) 0.039(4) -0.008(3) -0.009(3) -0.005(3)
C21_1 0.044(4) 0.041(4) 0.046(4) -0.011(3) -0.010(3) -0.001(3)
C22_1 0.068(5) 0.054(4) 0.052(4) -0.021(4) 0.005(4) -0.027(4)
C23_1 0.049(4) 0.044(4) 0.051(4) -0.013(3) 0.001(3) -0.019(3)
C24_1 0.053(5) 0.039(4) 0.055(4) -0.014(3) 0.001(4) -0.017(3)
C25_1 0.053(5) 0.048(4) 0.060(5) -0.012(4) 0.003(4) -0.021(4)
O103_1 0.082(9) 0.096(9) 0.073(8) -0.008(7) 0.000(7) -0.046(7)
N103_1 0.083(11) 0.076(10) 0.073(10) -0.025(8) -0.016(9) -0.006(8)
N203_1 0.060(9) 0.147(14) 0.037(7) -0.036(9) 0.002(6) -0.030(9)
C103_1 0.050(8) 0.039(7) 0.026(7) -0.012(6) -0.013(6) 0.004(6)
C203_1 0.054(9) 0.026(7) 0.058(9) -0.011(6) -0.015(7) -0.005(6)
C303_1 0.036(8) 0.027(6) 0.046(9) -0.002(6) 0.002(6) -0.012(6)
C403_1 0.043(10) 0.18(2) 0.043(10) -0.066(13) -0.035(8) 0.073(12)
C503_1 0.049(9) 0.072(10) 0.043(8) -0.044(8) -0.021(7) 0.018(8)
C603_1 0.044(10) 0.029(8) 0.044(9) -0.011(6) -0.008(7) -0.006(5)
O101_1 0.110(10) 0.157(12) 0.053(7) -0.050(8) 0.015(7) -0.075(10)
N101_1 0.070(9) 0.118(12) 0.034(7) -0.027(7) 0.011(6) -0.042(9)
O102_1 0.070(7) 0.060(6) 0.059(6) -0.027(5) 0.005(5) -0.025(5)
N102_1 0.055(7) 0.039(6) 0.042(6) -0.008(5) 0.002(5) -0.019(5)
 
_geom_special_details
;
 All esds (except the esd in the dihedral angle between two l.s. planes)
 are estimated using the full covariance matrix.  The cell esds are taken
 into account individually in the estimation of esds in distances, angles
 and torsion angles; correlations between esds in cell parameters are only
 used when they are defined by crystal symmetry.  An approximate (isotropic)
 treatment of cell esds is used for estimating esds involving l.s. planes.
;
 
loop_
 _geom_bond_atom_site_label_1
 _geom_bond_atom_site_label_2
 _geom_bond_distance
 _geom_bond_site_symmetry_2
 _geom_bond_publ_flag
Zn1_1 O2_1 1.966(4) . ?
Zn1_1 O1_1 1.973(4) . ?
Zn1_1 N4_1 2.006(5) . ?
Zn1_1 N2_1 2.018(5) 2_556 ?
O1_1 C8_1 1.276(7) . ?
O2_1 C12_1 1.259(7) . ?
O3_1 C8_1 1.227(7) . ?
O4_1 C12_1 1.263(7) . ?
O5_1 C25_1 1.219(8) . ?
O6_1 C25_1 1.319(8) . ?
N1_1 C3_1 1.347(7) . ?
N1_1 C1_1 1.384(9) . ?
N1_1 C4_1 1.448(8) . ?
N2_1 C3_1 1.326(7) . ?
N2_1 C2_1 1.392(7) . ?
N3_1 C7_1 1.331(7) . ?
N3_1 C5_1 1.384(7) . ?
N3_1 C4_1 1.462(7) . ?
N4_1 C7_1 1.337(7) . ?
N4_1 C6_1 1.362(7) . ?
N5_1 C10_1 1.357(8) . ?
N5_1 N6_1 1.380(7) . ?
N5_1 C16_1 1.411(8) . ?
N6_1 C11_1 1.324(8) . ?
N7_1 C14_1 1.334(8) . ?
N7_1 N8_1 1.386(9) . ?
N8_1 C503_1 1.296(14) . ?
N8_1 C15_1 1.352(8) . ?
N9_1 C18_1 1.288(8) . ?
N9_1 O101_1 1.405(13) . ?
N9_1 O102_1 1.433(11) . ?
N10_1 C24_1 1.359(8) . ?
N10_1 N11_1 1.360(7) . ?
N10_1 C20_1 1.407(8) . ?
N11_1 C22_1 1.317(8) . ?
C1_1 C2_1 1.347(9) . ?
C5_1 C6_1 1.347(8) . ?
C8_1 C9_1 1.464(9) . ?
C9_1 C10_1 1.376(9) . ?
C9_1 C11_1 1.427(9) . ?
C12_1 C13_1 1.482(8) . ?
C13_1 C15_1 1.371(9) . ?
C13_1 C14_1 1.393(9) . ?
C16_1 C17_1 1.383(9) . ?
C16_1 C21_1 1.412(9) . ?
C17_1 N101_1 1.159(12) . ?
C17_1 C18_1 1.419(10) . ?
C18_1 C19_1 1.416(10) . ?
C19_1 N102_1 1.234(11) . ?
C19_1 C20_1 1.407(9) . ?
C20_1 C21_1 1.402(9) . ?
C22_1 C23_1 1.405(9) . ?
C23_1 C24_1 1.381(9) . ?
C23_1 C25_1 1.461(9) . ?
O103_1 N103_1 1.330(17) . ?
O103_1 N203_1 1.362(16) . ?
N103_1 C203_1 1.338(17) . ?
N203_1 C303_1 1.231(18) . ?
C103_1 C603_1 1.397(18) . ?
C103_1 C203_1 1.424(18) . ?
C203_1 C303_1 1.428(18) . ?
C303_1 C403_1 1.20(2) . ?
C403_1 C503_1 1.66(3) . ?
C503_1 C603_1 1.46(2) . ?
O101_1 N101_1 1.448(17) . ?
O102_1 N102_1 1.394(13) . ?
 
loop_
 _geom_angle_atom_site_label_1
 _geom_angle_atom_site_label_2
 _geom_angle_atom_site_label_3
 _geom_angle
 _geom_angle_site_symmetry_1
 _geom_angle_site_symmetry_3
 _geom_angle_publ_flag
O2_1 Zn1_1 O1_1 96.73(17) . . ?
O2_1 Zn1_1 N4_1 112.99(18) . . ?
O1_1 Zn1_1 N4_1 118.46(17) . . ?
O2_1 Zn1_1 N2_1 114.53(19) . 2_556 ?
O1_1 Zn1_1 N2_1 114.77(19) . 2_556 ?
N4_1 Zn1_1 N2_1 100.27(18) . 2_556 ?
C8_1 O1_1 Zn1_1 109.5(4) . . ?
C12_1 O2_1 Zn1_1 116.0(4) . . ?
C3_1 N1_1 C1_1 106.4(5) . . ?
C3_1 N1_1 C4_1 125.6(6) . . ?
C1_1 N1_1 C4_1 128.0(5) . . ?
C3_1 N2_1 C2_1 105.5(5) . . ?
C3_1 N2_1 Zn1_1 125.4(4) . 2_556 ?
C2_1 N2_1 Zn1_1 128.8(4) . 2_556 ?
C7_1 N3_1 C5_1 107.5(5) . . ?
C7_1 N3_1 C4_1 124.7(5) . . ?
C5_1 N3_1 C4_1 127.2(6) . . ?
C7_1 N4_1 C6_1 106.1(5) . . ?
C7_1 N4_1 Zn1_1 121.2(4) . . ?
C6_1 N4_1 Zn1_1 131.3(4) . . ?
C10_1 N5_1 N6_1 111.4(5) . . ?
C10_1 N5_1 C16_1 129.0(6) . . ?
N6_1 N5_1 C16_1 119.6(5) . . ?
C11_1 N6_1 N5_1 104.1(5) . . ?
C14_1 N7_1 N8_1 108.0(6) . . ?
C503_1 N8_1 C15_1 138.4(11) . . ?
C503_1 N8_1 N7_1 114.9(10) . . ?
C15_1 N8_1 N7_1 106.8(6) . . ?
C18_1 N9_1 O101_1 92.6(7) . . ?
C18_1 N9_1 O102_1 99.3(7) . . ?
C24_1 N10_1 N11_1 111.3(5) . . ?
C24_1 N10_1 C20_1 128.4(6) . . ?
N11_1 N10_1 C20_1 120.2(5) . . ?
C22_1 N11_1 N10_1 105.1(5) . . ?
C2_1 C1_1 N1_1 107.2(6) . . ?
C1_1 C2_1 N2_1 109.1(6) . . ?
N2_1 C3_1 N1_1 111.7(6) . . ?
N1_1 C4_1 N3_1 109.2(5) . . ?
C6_1 C5_1 N3_1 106.0(5) . . ?
C5_1 C6_1 N4_1 109.9(5) . . ?
N3_1 C7_1 N4_1 110.5(5) . . ?
O3_1 C8_1 O1_1 123.2(6) . . ?
O3_1 C8_1 C9_1 119.9(6) . . ?
O1_1 C8_1 C9_1 117.0(5) . . ?
C10_1 C9_1 C11_1 103.3(6) . . ?
C10_1 C9_1 C8_1 127.7(6) . . ?
C11_1 C9_1 C8_1 128.9(6) . . ?
N5_1 C10_1 C9_1 108.3(6) . . ?
N6_1 C11_1 C9_1 112.9(6) . . ?
O2_1 C12_1 O4_1 123.4(5) . . ?
O2_1 C12_1 C13_1 117.6(6) . . ?
O4_1 C12_1 C13_1 119.1(6) . . ?
C15_1 C13_1 C14_1 104.7(6) . . ?
C15_1 C13_1 C12_1 127.2(6) . . ?
C14_1 C13_1 C12_1 128.1(7) . . ?
N7_1 C14_1 C13_1 109.9(7) . . ?
N8_1 C15_1 C13_1 110.5(7) . . ?
C17_1 C16_1 C21_1 121.4(7) . . ?
C17_1 C16_1 N5_1 120.7(6) . . ?
C21_1 C16_1 N5_1 117.8(6) . . ?
N101_1 C17_1 C16_1 134.8(10) . . ?
N101_1 C17_1 C18_1 107.3(10) . . ?
C16_1 C17_1 C18_1 117.1(7) . . ?
N9_1 C18_1 C19_1 116.8(7) . . ?
N9_1 C18_1 C17_1 119.7(8) . . ?
C19_1 C18_1 C17_1 123.6(7) . . ?
N102_1 C19_1 C20_1 138.7(9) . . ?
N102_1 C19_1 C18_1 104.3(8) . . ?
C20_1 C19_1 C18_1 116.9(7) . . ?
C21_1 C20_1 C19_1 120.7(7) . . ?
C21_1 C20_1 N10_1 118.3(6) . . ?
C19_1 C20_1 N10_1 121.0(7) . . ?
C20_1 C21_1 C16_1 120.3(6) . . ?
N11_1 C22_1 C23_1 112.4(6) . . ?
C24_1 C23_1 C22_1 104.0(6) . . ?
C24_1 C23_1 C25_1 128.0(6) . . ?
C22_1 C23_1 C25_1 128.0(6) . . ?
N10_1 C24_1 C23_1 107.2(6) . . ?
O5_1 C25_1 O6_1 124.6(7) . . ?
O5_1 C25_1 C23_1 122.6(6) . . ?
O6_1 C25_1 C23_1 112.8(6) . . ?
N103_1 O103_1 N203_1 109.4(12) . . ?
C203_1 N103_1 O103_1 105.8(13) . . ?
C303_1 N203_1 O103_1 109.9(13) . . ?
C603_1 C103_1 C203_1 118.0(12) . . ?
N103_1 C203_1 C103_1 131.5(14) . . ?
N103_1 C203_1 C303_1 107.1(13) . . ?
C103_1 C203_1 C303_1 121.2(11) . . ?
C403_1 C303_1 N203_1 118.7(19) . . ?
C403_1 C303_1 C203_1 132.7(17) . . ?
N203_1 C303_1 C203_1 107.6(13) . . ?
C303_1 C403_1 C503_1 107.0(15) . . ?
N8_1 C503_1 C603_1 121.0(16) . . ?
N8_1 C503_1 C403_1 115.4(13) . . ?
C603_1 C503_1 C403_1 123.5(12) . . ?
C103_1 C603_1 C503_1 116.6(12) . . ?
N9_1 O101_1 N101_1 115.1(9) . . ?
C17_1 N101_1 O101_1 104.7(11) . . ?
N102_1 O102_1 N9_1 109.0(8) . . ?
C19_1 N102_1 O102_1 110.6(9) . . ?
 
_refine_diff_density_max    0.808
_refine_diff_density_min   -0.450
_refine_diff_density_rms    0.091

_shelx_res_file
;
TITL 1_a.res in P-1
    1_a.res
    created by SHELXL-2018/3 at 17:58:32 on 11-Jan-2023
REM Old TITL 1 in P-1
REM SHELXT solution in P-1: R1 0.174, Rweak 0.019, Alpha 0.066
REM <I/s>   0.000 for    0 systematic absences,  Orientation as input
REM Formula found by SHELXT:  C42 N7 O6 Zn
CELL  0.71073   8.8431  12.0529  15.2934   75.146   85.328   70.820
ZERR   14.000   0.0007   0.0009   0.0012    0.002    0.003    0.002
LATT  1
SFAC C H N O S ZN
UNIT 14 14 14 14 14 14
ACTA
LIST 4
TEMP -123.150
L.S. 10
BOND
REM LIST 6
FMAP 2
PLAN 20
REM #####
WGHT    0.088500
FVAR       0.27292   1.00000
RESI 1 M001
ZN1   6    0.134230    0.304747    0.487812    11.00000    0.04091    0.03339 =
         0.03729   -0.01528   -0.00261   -0.01179
O1    4    0.252898    0.406735    0.411258    11.00000    0.04197    0.04635 =
         0.03546   -0.01347   -0.00199   -0.01675
O2    4    0.132131    0.361169    0.597796    11.00000    0.05456    0.04000 =
         0.03866   -0.01494    0.00427   -0.01841
O3    4    0.214980    0.317907    0.309618    11.00000    0.07787    0.05668 =
         0.04535   -0.02177    0.00444   -0.03210
O4    4    0.010537    0.228012    0.667029    11.00000    0.07178    0.04489 =
         0.04628   -0.01566    0.00855   -0.02187
O5    4    0.968120    0.954373   -0.289198    11.00000    0.08544    0.06008 =
         0.06036   -0.02644    0.01843   -0.03416
O6    4    0.897708    1.091128   -0.204827    11.00000    0.09211    0.05098 =
         0.06048   -0.01985    0.01538   -0.03332
H1B   2    0.910159    1.148597   -0.240133    11.00000   -1.50000
N1    3   -0.308532    0.071952    0.434912    11.00000    0.03829    0.03685 =
         0.06641   -0.01985   -0.01509   -0.00842
N2    3   -0.240063   -0.124913    0.497101    11.00000    0.03737    0.03221 =
         0.05143   -0.01739   -0.00768   -0.00706
N3    3   -0.263756    0.262006    0.400086    11.00000    0.03568    0.02884 =
         0.06113   -0.01732   -0.01404   -0.00565
N4    3   -0.085375    0.323258    0.448205    11.00000    0.03855    0.02664 =
         0.03536   -0.00640   -0.00205   -0.00732
N5    3    0.436815    0.613005    0.191224    11.00000    0.04807    0.04347 =
         0.03496   -0.00709   -0.00575   -0.00791
N6    3    0.434346    0.550928    0.127307    11.00000    0.07198    0.05921 =
         0.04513   -0.01175    0.00694   -0.03061
N7    3    0.005986    0.377442    0.890393    11.00000    0.05560    0.10117 =
         0.04524   -0.04538   -0.00917   -0.00026
N8    3    0.077710    0.462426    0.845164    11.00000    0.04950    0.07905 =
         0.03910   -0.02172   -0.00698    0.01122
N9    3    0.565234    0.937810    0.256389    11.00000    0.08189    0.09699 =
         0.04816   -0.02607    0.00541   -0.04668
N10   3    0.701632    0.850012   -0.030890    11.00000    0.04872    0.03992 =
         0.04324   -0.01316   -0.00421   -0.00921
N11   3    0.716298    0.772208   -0.083976    11.00000    0.06515    0.04928 =
         0.04834   -0.01624    0.00460   -0.02653
C1    1   -0.356797    0.057458    0.524347    11.00000    0.06407    0.04171 =
         0.07846   -0.03297   -0.01706   -0.00682
AFIX  43
H1    2   -0.410099    0.120341    0.553652    11.00000   -1.20000
AFIX   0
C2    1   -0.314086   -0.062453    0.562080    11.00000    0.05276    0.04528 =
         0.05576   -0.02753   -0.00104   -0.01522
AFIX  43
H2    2   -0.331686   -0.098634    0.623299    11.00000   -1.20000
AFIX   0
C3    1   -0.239871   -0.040323    0.422069    11.00000    0.03260    0.03908 =
         0.05855   -0.01978   -0.00595   -0.00949
AFIX  43
H3    2   -0.196623   -0.056838    0.366103    11.00000   -1.20000
AFIX   0
C4    1   -0.329084    0.183926    0.366468    11.00000    0.05208    0.03396 =
         0.07218   -0.01027   -0.02863   -0.01096
AFIX  23
H4A   2   -0.444231    0.225315    0.352169    11.00000   -1.20000
H4B   2   -0.272878    0.166504    0.310423    11.00000   -1.20000
AFIX   0
C5    1   -0.345602    0.350557    0.444757    11.00000    0.03709    0.03003 =
         0.05073   -0.00762   -0.00293   -0.00734
AFIX  43
H5    2   -0.458010    0.380033    0.453418    11.00000   -1.20000
AFIX   0
C6    1   -0.233345    0.386438    0.473460    11.00000    0.04128    0.02269 =
         0.04571   -0.01377   -0.00035   -0.00964
AFIX  43
H6    2   -0.254297    0.446832    0.506416    11.00000   -1.20000
AFIX   0
C7    1   -0.108535    0.248320    0.403495    11.00000    0.03694    0.02988 =
         0.05331   -0.01936   -0.00511   -0.00727
AFIX  43
H7    2   -0.025770    0.192998    0.377737    11.00000   -1.20000
AFIX   0
C8    1    0.262523    0.392260    0.330957    11.00000    0.03242    0.03661 =
         0.04122   -0.01263   -0.00448   -0.00103
C9    1    0.335358    0.468905    0.262751    11.00000    0.03164    0.04610 =
         0.03763   -0.01016   -0.00136   -0.00316
C10   1    0.376808    0.566082    0.271390    11.00000    0.04272    0.04615 =
         0.03528   -0.00639   -0.00474   -0.00778
AFIX  43
H10   2    0.365360    0.595327    0.324439    11.00000   -1.20000
AFIX   0
C11   1    0.373141    0.465456    0.170758    11.00000    0.06682    0.05246 =
         0.04782   -0.01732    0.00615   -0.02431
AFIX  43
H11   2    0.356166    0.407919    0.143583    11.00000   -1.20000
AFIX   0
C12   1    0.067248    0.311753    0.666207    11.00000    0.03796    0.04261 =
         0.03228   -0.01484   -0.00194   -0.00051
C13   1    0.059453    0.354332    0.749683    11.00000    0.04807    0.04167 =
         0.03655   -0.01422   -0.00757    0.00067
C14   1   -0.003421    0.312616    0.833464    11.00000    0.05593    0.06290 =
         0.03849   -0.02291   -0.00132   -0.00304
AFIX  43
H14   2   -0.046602    0.247616    0.847904    11.00000   -1.20000
AFIX   0
C15   1    0.108468    0.446843    0.760294    11.00000    0.06204    0.04761 =
         0.02246   -0.00996   -0.00848    0.00428
AFIX  43
H15   2    0.157249    0.493499    0.714408    11.00000   -1.20000
AFIX   0
C16   1    0.497662    0.711316    0.167945    11.00000    0.04060    0.04323 =
         0.04736   -0.00163   -0.01580   -0.00873
C17   1    0.495643    0.778016    0.229584    11.00000    0.06343    0.06219 =
         0.04836   -0.01538   -0.01736   -0.01893
C18   1    0.564165    0.872681    0.201702    11.00000    0.05918    0.05477 =
         0.06037   -0.02179   -0.02126   -0.01255
C19   1    0.631960    0.901801    0.115179    11.00000    0.05857    0.05479 =
         0.06257   -0.01927   -0.01956   -0.00462
C20   1    0.632747    0.829970    0.055610    11.00000    0.04512    0.04024 =
         0.03903   -0.00821   -0.00860   -0.00462
C21   1    0.564581    0.736590    0.081010    11.00000    0.04399    0.04082 =
         0.04621   -0.01100   -0.01039   -0.00126
AFIX  43
H21   2    0.563403    0.690119    0.039565    11.00000   -1.20000
AFIX   0
C22   1    0.790218    0.812969   -0.157271    11.00000    0.06786    0.05416 =
         0.05190   -0.02146    0.00499   -0.02741
AFIX  43
H22   2    0.816256    0.776208   -0.206907    11.00000   -1.20000
AFIX   0
C23   1    0.826231    0.916943   -0.153789    11.00000    0.04934    0.04386 =
         0.05095   -0.01345    0.00072   -0.01855
C24   1    0.766964    0.938005   -0.071109    11.00000    0.05333    0.03939 =
         0.05527   -0.01441    0.00066   -0.01727
AFIX  43
H24   2    0.771092    1.002066   -0.046863    11.00000   -1.20000
AFIX   0
C25   1    0.904099    0.988315   -0.222807    11.00000    0.05339    0.04756 =
         0.06029   -0.01212    0.00255   -0.02109
PART -1
O103  4    0.245334    0.825622    0.935862    10.50000    0.08187    0.09580 =
         0.07335   -0.00754   -0.00020   -0.04622
N103  3    0.166746    0.778509    1.005562    10.50000    0.08297    0.07568 =
         0.07327   -0.02488   -0.01579   -0.00613
N203  3    0.267141    0.761945    0.871511    10.50000    0.06012    0.14653 =
         0.03749   -0.03595    0.00241   -0.02994
C103  1    0.052708    0.607144    1.029092    10.50000    0.04983    0.03912 =
         0.02647   -0.01214   -0.01297    0.00370
C203  1    0.132588    0.689938    0.981910    10.50000    0.05366    0.02617 =
         0.05776   -0.01144   -0.01538   -0.00538
C303  1    0.202509    0.682773    0.895183    10.50000    0.03638    0.02732 =
         0.04622   -0.00235    0.00221   -0.01233
C403  1    0.190682    0.629091    0.841384    10.50000    0.04332    0.17963 =
         0.04346   -0.06617   -0.03519    0.07296
AFIX  43
H403  2    0.228605    0.639943    0.780861    10.50000   -1.20000
AFIX   0
C503  1    0.095434    0.532160    0.892720    10.50000    0.04946    0.07202 =
         0.04273   -0.04353   -0.02076    0.01779
C603  1    0.032193    0.525137    0.984694    10.50000    0.04408    0.02865 =
         0.04378   -0.01123   -0.00844   -0.00636
AFIX  43
H603  2   -0.020139    0.467767    1.012796    10.50000   -1.20000
AFIX   0
PART 1
O101  4    0.510235    0.862770    0.329009    10.50000    0.10966    0.15703 =
         0.05316   -0.05047    0.01509   -0.07476
N101  3    0.469024    0.766834    0.306224    10.50000    0.06991    0.11797 =
         0.03450   -0.02680    0.01135   -0.04172
PART 2
O102  4    0.637007    1.020746    0.198645    10.50000    0.06987    0.05973 =
         0.05921   -0.02704    0.00526   -0.02514
N102  3    0.675601    0.988731    0.116288    10.50000    0.05504    0.03870 =
         0.04221   -0.00827    0.00187   -0.01927
PART 0
RESI 0
HKLF 4




REM  1_a.res in P-1
REM wR2 = 0.1928, GooF = S = 1.050, Restrained GooF = 1.050 for all data
REM R1 = 0.0676 for 3157 Fo > 4sig(Fo) and 0.1218 for all 5262 data
REM 509 parameters refined using 0 restraints

END

WGHT      0.0904      0.0289

REM Highest difference peak  0.808,  deepest hole -0.450,  1-sigma level  0.091
Q1    1   0.1673  0.6042  0.8513  11.00000  0.05    0.81
Q2    1   0.2165  0.6967  0.8189  11.00000  0.05    0.77
Q3    1   0.3128  0.6754  0.7877  11.00000  0.05    0.51
Q4    1   0.1734  0.7188  0.8990  11.00000  0.05    0.49
Q5    1   0.2485  0.7068  0.9193  11.00000  0.05    0.47
Q6    1   0.0182  0.2961  0.4796  11.00000  0.05    0.45
Q7    1   0.1705  0.7775  0.9357  11.00000  0.05    0.43
Q8    1   0.1834  0.6374  0.9336  11.00000  0.05    0.42
Q9    1   0.2464  0.7854  0.8397  11.00000  0.05    0.41
Q10   1   0.0649  0.3378  0.4085  11.00000  0.05    0.38
Q11   1   0.2988  0.7847  0.9687  11.00000  0.05    0.38
Q12   1   0.1691  0.7785  0.8650  11.00000  0.05    0.37
Q13   1   0.2638  0.6226  0.9257  11.00000  0.05    0.35
Q14   1   0.1855  0.8786  0.9708  11.00000  0.05    0.34
Q15   1   0.3679  0.7235  0.8825  11.00000  0.05    0.34
Q16   1  -0.1394  0.2002  0.6356  11.00000  0.05    0.33
Q17   1   0.1435  0.2957  0.5633  11.00000  0.05    0.33
Q18   1   0.1930  0.8627  0.9559  11.00000  0.05    0.32
Q19   1  -0.3643  0.1582  0.5341  11.00000  0.05    0.32
Q20   1  -0.4827  0.0473  0.5045  11.00000  0.05    0.32
;
_shelx_res_checksum   50146

_shelx_hkl_file
;
  -1   0   0  196.08   11.90
  -1   0   0  204.78   11.70
   1   0   0  205.08   12.00
   1   0   0  212.48   11.70
  -2   0   0   87.89    6.80
  -2   0   0   95.09    6.20
   2   0   0   91.19    6.20
   2   0   0   82.99    7.20
  -3   0   0    2.20    2.30
  -3   0   0    6.00    2.00
   3   0   0    0.80    2.40
   3   0   0    1.50    1.80
  -4   0   0   11.70    2.70
  -4   0   0    7.80    3.20
   4   0   0    8.20    2.60
   4   0   0   14.60    3.80
  -5   0   0   49.10    7.10
  -5   0   0   60.49    6.80
  -5   0   0   45.50    6.10
   5   0   0   47.30    5.80
  -6   0   0    2.60    3.40
   6   0   0    0.10    2.40
  -7   0   0    9.00    4.70
   7   0   0    6.10    3.90
  -8   0   0   32.80    7.40
   8   0   0   31.40    6.20
  -9   0   0    4.40    5.60
   9   0   0    4.00    4.20
   9  -1   0    7.90    4.90
  -9   1   0    9.10    6.70
   8  -1   0    3.50    3.70
  -8   1   0    0.90    5.20
   7  -1   0   14.10    4.50
  -7   1   0    6.10    4.60
   6  -1   0    1.00    3.60
   6  -1   0    0.00    2.40
   5  -1   0   11.80    3.20
   5  -1   0   11.00    4.10
  -5   1   0    9.10    3.70
   4  -1   0    1.80    2.70
   4  -1   0    0.30    1.80
  -4   1   0    3.70    1.90
  -4   1   0    2.70    2.50
   3  -1   0  113.99    7.50
   3  -1   0   98.69    8.30
  -3   1   0  100.99    7.30
  -3   1   0   99.99    8.40
   2  -1   0    9.60    2.70
   2  -1   0    3.60    1.70
  -2   1   0    7.40    2.00
  -2   1   0    9.80    2.70
   1  -1   0    2.30    0.90
   1  -1   0    0.40    1.40
  -1   1   0    2.10    1.50
  -1   1   0    1.50    0.90
   0  -1   0   34.00    2.50
  -1  -1   0  828.62   47.10
  -1  -1   0  854.01   47.20
   1   1   0  860.31   47.20
   1   1   0  877.01   47.20
  -2  -1   0  483.95   27.40
  -2  -1   0  462.55   27.20
   2   1   0  499.85   27.70
  -3  -1   0   10.90    2.30
  -3  -1   0   12.00    3.10
  -3  -1   0    7.60    2.50
   3   1   0   10.40    2.40
  -4  -1   0   76.19    7.20
  -4  -1   0   77.89    6.70
  -4  -1   0   77.59    6.40
   4   1   0   78.59    6.60
  -5  -1   0   22.60    4.00
  -5  -1   0   14.60    3.50
   5   1   0   14.30    3.40
  -6  -1   0   35.50    5.70
   6   1   0   34.50    5.20
  -7  -1   0   -0.90    3.30
   7   1   0   -0.90    2.60
  -8  -1   0   39.60    7.10
   8   1   0   25.40    5.70
  -9  -1   0   12.20    6.70
   9   1   0    2.80    4.30
 -10  -1   0    6.20    7.20
  10   1   0    5.60    5.40
   9  -2   0    1.90    3.80
  -9   2   0   -3.00   10.10
   8  -2   0   21.90    5.40
  -8   2   0   15.30    6.30
   7  -2   0    5.70    3.70
   7  -2   0   13.60    5.50
   6  -2   0    2.40    2.90
   6  -2   0    9.80    4.90
  -6   2   0    3.40    2.90
   5  -2   0  101.29    8.30
   5  -2   0   89.79   10.60
   4  -2   0   61.49    7.70
   4  -2   0   56.59    6.10
  -4   2   0   54.89    5.20
  -4   2   0   60.79    7.90
   3  -2   0  102.99    7.40
   3  -2   0  102.19    8.70
  -3   2   0  104.39    8.80
  -3   2   0  102.19    7.20
   2  -2   0  418.06   23.40
   2  -2   0  396.26   24.70
  -2   2   0  409.76   24.70
   1  -2   0   59.69    5.80
   1  -2   0   55.09    3.80
  -1   2   0   61.59    5.20
  -1   2   0   56.79    3.80
   0  -2   0  161.18    9.10
   0  -2   0  163.78   10.00
   0   2   0  158.98   10.00
   0   2   0  164.78    9.10
  -1  -2   0  166.08    9.60
  -1  -2   0  160.48    9.90
   1   2   0  162.28    9.60
   1   2   0  163.18    9.80
  -2  -2   0  411.36   23.30
  -2  -2   0  401.16   23.30
  -3  -2   0  449.76   26.90
  -3  -2   0  461.05   27.00
   3   2   0  487.35   27.10
   3   2   0  463.55   26.90
  -4  -2   0   17.40    3.40
  -4  -2   0   16.60    3.70
  -4  -2   0   17.50    3.20
   4   2   0   15.90    3.30
  -5  -2   0    7.00    2.50
  -5  -2   0   10.30    3.60
  -5  -2   0   12.70    3.60
   5   2   0    8.90    2.90
  -6  -2   0  114.29   10.80
  -6  -2   0  119.39   10.10
   6   2   0  135.09   10.30
  -7  -2   0   67.89    8.30
   7   2   0   61.19    7.80
  -8  -2   0    1.70    4.40
   8   2   0    4.90    3.80
  -9  -2   0    3.10    5.40
   9   2   0    5.90    4.60
 -10  -2   0    2.60    6.90
  10   2   0    3.00    4.80
  -9   3   0   -3.40    5.30
   8  -3   0   15.60    7.50
   8  -3   0    2.60    3.60
   7  -3   0   -0.70    2.90
   7  -3   0   -2.40    4.40
   6  -3   0    0.60    4.20
   6  -3   0   11.30    3.80
  -6   3   0   -0.80    2.70
   5  -3   0    9.00    5.00
   5  -3   0    6.20    2.80
  -5   3   0   12.10    3.80
   4  -3   0    6.40    2.50
   4  -3   0    7.30    3.50
  -4   3   0    5.10    3.30
  -4   3   0    3.80    2.00
   3  -3   0  291.87   17.40
   3  -3   0  275.87   19.00
  -3   3   0  287.77   17.10
  -3   3   0  288.47   19.10
   2  -3   0    1.70    1.30
   2  -3   0    1.00    2.20
  -2   3   0    9.90    3.00
   1  -3   0  882.61   47.10
   1  -3   0  811.02   48.60
  -1   3   0  870.01   47.10
  -1   3   0  833.02   48.60
   0  -3   0  519.85   30.10
   0  -3   0  512.35   28.10
   0   3   0  507.15   29.40
   0   3   0  501.35   28.10
  -1  -3   0  176.88   10.00
  -1  -3   0  160.18   10.70
   1   3   0  173.38   10.00
   1   3   0  162.28   11.10
  -2  -3   0   -0.70    1.30
   2   3   0    1.40    1.60
   2   3   0    4.60    2.30
  -3  -3   0    4.70    2.30
  -3  -3   0    2.20    1.70
   3   3   0    4.30    1.90
   3   3   0    2.80    2.00
  -4  -3   0  111.59    8.50
  -4  -3   0  105.79    8.10
   4   3   0  108.99    8.10
   4   3   0  115.59    8.50
  -5  -3   0   93.89    7.90
  -5  -3   0   99.09    8.40
   5   3   0  100.29    8.30
  -6  -3   0    7.90    3.70
  -6  -3   0    4.60    3.20
   6   3   0    2.80    2.50
  -7  -3   0   37.40   10.40
   7   3   0   31.30    5.70
  -8  -3   0   22.60    6.00
   8   3   0   17.10    4.70
  -9  -3   0    0.10    5.10
   9   3   0    5.70    4.30
 -10  -3   0   -5.10    5.70
  10   3   0    0.00    4.30
   8  -4   0    7.50    4.30
   8  -4   0   20.70    9.20
   7  -4   0    0.80    3.10
   7  -4   0    0.20    4.60
   6  -4   0   -0.70    4.30
   6  -4   0    4.80    3.20
  -6   4   0    1.40    2.40
   5  -4   0   28.50    4.60
   5  -4   0   24.00    6.30
  -5   4   0   24.40    4.10
   4  -4   0   84.09    6.80
   4  -4   0   75.89    9.40
  -4   4   0   81.59    6.40
   3  -4   0   28.90    5.70
   3  -4   0   33.30    4.00
  -3   4   0   24.60    5.10
  -3   4   0   39.20    4.10
   2  -4   0  259.47   14.80
   2  -4   0  249.68   17.00
  -2   4   0  240.28   16.80
  -2   4   0  242.48   14.90
   1  -4   0  104.19    8.70
  -1   4   0  108.39    8.50
  -1   4   0  106.99    6.50
   0  -4   0    5.70    2.60
   0   4   0    6.30    2.50
   0   4   0    6.20    1.00
  -1  -4   0   69.99    5.60
  -1  -4   0   56.29    4.10
   1   4   0   61.19    4.30
   1   4   0   51.59    5.40
  -2  -4   0   30.80    3.20
  -2  -4   0   28.80    3.90
   2   4   0   26.50    3.20
   2   4   0   35.10    4.40
  -3  -4   0   57.29    5.10
  -3  -4   0   56.89    5.70
   3   4   0   55.39    5.50
   3   4   0   63.29    5.20
  -4  -4   0  100.09    8.50
  -4  -4   0   98.09    7.70
   4   4   0  107.69    8.00
   4   4   0   93.59    7.70
  -5  -4   0    6.00    3.40
  -5  -4   0    3.30    2.30
   5   4   0    4.50    2.60
   5   4   0    4.90    2.70
  -6  -4   0   58.39    6.90
   6   4   0   50.79    6.90
  -7  -4   0    1.90    3.90
   7   4   0    3.90    2.90
  -8  -4   0    8.10    5.30
   8   4   0   17.00    4.90
  -9  -4   0   13.30    6.30
   9   4   0   10.40    4.50
 -10  -4   0   15.60    7.80
  10   4   0    4.00    4.20
   8  -5   0    9.90    4.80
   8  -5   0    8.80    7.30
   7  -5   0   -1.10    3.20
   7  -5   0   10.00    6.30
   6  -5   0   -4.80    4.10
   6  -5   0    4.20    3.10
  -6   5   0    0.10    2.30
   5  -5   0   19.00    6.00
   5  -5   0   27.80    5.00
  -5   5   0   25.30    4.20
   4  -5   0   94.29    7.50
   4  -5   0   88.59   11.20
  -4   5   0   93.79    7.00
   3  -5   0   60.29    5.10
   3  -5   0   67.59    9.10
  -3   5   0   58.19    4.80
   2  -5   0    3.60    3.00
   2  -5   0    8.40    1.90
  -2   5   0    8.20    1.70
  -2   5   0    7.40    3.10
   1  -5   0  113.99    9.30
  -1   5   0  103.19    6.50
  -1   5   0  108.59    6.40
  -1   5   0  107.09    9.00
   0  -5   0  118.09    9.30
   0   5   0  108.19    8.80
   0   5   0  118.79    6.90
  -1  -5   0   65.99    4.60
  -1  -5   0   76.79    6.50
   1   5   0   71.29    6.20
   1   5   0   69.19    4.80
  -2  -5   0    0.70    2.10
  -2  -5   0    3.10    1.40
   2   5   0    2.80    2.40
   2   5   0    0.90    1.50
  -3  -5   0  196.68   12.30
  -3  -5   0  190.48   12.90
   3   5   0  194.08   12.50
   3   5   0  191.88   12.90
  -4  -5   0  170.98   11.70
  -4  -5   0  170.98   12.10
   4   5   0  163.78   11.70
   4   5   0  180.98   11.90
  -5  -5   0    3.30    2.20
  -5  -5   0   10.70    3.70
   5   5   0   11.90    3.10
   5   5   0   16.70    3.90
  -6  -5   0   36.70    6.00
   6   5   0   42.10    6.10
   6   5   0   27.70    4.80
  -7  -5   0   32.40    6.30
   7   5   0   22.10    4.80
  -8  -5   0    2.30    5.20
   8   5   0   -0.90    2.50
  -9  -5   0    5.30    5.80
   9   5   0    2.00    3.60
 -10  -5   0   -5.50    6.20
   7  -6   0    3.10    3.60
   6  -6   0   17.00    7.60
   6  -6   0   25.30    5.00
  -6   6   0   17.50    4.10
   5  -6   0   15.10    3.80
   5  -6   0   21.00    6.50
  -5   6   0   20.10    3.70
   4  -6   0   10.80    3.00
   4  -6   0   21.80    6.20
  -4   6   0   16.00    2.90
   3  -6   0   27.40    9.70
   3  -6   0   48.40    4.70
  -3   6   0   37.50    3.60
   2  -6   0   -1.00    2.40
  -2   6   0    1.80    1.00
  -2   6   0   -0.60    2.50
  -2   6   0    1.20    0.90
   1  -6   0    2.60    2.70
  -1   6   0    0.60    0.80
  -1   6   0    2.00    2.30
  -1   6   0    0.10    0.60
   0  -6   0    3.90    3.00
   0   6   0    0.80    2.20
   0   6   0    3.40    0.90
   0   6   0    1.90    0.90
  -1  -6   0  254.47   16.30
   1   6   0  244.78   14.20
   1   6   0  229.68   15.80
  -2  -6   0   -0.10    2.30
  -2  -6   0    2.80    1.40
   2   6   0    3.10    1.60
   2   6   0    0.70    2.20
  -3  -6   0   20.60    4.20
  -3  -6   0   25.40    3.50
   3   6   0   25.30    3.70
   3   6   0   30.90    4.60
  -4  -6   0  117.19    9.90
  -4  -6   0  128.89    9.10
   4   6   0  123.49    9.70
   4   6   0  129.99    9.40
  -5  -6   0  118.99    9.70
  -5  -6   0  135.99   10.60
   5   6   0  135.89   10.20
  -6  -6   0    4.60    3.70
   6   6   0   -1.80    2.70
  -7  -6   0    3.70    4.80
   7   6   0    9.10    3.60
  -8  -6   0   -2.90    4.30
   8   6   0   -4.10    2.50
  -9  -6   0   32.50    8.60
   9   6   0   21.50    6.30
 -10  -6   0    7.40    7.70
  10   6   0    1.90    4.10
   6  -7   0    9.60    7.30
   6  -7   0    7.50    3.70
  -6   7   0    6.60    3.10
   5  -7   0   10.10    3.20
   5  -7   0   18.80    6.80
  -5   7   0    7.00    2.80
   4  -7   0   -1.00    4.10
   4  -7   0   14.60    3.10
  -4   7   0    6.90    2.20
   3  -7   0   -3.60    2.70
  -3   7   0    3.40    1.40
   2  -7   0   69.89   11.50
  -2   7   0   58.29    4.00
  -2   7   0   62.59    4.10
   1  -7   0   37.10    6.70
  -1   7   0   42.40    6.50
   0  -7   0    1.40    2.90
   0   7   0    0.00    0.90
   0   7   0    0.40    0.70
   0   7   0    2.30    2.50
  -1  -7   0   90.99    9.20
  -1  -7   0   67.89    4.90
   1   7   0   81.09    7.40
   1   7   0   69.29    5.10
  -2  -7   0  137.79    9.10
  -2  -7   0  141.49   11.10
   2   7   0  141.29    9.30
   2   7   0  156.08   11.00
  -3  -7   0  147.29    9.90
  -3  -7   0  146.99   11.30
   3   7   0  144.99   11.00
   3   7   0  155.38   10.20
  -4  -7   0    9.00    2.50
  -4  -7   0   16.10    4.00
   4   7   0   14.60    3.20
   4   7   0   17.00    4.20
  -5  -7   0    0.80    2.00
  -5  -7   0    1.20    3.00
   5   7   0    7.50    3.50
   5   7   0    0.20    2.10
  -6  -7   0   -1.90    3.50
   6   7   0   -3.20    3.10
   6   7   0   -0.40    2.10
  -7  -7   0   21.40   10.20
   7   7   0   19.10    4.90
  -8  -7   0   15.00    6.10
   8   7   0   12.90    4.70
  -9  -7   0    7.80    6.50
   9   7   0    5.80    4.40
 -10  -7   0    8.60    8.00
  10   7   0    7.90    4.90
   6  -8   0   16.10    4.10
   6  -8   0    3.80    7.30
  -6   8   0   16.10    5.60
   5  -8   0   -1.60    4.70
  -5   8   0   -1.90    1.80
   4  -8   0   20.00    6.40
  -4   8   0   23.70    3.10
  -4   8   0   30.10    3.30
   3  -8   0    3.70    4.50
  -3   8   0    8.50    1.50
  -3   8   0    8.20    1.60
   2  -8   0   14.00    5.20
   0  -8   0   91.29   10.60
   0   8   0   87.59    5.30
   0   8   0   82.79    5.20
  -1  -8   0   69.49    8.80
  -1  -8   0   64.29    4.40
   1   8   0   62.69    7.70
   1   8   0   60.49    4.70
  -2  -8   0    4.60    3.60
  -2  -8   0    1.40    1.20
   2   8   0    1.20    1.50
   2   8   0    3.20    3.00
  -3  -8   0    9.60    2.30
  -3  -8   0   13.50    4.00
   3   8   0    5.50    2.20
   3   8   0   10.60    3.80
  -4  -8   0   55.99    6.50
  -4  -8   0   52.59    7.20
   4   8   0   53.79    6.90
   4   8   0   49.60    5.90
  -5  -8   0   -2.20    3.70
   5   8   0    0.20    2.30
   5   8   0   -6.60    3.30
  -6  -8   0   -4.80    3.50
   6   8   0    2.90    2.80
  -7  -8   0   -2.30    4.30
   7   8   0   -1.10    2.40
  -8  -8   0    5.30    5.30
   8   8   0   -4.50    2.50
  -9  -8   0   11.70    6.30
   9   8   0    6.10    4.10
 -10  -8   0   12.60    7.90
  10   8   0   -4.60    3.40
   5  -9   0   12.10    8.20
  -5   9   0    2.30    1.80
  -5   9   0    4.70    1.80
   4  -9   0    4.40    5.40
  -4   9   0   -0.70    0.90
   3  -9   0    4.60    4.90
   2  -9   0    7.90    4.80
   1  -9   0    7.40    5.10
   0  -9   0   -0.50    3.40
  -1  -9   0   36.40    7.20
   1   9   0   38.20    3.40
  -2  -9   0  102.59    7.10
  -2  -9   0  108.69   10.60
   2   9   0  106.79    7.40
  -3  -9   0   -0.50    1.40
  -3  -9   0    2.00    3.60
   3   9   0    3.20    3.70
   3   9   0    1.90    1.80
  -4  -9   0   92.09    9.90
  -4  -9   0   63.79    6.00
   4   9   0   63.69    7.10
  -5  -9   0   26.60    6.20
   5   9   0   27.10    5.10
   6   9   0    3.60    2.80
  -7  -9   0    7.40    5.40
   7   9   0   13.00    4.10
  -8  -9   0    2.20    5.60
   8   9   0    0.80    3.30
  -9  -9   0   15.30    7.10
   9   9   0    2.80    3.80
   4 -10   0   -4.20    9.20
   3 -10   0   36.00    9.30
   2 -10   0   -1.70    4.00
   1 -10   0   38.70    8.90
   0 -10   0   14.20    5.90
  -1 -10   0    5.00    4.70
   1  10   0    5.80    1.40
   1  10   0    2.20    1.40
  -2 -10   0    7.40    4.90
  -2 -10   0    8.10    1.80
   2  10   0    9.70    2.30
  -3 -10   0   24.80    3.70
   3  10   0   28.00    4.00
  -4 -10   0   28.30   11.30
  -4 -10   0   30.10    4.20
   4  10   0   23.60    4.20
  -5 -10   0   22.40    6.00
   5  10   0    7.70    3.00
  -6 -10   0   14.70    5.90
   6  10   0   12.80    4.20
  -7 -10   0   13.30    6.00
   7  10   0    6.20    3.50
  -8 -10   0    9.20    6.10
   8  10   0    3.40    3.60
  -9 -10   0    5.30    5.70
   9  10   0    1.80    4.10
   3 -11   0    6.40    8.70
   2 -11   0   -3.90    4.40
   1 -11   0    4.50    5.20
   0 -11   0   18.90    7.20
  -1 -11   0   70.09   11.20
  -2 -11   0    4.90    4.70
  -2 -11   0    2.90    1.40
   2  11   0    5.30    1.90
  -3 -11   0    0.50    1.50
  -3 -11   0    0.90    4.50
   3  11   0   -0.10    1.80
  -4 -11   0   19.80    6.50
  -4 -11   0   15.90    3.30
   4  11   0   11.10    3.20
  -5 -11   0   15.30    5.70
   5  11   0   14.90    4.40
  -6 -11   0    8.90    5.50
   6  11   0    2.10    2.70
  -7 -11   0   -0.90    5.30
   7  11   0   -2.70    2.40
  -8 -11   0    9.70    6.40
   8  11   0    4.10    3.50
   1 -12   0   10.00    7.20
   0 -12   0    9.10    7.10
  -1 -12   0   13.00    7.10
  -2 -12   0    5.30    5.70
   2  12   0   -1.10    1.30
  -3 -12   0    1.90    1.60
  -3 -12   0    7.20    5.90
   3  12   0    1.10    1.90
  -4 -12   0   -2.20    5.40
  -4 -12   0   -1.10    1.80
   4  12   0   -3.50    1.80
  -5 -12   0   16.50    6.70
   5  12   0    5.40    3.20
  -6 -12   0   11.10    6.60
   6  12   0   12.20    4.20
  -7 -12   0   12.80    6.90
   7  12   0    1.50    3.00
   0 -13   0   37.30   10.60
  -1 -13   0   10.90    8.30
  -2 -13   0    7.10    7.20
  -3 -13   0    7.10    7.10
  -3 -13   0    2.00    1.70
   3  13   0    2.90    2.20
  -4 -13   0   21.70    7.60
  -4 -13   0    3.60    2.30
   4  13   0    4.20    2.40
  -5 -13   0    4.00    6.30
   5  13   0    1.90    2.60
  -6 -13   0    0.30    5.70
   6  13   0    1.10    2.70
   6  13  -1    3.10    2.80
  -6 -13   1   -0.50    6.20
   5  13  -1   -0.50    4.40
  -5 -13   1    1.30    6.60
   4  13  -1    4.10    2.40
  -4 -13   1    8.30    7.00
  -4 -13   1    2.40    2.20
   3  13  -1    0.00    1.60
  -3 -13   1   -0.50    1.30
  -3 -13   1    0.50    6.50
  -2 -13   1   18.70    8.90
  -1 -13   1   11.20    8.20
   7  12  -1   -0.50    3.00
  -7 -12   1   -1.20    6.00
   6  12  -1    5.90    3.30
  -6 -12   1   12.30    6.50
  -5 -12   1   22.20    7.60
   4  12  -1   -0.60    2.00
  -4 -12   1   -0.60    1.90
  -4 -12   1    3.50    5.90
   3  12  -1   16.30    3.10
  -3 -12   1   10.10    2.20
  -3 -12   1   16.00    6.60
  -2 -12   1    1.70    6.30
  -1 -12   1   -7.40    4.80
   0 -12   1    1.00    5.90
   1 -12   1    2.70    6.30
   8  11  -1    4.40    4.00
  -8 -11   1   21.90    7.90
   7  11  -1   -2.60    2.60
  -7 -11   1    4.00    5.80
   6  11  -1    9.60    3.50
  -6 -11   1   31.60    7.80
   5  11  -1    6.50    2.90
  -5 -11   1    4.10    4.90
   4  11  -1   17.50    3.80
  -4 -11   1   14.90    3.30
  -4 -11   1   17.10    6.50
   3  11  -1    4.40    2.20
  -3 -11   1   10.50    6.10
  -3 -11   1    2.00    1.70
   2  11  -1   15.60    2.80
  -2 -11   1   16.30    2.10
  -2 -11   1   32.30    8.10
  -1 -11   1   76.89   12.20
   0 -11   1   24.40    7.60
   1 -11   1    1.30    5.70
   2 -11   1   11.30    5.90
   3 -11   1   11.10    7.80
   9  10  -1    4.40    4.30
  -9 -10   1    2.90    5.90
   8  10  -1    1.90    3.50
  -8 -10   1    9.70    6.50
   7  10  -1   32.90    6.30
  -7 -10   1   45.40    8.30
   6  10  -1    8.60    3.30
  -6 -10   1   12.70    5.50
   5  10  -1   -1.60    1.90
  -5 -10   1    1.10    4.50
   4  10  -1    0.70    2.10
  -4 -10   1    0.30    2.00
  -4 -10   1   -0.20    4.00
   3  10  -1    3.60    2.00
  -3 -10   1    0.50    4.10
  -3 -10   1    3.20    1.80
   2  10  -1   24.50    3.20
  -2 -10   1   36.80    7.50
  -2 -10   1   26.60    2.90
  -1 -10   1   18.80    6.60
   0 -10   1   22.80    7.10
   1 -10   1   58.59   11.40
   2 -10   1   -7.40    3.70
   3 -10   1   -4.30    4.30
   4 -10   1    4.00    6.50
   9   9  -1   10.50    5.40
  -9  -9   1   24.70    7.80
   8   9  -1    1.70    3.50
  -8  -9   1    5.50    5.70
   7   9  -1   -1.50    2.50
  -7  -9   1    3.10    5.10
   6   9  -1   27.70    5.10
  -6  -9   1   14.90    5.60
   5   9  -1    0.70    2.10
  -5  -9   1   -1.70    4.40
   4   9  -1    9.80    2.80
  -4  -9   1   13.30    4.80
  -4  -9   1    8.90    2.80
   3   9  -1   -0.40    1.60
  -3  -9   1    0.20    3.20
  -3  -9   1   -0.50    1.40
   2   9  -1   50.99    4.40
  -2  -9   1   51.59    4.10
  -2  -9   1   51.89    8.10
   1   9  -1   43.80    3.20
  -1  -9   1   46.40    8.20
   0  -9   1   -4.40    3.40
   1  -9   1    2.80    4.40
   2  -9   1   11.40    5.30
   3  -9   1   33.00    8.10
   4  -9   1   -2.50    5.00
   5  -9   1    2.50    6.40
   9   8  -1   -0.40    3.80
  -9  -8   1    8.90    6.60
   8   8  -1   -1.50    2.90
  -8  -8   1   -2.10    4.90
   7   8  -1   15.10    4.30
  -7  -8   1   15.90    5.90
   6   8  -1    0.20    2.50
  -6  -8   1   -4.80    4.00
   5   8  -1   37.60    5.60
  -5  -8   1   49.90    7.40
   4   8  -1   29.80    5.70
   4   8  -1   20.50    3.70
  -4  -8   1   18.30    4.80
   3   8  -1    1.00    1.70
   3   8  -1    4.20    3.00
  -3  -8   1   -2.10    2.90
  -3  -8   1   -0.80    1.30
   2   8  -1   31.40    5.50
   2   8  -1   32.50    3.70
  -2  -8   1   32.00    3.40
  -2  -8   1   34.50    6.10
   1   8  -1   77.89    5.10
  -1  -8   1   74.29    4.90
  -1  -8   1   88.89   10.10
   0  -8   1   84.99   10.60
   1  -8   1   39.10    7.60
   2  -8   1   -1.00    3.90
   3  -8   1    2.10    4.00
  -4   8  -1   27.00    2.60
  -4   8  -1   29.60    3.00
   4  -8   1   30.70    8.10
  -5   8  -1    7.80    2.20
   5  -8   1    9.80    6.30
  -6   8  -1    3.00    3.10
   6  -8   1   -0.60    5.00
   6  -8   1    2.40    2.70
  10   7  -1   22.80    6.60
 -10  -7   1   23.20    8.70
   9   7  -1   27.50    7.10
  -9  -7   1   34.50    8.50
   8   7  -1    5.80    4.00
  -8  -7   1   11.30    6.00
   7   7  -1   38.10    6.30
  -7  -7   1   50.19    8.00
   6   7  -1   -3.10    2.20
  -6  -7   1   -0.10    3.80
   5   7  -1   -1.40    3.10
   5   7  -1    2.60    2.20
  -5  -7   1   -0.20    3.10
  -5  -7   1    4.50    2.70
   4   7  -1   19.70    3.60
   4   7  -1   18.50    4.70
  -4  -7   1   19.30    3.40
  -4  -7   1   16.30    4.20
   3   7  -1  183.28   12.20
   3   7  -1  197.98   13.50
  -3  -7   1  180.98   12.00
  -3  -7   1  189.98   13.80
   2   7  -1  162.78   11.60
   2   7  -1  143.99    9.60
  -2  -7   1  148.09    9.40
  -2  -7   1  149.29   11.80
   1   7  -1   17.90    4.00
   1   7  -1    6.90    1.50
  -1  -7   1    8.80    1.40
  -1  -7   1   14.00    4.10
   0   7  -1   16.70    4.30
   0  -7   1   13.30    4.40
   1  -7   1  104.49   10.30
   2  -7   1    0.70    3.00
  -3   7  -1   11.50    1.60
  -3   7  -1   11.50    1.60
   3  -7   1    8.70    4.40
  -4   7  -1   -0.40    1.40
   4  -7   1    4.00    2.00
   4  -7   1    0.60    4.00
  -5   7  -1    1.20    2.00
   5  -7   1    7.00    5.30
   5  -7   1    6.20    2.80
   6  -7   1   15.10    6.90
   6  -7   1   27.60    4.80
  10   6  -1    1.90    4.20
 -10  -6   1    3.00    7.40
   9   6  -1   19.30    5.70
  -9  -6   1   43.20    9.30
   8   6  -1   -2.60    2.60
  -8  -6   1    3.40    5.50
   7   6  -1    3.30    3.50
  -7  -6   1    6.90    5.40
   6   6  -1    9.80    4.90
  -6  -6   1    1.80    3.90
   5   6  -1   26.20    4.60
   5   6  -1   24.10    4.70
  -5  -6   1   37.50    5.80
  -5  -6   1   27.90    4.40
   4   6  -1   70.99    6.40
   4   6  -1   77.59    7.80
  -4  -6   1   78.99    8.10
  -4  -6   1   65.99    6.20
   3   6  -1   28.50    3.90
   3   6  -1   18.60    4.10
  -3  -6   1   27.40    4.60
  -3  -6   1   24.90    3.40
   2   6  -1  116.59    9.20
   2   6  -1  116.19    7.80
  -2  -6   1  117.59    7.70
  -2  -6   1  112.69    9.30
   1   6  -1  205.68   12.20
   1   6  -1  210.38   14.30
  -1  -6   1  216.58   14.70
  -1  -6   1  204.48   12.10
   0   6  -1    5.30    3.20
   0  -6   1   11.80    4.00
  -1   6  -1   41.90    6.50
   1  -6   1   34.30    6.20
   2  -6   1    0.00    2.90
  -3   6  -1   87.29    5.90
   3  -6   1   59.79    9.20
   3  -6   1   79.89    5.80
  -4   6  -1   20.70    3.10
   4  -6   1   19.20    6.20
   4  -6   1   20.00    3.50
  -5   6  -1   23.60    3.70
   5  -6   1   18.70    3.80
   5  -6   1   14.00    5.90
  -6   6  -1    5.50    2.80
   6  -6   1    6.40    3.30
   6  -6   1   13.30    7.50
   7  -6   1   -2.40    6.60
   7  -6   1    1.20    3.20
  10   5  -1   -0.80    5.00
 -10  -5   1   -3.80    6.50
   9   5  -1   -1.70    3.30
  -9  -5   1    1.80    6.20
   8   5  -1    5.90    3.60
  -8  -5   1    2.80    5.00
   7   5  -1   25.50    5.30
  -7  -5   1   39.80    6.90
   6   5  -1   16.40    4.30
   6   5  -1   19.80    4.50
  -6  -5   1   34.50    6.00
   5   5  -1   -0.10    1.90
   5   5  -1    0.70    2.40
  -5  -5   1   -1.00    3.20
  -5  -5   1   -1.60    1.50
   4   5  -1   73.89    7.30
   4   5  -1   92.99    7.20
  -4  -5   1   89.19    7.90
  -4  -5   1   76.59    6.70
   3   5  -1   14.50    2.80
   3   5  -1   13.80    3.90
  -3  -5   1    5.80    2.20
  -3  -5   1    9.60    3.60
   2   5  -1  142.39   10.10
   2   5  -1  137.99    9.00
  -2  -5   1  134.89   10.20
  -2  -5   1  140.59    8.90
   1   5  -1   42.00    3.30
   1   5  -1   57.39    6.00
  -1  -5   1   39.70    5.30
  -1  -5   1   42.20    3.20
   0   5  -1  137.89   10.00
   0  -5   1  123.99   10.10
  -1   5  -1  172.28   12.80
   1  -5   1  178.28   13.00
  -2   5  -1   10.50    3.80
  -2   5  -1    9.60    1.40
   2  -5   1   11.20    1.80
   2  -5   1   17.00    4.70
  -3   5  -1    9.60    1.90
   3  -5   1    5.80    3.70
   3  -5   1    7.40    2.30
  -4   5  -1   67.99    5.70
   4  -5   1   62.49    9.70
   4  -5   1   79.19    6.20
  -5   5  -1   52.49    6.30
   5  -5   1   78.89    7.60
   5  -5   1   76.29   10.80
  -6   5  -1   -0.20    2.20
   6  -5   1   13.40    6.00
   6  -5   1   -3.00    2.40
   7  -5   1    6.30    6.80
 -10  -4   1    3.70    6.80
   9   4  -1    4.40    4.10
  -9  -4   1   12.20    6.20
   8   4  -1    1.10    3.20
  -8  -4   1    6.20    5.00
   7   4  -1   -0.90    2.20
  -7  -4   1    1.80    4.10
   6   4  -1   28.90    5.00
   6   4  -1   28.70    4.90
  -6  -4   1   35.40    5.80
   5   4  -1  124.49   10.30
  -5  -4   1  148.69   10.40
  -5  -4   1  138.99   11.10
   4   4  -1    1.00    2.30
   4   4  -1    2.90    2.20
  -4  -4   1   -1.10    1.40
  -4  -4   1    4.70    3.20
   3   4  -1   25.00    4.00
   3   4  -1   20.20    3.20
  -3  -4   1   19.60    3.10
  -3  -4   1   27.50    4.20
   2   4  -1   83.79    5.90
   2   4  -1   83.59    6.80
  -2  -4   1   75.79    5.80
  -2  -4   1   87.69    6.90
   1   4  -1   26.30    3.80
   1   4  -1   28.60    2.70
  -1  -4   1   23.30    3.90
  -1  -4   1   22.50    2.40
   0   4  -1   57.79    5.90
   0  -4   1   40.50    5.30
  -1   4  -1   64.89    6.60
   1  -4   1   77.09    6.90
  -2   4  -1  177.28   10.20
  -2   4  -1  165.38   12.70
   2  -4   1  164.08   12.90
   2  -4   1  177.98   10.40
  -3   4  -1   90.59    6.30
  -3   4  -1   81.49    9.50
   3  -4   1   97.29    9.10
   3  -4   1   89.59    6.50
  -4   4  -1    0.20    1.50
   4  -4   1    2.10    3.20
   4  -4   1    2.80    1.90
  -5   4  -1   73.09    6.60
   5  -4   1   72.79    9.80
   5  -4   1   79.19    7.00
  -6   4  -1   -1.20    2.00
   6  -4   1   -0.70    2.40
   6  -4   1   -2.30    4.50
   7  -4   1   -1.10    5.30
   7  -4   1   -0.90    2.90
   8  -4   1   -2.20    3.30
   8  -4   1    2.60    8.70
  10   3  -1   -0.20    6.10
 -10  -3   1    3.70    7.00
   9   3  -1    9.00    4.70
  -9  -3   1   10.00    6.40
   8   3  -1    7.60    4.30
  -8  -3   1   14.00    5.60
   7   3  -1   43.70    6.40
  -7  -3   1   39.60    6.60
   6   3  -1   23.00    4.20
  -6  -3   1   23.80    5.20
  -6  -3   1   20.20    5.40
   5   3  -1  441.16   28.10
  -5  -3   1  441.76   27.10
  -5  -3   1  458.75   27.30
   4   3  -1  452.65   26.60
   4   3  -1  455.35   26.90
  -4  -3   1  452.45   26.70
  -4  -3   1  431.26   26.70
   3   3  -1   35.50    4.30
   3   3  -1   40.90    4.60
  -3  -3   1   28.60    4.10
  -3  -3   1   34.00    4.00
   2   3  -1   85.29    5.90
   2   3  -1   78.89    6.50
  -2  -3   1   84.69    5.80
  -2  -3   1   74.89    6.40
   1   3  -1  141.99    8.40
   1   3  -1  136.89    9.40
  -1  -3   1  140.19    8.40
  -1  -3   1  134.89    9.40
   0   3  -1 1014.90   57.19
   0  -3   1 1017.90   57.29
  -1   3  -1   16.50    1.50
  -1   3  -1   19.20    3.80
   1  -3   1   13.10    3.20
   1  -3   1   17.70    1.60
  -2   3  -1   36.10    3.00
  -2   3  -1   39.00    5.70
   2  -3   1   42.10    5.90
   2  -3   1   38.80    3.20
  -3   3  -1  105.19    7.40
  -3   3  -1  117.49    9.80
   3  -3   1  112.39    9.70
   3  -3   1  118.59    7.80
  -4   3  -1  252.97   15.60
  -4   3  -1  243.88   17.90
   4  -3   1  266.57   18.10
   4  -3   1  246.58   15.80
  -5   3  -1    6.20    2.50
   5  -3   1    9.20    2.90
   5  -3   1    6.90    4.10
  -6   3  -1   21.90    4.30
   6  -3   1   24.10    4.70
   6  -3   1   16.10    5.90
   7  -3   1   -7.20    4.00
   7  -3   1   -4.40    2.60
   8  -3   1   -6.00    5.30
   8  -3   1    1.00    3.60
  10   2  -1    5.30    5.70
 -10  -2   1   13.60    8.10
   9   2  -1    2.30    4.20
  -9  -2   1    0.70    5.00
   8   2  -1   -1.30    3.20
  -8  -2   1   -0.10    4.40
   7   2  -1    5.00    3.20
  -7  -2   1    9.30    4.40
   6   2  -1   80.59    9.10
  -6  -2   1   89.99    8.60
   5   2  -1   24.30    4.20
  -5  -2   1   24.70    4.00
  -5  -2   1   26.70    4.50
   4   2  -1   35.30    4.90
   4   2  -1   32.80    4.40
  -4  -2   1   43.00    4.90
  -4  -2   1   37.80    4.80
   3   2  -1    5.20    2.20
   3   2  -1    4.10    1.80
  -3  -2   1   11.90    2.80
  -3  -2   1    7.70    2.20
   2   2  -1  113.29    7.50
   2   2  -1  115.99    7.70
  -2  -2   1  100.69    7.30
  -2  -2   1  107.29    7.90
   1   2  -1  337.17   19.50
   1   2  -1  336.37   19.00
  -1  -2   1  328.87   19.50
  -1  -2   1  338.37   19.00
   0   2  -1  174.38    9.60
   0  -2   1  168.38   10.80
  -1   2  -1 1218.48   70.79
  -1   2  -1 1313.17   69.49
   1  -2   1 1296.27   69.49
   1  -2   1 1228.08   70.89
  -2   2  -1  515.35   31.30
  -2   2  -1  541.15   29.80
   2  -2   1  542.35   29.90
   2  -2   1  516.75   31.40
  -3   2  -1    4.50    1.60
  -3   2  -1    0.60    2.40
   3  -2   1    8.30    3.10
   3  -2   1    7.20    2.00
  -4   2  -1  226.98   16.50
  -4   2  -1  234.88   14.80
   4  -2   1  231.88   16.60
   4  -2   1  243.08   15.00
  -5   2  -1  112.59    8.90
   5  -2   1  120.09    9.40
   5  -2   1  131.09   11.50
  -6   2  -1   23.50    4.50
   6  -2   1   17.60    4.40
   6  -2   1   35.80    7.40
   7  -2   1    3.80    4.90
   7  -2   1   12.60    4.00
   8  -2   1    6.10    3.90
   8  -2   1   13.70    7.00
  -9   2  -1   12.10    8.40
   9  -2   1    1.70    4.00
  10   1  -1    5.80    5.80
 -10  -1   1    2.70   10.90
   9   1  -1    6.90    4.60
  -9  -1   1    8.60    6.50
   8   1  -1   22.80    5.90
  -8  -1   1   35.60    7.00
   7   1  -1    0.10    2.60
  -7  -1   1    4.20    3.80
   6   1  -1   63.49    7.60
  -6  -1   1   62.69    7.60
   5   1  -1   59.59    6.80
  -5  -1   1   43.30    6.30
  -5  -1   1   45.50    5.80
  -5  -1   1   45.80    5.70
   4   1  -1   25.00    3.90
  -4  -1   1   25.60    3.70
  -4  -1   1   24.10    4.40
  -4  -1   1   28.00    4.20
   3   1  -1    1.40    2.40
   3   1  -1    3.10    2.00
  -3  -1   1    4.70    2.70
  -3  -1   1    2.50    1.90
   2   1  -1  123.89    8.30
   2   1  -1  106.19    7.70
  -2  -1   1  125.99    7.80
   1   1  -1   51.99    3.70
   1   1  -1   50.69    3.90
  -1  -1   1   54.39    3.60
  -1  -1   1   51.89    3.90
   0   1  -1   14.00    1.80
   0  -1   1   12.80    1.70
   0  -1   1   10.20    0.90
  -1   1  -1   40.80    2.70
  -1   1  -1   40.40    3.90
   1  -1   1   37.50    2.80
   1  -1   1   43.00    4.40
  -2   1  -1 9999.00  560.04
   2  -1   1 9377.66  558.34
  -3   1  -1  187.28   13.00
  -3   1  -1  191.48   11.80
   3  -1   1  186.88   13.00
   3  -1   1  189.18   11.90
  -4   1  -1   13.30    3.60
  -4   1  -1    8.40    2.40
   4  -1   1    5.60    2.80
   4  -1   1   13.20    2.90
  -5   1  -1    1.50    2.10
  -5   1  -1    2.70    3.30
   5  -1   1    6.20    3.80
   5  -1   1    6.00    2.50
  -6   1  -1   13.70    3.60
   6  -1   1    6.70    3.10
   6  -1   1   10.90    4.90
   7  -1   1   13.70    5.60
   7  -1   1    4.30    3.20
  -8   1  -1    1.10    5.10
   8  -1   1    0.30    3.30
  -9   1  -1   -0.20    5.70
   9  -1   1    5.90    4.40
   9   0  -1   -3.90    3.30
  -9   0   1   -4.70    4.90
   8   0  -1   17.10    4.90
  -8   0   1   21.70    6.40
   7   0  -1   10.40    4.40
  -7   0   1    7.80    4.20
   6   0  -1    2.20    2.70
  -6   0   1    7.30    3.40
   5   0  -1   80.29    7.30
  -5   0   1   76.69    8.10
  -5   0   1   77.09    7.70
  -5   0   1   68.29    8.50
   4   0  -1    4.80    2.40
  -4   0   1    4.90    2.70
  -4   0   1    5.90    3.00
  -4   0   1   11.90    2.70
   3   0  -1    0.60    1.80
  -3   0   1    1.00    1.60
  -3   0   1    0.60    2.10
  -3   0   1    0.00    2.00
  -2   0   1  104.09    7.00
  -2   0   1  106.39    7.70
  -2   0   1  102.09    7.20
   1   0  -1  146.99    8.50
   1   0  -1  138.79    8.50
  -1   0   1  140.49    8.50
  -1   0   1  145.19    8.50
  -1   0  -1  175.38    9.80
  -1   0  -1  169.08   10.10
   1   0   1  169.48   10.10
   1   0   1  162.48    9.70
  -2   0  -1  302.07   17.90
  -2   0  -1  296.27   18.10
   2   0   1  309.27   17.60
   2   0   1  305.57   18.10
  -3   0  -1  185.48   11.70
  -3   0  -1  191.38   12.60
   3   0   1  189.88   12.50
   3   0   1  178.28   11.70
  -4   0  -1  166.28   12.00
  -4   0  -1  163.58   10.80
   4   0   1  162.48   12.00
   4   0   1  150.08   10.90
  -5   0  -1  112.89    9.80
   5   0   1   98.79    8.40
   5   0   1  101.09    9.60
  -6   0  -1    1.10    2.40
   6   0   1    2.90    2.80
  -7   0  -1    6.90    4.70
   7   0   1   11.20    4.10
  -8   0  -1   46.90    8.60
   8   0   1   45.10    7.60
  -9   0  -1    8.50    5.80
   9   0   1    7.10    4.50
   9  -1  -1   17.10    5.80
  -9   1   1   31.60    8.10
   8  -1  -1    0.10    3.30
  -8   1   1    0.70    4.50
   7  -1  -1   12.40    4.30
  -7   1   1    5.70    4.50
   6  -1  -1   24.00    4.70
  -6   1   1   30.60    5.70
   5  -1  -1   20.60    4.10
  -5   1   1   16.20    3.60
  -5   1   1   21.10    5.00
   4  -1  -1   59.79    7.30
   4  -1  -1   66.69    6.10
  -4   1   1   65.39    8.00
  -4   1   1   65.39    5.80
   3  -1  -1   40.50    4.60
   3  -1  -1   42.30    5.50
  -3   1   1   46.20    5.80
  -3   1   1   48.10    4.40
   2  -1  -1  687.33   40.10
  -2   1   1  704.43   39.40
  -2   1   1  708.53   40.10
   1  -1  -1  101.49    6.40
   1  -1  -1  101.79    6.90
  -1   1   1  105.79    6.90
  -1   1   1  102.49    6.40
  -1  -1  -1   67.39    4.10
  -1  -1  -1   67.59    4.40
   1   1   1   71.19    4.40
  -2  -1  -1  354.56   20.50
  -2  -1  -1  352.96   20.70
   2   1   1  361.56   20.60
  -3  -1  -1  115.99    8.20
  -3  -1  -1  127.59    8.90
   3   1   1  116.09    8.30
  -4  -1  -1  406.56   24.90
  -4  -1  -1  422.86   25.80
  -4  -1  -1  430.96   25.10
   4   1   1  426.86   25.20
  -5  -1  -1   52.59    7.10
  -5  -1  -1   67.79    7.00
  -5  -1  -1   74.79    8.10
   5   1   1   51.09    6.20
  -6  -1  -1   20.30    5.20
  -6  -1  -1   23.20    4.70
   6   1   1   23.20    4.50
  -7  -1  -1    4.60    3.90
   7   1   1    6.10    3.10
  -8  -1  -1   39.10    7.40
   8   1   1   38.80    6.70
  -9  -1  -1   30.10    7.70
   9   1   1   15.70    5.20
 -10  -1  -1    7.60    6.60
  10   1   1    6.80    5.00
   9  -2  -1   11.50    5.20
   8  -2  -1   38.60    7.10
  -8   2   1   43.20    8.30
   7  -2  -1    1.40    3.20
  -7   2   1   -1.80    3.60
   6  -2  -1   27.30    5.00
   6  -2  -1   14.90    5.50
   5  -2  -1   85.79    7.70
   5  -2  -1   96.59   10.80
  -5   2   1   81.29    7.30
   4  -2  -1   61.89    7.80
   4  -2  -1   80.29    6.50
  -4   2   1   69.49    8.40
  -4   2   1   68.79    6.00
   3  -2  -1    4.30    2.80
   3  -2  -1    6.10    2.20
  -3   2   1    7.00    2.70
  -3   2   1    2.30    1.70
   2  -2  -1    9.50    3.00
  -2   2   1    5.80    1.80
  -2   2   1    9.00    2.70
   1  -2  -1  970.80   54.59
   1  -2  -1  992.00   53.89
  -1   2   1  965.50   53.79
  -1   2   1  957.40   54.59
   0  -2  -1   67.69    4.30
   0  -2  -1   69.19    4.90
   0   2   1   69.69    4.30
   0   2   1   68.29    4.80
  -1  -2  -1  323.57   17.90
  -1  -2  -1  309.97   17.70
   1   2   1  309.47   17.70
   1   2   1  318.47   17.90
  -2  -2  -1    2.70    1.70
  -2  -2  -1    2.50    1.40
   2   2   1    3.90    1.50
   2   2   1    3.00    2.00
  -3  -2  -1  584.24   33.80
  -3  -2  -1  572.34   33.50
  -3  -2  -1  597.24   34.00
   3   2   1  607.44   33.90
  -4  -2  -1  224.98   14.70
  -4  -2  -1  241.38   15.30
  -4  -2  -1  225.38   14.50
   4   2   1  233.58   14.80
  -5  -2  -1    4.70    3.00
  -5  -2  -1    4.50    2.70
  -5  -2  -1    2.90    2.30
   5   2   1    6.70    2.70
  -6  -2  -1   14.10    3.90
  -6  -2  -1   13.30    4.10
   6   2   1    9.50    3.30
   7   2   1    4.10    3.40
  -8  -2  -1    0.40    4.40
   8   2   1    1.50    3.00
  -9  -2  -1   -2.80    4.30
   9   2   1    4.90    3.90
 -10  -2  -1   20.20    7.40
  10   2   1   -0.60    3.90
  -9   3   1    9.90    6.80
   8  -3  -1    0.10    3.60
  -8   3   1   -0.30    4.60
   7  -3  -1    1.30    4.60
   7  -3  -1    2.10    3.20
   6  -3  -1   17.30    5.80
   6  -3  -1   30.20    5.60
   5  -3  -1    1.00    2.40
   5  -3  -1   -0.10    3.80
  -5   3   1    0.80    2.10
   4  -3  -1    4.50    3.40
   4  -3  -1    7.80    2.60
  -4   3   1    2.20    2.00
  -4   3   1    3.70    2.90
   3  -3  -1   31.30    5.40
   3  -3  -1   35.00    4.30
  -3   3   1   40.10    5.30
  -3   3   1   39.00    5.90
   2  -3  -1  204.78   13.90
   2  -3  -1  193.08   12.90
  -2   3   1  209.78   12.40
  -2   3   1  206.88   13.90
   1  -3  -1  100.99    7.90
   1  -3  -1  103.99    6.90
  -1   3   1  106.09    6.80
  -1   3   1  116.99    8.10
   0  -3  -1  504.75   27.70
   0  -3  -1  504.05   28.60
   0   3   1  486.85   27.70
  -1  -3  -1   74.19    5.00
  -1  -3  -1   76.59    5.50
   1   3   1   76.49    5.10
   1   3   1   79.39    5.50
  -2  -3  -1    3.60    1.60
  -2  -3  -1    3.10    2.00
   2   3   1    6.30    2.20
   2   3   1    1.60    1.50
  -3  -3  -1    7.50    2.30
  -3  -3  -1    2.70    1.60
   3   3   1    4.10    1.90
   3   3   1   10.40    2.30
  -4  -3  -1   28.90    4.10
  -4  -3  -1   27.50    4.10
   4   3   1   36.10    4.80
   4   3   1   35.70    4.00
  -5  -3  -1  221.78   14.80
  -5  -3  -1  205.78   13.90
  -5  -3  -1  214.08   14.20
   5   3   1  206.38   14.30
  -6  -3  -1   17.50    4.50
  -6  -3  -1   24.50    4.60
   6   3   1   29.70    4.90
  -7  -3  -1   13.70    4.60
   7   3   1    0.80    2.70
  -8  -3  -1   18.60    5.50
   8   3   1   26.10    5.70
  -9  -3  -1   -5.60    4.90
   9   3   1   -2.20    3.10
 -10  -3  -1   -1.70    6.20
  10   3   1   -1.00    3.80
   8  -4  -1    7.40    4.50
   7  -4  -1    1.20    3.30
   7  -4  -1   -5.90    4.30
   6  -4  -1   10.40    5.30
   6  -4  -1   11.30    4.00
   5  -4  -1    8.80    4.90
   5  -4  -1    7.40    3.20
  -5   4   1    8.80    2.80
   4  -4  -1   26.10    4.10
   4  -4  -1   28.70    6.30
  -4   4   1   25.40    3.90
   3  -4  -1    7.20    3.30
   3  -4  -1   -2.40    1.50
  -3   4   1   -3.90    1.90
  -3   4   1    3.60    1.60
   2  -4  -1  347.07   21.20
   2  -4  -1  353.56   22.80
  -2   4   1  367.86   22.70
  -2   4   1  367.06   20.90
   1  -4  -1  313.27   20.10
  -1   4   1  331.47   18.60
  -1   4   1  319.47   20.10
   0  -4  -1   11.20    2.80
   0   4   1   10.90    1.50
   0   4   1    5.90    2.40
  -1  -4  -1   17.00    2.30
   1   4   1   16.20    2.90
   1   4   1   19.70    2.40
  -2  -4  -1   46.70    4.10
   2   4   1   46.50    4.30
   2   4   1   53.09    5.00
  -3  -4  -1    8.70    2.50
  -3  -4  -1    4.60    1.70
   3   4   1   10.00    2.50
   3   4   1    8.10    2.20
  -4  -4  -1    1.90    2.10
  -4  -4  -1    5.80    3.50
   4   4   1    6.50    2.50
   4   4   1   10.00    2.80
  -5  -4  -1  132.79    9.60
  -5  -4  -1  113.29    9.20
   5   4   1  122.79    9.50
   5   4   1  120.09    9.00
  -6  -4  -1  125.79   10.40
  -6  -4  -1  124.89   10.70
   6   4   1  130.99   10.50
  -7  -4  -1   33.00    6.10
   7   4   1   29.60    5.80
  -8  -4  -1    0.10    4.60
   8   4   1    4.50    3.10
  -9  -4  -1   19.40    7.00
   9   4   1   10.20    5.00
 -10  -4  -1   -5.50    6.30
  10   4   1    2.90    4.10
   8  -5  -1   -1.60    6.10
   8  -5  -1   -2.70    3.40
   7  -5  -1    6.90    6.90
   7  -5  -1    8.00    4.00
   6  -5  -1   -1.50    4.30
   6  -5  -1   -0.70    2.70
   5  -5  -1    0.80    2.60
   5  -5  -1    4.10    4.70
  -5   5   1    0.60    2.00
   4  -5  -1   79.39    7.00
   4  -5  -1   80.19   10.70
  -4   5   1   81.39    6.50
   3  -5  -1   53.79    8.10
   3  -5  -1   57.79    5.80
  -3   5   1   52.29    7.70
  -3   5   1   51.79    5.30
   2  -5  -1    1.00    1.50
   2  -5  -1    0.40    2.10
  -2   5   1    0.90    1.20
   1  -5  -1   81.19    8.60
  -1   5   1   61.69    4.50
  -1   5   1   75.89    7.90
  -1   5   1   67.79    4.80
   0  -5  -1  104.69    8.20
   0   5   1  101.69    6.60
   0   5   1  100.09    7.90
   0   5   1   98.99    6.30
  -1  -5  -1    4.10    2.30
  -1  -5  -1    6.90    1.50
   1   5   1    5.20    1.50
   1   5   1    3.70    2.20
  -2  -5  -1   28.40    3.40
  -2  -5  -1   30.00    4.20
   2   5   1   34.50    4.30
   2   5   1   33.20    3.70
  -3  -5  -1  132.09    9.70
  -3  -5  -1  143.09    9.50
   3   5   1  139.99    9.50
   3   5   1  144.09    9.70
  -4  -5  -1   28.70    4.30
  -4  -5  -1   20.90    3.50
   4   5   1   27.70    4.30
   4   5   1   33.30    4.20
  -5  -5  -1  104.99    8.80
  -5  -5  -1   94.49    8.00
   5   5   1  111.79    8.10
   5   5   1   89.79    8.10
  -6  -5  -1   29.70    5.40
   6   5   1   33.70    5.20
   6   5   1   31.40    4.70
  -7  -5  -1   79.89    8.70
   7   5   1   53.59    7.40
  -8  -5  -1    0.30    4.60
   8   5   1    2.80    3.60
  -9  -5  -1    0.90    5.30
   9   5   1   -0.40    3.50
 -10  -5  -1   -2.70    6.10
  10   5   1   -0.60    5.00
   7  -6  -1    2.90    3.80
   7  -6  -1   -0.40    7.40
   6  -6  -1   14.20    6.50
   6  -6  -1    8.50    3.90
   5  -6  -1    6.70    3.10
   5  -6  -1   10.50    5.70
  -5   6   1    8.90    2.90
   4  -6  -1    6.60    2.60
   4  -6  -1    4.30    3.80
  -4   6   1    4.30    2.10
   3  -6  -1   34.90    4.40
   3  -6  -1   25.40    5.90
  -3   6   1   39.70    4.40
   2  -6  -1    3.90    3.30
  -2   6   1    9.10    3.60
  -2   6   1    7.70    1.80
   1  -6  -1   -2.00    2.10
  -1   6   1    0.70    2.20
  -1   6   1    1.10    1.20
  -1   6   1   -0.70    0.80
   0  -6  -1   18.60    4.10
   0   6   1   28.20    3.10
   0   6   1   27.80    4.50
   0   6   1   21.90    2.40
  -1  -6  -1   90.19    5.80
  -1  -6  -1   93.19    7.70
   1   6   1   92.19    6.10
   1   6   1   73.29    7.10
  -2  -6  -1  192.38   12.10
  -2  -6  -1  199.08   13.20
   2   6   1  198.48   12.30
   2   6   1  194.58   12.90
  -3  -6  -1   66.79    6.40
  -3  -6  -1   67.89    5.60
   3   6   1   74.49    6.40
   3   6   1   69.59    5.80
  -4  -6  -1  134.09   10.20
  -4  -6  -1  157.28   10.10
   4   6   1  144.19   10.10
   4   6   1  125.39    9.80
  -5  -6  -1   72.99    7.50
  -5  -6  -1   60.19    6.80
   5   6   1   78.69    6.90
   5   6   1   67.59    6.40
  -6  -6  -1   32.70    5.40
   6   6   1   24.50    4.50
  -7  -6  -1   -2.50    4.10
   7   6   1   -0.30    2.80
  -8  -6  -1    0.70    5.20
   8   6   1   -2.50    2.60
  -9  -6  -1   17.10    7.30
   9   6   1   -0.40    3.20
 -10  -6  -1   14.20    8.10
   6  -7  -1    6.50    3.70
   6  -7  -1    3.60    6.30
  -6   7   1    6.90    4.30
   5  -7  -1    2.10    2.80
   5  -7  -1   -2.50    5.00
  -5   7   1    2.40    2.90
   4  -7  -1   34.70    5.00
   4  -7  -1   30.90    7.10
  -4   7   1   26.20    3.80
   3  -7  -1   14.10    5.80
  -3   7   1   14.80    2.60
   2  -7  -1   29.30    6.00
  -2   7   1   48.00    4.50
  -2   7   1   35.60    3.40
   1  -7  -1   89.09    9.20
  -1   7   1   93.99    6.30
  -1   7   1   81.39    8.60
  -1   7   1   93.09    5.90
   0  -7  -1   43.40    6.70
   0   7   1   44.90    3.40
  -1  -7  -1    1.10    2.60
  -1  -7  -1    1.80    1.10
   1   7   1    3.10    1.40
   1   7   1    1.40    2.30
  -2  -7  -1   61.29    4.70
  -2  -7  -1   62.09    7.20
   2   7   1   52.09    4.80
   2   7   1   62.49    6.10
  -3  -7  -1   76.09    7.40
  -3  -7  -1   76.49    6.10
   3   7   1   71.09    7.00
   3   7   1   88.29    6.60
  -4  -7  -1    5.10    2.90
   4   7   1    4.50    3.10
   4   7   1    7.50    2.70
  -5  -7  -1   18.50    3.90
  -5  -7  -1   30.30    5.20
   5   7   1   24.80    4.50
   5   7   1   25.20    4.60
  -6  -7  -1   28.20    5.80
   6   7   1   27.20    5.30
   6   7   1   23.80    4.70
  -7  -7  -1   -2.90    4.20
   7   7   1   -2.80    2.20
  -8  -7  -1    1.10    5.10
   8   7   1    5.30    4.20
  -9  -7  -1   -7.50    5.70
   9   7   1   -1.30    3.80
 -10  -7  -1   18.40    8.40
  10   7   1    8.50    4.60
   6  -8  -1   17.30    8.30
   6  -8  -1    1.50    3.20
  -6   8   1    6.30    3.40
   5  -8  -1   -1.10    2.30
   5  -8  -1    3.60    5.40
  -5   8   1   -0.10    1.90
   4  -8  -1   17.80    6.00
  -4   8   1   16.90    3.00
   3  -8  -1   -3.90    3.30
  -3   8   1    0.20    1.30
  -3   8   1    1.90    1.50
   2  -8  -1    3.20    4.00
  -2   8   1    1.00    1.40
  -2   8   1    5.20    1.60
   1  -8  -1   49.90    8.40
  -1   8   1   36.00    3.00
  -1   8   1   39.50    3.30
   0  -8  -1   12.80    4.40
   0   8   1   10.90    1.80
   0   8   1   12.20    4.10
  -1  -8  -1   14.80    2.20
  -1  -8  -1   22.90    5.10
   1   8   1   15.60    2.50
   1   8   1   18.30    4.20
  -2  -8  -1    4.30    3.00
  -2  -8  -1    2.40    1.40
   2   8   1    0.60    1.40
   2   8   1    5.30    3.20
  -3  -8  -1    1.90    1.70
  -3  -8  -1    2.30    2.80
   3   8   1   -0.40    1.50
   3   8   1    2.20    2.50
  -4  -8  -1  156.18   11.50
  -4  -8  -1  135.19   10.10
   4   8   1  149.39   12.40
   4   8   1  141.19   10.50
  -5  -8  -1   42.80    6.20
   5   8   1   47.30    6.00
   5   8   1   46.60    6.30
  -6  -8  -1   45.40    6.80
   6   8   1   41.00    6.10
   6   8   1   35.20    5.90
  -7  -8  -1    1.50    4.20
   7   8   1    4.90    3.60
  -8  -8  -1   -2.20    4.50
   8   8   1   -2.30    2.50
  -9  -8  -1   24.70    7.10
   9   8   1    8.30    4.50
 -10  -8  -1    8.80    6.90
  10   8   1   -1.30    3.30
   5  -9  -1   11.20    8.30
  -5   9   1    1.60    2.40
  -5   9   1    9.90    2.50
   4  -9  -1    3.90    5.10
  -4   9   1   -0.50    1.50
  -4   9   1    0.90    1.50
   3  -9  -1    4.00    4.90
  -3   9   1   -0.10    1.20
   2  -9  -1    9.90    5.20
   1  -9  -1   20.40    6.00
  -1   9   1   22.10    2.40
  -1   9   1   23.10    2.20
   0  -9  -1    3.00    3.90
   0   9   1    8.80    2.50
   0   9   1    6.70    1.60
  -1  -9  -1   53.99    8.20
   1   9   1   42.00    4.30
  -2  -9  -1  110.49    8.00
  -2  -9  -1  145.29   11.30
   2   9   1  114.09    8.40
   2   9   1  136.79   10.50
  -3  -9  -1   26.00    3.70
  -3  -9  -1   37.90    6.20
   3   9   1   36.10    5.80
   3   9   1   28.40    4.20
  -4  -9  -1   26.60    5.70
  -4  -9  -1   24.70    4.00
   4   9   1   21.40    4.90
   4   9   1   26.40    4.50
  -5  -9  -1   38.40    6.30
   5   9   1   22.10    4.40
   5   9   1   22.20    5.20
  -6  -9  -1   69.99    8.90
   6   9   1   79.99    9.20
  -7  -9  -1   33.30    7.30
   7   9   1   18.10    5.10
  -8  -9  -1   10.90    5.70
   8   9   1   -0.70    3.10
  -9  -9  -1    4.40    6.50
   9   9   1    6.90    4.10
   4 -10  -1   12.80    6.90
   3 -10  -1   53.99   11.00
   2 -10  -1    3.40    4.80
   1 -10  -1   28.80    7.80
   0 -10  -1    8.10    5.40
   0  10   1    3.50    1.30
   0  10   1    5.80    1.30
  -1 -10  -1   10.00    4.80
   1  10   1    3.10    1.70
   1  10   1    2.10    1.50
  -2 -10  -1    9.40    4.90
  -2 -10  -1    3.50    1.70
   2  10   1    6.20    2.10
  -3 -10  -1   16.20    3.00
  -3 -10  -1   14.50    4.90
   3  10   1   21.60    3.70
  -4 -10  -1    3.40    2.30
  -4 -10  -1    7.60    4.30
   4  10   1    8.00    2.80
  -5 -10  -1    2.10    3.80
   5  10   1    1.80    2.50
   6  10   1   31.50    5.60
  -7 -10  -1   12.10    5.40
   7  10   1   10.80    4.20
  -8 -10  -1    5.60    5.60
   8  10   1    1.00    3.10
  -9 -10  -1    8.30    6.10
   9  10   1   -4.10    3.10
   3 -11  -1    8.70    6.60
   2 -11  -1    0.00    4.70
   1 -11  -1   37.20    9.00
   0 -11  -1   19.00    7.20
  -1 -11  -1  107.79   13.40
   1  11   1   71.09    5.70
   1  11   1   78.39    6.80
  -2 -11  -1   15.00    2.50
  -2 -11  -1   16.60    6.10
   2  11   1   16.20    3.00
  -3 -11  -1   13.80    5.50
  -3 -11  -1    2.00    1.70
   3  11   1    4.70    2.20
  -4 -11  -1    3.20    4.50
  -4 -11  -1    1.00    1.90
   4  11   1    4.90    2.30
  -5 -11  -1   16.60    5.90
  -6 -11  -1   22.20    6.70
   6  11   1   12.20    4.00
  -7 -11  -1   11.70    5.60
   7  11   1    2.00    2.90
  -8 -11  -1   21.80    6.80
   8  11   1   16.20    5.00
   2 -12  -1    0.60    5.70
   1 -12  -1   19.30    7.30
   0 -12  -1   20.10    8.10
  -1 -12  -1    0.10    5.10
  -2 -12  -1   87.09   12.40
   2  12   1   64.39    5.60
  -3 -12  -1   43.20    8.80
  -3 -12  -1   17.90    3.20
   3  12   1   15.10    3.20
  -4 -12  -1    1.10    2.00
  -4 -12  -1    2.00    4.70
   4  12   1   -0.60    2.00
  -5 -12  -1    5.40    5.90
   5  12   1    6.10    3.10
  -6 -12  -1    5.00    5.30
   6  12   1    1.00    2.60
  -7 -12  -1   19.10    6.80
   7  12   1    1.80    3.00
  -8 -12  -1    9.50    6.10
   8  12   1    1.60    3.50
   0 -13  -1   10.20    6.90
  -1 -13  -1   36.50   10.30
  -2 -13  -1    4.60    6.60
   2  13   1    1.30    2.00
   2  13   1    1.10    1.50
  -3 -13  -1    7.50    2.30
  -3 -13  -1   13.70    7.70
   3  13   1    7.30    2.60
  -4 -13  -1    8.40    2.60
  -4 -13  -1   14.70    7.00
   4  13   1   10.10    3.10
  -5 -13  -1    7.60    6.50
   5  13   1    5.40    2.90
  -6 -13  -1   15.20    7.50
   6  13   1    3.10    3.00
  -3 -14  -1    5.20    7.80
   3  14   1    4.40    2.40
  -4 -14  -1   -4.50    6.20
  -4 -14  -1   -2.10    2.00
   4  14   1    0.70    2.00
   5  13  -2    0.60    3.00
  -5 -13   2   -1.90    6.10
   4  13  -2    0.40    2.10
  -4 -13   2   12.60    7.60
  -4 -13   2    3.30    2.60
  -3 -13   2    6.10    7.00
  -2 -13   2    4.40    7.50
  -1 -13   2   11.40    7.90
   7  12  -2    4.20    3.90
  -7 -12   2    6.10    6.80
   6  12  -2   20.80    5.00
  -6 -12   2   38.50    9.10
   5  12  -2    5.50    3.60
  -5 -12   2   21.80    8.10
   4  12  -2    2.80    2.20
  -4 -12   2    0.00    5.70
  -4 -12   2   -0.60    1.90
   3  12  -2    1.10    1.80
  -3 -12   2    1.70    5.60
  -3 -12   2    2.20    1.60
  -2 -12   2   52.69   10.80
  -1 -12   2    5.50    6.30
   0 -12   2    4.80    7.10
   1 -12   2   15.90   11.40
   8  11  -2   11.20    5.00
  -8 -11   2    9.10    7.00
   7  11  -2   -2.00    2.50
  -7 -11   2   -3.60    5.30
   6  11  -2    3.90    3.10
  -6 -11   2   21.40    7.40
   5  11  -2   16.90    4.20
  -5 -11   2   15.40    6.40
   4  11  -2    3.50    2.30
  -4 -11   2   -5.80    4.90
  -4 -11   2    3.70    2.40
   3  11  -2    3.70    2.10
  -3 -11   2    3.00    1.80
  -3 -11   2    2.50    5.00
   2  11  -2    1.30    1.20
  -2 -11   2    0.70    5.20
  -1 -11   2    5.90    5.90
   0 -11   2   20.60    7.70
   1 -11   2    2.30    5.90
   2 -11   2   10.70    7.20
   8  10  -2    5.60    3.90
  -8 -10   2    4.40    5.50
   7  10  -2   29.50    6.20
  -7 -10   2   65.59   10.50
   6  10  -2    8.60    3.60
  -6 -10   2    7.60    5.50
   5  10  -2   -2.80    1.60
  -5 -10   2    2.10    4.90
   4  10  -2    0.20    1.90
  -4 -10   2    3.80    2.50
  -4 -10   2    4.10    4.50
   3  10  -2    5.20    2.20
  -3 -10   2    1.50    4.30
  -3 -10   2    7.50    2.10
   2  10  -2    4.20    1.80
  -2 -10   2    4.40    1.30
  -2 -10   2    2.50    4.40
  -1 -10   2    9.90    5.80
   0 -10   2   21.10    7.10
   1 -10   2   52.39   10.70
   2 -10   2    2.20    4.80
   3 -10   2    9.50    6.40
   4 -10   2   -5.90    4.90
   9   9  -2    6.40    4.10
  -9  -9   2   14.50    7.20
   8   9  -2    1.50    3.30
  -8  -9   2    2.50    5.90
   7   9  -2    0.50    2.80
  -7  -9   2    1.50    5.20
   6   9  -2   11.60    3.90
  -6  -9   2   15.10    5.90
   5   9  -2   37.60    5.70
  -5  -9   2   45.30    8.00
   4   9  -2    0.20    1.90
  -4  -9   2    2.30    4.00
  -4  -9   2    3.80    2.20
   3   9  -2   61.59    5.50
  -3  -9   2   62.99    8.70
  -3  -9   2   56.89    5.10
   2   9  -2   35.70    4.00
  -2  -9   2   33.80    7.00
  -2  -9   2   38.10    3.30
  -1  -9   2   18.30    6.10
   0  -9   2    6.90    5.30
   1  -9   2    9.20    5.50
   2  -9   2   16.70    6.30
   3  -9   2   29.70    8.10
   4  -9   2   -0.80    5.00
   5  -9   2    1.30    5.70
   9   8  -2    1.30    3.90
  -9  -8   2   -5.00    5.60
   8   8  -2    9.50    4.20
  -8  -8   2   14.70    6.60
   7   8  -2   69.39    9.30
  -7  -8   2   80.19   10.80
   6   8  -2    8.00    3.30
  -6  -8   2   21.60    6.10
   5   8  -2   44.30    6.40
   4   8  -2   18.00    3.60
  -4  -8   2   22.40    5.70
  -4  -8   2   11.10    3.30
   3   8  -2   10.50    2.70
  -3  -8   2    3.80    1.90
  -3  -8   2    5.00    3.90
   2   8  -2   12.30    2.40
  -2  -8   2   10.00    4.50
  -2  -8   2   11.50    2.00
   1   8  -2   61.09    3.90
  -1  -8   2   44.50    7.60
  -1  -8   2   56.29    3.60
   0  -8   2   83.19   10.70
   1  -8   2    4.10    4.10
   2  -8   2    2.90    4.50
   3  -8   2   23.80    6.80
   4  -8   2   10.50    5.60
   5  -8   2    3.00    5.40
  10   7  -2   16.00    5.60
 -10  -7   2   31.20    9.00
   9   7  -2    5.90    4.20
  -9  -7   2    9.30    6.70
   8   7  -2    2.60    3.40
  -8  -7   2    1.10    5.70
   7   7  -2   20.50    4.80
  -7  -7   2   23.40    6.40
   6   7  -2    3.00    3.00
  -6  -7   2    0.00    4.00
   5   7  -2   47.10    6.10
  -5  -7   2   56.79    7.70
  -5  -7   2   53.29    6.30
   4   7  -2   19.60    3.50
   4   7  -2   17.20    4.60
  -4  -7   2   14.70    3.70
  -4  -7   2   14.60    4.80
   3   7  -2   32.60    5.40
   3   7  -2   45.00    5.00
  -3  -7   2   39.40    6.40
  -3  -7   2   28.30    3.80
   2   7  -2   50.79    6.70
   2   7  -2   44.90    4.20
  -2  -7   2   45.00    3.90
  -2  -7   2   46.60    6.60
   1   7  -2   15.90    2.00
   1   7  -2   15.20    3.90
  -1  -7   2   13.00    4.30
  -1  -7   2   15.80    1.70
   0  -7   2   46.30    7.50
   1  -7   2   60.39    8.40
   2  -7   2    4.30    4.50
   3  -7   2   25.20    6.60
   4  -7   2    1.20    4.20
  -5   7  -2   14.50    2.60
   5  -7   2   13.80    6.80
   5  -7   2   16.80    3.20
  -6   7  -2   18.20    3.50
   6  -7   2   27.40    9.10
   6  -7   2   26.80    4.60
  10   6  -2    6.80    4.70
 -10  -6   2   -1.10    7.20
   9   6  -2   26.20    6.50
  -9  -6   2   14.20    7.00
   8   6  -2   40.80    7.60
  -8  -6   2   36.90    8.20
   7   6  -2   10.50    4.40
  -7  -6   2    9.70    5.50
   6   6  -2    7.20    3.00
  -6  -6   2   -5.00    4.10
   5   6  -2   28.50    4.80
   5   6  -2   21.10    4.80
  -5  -6   2   25.90    4.30
  -5  -6   2   24.50    5.20
   4   6  -2   30.80    5.30
   4   6  -2   39.20    5.10
  -4  -6   2   36.30    5.80
  -4  -6   2   42.50    4.90
   3   6  -2   43.30    4.90
  -3  -6   2   37.80    5.70
  -3  -6   2   48.20    5.00
   2   6  -2   86.69    6.40
   2   6  -2   85.49    8.00
  -2  -6   2   99.49    8.60
  -2  -6   2   85.09    6.20
   1   6  -2   63.19    4.50
  -1  -6   2   63.99    4.30
  -1  -6   2   75.19    8.20
   0   6  -2   76.69    7.90
   0  -6   2   88.39    8.40
  -1   6  -2    1.90    2.50
   1  -6   2    3.20    2.80
   2  -6   2    4.50    3.40
  -3   6  -2   83.39    5.50
   3  -6   2  106.99   12.50
   3  -6   2   91.49    5.80
  -4   6  -2   22.60    2.90
   4  -6   2   20.20    6.30
   4  -6   2   25.90    3.50
  -5   6  -2    4.10    2.00
   5  -6   2    9.90    5.10
   5  -6   2    1.90    2.30
  -6   6  -2    3.30    3.80
   6  -6   2    4.40    2.80
   6  -6   2   11.80    6.40
   7  -6   2    5.40    3.50
   7  -6   2    9.80    7.60
  10   5  -2    3.40    4.00
 -10  -5   2   12.90    8.10
   9   5  -2    2.70    4.20
  -9  -5   2    0.00    5.90
   8   5  -2    2.40    3.10
  -8  -5   2    1.80    5.40
   7   5  -2   30.60    5.60
  -7  -5   2   21.90    6.30
  -6  -5   2   17.20    5.10
   5   5  -2   20.10    4.20
   5   5  -2   32.30    5.20
  -5  -5   2   23.30    4.30
  -5  -5   2   25.70    5.20
   4   5  -2   93.59    7.40
   4   5  -2  101.49   12.50
  -4  -5   2   80.79    7.00
  -4  -5   2   90.09    8.40
   3   5  -2  279.17   18.00
   3   5  -2  279.17   17.20
  -3  -5   2  276.67   17.10
  -3  -5   2  280.27   18.20
   2   5  -2    1.70    1.60
   2   5  -2    0.20    2.90
  -2  -5   2    2.00    3.00
  -2  -5   2    2.30    1.60
   1   5  -2    4.60    2.80
   1   5  -2    6.50    1.50
  -1  -5   2    8.20    3.00
  -1  -5   2    5.70    1.30
   0   5  -2   98.19    9.00
   0  -5   2  125.29    9.60
  -1   5  -2   82.99   10.70
   1  -5   2   69.69    8.60
  -2   5  -2   10.90    3.90
   2  -5   2    6.80    3.50
  -3   5  -2   22.40    3.60
   3  -5   2   17.40    5.10
   3  -5   2   20.20    2.60
  -4   5  -2   49.30    4.50
   4  -5   2   56.89    4.90
   4  -5   2   48.90    8.00
  -5   5  -2   92.69    7.20
   5  -5   2   86.99    7.60
   5  -5   2   93.79   12.30
  -6   5  -2   -1.60    2.20
   6  -5   2    2.70    2.90
   6  -5   2    1.70    4.40
   7  -5   2   13.50    4.30
   7  -5   2   25.50    8.70
  10   4  -2   37.70    8.30
 -10  -4   2   43.70   10.00
   9   4  -2    5.30    4.40
  -9  -4   2   14.80    7.30
   8   4  -2    5.50    3.60
  -8  -4   2    7.80    5.60
   7   4  -2    7.90    3.60
  -7  -4   2   12.30    5.10
   6   4  -2   14.40    4.00
  -6  -4   2   17.90    5.00
   5   4  -2  165.58   11.90
   5   4  -2  153.48   11.90
  -5  -4   2  163.98   11.70
  -5  -4   2  170.48   12.50
   4   4  -2    3.30    2.10
   4   4  -2    1.30    2.50
  -4  -4   2    3.50    3.10
  -4  -4   2    3.50    1.90
   3   4  -2  339.97   20.80
   3   4  -2  334.57   21.20
  -3  -4   2  361.66   20.80
  -3  -4   2  351.06   21.50
   2   4  -2  312.67   19.80
   2   4  -2  340.07   19.10
  -2  -4   2  318.17   20.00
  -2  -4   2  320.57   19.00
   1   4  -2   11.10    2.90
   1   4  -2   16.80    2.00
  -1  -4   2    8.20    1.60
  -1  -4   2    7.80    2.90
   0   4  -2   68.39    6.50
   0  -4   2   71.49    6.70
  -1   4  -2   16.30    3.90
   1  -4   2    7.60    3.40
  -2   4  -2  210.58   12.20
  -2   4  -2  218.08   17.00
   2  -4   2  209.58   15.30
   2  -4   2  216.08   12.40
  -3   4  -2    0.90    1.20
  -3   4  -2    1.10    2.80
   3  -4   2    3.30    2.00
   3  -4   2   -2.20    2.10
  -4   4  -2   23.70    3.40
   4  -4   2   29.40    6.50
   4  -4   2   24.70    3.70
  -5   4  -2   27.90    4.20
   5  -4   2   33.90    7.20
   5  -4   2   30.70    4.70
  -6   4  -2   71.99    7.50
   6  -4   2   71.39    7.80
   6  -4   2   68.29   11.20
   7  -4   2    1.80    5.20
   7  -4   2   -4.40    2.60
   8  -4   2    2.90    3.80
  10   3  -2   -2.00    5.00
 -10  -3   2   -1.00    7.20
   9   3  -2    7.80    4.90
  -9  -3   2   15.40    7.10
   8   3  -2   29.80    6.10
  -8  -3   2   23.20    6.40
   7   3  -2    2.80    2.90
  -7  -3   2    5.70    4.70
   6   3  -2    3.60    2.70
  -6  -3   2   -3.20    3.30
   5   3  -2   47.60    6.00
   5   3  -2   40.70    5.60
  -5  -3   2   30.80    4.90
  -5  -3   2   47.30    6.30
   4   3  -2  239.38   15.80
   4   3  -2  241.68   15.70
  -4  -3   2  256.97   16.20
  -4  -3   2  233.98   15.50
   3   3  -2   43.90    4.70
   3   3  -2   36.20    4.60
  -3  -3   2   31.60    4.60
  -3  -3   2   36.70    4.20
   2   3  -2   16.50    3.60
   2   3  -2   13.90    2.60
  -2  -3   2   14.70    2.50
  -2  -3   2   10.90    3.20
   1   3  -2    2.80    2.30
   1   3  -2    4.10    1.40
  -1  -3   2    5.90    1.50
  -1  -3   2    4.50    2.50
   0   3  -2   15.70    3.20
   0   3  -2   14.00    1.40
   0  -3   2   15.70    1.40
   0  -3   2    8.60    2.80
  -1   3  -2    4.50    0.70
  -1   3  -2    7.70    2.70
   1  -3   2    5.70    0.80
   1  -3   2    7.40    2.80
  -2   3  -2   71.79    7.40
  -2   3  -2   60.29    4.20
   2  -3   2   61.89    4.40
   2  -3   2   77.09    8.30
  -3   3  -2  694.03   47.70
  -3   3  -2  785.92   43.30
   3  -3   2  797.42   43.50
   3  -3   2  783.92   46.00
  -4   3  -2  272.27   16.40
  -4   3  -2  260.77   18.90
   4  -3   2  272.27   16.70
   4  -3   2  265.07   19.00
  -5   3  -2    9.00    2.70
   5  -3   2    3.80    3.80
   5  -3   2    3.40    2.50
  -6   3  -2   29.40    4.60
   6  -3   2   19.80    6.60
   6  -3   2   28.10    5.00
   7  -3   2    5.40    5.70
   7  -3   2    4.80    4.60
   8  -3   2   17.10    5.00
   8  -3   2   12.70    6.70
  10   2  -2    7.90    6.20
 -10  -2   2    4.10   10.60
   9   2  -2    7.30    4.80
  -9  -2   2   12.30    6.70
   8   2  -2    1.20    3.40
  -8  -2   2    7.70    5.30
   7   2  -2   16.40    4.50
  -7  -2   2    9.70    4.80
   6   2  -2   62.89    7.20
  -6  -2   2   48.70    7.00
   5   2  -2    5.10    2.60
   5   2  -2    0.10    2.20
  -5  -2   2    1.00    1.80
  -5  -2   2    4.90    3.30
   4   2  -2   79.19    7.10
   4   2  -2   85.59    7.20
  -4  -2   2   80.29    6.80
  -4  -2   2   81.89    7.60
   3   2  -2   60.89    5.50
   3   2  -2   63.29    5.60
  -3  -2   2   63.09    6.00
  -3  -2   2   59.29    5.30
   2   2  -2   10.40    2.80
   2   2  -2    7.10    2.20
  -2  -2   2    6.10    1.90
  -2  -2   2   10.90    2.80
   1   2  -2  261.57   14.60
   1   2  -2  249.97   15.20
  -1  -2   2  241.58   14.50
  -1  -2   2  245.18   15.20
   0   2  -2   34.70    2.80
   0   2  -2   48.30    4.60
   0  -2   2   39.40    4.20
   0  -2   2   38.10    2.70
  -1   2  -2    9.40    1.10
  -1   2  -2    8.50    2.70
   1  -2   2    7.40    1.20
   1  -2   2   11.20    2.80
  -2   2  -2    6.00    2.70
  -2   2  -2    3.70    1.20
   2  -2   2    9.40    3.00
   2  -2   2    5.80    1.50
  -3   2  -2    7.00    1.80
  -3   2  -2    7.80    3.20
   3  -2   2   11.70    2.40
   3  -2   2    9.80    3.10
  -4   2  -2 1969.40  107.89
  -4   2  -2 1935.81  109.99
   4  -2   2 1916.61  109.99
   4  -2   2 1952.00  108.09
  -5   2  -2  133.39    9.90
   5  -2   2  141.89   12.30
   5  -2   2  143.19   10.20
  -6   2  -2   14.20    3.60
   6  -2   2    8.90    4.80
   6  -2   2    6.20    3.20
   7  -2   2    8.10    5.20
   7  -2   2   17.30    4.60
   8  -2   2   24.40    5.70
   8  -2   2   18.50    7.60
  -9   2  -2   13.60    9.50
   9  -2   2    5.30    4.50
  10   1  -2    9.80    6.90
 -10  -1   2    4.50    6.70
   9   1  -2   29.90    6.60
  -9  -1   2   32.00    8.30
   8   1  -2   28.90    6.30
  -8  -1   2   20.90    6.30
   7   1  -2    3.50    3.30
  -7  -1   2    9.90    4.60
   6   1  -2   74.79    8.70
  -6  -1   2  100.99    8.90
   5   1  -2  214.28   15.10
  -5  -1   2  219.48   15.00
  -5  -1   2  222.68   14.70
  -5  -1   2  219.28   15.90
   4   1  -2   69.69    6.40
  -4  -1   2   77.59    6.80
  -4  -1   2   58.79    5.90
   3   1  -2   83.09    6.70
   3   1  -2   88.59    6.70
  -3  -1   2   80.59    6.80
  -3  -1   2   85.39    6.50
   2   1  -2   71.79    5.90
   2   1  -2   79.89    5.90
  -2  -1   2   77.79    6.20
  -2  -1   2   78.79    5.70
   1   1  -2   20.20    2.50
   1   1  -2   19.10    2.90
  -1  -1   2   12.80    2.40
  -1  -1   2   17.90    2.30
   0   1  -2  123.79    7.60
   0   1  -2  126.59    8.20
   0  -1   2  130.39    7.60
   0  -1   2  131.39    8.30
  -1   1  -2   77.49    6.10
  -1   1  -2   78.99    4.90
   1  -1   2   76.89    6.20
   1  -1   2   81.29    5.00
  -2   1  -2 1027.00   58.49
  -2   1  -2 1047.50   57.79
   2  -1   2 1031.90   58.59
   2  -1   2 1036.50   57.49
  -3   1  -2  291.47   18.50
  -3   1  -2  284.77   17.10
   3  -1   2  291.37   17.20
   3  -1   2  284.37   18.50
  -4   1  -2    2.00    1.80
  -4   1  -2    3.80    2.60
   4  -1   2    5.80    2.30
   4  -1   2    8.40    3.10
  -5   1  -2   58.89    6.40
  -5   1  -2   58.99    8.10
   5  -1   2   57.59    6.40
   5  -1   2   61.49    8.60
  -6   1  -2   43.80    5.70
   6  -1   2   25.80    6.10
   6  -1   2   44.10    6.00
   7  -1   2   16.50    4.40
   7  -1   2   29.90    7.50
   8  -1   2    0.80    3.10
  -9   1  -2    5.40    6.10
   9  -1   2    2.20    4.00
   9   0  -2   -4.70    2.90
  -9   0   2    5.30    5.70
   8   0  -2   12.10    4.60
  -8   0   2   17.60    5.90
   7   0  -2   31.40    5.80
  -7   0   2   42.90    7.30
   6   0  -2    0.90    2.50
   5   0  -2   17.70    4.10
  -5   0   2   12.60    4.30
  -5   0   2   13.60    3.70
  -5   0   2   23.50    4.20
   4   0  -2   24.00    4.00
  -4   0   2   28.80    4.50
  -4   0   2   26.10    5.00
  -4   0   2   22.80    3.70
   3   0  -2    0.40    1.70
  -3   0   2    2.90    2.50
  -3   0   2   -0.30    1.50
  -3   0   2    1.80    2.00
   2   0  -2  532.35   30.70
   2   0  -2  547.35   30.90
  -2   0   2  545.05   30.80
  -2   0   2  529.95   30.70
   1   0  -2  162.08    9.70
   1   0  -2  154.48    9.70
  -1   0   2  156.98    9.70
  -1   0   2  167.78    9.80
   0   0  -2   47.80    3.40
   0   0   2   46.30    3.40
   0   0   2   48.00    3.40
   0   0   2   46.20    3.10
  -1   0  -2   31.10    2.90
  -1   0  -2   25.50    2.30
   1   0   2   26.20    2.30
   1   0   2   26.90    2.90
  -2   0  -2 1252.77   68.89
  -2   0  -2 1244.48   69.49
   2   0   2 1260.47   70.09
   2   0   2 1220.58   68.89
  -3   0  -2   37.20    3.90
  -3   0  -2   33.80    4.80
   3   0   2   39.70    4.10
   3   0   2   33.90    4.70
  -4   0  -2   73.19    6.20
  -4   0  -2   77.29    7.30
   4   0   2   79.49    6.50
   4   0   2   75.09    7.40
  -5   0  -2   63.89    7.70
  -5   0  -2   48.10    7.00
   5   0   2   63.89    6.80
   5   0   2   47.20    6.90
  -6   0  -2    6.10    2.70
   6   0   2   12.30    3.40
   6   0   2   13.80    4.40
   7   0   2   39.60    6.30
  -8   0  -2   34.40    7.70
   8   0   2   36.00    6.50
  -9   0  -2    1.70    5.60
   9   0   2   -2.10    3.20
   9  -1  -2   20.40    6.00
  -9   1   2   17.40    6.70
   8  -1  -2    8.60    4.30
  -8   1   2    1.60    4.60
   7  -1  -2   32.70    6.40
  -7   1   2   41.00    7.10
   6  -1  -2   75.39    8.60
  -6   1   2   62.39    8.10
   5  -1  -2   27.00    4.70
  -5   1   2   37.60    5.00
  -5   1   2   31.90    5.30
  -5   1   2   32.30    6.10
   4  -1  -2    4.20    2.30
  -4   1   2    3.10    2.10
  -4   1   2    1.30    2.80
  -4   1   2    2.70    2.60
   3  -1  -2   28.60    4.20
  -3   1   2   33.50    4.20
  -3   1   2   35.40    5.20
  -3   1   2   31.00    4.30
   2  -1  -2  105.49    7.40
  -2   1   2  101.69    7.40
  -2   1   2   95.69    7.70
  -2   1   2  109.39    7.20
   1  -1  -2   46.40    3.80
  -1   1   2   36.30    3.80
  -1   1   2   47.70    3.70
  -1   1   2   45.10    4.10
   0  -1  -2  226.38   13.00
   0   1   2  225.58   13.00
   0   1   2  240.48   13.30
   0   1   2  237.78   13.50
  -1  -1  -2 1145.09   62.59
  -1  -1  -2 1110.79   62.89
   1   1   2 1168.38   62.59
   1   1   2 1134.19   62.89
  -2  -1  -2  640.74   36.20
  -2  -1  -2  639.74   36.20
   2   1   2  647.54   36.20
  -3  -1  -2  544.85   31.20
  -3  -1  -2  546.95   31.70
   3   1   2  548.35   31.30
   3   1   2  538.05   31.60
  -4  -1  -2   10.30    3.10
  -4  -1  -2   15.60    2.80
   4   1   2   17.70    3.20
   4   1   2   13.80    3.60
  -5  -1  -2    3.10    2.90
  -5  -1  -2    7.00    3.90
   5   1   2    6.90    3.10
   5   1   2    4.60    2.50
  -6  -1  -2   68.39   10.80
  -6  -1  -2   70.69    7.90
  -6  -1  -2   67.79    8.70
   6   1   2   67.09    7.80
  -7  -1  -2    8.20    4.50
   7   1   2    1.30    2.70
  -8  -1  -2    4.80    4.50
   8   1   2    4.00    3.20
  -9  -1  -2    4.90    5.00
   9   1   2    3.70    3.80
 -10  -1  -2    2.00    6.90
  10   1   2    7.50    4.80
   9  -2  -2    4.80    4.60
  -9   2   2   12.80    8.20
   8  -2  -2   44.50    8.00
  -8   2   2   40.50    8.10
   7  -2  -2   36.80    7.10
  -7   2   2   32.60    6.70
   6  -2  -2   56.79    7.70
  -6   2   2   54.39    7.80
   5  -2  -2   65.59    7.20
   5  -2  -2   50.69    8.10
  -5   2   2   56.59    6.50
   4  -2  -2   19.00    4.50
   4  -2  -2   23.70    4.10
  -4   2   2   23.20    3.80
  -4   2   2   18.80    4.60
   3  -2  -2   -1.00    2.30
   3  -2  -2    3.20    2.00
  -3   2   2   -0.20    1.60
  -3   2   2    2.00    2.50
   2  -2  -2    0.90    1.60
   2  -2  -2    0.60    2.30
  -2   2   2    3.70    1.80
  -2   2   2    3.50    2.30
   1  -2  -2  103.69    6.80
   1  -2  -2  100.29    7.30
  -1   2   2   97.09    7.20
   0  -2  -2 1228.58   68.49
   0  -2  -2 1228.98   68.49
   0   2   2 1222.78   68.49
   0   2   2 1287.17   68.59
  -1  -2  -2  228.28   12.60
  -1  -2  -2  225.08   13.20
   1   2   2  223.68   12.60
   1   2   2  228.98   13.20
  -2  -2  -2   24.30    2.80
  -2  -2  -2   29.00    2.60
  -2  -2  -2   20.70    2.70
   2   2   2   27.10    3.30
  -3  -2  -2  444.16   25.50
  -3  -2  -2  423.56   25.40
   3   2   2  442.36   25.60
  -4  -2  -2   68.89    5.90
  -4  -2  -2   75.09    6.20
  -4  -2  -2   83.79    6.70
   4   2   2   64.29    6.10
  -5  -2  -2   18.00    3.60
  -5  -2  -2   23.50    4.10
  -5  -2  -2   13.70    3.60
   5   2   2   13.30    3.20
  -6  -2  -2    2.20    3.10
  -6  -2  -2    7.20    3.50
   6   2   2    9.10    3.20
  -7  -2  -2   38.80    6.30
   7   2   2   33.30    6.00
  -8  -2  -2    4.30    4.50
   8   2   2    0.90    3.50
  -9  -2  -2   -5.90    4.70
   9   2   2   -1.70    2.80
 -10  -2  -2    7.00    7.20
  10   2   2   13.20    6.20
  -9   3   2    3.80    6.10
   8  -3  -2    1.50    4.30
  -8   3   2    3.40    5.20
   7  -3  -2    1.10    3.10
  -7   3   2    2.30    4.70
   6  -3  -2   24.20    6.60
   6  -3  -2   20.30    4.60
   5  -3  -2   -2.60    3.50
   5  -3  -2    0.00    2.00
  -5   3   2    2.10    2.00
   4  -3  -2   16.10    3.60
   4  -3  -2   33.90    6.00
  -4   3   2   18.90    4.90
  -4   3   2   27.80    4.00
   3  -3  -2    2.50    2.50
   3  -3  -2    3.00    2.10
  -3   3   2    1.40    2.30
  -3   3   2   -1.10    1.40
   2  -3  -2   16.90    3.70
   2  -3  -2   17.80    3.00
  -2   3   2   14.80    3.30
  -2   3   2   16.50    2.70
   1  -3  -2    7.40    2.10
   1  -3  -2    8.90    2.60
  -1   3   2    6.00    1.80
  -1   3   2    8.10    2.30
   0  -3  -2  361.16   21.00
   0  -3  -2  377.26   21.50
   0   3   2  375.26   21.50
   0   3   2  368.46   21.00
  -1  -3  -2  127.89    7.90
  -1  -3  -2  129.89    8.00
   1   3   2  128.49    8.00
   1   3   2  128.39    7.80
  -2  -3  -2   26.10    3.10
  -2  -3  -2   36.80    3.20
   2   3   2   31.30    2.90
   2   3   2   31.10    3.40
  -3  -3  -2   16.50    2.70
  -3  -3  -2   24.90    3.00
   3   3   2   17.40    3.00
   3   3   2   27.20    2.90
  -4  -3  -2   99.99    7.50
  -4  -3  -2  100.39    7.70
  -4  -3  -2  105.49    8.00
   4   3   2  101.09    7.90
  -5  -3  -2  107.99    9.00
  -5  -3  -2  128.69    9.20
  -5  -3  -2  122.69    9.80
   5   3   2  137.49    9.80
  -6  -3  -2    1.60    2.70
  -6  -3  -2    3.10    3.00
   6   3   2    1.20    2.20
  -7  -3  -2  126.19   10.80
   7   3   2  124.59   10.90
  -8  -3  -2   40.70    7.10
   8   3   2   29.30    6.10
  -9  -3  -2   24.20    6.80
   9   3   2   16.00    5.40
 -10  -3  -2   -0.80    6.30
  10   3   2    2.50    4.40
   8  -4  -2    2.00    3.80
  -8   4   2    3.70    5.80
   7  -4  -2    3.30    3.20
   7  -4  -2    2.10    5.30
   6  -4  -2    9.40    4.00
   6  -4  -2   15.80    6.20
   5  -4  -2   10.30    5.50
   5  -4  -2   13.00    3.60
  -5   4   2   12.80    3.50
   4  -4  -2   25.80    4.30
   4  -4  -2   24.70    5.60
  -4   4   2   25.10    4.10
   3  -4  -2   34.90    4.40
   3  -4  -2   14.90    4.00
  -3   4   2   20.40    4.70
  -3   4   2   23.90    3.50
   2  -4  -2  267.27   17.40
   2  -4  -2  251.77   15.90
  -2   4   2  258.47   15.70
  -2   4   2  259.67   17.20
   1  -4  -2  114.79    9.10
  -1   4   2  130.39    8.00
  -1   4   2  112.39    8.80
   0  -4  -2    0.50    2.10
   0   4   2    1.70    1.10
   0   4   2    1.40    1.80
  -1  -4  -2   35.70    3.50
  -1  -4  -2   39.00    3.90
   1   4   2   36.30    3.80
   1   4   2   32.40    3.70
  -2  -4  -2  117.29    7.60
  -2  -4  -2  109.09    7.50
   2   4   2  110.49    7.50
   2   4   2  115.29    7.70
  -3  -4  -2   16.60    2.80
   3   4   2   13.90    2.90
   3   4   2   12.90    2.40
  -4  -4  -2    2.80    3.00
  -4  -4  -2   -1.00    1.60
   4   4   2   -1.70    2.00
   4   4   2   -0.10    2.00
  -5  -4  -2    8.20    2.90
  -5  -4  -2   10.20    3.20
  -5  -4  -2   12.60    3.30
   5   4   2    6.00    2.60
  -6  -4  -2   72.69    7.20
   6   4   2   57.19    7.50
  -7  -4  -2  160.28   12.00
   7   4   2  121.29   11.30
  -8  -4  -2    8.20    5.10
   8   4   2   15.00    4.80
  -9  -4  -2   48.00    8.60
   9   4   2   29.20    7.00
 -10  -4  -2   -7.70    6.00
  10   4   2   -6.00    3.10
   8  -5  -2   12.40    5.40
  -8   5   2   16.10    6.80
   7  -5  -2   10.70    6.90
   7  -5  -2    1.00    3.40
   6  -5  -2    0.00    3.00
   6  -5  -2   -2.10    4.00
   5  -5  -2    0.20    4.00
   5  -5  -2    3.00    2.70
  -5   5   2   -1.40    1.70
   4  -5  -2    5.10    4.20
   4  -5  -2    3.70    2.50
  -4   5   2    3.60    2.10
   3  -5  -2   14.40    4.30
   3  -5  -2    9.50    2.70
  -3   5   2    6.60    2.10
  -3   5   2   12.20    3.90
   2  -5  -2    3.50    2.90
   2  -5  -2    3.80    1.90
  -2   5   2    1.10    2.40
  -2   5   2   -0.50    1.30
   1  -5  -2   69.19    6.70
  -1   5   2   65.09    5.10
  -1   5   2   64.69    4.80
  -1   5   2   67.39    6.60
   0  -5  -2   96.29    7.90
   0   5   2  101.09    7.70
   0   5   2  101.99    6.90
  -1  -5  -2   10.90    2.60
  -1  -5  -2    8.30    1.70
   1   5   2   12.30    2.50
   1   5   2    7.90    1.70
  -2  -5  -2    3.70    1.50
  -2  -5  -2    3.70    2.20
   2   5   2    8.60    2.30
   2   5   2    5.60    1.90
  -3  -5  -2   -0.10    1.80
  -3  -5  -2   -1.30    1.30
   3   5   2    0.90    1.80
   3   5   2    4.30    2.20
  -4  -5  -2  256.77   16.30
  -4  -5  -2  269.47   16.60
   4   5   2  259.77   16.00
   4   5   2  266.17   16.80
  -5  -5  -2    4.80    2.20
  -5  -5  -2    6.70    3.30
   5   5   2    4.90    2.30
   5   5   2    5.20    2.80
  -6  -5  -2   39.90    5.60
  -6  -5  -2   42.60    7.50
   6   5   2   35.80    5.60
  -7  -5  -2   20.90    5.30
  -7  -5  -2   22.40    5.20
   7   5   2   15.10    4.40
  -8  -5  -2   10.00    5.30
   8   5   2    9.60    4.30
  -9  -5  -2   -0.70    5.60
   9   5   2    3.90    3.80
 -10  -5  -2   -0.80    6.20
  10   5   2    3.60    4.60
   7  -6  -2   10.00    8.20
   7  -6  -2    2.90    3.80
   6  -6  -2    8.90    6.00
   6  -6  -2   14.30    4.40
   5  -6  -2    4.60    3.20
   5  -6  -2    1.90    4.80
  -5   6   2    2.50    2.30
   4  -6  -2    5.10    2.90
   4  -6  -2   12.90    4.70
  -4   6   2    4.00    2.20
   3  -6  -2   -1.20    2.50
   3  -6  -2    6.00    2.50
  -3   6   2    0.40    1.60
   2  -6  -2   44.10    7.00
  -2   6   2   44.90    7.10
  -2   6   2   54.19    5.30
   1  -6  -2   60.49    7.70
  -1   6   2   57.79    7.00
  -1   6   2   51.19    4.50
  -1   6   2   55.89    4.20
   0  -6  -2    1.00    2.70
   0   6   2    1.90    1.10
   0   6   2    0.40    1.50
   0   6   2    2.60    2.10
  -1  -6  -2  104.99    6.80
  -1  -6  -2   95.29    8.10
   1   6   2  103.99    7.00
   1   6   2  103.29    8.00
  -2  -6  -2  321.77   18.50
  -2  -6  -2  318.67   19.10
   2   6   2  297.67   18.90
   2   6   2  303.87   18.50
  -3  -6  -2   15.20    3.20
  -3  -6  -2   11.60    2.50
   3   6   2   17.90    3.40
   3   6   2   20.90    3.30
  -4  -6  -2   83.29    6.60
  -4  -6  -2   68.09    6.50
   4   6   2   68.49    6.20
   4   6   2   79.39    6.60
  -5  -6  -2   60.29    6.40
  -5  -6  -2   47.50    5.90
   5   6   2   57.99    5.60
   5   6   2   50.69    6.30
  -6  -6  -2    1.00    3.30
   6   6   2    1.50    2.90
  -7  -6  -2    1.80    3.40
  -7  -6  -2    2.80    4.30
   7   6   2   -0.70    2.50
  -8  -6  -2   15.70    5.50
   8   6   2   23.20    5.30
  -9  -6  -2    0.20    5.40
   9   6   2    9.40    4.40
 -10  -6  -2    8.50    7.20
   6  -7  -2   -2.30    5.50
   6  -7  -2    1.70    3.20
   5  -7  -2   10.90    3.90
   5  -7  -2   16.70    6.60
  -5   7   2    9.70    3.00
   4  -7  -2    4.90    4.40
   4  -7  -2   13.20    3.70
  -4   7   2   14.00    3.10
   3  -7  -2   27.80    6.70
  -3   7   2   24.30    3.60
   2  -7  -2   19.90    5.10
  -2   7   2   25.80    3.30
  -2   7   2   28.60    3.80
   1  -7  -2    1.70    2.90
  -1   7   2    4.00    1.40
  -1   7   2    1.50    2.60
  -1   7   2    5.90    1.70
   0  -7  -2    3.40    3.10
   0   7   2    2.60    2.60
   0   7   2    7.50    2.00
   0   7   2    3.80    1.40
  -1  -7  -2  195.88   13.60
  -1  -7  -2  181.08   11.60
   1   7   2  181.98   13.00
   1   7   2  204.48   11.90
  -2  -7  -2   23.40    3.10
  -2  -7  -2   26.90    4.60
   2   7   2   22.40    3.30
   2   7   2   32.80    4.70
  -3  -7  -2   18.20    3.20
  -3  -7  -2   18.40    3.60
   3   7   2   15.90    3.80
   3   7   2   16.50    3.30
  -4  -7  -2    4.90    2.10
  -4  -7  -2    4.60    2.80
   4   7   2    7.30    2.90
   4   7   2    3.50    2.10
  -5  -7  -2    4.80    2.30
  -5  -7  -2    2.50    3.30
   5   7   2    5.10    2.90
   5   7   2    4.70    2.60
  -6  -7  -2   91.79    9.20
   6   7   2  101.59    9.10
   6   7   2   93.19    8.40
  -7  -7  -2   71.99    8.30
   7   7   2   59.19    6.80
   7   7   2   34.60    6.00
  -8  -7  -2    5.10    5.40
   8   7   2    7.00    3.80
  -9  -7  -2    9.80    6.50
   9   7   2    6.70    4.60
 -10  -7  -2   -1.40    7.20
  10   7   2    7.10    4.60
   6  -8  -2    8.70    4.30
   6  -8  -2   10.20    7.70
   5  -8  -2   -0.40    6.00
   5  -8  -2    0.30    2.70
  -5   8   2    1.30    2.10
   4  -8  -2   64.19   11.00
  -4   8   2   58.89    6.20
   3  -8  -2   29.30    6.80
  -3   8   2   25.50    3.60
  -3   8   2   24.90    3.70
   2  -8  -2    1.50    3.70
  -2   8   2    8.50    2.20
  -2   8   2   10.00    2.00
   1  -8  -2   11.70    4.50
  -1   8   2   13.30    2.20
  -1   8   2   14.70    2.60
   0  -8  -2    7.50    4.00
   0   8   2    5.10    3.00
   0   8   2    2.50    1.70
   0   8   2    3.30    1.40
  -1  -8  -2   81.49    5.80
  -1  -8  -2   91.39    9.70
   1   8   2   79.29    5.90
   1   8   2   72.89    7.40
  -2  -8  -2   20.30    3.10
  -2  -8  -2   22.90    4.80
   2   8   2   26.50    3.60
   2   8   2   20.00    4.10
  -3  -8  -2    7.60    2.30
  -3  -8  -2   10.60    3.50
   3   8   2   12.10    2.90
   3   8   2    8.10    3.10
  -4  -8  -2  152.88   10.90
  -4  -8  -2  161.08   11.80
   4   8   2  151.98   11.50
   4   8   2  166.18   11.40
  -5  -8  -2  145.09   11.10
   5   8   2  134.79   10.80
   5   8   2  142.39   10.80
  -6  -8  -2   -4.30    3.00
   6   8   2   -1.80    2.70
   6   8   2   -1.20    2.20
  -7  -8  -2    7.00    4.40
   7   8   2    0.60    2.80
  -8  -8  -2    9.30    5.50
   8   8   2    5.00    3.90
  -9  -8  -2   24.10    7.10
   9   8   2   10.50    4.60
 -10  -8  -2    3.40    6.40
  10   8   2   -2.40    3.20
   5  -9  -2    8.40    7.20
  -5   9   2   20.90    3.70
   4  -9  -2    2.10    5.00
  -4   9   2    5.30    2.20
  -4   9   2    1.70    1.80
   3  -9  -2   32.70    7.90
  -3   9   2   26.20    3.30
  -3   9   2   22.70    3.40
   2  -9  -2    7.10    4.60
  -2   9   2   10.40    2.00
  -2   9   2   10.30    2.20
   1  -9  -2   38.20    7.40
  -1   9   2   25.00    3.00
  -1   9   2   24.40    3.40
   0  -9  -2   75.69   10.10
   0   9   2   59.79    5.10
   0   9   2   54.79    4.60
  -1  -9  -2   38.20    6.70
   1   9   2   23.50    5.10
   1   9   2   30.70    3.70
  -2  -9  -2   76.99    8.90
  -2  -9  -2   49.60    4.80
   2   9   2   58.89    7.30
   2   9   2   70.99    5.60
  -3  -9  -2    6.00    2.00
  -3  -9  -2   10.10    3.90
   3   9   2    6.30    2.30
  -4  -9  -2    2.40    1.90
  -4  -9  -2    2.40    3.30
   4   9   2    0.60    2.10
  -5  -9  -2   18.10    4.60
   5   9   2   11.10    4.00
   5   9   2   10.20    3.30
  -6  -9  -2   24.80    5.30
   6   9   2   18.10    4.70
   6   9   2   18.40    4.70
  -7  -9  -2    7.30    4.50
   7   9   2    1.90    2.60
  -8  -9  -2   17.60    6.00
   8   9   2    8.40    4.00
  -9  -9  -2   12.90    6.20
   9   9   2   10.40    4.60
   4 -10  -2    8.70    6.60
  -4  10   2    7.30    2.30
  -4  10   2   11.80    2.50
   3 -10  -2   32.80    8.70
  -3  10   2   20.90    2.90
  -3  10   2   22.00    2.80
   2 -10  -2    7.20    5.10
  -2  10   2    0.90    1.30
  -2  10   2   -0.70    1.60
   1 -10  -2   32.30    7.70
  -1  10   2   32.80    4.40
  -1  10   2   26.40    3.40
   0 -10  -2    0.80    4.20
   0  10   2   -0.70    1.50
   0  10   2    0.80    1.30
  -1 -10  -2   87.89   10.80
   1  10   2   55.39    5.50
   1  10   2   62.39    5.30
  -2 -10  -2    6.40    1.90
  -2 -10  -2   11.50    4.50
   2  10   2    8.70    5.60
   2  10   2    6.70    2.40
  -3 -10  -2   55.39    5.40
  -3 -10  -2   87.09    9.60
   3  10   2   58.09    6.50
   3  10   2   64.09    8.00
  -4 -10  -2   58.89    8.10
  -4 -10  -2   48.60    6.10
   4  10   2   55.99    7.40
   4  10   2   67.09    7.20
  -5 -10  -2    2.10    3.70
   5  10   2   -0.90    3.70
   5  10   2    6.70    5.10
  -6 -10  -2    1.90    3.90
   6  10   2   -0.30    2.60
   7  10   2    0.90    2.90
  -8 -10  -2   11.90    5.50
   8  10   2    6.60    3.80
  -9 -10  -2    2.90    5.80
   9  10   2   -1.80    3.60
   3 -11  -2   -4.70    4.60
   2 -11  -2   30.10    8.40
   1 -11  -2    8.80    5.40
   0 -11  -2   17.10    6.60
   0  11   2   14.20    2.60
   0  11   2   19.10    2.80
  -1 -11  -2  101.49   12.60
   1  11   2   63.89    5.50
   1  11   2   73.59    6.20
  -2 -11  -2    8.50    5.70
  -2 -11  -2    5.20    2.00
   2  11   2    3.60    2.00
  -3 -11  -2    3.90    4.20
  -3 -11  -2    2.00    3.30
   3  11   2    0.90    1.90
  -4 -11  -2  102.19   11.70
  -4 -11  -2   74.39    8.10
   4  11   2   84.89    7.60
  -5 -11  -2  111.19   11.00
   5  11   2   66.69    8.10
  -6 -11  -2   39.40   12.40
   6  11   2   28.80    5.60
  -7 -11  -2    0.10    4.60
   7  11   2   -2.60    2.40
  -8 -11  -2    6.00    5.50
   8  11   2    1.90    3.60
   2 -12  -2   -7.80    5.00
   1 -12  -2   19.60    7.40
   0 -12  -2   -1.70    4.90
  -1 -12  -2    3.80    6.20
   1  12   2    5.90    2.30
   1  12   2    5.30    1.90
  -2 -12  -2   25.40    7.60
   2  12   2   17.40    3.40
  -3 -12  -2   14.40    3.20
  -3 -12  -2   25.20    7.20
   3  12   2   19.80    3.70
  -4 -12  -2   -2.80    4.50
   4  12   2   -1.80    1.90
  -5 -12  -2    0.70    4.80
   5  12   2    1.50    2.60
  -6 -12  -2    8.00    5.60
   6  12   2    2.30    3.00
  -7 -12  -2   19.40    6.50
   7  12   2    4.80    3.60
  -8 -12  -2   10.50    6.10
   8  12   2    6.60    4.30
   0 -13  -2   33.30    9.50
  -1 -13  -2   32.20    9.70
  -2 -13  -2   -5.60    5.30
   2  13   2    2.30    2.50
   2  13   2   -1.00    1.50
  -3 -13  -2    6.90    2.70
  -3 -13  -2   17.50    7.50
   3  13   2   12.10    3.10
  -4 -13  -2    8.80    6.70
   4  13   2   10.50    3.40
  -5 -13  -2    8.90    6.60
   5  13   2   15.80    4.20
  -6 -13  -2    0.00    5.40
   6  13   2    0.30    2.50
  -7 -13  -2   11.40    6.40
   7  13   2    1.90    3.50
  -2 -14  -2    7.10    8.20
   2  14   2    5.20    1.90
   2  14   2    2.30    2.30
  -3 -14  -2    8.20    7.30
   3  14   2    4.30    2.40
  -4 -14  -2    8.80    7.50
   4  14   2    1.00    2.30
  -5 -14  -2   16.90    8.10
   5  14   2   20.00    4.60
   4  13  -3    9.70    2.90
  -4 -13   3    9.00    2.60
  -4 -13   3   21.80    9.00
  -3 -13   3    0.50    6.40
   6  12  -3   15.00    4.10
  -6 -12   3   20.40    8.00
   5  12  -3   14.30    4.10
  -5 -12   3   36.90    9.40
   4  12  -3   -0.50    2.10
  -4 -12   3    2.40    5.90
   3  12  -3   16.70    2.90
  -3 -12   3   18.70    2.50
  -3 -12   3   29.70    9.00
  -2 -12   3    8.10    6.80
  -1 -12   3    2.70    6.40
   0 -12   3   -8.30    5.40
   7  11  -3    8.20    4.00
  -7 -11   3   24.20    8.10
   6  11  -3    5.40    3.30
  -6 -11   3   -0.70    5.80
   5  11  -3    1.80    2.50
  -5 -11   3    6.20    5.90
   4  11  -3    7.30    3.00
  -4 -11   3    6.70    2.50
  -4 -11   3   13.50    6.20
   3  11  -3    0.20    1.80
  -3 -11   3    1.60    1.60
  -3 -11   3   -5.20    4.60
  -2 -11   3   14.50    7.00
  -1 -11   3   -0.80    5.20
   0 -11   3    5.10    5.70
   1 -11   3    1.00    6.40
   2 -11   3    9.90   12.30
   8  10  -3    4.60    3.80
  -8 -10   3    3.00    6.00
   7  10  -3   16.20    4.80
  -7 -10   3   33.30    8.30
   6  10  -3   14.70    4.30
  -6 -10   3   23.00    7.20
   5  10  -3    1.80    2.10
  -5 -10   3    7.30    5.30
   4  10  -3   -0.70    2.00
  -4 -10   3    3.70    4.70
  -4 -10   3   -1.60    1.90
   3  10  -3   17.00    3.20
  -3 -10   3   22.90    6.80
  -3 -10   3   20.30    3.00
   2  10  -3    7.40    2.30
  -2 -10   3    7.30    5.30
  -1 -10   3    6.80    5.20
   0 -10   3   25.30    8.20
   1 -10   3   15.20    7.10
   2 -10   3   -4.40    5.20
   3 -10   3    6.60    6.40
   9   9  -3    2.60    4.20
  -9  -9   3    9.90    7.20
   8   9  -3    1.80    3.30
  -8  -9   3    4.10    6.30
   7   9  -3   -0.50    3.00
  -7  -9   3   -5.00    4.70
   6   9  -3   13.90    4.20
  -6  -9   3   33.50    7.70
   5   9  -3  107.99    9.50
  -5  -9   3  111.59   12.80
   4   9  -3   10.50    3.30
  -4  -9   3   15.30    3.30
  -4  -9   3    7.70    5.00
   3   9  -3    7.10    2.60
  -3  -9   3   12.00    5.30
  -3  -9   3    9.20    2.50
   2   9  -3    9.30    2.10
  -2  -9   3    4.60    1.50
  -2  -9   3    5.90    4.30
  -1  -9   3   24.60    6.30
   0  -9   3   28.90    7.50
   1  -9   3    2.60    5.00
   2  -9   3   34.70    8.60
   3  -9   3    2.00    5.30
   4  -9   3    1.20    5.40
   9   8  -3   -0.50    2.90
  -9  -8   3    1.00    6.20
   8   8  -3   13.60    4.60
  -8  -8   3    2.10    5.90
   7   8  -3   23.70    5.20
  -7  -8   3   37.80    7.90
   6   8  -3   18.30    4.40
  -6  -8   3   11.70    5.70
   5   8  -3   12.30    3.70
  -5  -8   3   10.90    5.30
   4   8  -3    7.60    2.70
  -4  -8   3    3.90    2.40
  -4  -8   3    9.20    4.50
   3   8  -3   35.80    4.60
  -3  -8   3   41.20    4.40
   2   8  -3    2.40    1.60
  -2  -8   3    2.30    1.30
  -1  -8   3   -1.40    3.50
   0  -8   3    9.00    4.50
   1  -8   3   20.60    6.10
   2  -8   3    9.90    5.70
   3  -8   3   25.60    7.70
   4  -8   3   11.90    6.40
   5  -8   3    8.10    7.40
   9   7  -3    8.30    4.60
  -9  -7   3    4.70    7.30
   8   7  -3    0.60    2.70
  -8  -7   3   11.70    6.20
   7   7  -3   30.90    6.70
  -7  -7   3   33.70    7.70
   6   7  -3   50.29    7.00
  -6  -7   3   51.69    8.60
   5   7  -3   33.90    5.40
  -5  -7   3   28.80    8.20
   4   7  -3    0.10    1.70
  -4  -7   3    0.40    2.20
  -4  -7   3   -1.30    3.20
   3   7  -3   36.50    4.70
  -3  -7   3   44.40    4.90
  -3  -7   3   59.09    7.70
   2   7  -3   67.99    9.40
   2   7  -3   45.30    4.50
  -2  -7   3   57.09    7.60
  -2  -7   3   49.99    4.20
   1   7  -3   13.50    1.90
  -1  -7   3    7.90    3.70
  -1  -7   3    9.30    1.30
   0  -7   3   50.29    7.80
   1  -7   3   35.60    6.80
   2  -7   3   33.60    7.70
   3  -7   3   -0.10    3.70
   4  -7   3    1.80    4.90
  -5   7  -3   13.40    2.10
   5  -7   3   16.10    6.40
   5  -7   3   15.50    3.40
  -6   7  -3   10.90    2.60
   6  -7   3   10.50    3.00
   6  -7   3   17.50    8.70
  10   6  -3    2.10    4.20
 -10  -6   3    2.90    7.70
   9   6  -3   19.00    5.50
  -9  -6   3   19.20    7.50
   8   6  -3   35.20    7.30
  -8  -6   3   51.79    9.00
   7   6  -3   -0.20    2.90
  -7  -6   3   -2.70    4.50
   6   6  -3    2.30    2.80
  -6  -6   3    6.30    4.60
   5   6  -3    8.80    3.10
  -5  -6   3   17.60    4.00
  -5  -6   3   16.10    4.70
   4   6  -3   46.30    5.80
   4   6  -3   56.59    7.20
  -4  -6   3   52.99    7.20
   3   6  -3   -0.70    1.70
   3   6  -3    0.00    2.70
  -3  -6   3    1.40    1.70
  -3  -6   3    1.60    2.80
   2   6  -3  106.29    7.30
   2   6  -3   98.79    9.00
  -2  -6   3  100.19    7.10
  -2  -6   3  101.89    9.40
   1   6  -3  615.84   34.20
   1   6  -3  611.34   36.60
  -1  -6   3  617.94   37.00
  -1  -6   3  591.84   33.90
   0   6  -3    4.40    3.00
   0  -6   3    9.00    3.80
   1  -6   3   12.30    4.20
   3  -6   3   28.60    6.60
  -4   6  -3    7.10    1.60
   4  -6   3    1.80    3.90
  -5   6  -3    5.10    1.70
   5  -6   3    5.30    2.40
   5  -6   3    7.80    5.60
  -6   6  -3   -0.40    1.90
   6  -6   3    0.00    2.20
   6  -6   3   -0.20    4.70
  -7   6  -3    8.90    4.40
   7  -6   3    7.40    3.50
   7  -6   3   16.10    8.20
  10   5  -3    4.90    5.10
 -10  -5   3   11.20    7.70
   9   5  -3    6.80    4.90
  -9  -5   3   10.60    7.20
   8   5  -3   29.80    6.20
  -8  -5   3   43.10    8.40
   7   5  -3   35.60    6.20
  -7  -5   3   42.40    7.60
   6   5  -3   23.10    4.90
  -6  -5   3   21.30    7.30
   5   5  -3   19.00    4.10
   5   5  -3   33.30    8.40
  -5  -5   3   33.80    5.70
  -5  -5   3   25.20    4.30
   4   5  -3   17.70    4.30
   4   5  -3   12.70    3.20
  -4  -5   3   14.30    3.10
  -4  -5   3   18.90    4.40
   3   5  -3   93.79    7.30
  -3  -5   3   95.99    8.60
  -3  -5   3   87.99    7.00
   2   5  -3    5.40    1.90
   2   5  -3    8.80    3.30
  -2  -5   3    5.60    1.80
  -2  -5   3    5.20    3.00
   1   5  -3  131.19    8.00
   1   5  -3  127.89   10.00
  -1  -5   3  120.59    7.80
  -1  -5   3  122.29   10.00
   0   5  -3  272.97   19.80
   0  -5   3  265.27   18.20
  -1   5  -3   17.00    4.10
   1  -5   3   13.10    3.90
  -2   5  -3    8.20    3.60
   2  -5   3    3.40    3.10
  -3   5  -3   12.90    1.80
   3  -5   3   14.30    2.10
  -4   5  -3   70.59    5.20
   4  -5   3   60.09    9.00
   4  -5   3   68.09    5.60
  -5   5  -3   36.40    4.40
   5  -5   3   43.60    5.20
   5  -5   3   37.30    8.20
  -6   5  -3   -2.00    1.90
   6  -5   3    4.30    2.80
   6  -5   3    2.20    4.30
   7  -5   3   18.50    8.50
   7  -5   3   18.90    4.70
  10   4  -3    5.50    5.00
 -10  -4   3    2.90    7.60
   9   4  -3   47.50    8.30
  -9  -4   3   39.20    8.90
   8   4  -3   -0.70    2.80
  -8  -4   3   16.00    6.00
   7   4  -3   -2.00    2.80
  -7  -4   3    0.20    4.60
   6   4  -3   87.39    9.90
  -6  -4   3   84.59    9.80
   5   4  -3   53.79    7.00
   5   4  -3   82.29    7.60
  -5  -4   3   81.89    7.10
  -5  -4   3   69.89    8.10
   4   4  -3   72.39    7.00
   4   4  -3   91.49    8.50
  -4  -4   3   82.09    6.90
  -4  -4   3   83.29    8.00
   3   4  -3    5.50    2.20
   3   4  -3    6.30    3.30
  -3  -4   3    7.20    3.40
  -3  -4   3    5.70    2.00
   2   4  -3  101.79    8.90
   2   4  -3  128.69    8.20
  -2  -4   3  114.99    7.90
  -2  -4   3  124.49    9.40
   1   4  -3    6.10    3.00
   1   4  -3   13.50    2.10
  -1  -4   3    9.70    3.20
  -1  -4   3   12.00    2.10
   0   4  -3    7.30    2.90
   0  -4   3   13.60    1.30
   0  -4   3   14.30    1.50
   0  -4   3    8.50    3.10
  -1   4  -3    9.20    3.20
   1  -4   3    3.70    2.70
  -2   4  -3    8.90    3.50
  -2   4  -3   11.70    1.40
   2  -4   3    9.60    3.80
   2  -4   3   11.00    1.50
  -3   4  -3    1.50    1.00
  -3   4  -3    4.60    3.30
   3  -4   3    3.80    2.30
   3  -4   3    3.20    3.10
  -4   4  -3   33.90    3.80
   4  -4   3   37.10    4.40
   4  -4   3   26.60    6.10
  -5   4  -3  120.89    9.00
   5  -4   3  125.39    9.40
   5  -4   3  139.99   13.00
  -6   4  -3   43.20    5.40
   6  -4   3   36.90    5.50
   6  -4   3   37.40    8.10
   7  -4   3    5.70    6.50
   7  -4   3    6.10    3.50
   8  -4   3   23.60   10.50
   8  -4   3   17.90    5.00
  10   3  -3   -6.00    3.60
   9   3  -3    5.00    4.80
  -9  -3   3    9.00    6.70
   8   3  -3   32.40    6.60
  -8  -3   3   35.90    7.30
   7   3  -3   10.70    4.40
  -7  -3   3   14.20    5.30
   6   3  -3    1.60    3.70
  -6  -3   3    2.90    3.90
   5   3  -3   48.80    6.10
   5   3  -3   42.60    5.90
  -5  -3   3   59.99    7.00
  -5  -3   3   44.10    5.70
   4   3  -3  113.29    9.00
   4   3  -3  115.29    9.00
  -4  -3   3  109.29    8.60
  -4  -3   3  122.99    9.60
   3   3  -3    2.30    2.70
   3   3  -3   11.20    2.70
  -3  -3   3    9.40    3.20
  -3  -3   3    8.40    2.40
   2   3  -3  171.38   10.80
   2   3  -3  177.08   11.50
  -2  -3   3  150.98   11.40
  -2  -3   3  166.68   10.60
   1   3  -3  380.26   21.20
   1   3  -3  366.96   22.20
  -1  -3   3  353.16   22.20
   0   3  -3  190.28   13.20
   0  -3   3  209.78   13.60
   0  -3   3  204.48   11.70
  -1   3  -3   14.40    3.50
   1  -3   3   20.00    4.00
   1  -3   3   18.60    1.70
  -2   3  -3   12.40    3.70
  -2   3  -3   16.70    1.90
   2  -3   3   11.50    3.70
   2  -3   3   15.10    2.10
  -3   3  -3    2.10    1.20
  -3   3  -3    5.00    2.90
   3  -3   3    2.30    1.50
   3  -3   3    4.60    3.30
  -4   3  -3    2.60    1.70
   4  -3   3    4.20    3.40
   4  -3   3    1.80    1.80
  -5   3  -3   13.00    3.10
   5  -3   3   17.50    3.60
   5  -3   3   16.90    5.40
  -6   3  -3  180.78   12.80
   6  -3   3  203.28   16.60
   6  -3   3  182.38   13.30
   7  -3   3   18.40    6.60
   8  -3   3   14.60    4.50
   8  -3   3   21.90    8.50
  10   2  -3   -0.30    4.30
 -10  -2   3    1.60    7.00
   9   2  -3    5.10    4.00
  -9  -2   3    2.70    6.00
   8   2  -3    9.20    4.20
  -8  -2   3    0.60    5.00
   7   2  -3   33.80    5.90
  -7  -2   3   41.50    7.20
  -6  -2   3   76.89    8.70
   5   2  -3   77.99    7.20
   5   2  -3   78.29    7.30
  -5  -2   3   66.99    7.70
  -5  -2   3   68.19    6.70
   4   2  -3  126.39    9.80
   4   2  -3  131.59    9.70
  -4  -2   3  134.19    9.60
  -4  -2   3  132.49   10.20
   3   2  -3  479.75   27.60
   3   2  -3  457.25   27.50
  -3  -2   3  474.45   27.40
  -3  -2   3  455.45   27.70
   2   2  -3   57.29    5.10
   2   2  -3   62.99    6.00
  -2  -2   3   49.10    5.80
  -2  -2   3   53.19    4.70
   1   2  -3  247.08   15.00
   1   2  -3  240.78   14.30
  -1  -2   3  241.58   14.60
  -1  -2   3  233.38   15.00
   0   2  -3   20.50    3.50
   0  -2   3   29.00    2.70
   0  -2   3   19.00    3.40
  -1   2  -3   34.30    2.70
  -1   2  -3   41.50    4.90
   1  -2   3   40.00    5.00
   1  -2   3   33.50    2.70
  -2   2  -3   77.39    7.10
  -2   2  -3   80.89    5.30
   2  -2   3   80.59    5.40
   2  -2   3   74.09    7.10
  -3   2  -3   -0.40    1.10
  -3   2  -3    0.40    2.40
   3  -2   3   -0.20    2.20
   3  -2   3    2.50    1.50
  -4   2  -3  137.89   11.80
  -4   2  -3  150.08    9.90
   4  -2   3  146.69   12.00
   4  -2   3  152.48   10.20
  -5   2  -3  148.39   10.40
   5  -2   3  144.79   12.70
   5  -2   3  153.28   10.80
  -6   2  -3    6.60    2.90
   6  -2   3    1.50    3.90
   6  -2   3    1.60    2.50
   7  -2   3   37.60    7.20
   7  -2   3   38.70    9.00
   8  -2   3   11.40    6.60
   8  -2   3   11.70    4.40
   9  -2   3   12.50    5.10
   9  -2   3   28.90   15.30
 -10  -1   3   13.00    8.30
   9   1  -3    7.10    4.70
  -9  -1   3   16.60    6.70
   8   1  -3    3.70    3.80
  -8  -1   3    7.10    5.20
   7   1  -3    5.90    4.10
  -7  -1   3    7.70    4.70
   5   1  -3  399.06   25.50
  -5  -1   3  413.66   26.40
  -5  -1   3  409.76   25.20
   4   1  -3   39.00    5.00
   4   1  -3   41.30    5.30
  -4  -1   3   40.30    5.10
  -4  -1   3   50.99    5.80
   3   1  -3    2.50    2.20
   3   1  -3    4.40    2.20
  -3  -1   3    2.50    1.70
  -3  -1   3    0.20    2.30
   2   1  -3   16.80    3.10
   2   1  -3   16.00    2.90
  -2  -1   3   16.70    3.10
  -2  -1   3   12.10    2.50
   1   1  -3   67.59    5.00
   1   1  -3   73.29    5.60
  -1  -1   3   59.19    5.50
  -1  -1   3   60.09    4.90
   0   1  -3  824.62   46.30
   0   1  -3  807.02   46.70
   0  -1   3  855.91   46.90
   0  -1   3  841.72   46.30
  -1   1  -3   12.00    1.60
  -1   1  -3   10.60    2.60
   1  -1   3   11.30    1.60
   1  -1   3    8.70    2.50
  -2   1  -3   12.00    3.10
  -2   1  -3   16.70    2.20
   2  -1   3   15.90    3.50
   2  -1   3   16.80    2.40
  -3   1  -3  115.49    8.90
  -3   1  -3  105.19    7.40
   3  -1   3  114.99    7.70
   3  -1   3  106.49    8.90
  -4   1  -3   73.49    8.50
  -4   1  -3   77.69    6.30
   4  -1   3   85.09    8.10
   4  -1   3   91.49    6.80
  -5   1  -3    6.40    3.60
  -5   1  -3    5.10    2.20
   5  -1   3    6.80    2.70
   5  -1   3   11.80    3.90
  -6   1  -3    6.40    2.90
   6  -1   3   17.20    4.10
   6  -1   3   10.10    4.90
   7  -1   3    0.50    2.70
   7  -1   3   10.50    6.00
   8  -1   3    1.10    4.90
   8  -1   3   -0.60    2.80
  -9   1  -3   -1.10    5.20
   9  -1   3    1.50    3.80
   9   0  -3    1.30    4.20
  -9   0   3    9.60    5.90
   8   0  -3   -4.40    2.90
  -8   0   3   -2.30    4.00
   7   0  -3    4.60    3.50
  -7   0   3    4.80    4.60
   6   0  -3    6.90    4.20
  -6   0   3   10.00    3.90
   5   0  -3   20.30    4.10
  -5   0   3   22.90    5.10
  -5   0   3   21.00    4.10
  -5   0   3   22.30    4.50
   4   0  -3   75.69    7.10
  -4   0   3   82.09    6.90
  -4   0   3   89.79    8.10
  -4   0   3   74.49    7.10
   3   0  -3   53.49    5.20
   3   0  -3   60.19    6.30
  -3   0   3   51.29    5.00
  -3   0   3   55.99    5.40
   2   0  -3   -1.40    1.40
   2   0  -3   -0.70    1.60
  -2   0   3   -2.70    1.30
  -2   0   3    1.20    2.00
   1   0  -3  207.88   14.10
   1   0  -3  240.58   13.70
  -1   0   3  229.28   13.70
  -1   0   3  226.38   13.70
   0   0  -3  940.01   52.99
   0   0   3  958.90   53.09
   0   0   3  954.10   52.89
   0   0   3  971.60   53.19
  -1   0  -3  193.08   12.00
  -1   0  -3  203.18   11.60
   1   0   3  192.88   12.00
   1   0   3  201.38   11.70
  -2   0  -3    4.00    2.10
  -2   0  -3    2.90    1.30
   2   0   3    2.50    1.60
   2   0   3    4.90    2.20
  -3   0  -3  346.37   20.90
  -3   0  -3  362.96   21.80
   3   0   3  363.16   21.90
   3   0   3  352.86   21.00
  -4   0  -3  300.97   18.20
  -4   0  -3  305.37   19.50
   4   0   3  298.87   18.40
   4   0   3  291.07   19.30
  -5   0  -3    1.80    2.00
  -5   0  -3    0.20    2.60
   5   0   3   -1.20    2.70
   5   0   3   -1.90    1.90
  -6   0  -3   -0.40    1.80
   6   0   3    1.50    3.40
   6   0   3   -0.90    2.40
   7   0   3   11.60    5.70
   7   0   3   12.60    4.10
  -8   0  -3   55.19    8.90
   8   0   3   44.50    7.20
  -9   0  -3   17.30    6.80
   9   0   3    1.20    4.00
   9  -1  -3   -4.40    3.20
  -9   1   3    6.10    5.60
   8  -1  -3   -0.40    3.70
  -8   1   3    4.50    5.00
   7  -1  -3   21.30    5.10
  -7   1   3   27.30    5.90
  -6   1   3   77.89    9.10
   5  -1  -3  187.28   13.30
  -5   1   3  175.38   12.70
   4  -1  -3    3.10    2.40
  -4   1   3    1.90    2.50
  -4   1   3    2.60    1.90
   3  -1  -3   27.50    4.20
  -3   1   3   37.30    4.20
  -3   1   3   23.90    3.80
  -3   1   3   21.30    4.20
   2  -1  -3    5.20    2.20
  -2   1   3    2.80    1.90
  -2   1   3    5.80    2.20
  -2   1   3    6.80    2.50
   1  -1  -3    5.20    2.30
   1  -1  -3    6.40    2.20
  -1   1   3    6.60    1.90
  -1   1   3    6.50    1.90
   0  -1  -3  439.66   24.90
   0   1   3  432.16   25.10
   0   1   3  439.46   24.90
   0   1   3  475.65   25.90
  -1  -1  -3   29.30    3.00
  -1  -1  -3   31.80    2.70
   1   1   3   32.40    2.80
   1   1   3   25.70    2.60
  -2  -1  -3 1540.65   85.59
   2   1   3 1533.05   85.59
   2   1   3 1566.04   85.59
  -3  -1  -3    6.90    1.90
  -3  -1  -3    3.40    2.20
   3   1   3    3.00    1.90
   3   1   3    4.00    2.10
  -4  -1  -3   15.60    3.70
  -4  -1  -3   14.90    3.00
   4   1   3   17.70    3.40
   4   1   3   17.80    3.80
  -5  -1  -3   -0.30    2.40
  -5  -1  -3    2.50    2.00
   5   1   3    2.40    2.90
   5   1   3   -0.70    2.10
  -6  -1  -3    6.20    3.60
   6   1   3   17.10    4.80
   6   1   3   24.50    4.60
  -7  -1  -3    5.60    4.10
   7   1   3   -0.60    2.60
  -8  -1  -3   10.40    5.30
   8   1   3    2.50    3.50
  -9  -1  -3   26.80    7.10
   9   1   3   19.60    5.10
 -10  -1  -3    5.70    6.70
  10   1   3    7.30    5.30
   9  -2  -3    7.10    5.10
  -9   2   3    8.30    7.10
   8  -2  -3   33.80    6.80
  -8   2   3   35.50    7.60
   7  -2  -3   -1.50    2.80
  -7   2   3   -2.10    3.70
  -6   2   3   10.90    4.30
   5  -2  -3   22.00    4.50
  -5   2   3   26.90    5.30
  -5   2   3   27.20    4.60
   4  -2  -3    8.30    2.80
  -4   2   3   18.90    3.50
  -4   2   3   12.70    3.60
  -4   2   3   17.40    4.40
   3  -2  -3    3.30    2.00
  -3   2   3    0.40    1.80
  -3   2   3    4.30    2.90
   2  -2  -3    7.40    2.30
   2  -2  -3    9.10    2.80
  -2   2   3   10.90    2.50
  -2   2   3    5.20    2.50
   1  -2  -3   36.00    4.20
  -1   2   3   39.80    4.50
  -1   2   3   45.40    4.50
   0   2   3   61.89    4.40
   0   2   3   66.59    4.50
   0   2   3   64.79    5.00
   0   2   3   56.79    4.30
  -1  -2  -3  167.28   10.20
  -2  -2  -3   12.50    2.30
  -2  -2  -3    8.50    1.70
   2   2   3   10.50    1.80
   2   2   3    6.40    2.00
  -3  -2  -3  442.96   25.80
  -3  -2  -3  453.25   25.70
   3   2   3  431.56   25.70
   3   2   3  439.66   25.80
  -4  -2  -3   37.50    4.90
  -4  -2  -3   33.70    4.30
   4   2   3   41.40    5.20
  -5  -2  -3   31.70    5.00
  -5  -2  -3   25.80    4.30
  -5  -2  -3   39.40    5.00
   5   2   3   24.50    4.20
  -6  -2  -3   25.10    5.50
  -6  -2  -3   30.60    5.30
   6   2   3   38.50    5.80
  -7  -2  -3    1.70    3.60
   7   2   3    1.30    2.70
  -8  -2  -3   41.60    7.10
   8   2   3   25.20    5.60
  -9  -2  -3    9.10    6.30
   9   2   3    5.90    4.30
 -10  -2  -3   16.10    7.10
  10   2   3    6.80    4.40
   8  -3  -3    3.60    4.20
  -8   3   3    8.10    5.40
   7  -3  -3    9.10    3.90
  -7   3   3   18.60    6.00
   6  -3  -3   65.59   12.10
  -6   3   3   38.00    7.20
   5  -3  -3    7.80    4.30
   5  -3  -3    4.20    2.80
  -5   3   3    4.50    2.50
   4  -3  -3   29.50    5.70
   4  -3  -3   22.10    4.10
  -4   3   3   26.60    5.50
  -4   3   3   26.70    4.10
   3  -3  -3   14.30    3.40
   3  -3  -3   17.40    4.20
  -3   3   3   11.30    2.60
  -3   3   3    9.30    3.40
   2  -3  -3   -2.10    1.40
   2  -3  -3    0.80    2.10
  -2   3   3    0.00    1.90
  -2   3   3   -0.30    1.40
   1  -3  -3   70.09    5.90
   1  -3  -3   79.89    6.40
  -1   3   3   76.09    5.80
  -1   3   3   74.79    6.30
   0  -3  -3  228.08   13.80
   0   3   3  229.48   13.70
   0   3   3  221.98   14.00
   0   3   3  241.28   13.90
  -1  -3  -3   10.10    2.00
  -1  -3  -3    9.20    1.40
   1   3   3   12.50    1.40
   1   3   3    6.40    1.60
  -2  -3  -3   -1.20    1.10
  -2  -3  -3    4.20    1.60
   2   3   3    4.10    1.80
  -3  -3  -3    8.80    2.00
  -3  -3  -3    7.80    2.10
  -3  -3  -3    9.20    2.00
   3   3   3    9.50    2.30
  -4  -3  -3  125.49    8.70
  -4  -3  -3  118.59    8.70
  -4  -3  -3  116.69    8.20
   4   3   3  112.29    8.80
  -5  -3  -3  105.79    8.20
  -5  -3  -3  111.49    8.80
  -5  -3  -3   97.09    8.20
   5   3   3  115.39    8.80
  -6  -3  -3    0.40    2.60
   6   3   3    2.00    2.50
  -7  -3  -3   13.80    4.50
   7   3   3   27.30    5.30
  -8  -3  -3    5.90    4.50
   8   3   3    3.10    3.50
  -9  -3  -3   42.80    8.00
   9   3   3   36.80    7.10
 -10  -3  -3    6.10    6.10
  10   3   3    7.40    4.70
   8  -4  -3    3.00    4.20
  -8   4   3   11.30    7.70
   7  -4  -3    1.10    3.40
  -7   4   3    2.20    4.40
   6  -4  -3   37.10    6.80
   6  -4  -3   31.80    7.90
   5  -4  -3   68.29    9.80
   5  -4  -3   69.09    8.10
  -5   4   3   69.19    8.00
   4  -4  -3  101.89    8.50
   4  -4  -3  103.29   11.60
  -4   4   3   92.19    7.80
   3  -4  -3    5.80    3.30
   3  -4  -3   -0.10    2.00
  -3   4   3   -0.40    1.30
  -3   4   3   -1.30    1.80
   2  -4  -3   27.00    5.10
   2  -4  -3   39.30    4.60
  -2   4   3   31.10    4.00
  -2   4   3   31.60    5.00
   1  -4  -3    2.90    2.20
  -1   4   3    3.30    2.20
  -1   4   3    1.30    1.40
   0   4   3   14.60    2.10
   0   4   3   15.70    2.70
   0   4   3   10.60    2.50
  -1  -4  -3   37.20    3.80
  -1  -4  -3   42.80    4.10
   1   4   3   35.70    3.40
   1   4   3   44.70    4.30
  -2  -4  -3   73.69    5.70
  -2  -4  -3   76.89    5.20
   2   4   3   77.89    5.10
   2   4   3   78.29    5.90
  -3  -4  -3    4.60    1.90
  -3  -4  -3    4.10    1.60
   3   4   3    6.50    2.00
   3   4   3    2.30    1.50
  -4  -4  -3   49.00    4.80
  -4  -4  -3   49.50    4.90
  -4  -4  -3   41.90    5.00
   4   4   3   39.60    5.00
  -5  -4  -3   57.49    6.60
  -5  -4  -3   61.39    5.90
  -5  -4  -3   59.09    6.50
   5   4   3   56.69    6.50
  -6  -4  -3  220.88   14.50
  -6  -4  -3  207.58   15.10
   6   4   3  212.08   15.10
  -7  -4  -3   10.30    4.00
  -7  -4  -3   14.50    4.90
   7   4   3    6.40    3.30
  -8  -4  -3   31.20    6.50
   8   4   3   23.40    5.80
  -9  -4  -3   19.10    6.60
   9   4   3   29.40    6.80
 -10  -4  -3    9.70    6.40
  10   4   3   11.90    5.40
   8  -5  -3    3.30    4.30
  -8   5   3    5.50    5.70
   7  -5  -3    2.10    4.00
   6  -5  -3   12.30    4.70
   6  -5  -3    9.00    5.80
   5  -5  -3   -0.30    2.60
   5  -5  -3   -2.10    4.20
  -5   5   3    1.10    2.40
   4  -5  -3   32.30    5.40
   4  -5  -3   24.30    6.30
  -4   5   3   23.40    5.30
   3  -5  -3   19.70    3.90
   3  -5  -3   18.90    4.90
  -3   5   3   21.50    3.70
  -3   5   3   31.50    5.90
   2  -5  -3   10.90    2.90
   2  -5  -3    7.80    3.20
  -2   5   3    9.80    2.50
  -2   5   3    9.50    3.30
   1  -5  -3   34.10    5.20
  -1   5   3   42.40    4.70
  -1   5   3   38.60    3.60
  -1   5   3   47.20    5.90
   0  -5  -3  184.88   12.70
   0   5   3  201.68   11.80
   0   5   3  188.28   12.60
   0   5   3  192.68   12.20
  -1  -5  -3   87.79    6.10
  -1  -5  -3   93.99    7.10
   1   5   3   85.59    6.30
   1   5   3   86.49    6.20
  -2  -5  -3   57.89    4.70
  -2  -5  -3   52.69    4.70
   2   5   3   62.09    5.00
   2   5   3   59.49    4.70
  -3  -5  -3   10.90    2.40
  -3  -5  -3   11.80    2.40
   3   5   3   16.10    2.80
   3   5   3   10.20    2.60
  -4  -5  -3  147.09   10.10
  -4  -5  -3  141.59    9.60
   4   5   3  140.19   10.30
   4   5   3  142.49    9.30
  -5  -5  -3   31.80    4.60
  -5  -5  -3   43.60    4.80
  -5  -5  -3   26.80    4.30
   5   5   3   41.80    5.40
  -6  -5  -3   14.20    3.90
  -6  -5  -3    5.60    3.30
   6   5   3    3.30    2.70
  -7  -5  -3   31.80    5.70
  -7  -5  -3   14.70    4.80
   7   5   3   12.50    4.10
   8   5   3   12.40    4.40
  -9  -5  -3   -2.20    5.70
   9   5   3    2.90    3.80
 -10  -5  -3   28.40    8.10
  10   5   3    6.10    4.60
   7  -6  -3    6.70    6.90
   7  -6  -3   10.80    5.10
   6  -6  -3    8.90    4.20
   6  -6  -3   15.10    7.20
   5  -6  -3    6.20    3.60
   5  -6  -3    5.80    5.10
  -5   6   3    2.50    2.20
   4  -6  -3   10.40    5.10
   4  -6  -3   14.90    3.90
   3  -6  -3   32.90    4.90
   3  -6  -3   34.20    6.70
  -3   6   3   36.20    4.90
   2  -6  -3   26.70    5.70
  -2   6   3   28.90    5.30
  -2   6   3   34.40    4.30
   1  -6  -3  143.99   10.70
  -1   6   3  138.79   10.50
  -1   6   3  128.79    9.00
  -1   6   3  123.19    8.50
   0  -6  -3   -0.50    1.90
   0   6   3   -1.70    1.40
   0   6   3   -0.30    1.70
   0   6   3    1.90    1.30
  -1  -6  -3    6.90    2.50
  -1  -6  -3    0.20    1.20
   1   6   3    1.40    1.30
   1   6   3    2.10    1.70
  -2  -6  -3   51.39    4.40
  -2  -6  -3   47.10    4.80
   2   6   3   52.29    4.70
   2   6   3   50.39    4.70
  -3  -6  -3   98.39    7.60
  -3  -6  -3  100.79    7.60
   3   6   3  113.09    7.90
   3   6   3  109.69    7.50
  -4  -6  -3   -1.10    1.80
  -4  -6  -3   -0.20    1.60
   4   6   3   -0.80    1.90
   4   6   3    0.10    1.70
  -5  -6  -3   23.50    4.20
  -5  -6  -3   30.10    4.50
   5   6   3   29.00    3.90
   5   6   3   20.80    4.10
  -6  -6  -3   28.00    5.00
  -6  -6  -3   36.90    5.40
   6   6   3   27.10    5.50
  -7  -6  -3    1.20    3.10
  -7  -6  -3    3.80    4.20
   7   6   3    9.60    3.90
  -8  -6  -3   20.20    5.80
   8   6   3    8.90    3.90
  -9  -6  -3   59.79    9.20
   9   6   3   44.50    8.20
 -10  -6  -3   -2.30    6.50
  10   6   3   -1.20    6.00
   6  -7  -3    1.60    5.60
   6  -7  -3   -5.40    3.00
   5  -7  -3    0.00    4.60
   5  -7  -3    4.70    3.40
  -5   7   3    4.20    2.70
   4  -7  -3   33.30    8.10
   4  -7  -3   31.80    5.40
   3  -7  -3   14.40    4.90
  -3   7   3   20.00    3.70
   2  -7  -3   95.49   11.00
  -2   7   3   81.29    6.20
  -2   7   3   76.69    6.50
   1  -7  -3   91.99    9.20
  -1   7   3  103.69    9.10
  -1   7   3  107.39    7.10
  -1   7   3  100.09    7.50
   0  -7  -3    5.50    2.90
   0   7   3    4.40    1.50
   0   7   3    7.10    2.30
   0   7   3   11.00    3.30
  -1  -7  -3   38.90    4.30
  -1  -7  -3   51.29    6.40
   1   7   3   46.40    5.60
   1   7   3   45.80    4.70
  -2  -7  -3   13.80    3.40
  -2  -7  -3   16.70    2.70
   2   7   3   12.90    2.70
   2   7   3   17.60    3.40
  -3  -7  -3   72.89    6.10
  -3  -7  -3   61.59    5.50
   3   7   3   71.19    6.00
   3   7   3   54.49    5.90
  -4  -7  -3   32.10    4.60
  -4  -7  -3   39.30    4.90
   4   7   3   46.10    4.90
   4   7   3   39.20    5.40
  -5  -7  -3    2.60    2.80
   5   7   3    4.30    2.60
   5   7   3    6.00    2.50
  -6  -7  -3   50.99    6.80
   6   7   3   49.50    6.80
   6   7   3   59.39    6.40
  -7  -7  -3   41.30    6.90
  -7  -7  -3   58.99    7.60
   7   7   3   50.49    7.40
  -8  -7  -3   -0.40    4.40
   8   7   3   -0.60    3.10
  -9  -7  -3    0.40    5.80
   9   7   3   -5.30    2.70
 -10  -7  -3   -1.40    7.10
  10   7   3    0.50    3.90
   6  -8  -3   20.50    5.80
   5  -8  -3    1.00    5.40
   5  -8  -3    4.60    3.50
  -5   8   3    0.50    2.20
   4  -8  -3   -2.10    4.30
   3  -8  -3   27.50    7.00
  -3   8   3   34.10    4.50
  -3   8   3   29.80    4.10
   2  -8  -3    6.20    4.80
  -2   8   3   13.10    2.60
  -2   8   3    6.10    2.30
   1  -8  -3   36.20    6.40
  -1   8   3    8.80    4.10
  -1   8   3   20.60    3.10
  -1   8   3   20.60    3.40
   0  -8  -3   89.99    8.50
   0   8   3   80.59    5.90
   0   8   3   67.89    6.30
   0   8   3   79.69    8.80
  -1  -8  -3  104.59    7.50
  -1  -8  -3  121.29    9.80
   1   8   3  113.69    7.80
   1   8   3  104.39    8.90
  -2  -8  -3  177.58   11.80
  -2  -8  -3  146.69   10.00
   2   8   3  150.78   10.30
   2   8   3  145.69   10.80
  -3  -8  -3   -0.30    2.20
  -3  -8  -3    0.60    1.40
   3   8   3   -0.60    2.20
   3   8   3   -0.90    1.70
  -4  -8  -3   65.99    6.70
  -4  -8  -3   65.19    6.10
   4   8   3   67.39    6.50
   4   8   3   75.79    6.70
  -5  -8  -3   84.19    7.50
   5   8   3   70.69    6.90
   5   8   3   79.09    7.50
  -6  -8  -3   16.00    4.20
   6   8   3    9.80    3.60
   6   8   3   11.40    3.30
  -7  -8  -3   -1.10    3.50
   7   8   3    5.40    2.90
   7   8   3    2.90    3.20
  -8  -8  -3   11.30    4.90
   8   8   3    1.90    3.20
  -9  -8  -3    1.00    5.60
   9   8   3   -2.00    3.20
 -10  -8  -3   13.60    7.50
  10   8   3    7.00    4.90
   5  -9  -3    6.00    6.70
  -5   9   3   10.90    3.20
  -5   9   3    5.70    2.90
   4  -9  -3   14.30    6.50
  -4   9   3    8.50    2.80
  -4   9   3   10.60    3.90
   3  -9  -3   -1.60    3.80
  -3   9   3    2.60    1.90
  -3   9   3    1.00    1.90
   2  -9  -3   15.70    5.20
  -2   9   3    7.90    2.10
  -2   9   3   10.10    2.60
  -1   9   3   29.20    4.20
  -1   9   3   26.80    3.60
   0  -9  -3   26.40    6.30
   0   9   3   20.20    3.10
   0   9   3   21.40    5.10
   0   9   3   17.20    3.30
  -1  -9  -3   11.00    4.20
   1   9   3   10.80    3.60
   1   9   3   13.00    2.70
  -2  -9  -3   23.60    3.50
  -2  -9  -3   27.60    5.50
   2   9   3   27.80    4.60
   2   9   3   21.20    3.70
  -3  -9  -3   43.20    6.20
   3   9   3   39.30    5.40
   3   9   3   39.50    5.30
  -4  -9  -3    4.60    3.10
  -4  -9  -3    4.60    2.40
   4   9   3    0.40    2.10
   4   9   3    3.50    3.50
  -5  -9  -3   69.89    7.90
   5   9   3   64.69    7.80
   5   9   3   53.39    6.70
  -6  -9  -3   96.69    8.90
   6   9   3   91.69    8.20
   6   9   3   71.59    8.90
  -7  -9  -3   -1.60    3.60
   7   9   3    3.00    3.10
   7   9   3    0.30    3.00
  -8  -9  -3   25.40    7.40
   8   9   3   12.20    5.00
  -9  -9  -3    4.40    5.20
   9   9   3    0.50    3.60
   4 -10  -3   20.90    8.70
  -4  10   3   17.00    3.30
  -4  10   3   10.90    2.90
   3 -10  -3   20.10    7.20
  -3  10   3    8.70    2.60
  -3  10   3   20.00    3.10
   2 -10  -3   -2.00    4.00
  -2  10   3   -1.40    1.60
  -2  10   3    0.40    1.40
   1 -10  -3   11.80    5.50
  -1  10   3    9.40    2.80
  -1  10   3   19.30    2.80
   0  10   3   51.29    5.70
   0  10   3   46.50    4.30
  -1 -10  -3   24.80    6.40
   1  10   3   27.60    4.00
  -2 -10  -3   21.70    5.40
  -2 -10  -3   11.30    2.50
   2  10   3   11.40    3.00
   2  10   3   16.30    4.00
  -3 -10  -3   71.89    6.20
  -3 -10  -3   81.29    9.70
   3  10   3   73.89    6.80
   3  10   3   72.19    7.40
  -4 -10  -3   28.20    5.80
  -4 -10  -3   20.30    4.20
   4  10   3   28.40    5.40
   4  10   3   21.10    4.40
  -5 -10  -3    9.10    4.10
   5  10   3    1.80    3.60
   5  10   3    4.50    2.80
  -6 -10  -3   35.50    6.00
   6  10   3   47.50    6.80
   6  10   3   20.60    5.00
  -7 -10  -3   24.90    5.80
   7  10   3   16.70    4.50
  -8 -10  -3   39.30    7.50
   8  10   3   32.10    6.70
  -9 -10  -3   11.90    5.60
   9  10   3    1.70    3.70
   3 -11  -3    1.90    5.30
  -3  11   3    1.40    1.50
  -3  11   3    1.00    1.70
   2 -11  -3   13.80    6.70
  -2  11   3    7.40    2.10
  -2  11   3    5.80    1.80
   1 -11  -3   22.00    6.80
  -1  11   3   27.50    3.70
  -1  11   3   25.70    3.40
   0 -11  -3   14.90    5.70
   0  11   3    3.90    2.20
   0  11   3    6.80    2.10
  -1 -11  -3   58.29    9.70
   1  11   3   53.59    6.40
   1  11   3   48.80    5.40
  -2 -11  -3    6.60    4.50
  -2 -11  -3    2.10    1.70
   2  11   3    6.60    2.50
  -3 -11  -3   14.00    3.10
  -3 -11  -3   28.50    6.50
   3  11   3   13.20    3.60
  -4 -11  -3    4.10    4.20
   4  11   3    5.60    3.50
   4  11   3    2.80    2.50
  -5 -11  -3  102.89   10.10
   5  11   3   74.29    9.40
   5  11   3   96.39    8.60
  -6 -11  -3   31.80    6.40
   6  11   3   28.00    5.90
  -7 -11  -3   -2.20    4.00
   7  11   3   -0.80    3.10
  -8 -11  -3   11.40    5.60
   8  11   3    9.30    4.90
  -9 -11  -3   28.90    7.50
   9  11   3   17.40    9.00
   2 -12  -3    3.00    5.70
   1 -12  -3    1.20    5.10
  -1  12   3    3.30    1.70
  -1  12   3    2.30    1.60
   0 -12  -3   30.90    8.10
   0  12   3   32.40    4.30
   0  12   3   46.00    4.50
  -1 -12  -3   -2.80    3.90
   1  12   3   -1.00    2.10
   1  12   3    1.20    1.90
  -2 -12  -3   40.10    8.60
   2  12   3   28.20    4.40
  -3 -12  -3   53.09    9.00
  -3 -12  -3   23.30    4.10
   3  12   3   34.00    5.10
  -4 -12  -3    2.40    4.50
   4  12   3    3.70    2.50
  -5 -12  -3    4.40    4.90
   5  12   3    3.30    2.60
   6  12   3    2.60    3.10
  -7 -12  -3   12.20    5.90
   7  12   3    3.30    2.90
  -8 -12  -3   12.00    6.00
   8  12   3    7.90    4.60
   1 -13  -3    4.50    6.50
   0 -13  -3    7.10    6.10
   0  13   3    2.70    2.40
  -1 -13  -3   42.10    9.50
   1  13   3   22.40    4.00
   1  13   3   29.00    3.80
  -2 -13  -3    1.70    6.20
   2  13   3   -3.20    2.30
   2  13   3    3.50    2.20
  -3 -13  -3   31.30    8.10
  -3 -13  -3   23.60    4.10
   3  13   3   20.50    4.00
  -4 -13  -3   38.00    8.50
  -5 -13  -3    7.20    6.40
   5  13   3    7.20    3.60
  -6 -13  -3    1.90    5.50
   6  13   3   -0.10    2.50
  -7 -13  -3    4.50    6.00
   7  13   3    2.60    3.30
  -2 -14  -3   11.00    7.40
   2  14   3    4.10    2.20
   2  14   3    7.30    3.30
  -3 -14  -3   13.70    7.40
   3  14   3    9.40    3.00
  -4 -14  -3    5.60    6.80
   4  14   3    1.50    2.60
  -5 -14  -3   33.10    9.00
   5  14   3   24.70    5.00
   6  12  -4    4.70    3.40
  -6 -12   4    5.80    6.60
   5  12  -4   19.40    5.80
  -5 -12   4   29.40    9.10
   4  12  -4    0.90    2.20
  -4 -12   4    2.50    3.50
  -4 -12   4    1.90    5.90
   3  12  -4    5.10    2.10
  -3 -12   4    0.80    6.30
  -3 -12   4    7.40    1.70
  -2 -12   4   16.30    7.90
  -1 -12   4   -1.70    7.10
   0 -12   4    4.40    7.40
   7  11  -4    1.80    3.50
  -7 -11   4   10.70    6.90
   6  11  -4    1.00    3.10
  -6 -11   4    1.50    5.80
   5  11  -4    0.50    2.70
  -5 -11   4    5.10    6.10
   4  11  -4   19.10    3.90
  -4 -11   4   10.40    3.00
  -4 -11   4   20.60    7.00
   3  11  -4    4.10    2.10
  -3 -11   4   -6.50    4.70
  -3 -11   4    2.20    1.70
  -2 -11   4    3.70    5.40
  -1 -11   4   12.90    7.00
   0 -11   4    9.30    6.90
   1 -11   4    2.40    6.20
   2 -11   4   -0.70    6.70
   8  10  -4    1.20    3.50
  -8 -10   4    2.20    6.60
   7  10  -4   26.90    6.00
  -7 -10   4   27.30    7.80
   6  10  -4    1.70    2.80
  -6 -10   4    8.70    6.00
   5  10  -4    4.40    2.80
  -5 -10   4   -0.50    5.30
   4  10  -4    5.60    2.90
  -4 -10   4    1.30    2.30
  -4 -10   4    6.30    5.50
   3  10  -4   32.00    4.40
  -3 -10   4   50.59    9.20
  -3 -10   4   33.30    3.90
   2  10  -4   49.99    4.20
  -2 -10   4   56.69   10.20
  -2 -10   4   54.69    3.90
  -1 -10   4    9.00    6.10
   0 -10   4    7.00    5.30
   1 -10   4   27.80    8.70
   2 -10   4   16.60    7.50
   3 -10   4   -0.60    5.30
   8   9  -4    0.50    3.40
  -8  -9   4   -0.70    5.50
   7   9  -4   -0.40    3.00
  -7  -9   4    5.10    5.10
   6   9  -4   20.90    5.00
  -6  -9   4   22.70    6.90
   5   9  -4   41.40    6.20
  -5  -9   4   77.19   10.50
   4   9  -4   16.10    3.50
  -4  -9   4    7.70    2.80
  -4  -9   4   18.40    6.20
   3   9  -4    0.80    1.90
  -3  -9   4    3.00    2.00
  -3  -9   4    1.00    4.20
   2   9  -4    2.90    1.70
  -2  -9   4    2.30    4.40
  -2  -9   4    0.30    1.20
  -1  -9   4   23.30    6.80
   0  -9   4    6.20    4.90
   1  -9   4    0.50    4.00
   2  -9   4    7.00    6.10
   3  -9   4   30.60    8.70
   4  -9   4   -4.10    4.80
   9   8  -4   -1.90    3.40
  -9  -8   4    4.40    6.90
   8   8  -4   18.10    5.50
  -8  -8   4   25.10    7.80
   7   8  -4   28.20    6.00
  -7  -8   4   38.70    8.30
   6   8  -4    1.80    2.90
  -6  -8   4   -6.60    4.00
   5   8  -4   30.40    5.10
  -5  -8   4   30.10    6.90
   4   8  -4   88.79    7.90
  -4  -8   4  110.89   10.80
  -4  -8   4   79.89    7.50
   3   8  -4   16.30    3.40
  -3  -8   4   11.10    2.70
  -3  -8   4   16.90    5.40
   2   8  -4    4.60    1.90
  -2  -8   4    6.10    1.80
  -2  -8   4   -0.50    3.50
  -1  -8   4   30.50    6.70
   0  -8   4   21.00    5.70
   1  -8   4   21.60    6.60
   2  -8   4    6.20    4.80
   3  -8   4    9.00    5.40
   4  -8   4   40.60    9.30
   5  -8   4    1.40    5.70
   9   7  -4    3.30    4.40
  -9  -7   4   20.70    7.80
   8   7  -4   -0.70    3.20
  -8  -7   4    8.50    6.80
   7   7  -4   16.30    4.50
  -7  -7   4   15.90    6.40
   6   7  -4   39.90    6.90
  -6  -7   4   73.89    9.60
   5   7  -4   27.40    5.00
  -5  -7   4   17.60    5.40
   4   7  -4    4.60    2.50
  -4  -7   4    0.30    3.60
  -4  -7   4    3.50    2.10
   3   7  -4   40.40    5.10
  -3  -7   4   35.20    6.60
  -3  -7   4   48.40    5.10
   2   7  -4   96.49    7.00
  -2  -7   4   87.49    6.60
  -2  -7   4  103.09    9.80
   1   7  -4   -0.80    1.00
  -1  -7   4    1.50    1.00
  -1  -7   4    1.20    3.10
   0  -7   4   23.60    5.80
   1  -7   4  183.48   15.60
   2  -7   4   -2.60    3.20
   3  -7   4    0.90    4.20
   4  -7   4    0.80    4.00
   5  -7   4    7.20    1.80
   5  -7   4    2.80    5.40
  -6   7  -4    2.10    1.70
   6  -7   4   10.40    7.10
   6  -7   4    3.50    2.10
   9   6  -4   -0.30    3.80
  -9  -6   4   -2.80    6.60
   8   6  -4    6.10    4.30
  -8  -6   4   22.40    7.30
   7   6  -4    9.40    4.00
  -7  -6   4    8.00    5.20
   6   6  -4   48.40    6.80
  -6  -6   4   45.10    7.80
   5   6  -4   42.10    5.90
  -5  -6   4   62.59    8.40
   4   6  -4   75.69    6.70
  -4  -6   4   57.09    8.10
  -4  -6   4   60.99    6.60
   3   6  -4   13.30    4.50
   3   6  -4    8.60    2.70
  -3  -6   4    8.60    2.40
  -3  -6   4    8.30    3.90
   2   6  -4    8.50    2.40
   2   6  -4   18.10    4.50
  -2  -6   4   12.20    4.30
  -2  -6   4   10.60    2.20
   1   6  -4  164.28   10.00
   1   6  -4  163.98   12.40
  -1  -6   4  152.18   12.70
   0  -6   4   50.19    7.30
   1  -6   4   34.90    6.80
   2  -6   4   46.20    7.90
   3  -6   4   15.70    5.60
   4  -6   4   -0.40    1.30
   4  -6   4    1.00    3.40
  -5   6  -4    0.30    1.20
   5  -6   4    0.20    1.70
   5  -6   4   -1.20    4.80
  -6   6  -4   -0.80    1.70
   6  -6   4   -4.00    4.70
   6  -6   4    2.30    2.40
   9   5  -4   -3.80    2.90
  -9  -5   4   -4.00    6.00
   8   5  -4    2.30    3.50
  -8  -5   4    0.80    5.60
   7   5  -4  116.79   10.70
  -7  -5   4   97.09   11.90
   6   5  -4   -1.30    2.40
  -6  -5   4    1.30    4.40
   5   5  -4    9.00    3.30
  -5  -5   4    2.90    3.90
   4   5  -4   64.29    7.60
   4   5  -4   69.09    7.30
  -4  -5   4   59.69    7.50
  -4  -5   4   65.79    6.10
   3   5  -4   24.90    5.00
   3   5  -4   21.20    3.70
  -3  -5   4   23.90    3.60
  -3  -5   4   24.20    5.00
   2   5  -4   80.19    6.20
   2   5  -4   79.89    7.70
  -2  -5   4   77.69    5.90
  -2  -5   4   76.59    8.50
   1   5  -4    0.60    1.20
   1   5  -4   -0.70    2.30
  -1  -5   4   -0.80    1.10
  -1  -5   4    0.10    2.50
   0   5  -4  132.69   10.90
   0  -5   4  144.59    8.10
   0  -5   4  137.99    8.20
   0  -5   4  149.09   11.60
  -1   5  -4   43.90    6.60
   1  -5   4   41.30    6.60
   2  -5   4    4.10    3.50
  -3   5  -4    5.60    1.20
   3  -5   4    5.40    1.40
   3  -5   4    3.70    3.80
  -4   5  -4   12.20    2.10
   4  -5   4   11.90    4.90
   4  -5   4   11.60    2.40
  -5   5  -4   14.60    2.80
   5  -5   4   18.80    3.40
   5  -5   4   18.60    6.40
   6  -5   4    1.30    4.60
   6  -5   4    3.40    2.70
   7  -5   4   44.20    6.20
   7  -5   4   34.90    9.50
  10   4  -4    7.80    5.20
 -10  -4   4    8.00    7.80
   9   4  -4   11.40    5.00
  -9  -4   4   10.60    6.80
   8   4  -4   -1.40    3.60
  -8  -4   4    2.90    5.60
   7   4  -4    6.50    4.10
  -7  -4   4   -0.10    4.80
   6   4  -4   46.80    7.20
  -6  -4   4   54.19    8.00
   5   4  -4  135.99   11.00
  -5  -4   4  147.49   12.00
   4   4  -4   21.40    4.60
   4   4  -4   24.20    4.10
  -4  -4   4   16.80    3.90
  -4  -4   4   27.40    5.10
   3   4  -4   71.79    6.30
  -3  -4   4   68.89    6.00
  -3  -4   4   72.29    7.40
   2   4  -4   56.49    5.00
   2   4  -4   62.29    6.70
  -2  -4   4   52.09    4.70
  -2  -4   4   48.50    6.20
   1   4  -4    6.50    3.20
  -1  -4   4    4.40    1.60
  -1  -4   4    8.40    3.40
   0   4  -4    5.60    2.90
   0  -4   4    5.60    3.00
   0  -4   4    7.70    1.30
   0  -4   4    9.90    1.60
   1  -4   4   43.70    2.80
   1  -4   4   38.60    6.10
   1  -4   4   38.80    2.90
  -2   4  -4  130.09    7.70
  -2   4  -4  108.79   10.40
   2  -4   4  135.49   11.10
   2  -4   4  131.99    7.80
  -3   4  -4    1.90    1.10
   3  -4   4    2.40    3.00
  -4   4  -4    1.20    1.30
   4  -4   4    2.70    1.90
   4  -4   4    4.70    3.90
  -5   4  -4   22.10    3.50
   5  -4   4   23.70    4.00
   5  -4   4   33.80    7.00
  -6   4  -4   -0.60    1.80
   6  -4   4    0.90    4.30
   6  -4   4    3.70    2.80
   7  -4   4   14.00    6.90
   7  -4   4    1.60    2.80
   8  -4   4   29.90    9.70
   8  -4   4   24.20    5.40
  10   3  -4    0.20    5.00
 -10  -3   4   19.40    8.60
  -9  -3   4   39.50    9.10
   8   3  -4    4.50    4.00
  -8  -3   4    4.50    5.70
   7   3  -4   -1.80    2.50
  -7  -3   4   12.60    5.80
   6   3  -4    0.40    2.30
  -6  -3   4    8.30    4.30
   5   3  -4   38.20    5.70
   5   3  -4   47.10    9.00
  -5  -3   4   34.90    5.60
  -5  -3   4   49.50    6.70
   4   3  -4  104.39    8.50
   4   3  -4  102.29    8.70
  -4  -3   4  100.69    9.30
  -4  -3   4  116.39   13.00
   3   3  -4  231.48   15.40
   3   3  -4  235.08   15.00
  -3  -3   4  231.58   15.70
  -3  -3   4  221.58   14.60
   2   3  -4  242.48   15.20
   2   3  -4  243.38   15.80
  -2  -3   4  243.78   16.00
  -2  -3   4  242.58   14.90
   1   3  -4 1067.39   60.49
   1   3  -4 1073.99   59.59
  -1  -3   4 1070.89   60.69
  -1  -3   4 1051.89   59.39
   0   3  -4  177.28   12.50
   0  -3   4  181.18   10.80
   0  -3   4  181.88   10.60
   0  -3   4  185.18   12.70
  -1   3  -4    4.40    2.90
   1  -3   4    8.80    1.70
   1  -3   4    8.80    1.40
   1  -3   4   10.90    3.10
  -2   3  -4   19.90    4.50
  -2   3  -4   26.70    2.60
   2  -3   4   21.50    4.70
   2  -3   4   25.60    2.70
  -3   3  -4   19.40    2.50
  -3   3  -4   22.60    4.90
   3  -3   4   19.10    2.70
   3  -3   4   14.20    4.40
  -4   3  -4  113.19    7.80
   4  -3   4  112.29   10.70
   4  -3   4  111.39    8.10
  -5   3  -4   -0.70    1.30
   5  -3   4    0.70    3.90
   5  -3   4    1.30    2.10
  -6   3  -4   41.30    5.50
   6  -3   4   46.00    8.30
   6  -3   4   47.40    6.00
   7  -3   4   42.40    7.50
   7  -3   4   47.80   10.20
   8  -3   4    3.10    6.10
   8  -3   4    3.40    3.70
   9   2  -4    7.40    4.80
  -9  -2   4   -2.00    5.80
   8   2  -4   -1.40    3.20
  -8  -2   4   -2.50    4.90
   7   2  -4    0.50    3.20
  -7  -2   4    4.10    5.00
   6   2  -4   29.00    5.40
  -6  -2   4   26.70    5.60
   5   2  -4   39.60    5.70
   5   2  -4   34.10    5.30
  -5  -2   4   34.90    5.60
  -5  -2   4   39.60    5.70
   4   2  -4    2.10    2.50
   4   2  -4    8.00    3.10
  -4  -2   4    9.40    3.70
   3   2  -4  493.35   28.90
   3   2  -4  500.65   29.00
  -3  -2   4  461.55   28.50
  -3  -2   4  489.65   29.10
   2   2  -4   98.39    7.80
   2   2  -4   96.29    7.30
  -2  -2   4   98.59    7.20
  -2  -2   4  102.59    8.00
   1   2  -4    9.40    3.10
   1   2  -4   15.30    2.70
  -1  -2   4   16.00    3.30
  -1  -2   4   17.90    2.70
   0   2  -4   65.59    5.90
   0  -2   4   58.89    4.90
   0  -2   4   64.19    4.30
   0  -2   4   59.99    5.90
  -1   2  -4    2.40    2.40
  -1   2  -4    2.30    1.10
   1  -2   4    4.00    2.50
   1  -2   4    2.40    1.00
  -2   2  -4   90.49    7.80
  -2   2  -4   91.79    6.00
   2  -2   4   89.29    6.10
   2  -2   4   92.79    8.00
  -3   2  -4   23.30    4.50
  -3   2  -4   25.10    3.00
   3  -2   4   14.60    4.20
   3  -2   4   25.90    3.30
  -4   2  -4  103.09    7.20
  -4   2  -4  101.59    9.50
   4  -2   4  102.19    7.50
   4  -2   4   79.59    9.90
  -5   2  -4   59.29    6.30
   5  -2   4   57.79    6.50
   5  -2   4   68.19    9.40
  -6   2  -4    9.30    3.10
   6  -2   4    5.00    3.00
   6  -2   4    9.30    4.80
   7  -2   4   17.10    6.50
   7  -2   4   25.80    6.10
   8  -2   4    5.00    5.40
   8  -2   4    3.10    3.50
   9  -2   4   -2.80    6.40
   9   1  -4   -4.10    3.90
  -9  -1   4    3.30    5.70
   8   1  -4    1.60    3.80
  -8  -1   4    0.10    4.70
   7   1  -4    6.10    4.10
  -7  -1   4    4.70    5.00
   6   1  -4    5.90    3.40
  -6  -1   4    6.40    3.80
   5   1  -4   91.99    7.90
   5   1  -4   66.39    8.00
  -5  -1   4   79.89    7.50
  -5  -1   4   89.69    8.50
   4   1  -4   75.99    6.80
  -4  -1   4   59.39    6.80
   3   1  -4   65.59    6.00
   3   1  -4   49.30    6.10
  -3  -1   4   66.39    5.70
  -3  -1   4   73.79    6.70
   2   1  -4  108.49    8.00
   2   1  -4  112.89    8.20
  -2  -1   4  106.69    7.80
  -2  -1   4  112.09    8.30
   1   1  -4  254.67   15.30
   1   1  -4  255.17   15.40
  -1  -1   4  239.68   15.50
  -1  -1   4  252.27   15.10
   0   1  -4   21.00    3.30
   0  -1   4   20.70    2.80
   0  -1   4   17.20    2.10
   0  -1   4   19.20    3.40
  -1   1  -4   33.60    3.50
  -1   1  -4   29.20    4.00
   1  -1   4   28.90    2.90
   1  -1   4   29.50    4.20
  -2   1  -4  233.98   13.70
  -2   1  -4  237.18   15.10
   2  -1   4  239.08   15.10
   2  -1   4  219.88   13.80
  -3   1  -4   15.60    2.60
  -3   1  -4   18.20    4.30
   3  -1   4   10.50    3.50
   3  -1   4   18.30    3.00
  -4   1  -4  167.38   11.00
   4  -1   4  165.68   11.20
   4  -1   4  171.08   12.90
  -5   1  -4   47.20    5.60
  -5   1  -4   44.50    7.20
   5  -1   4   53.19    6.10
   5  -1   4   45.20    7.20
  -6   1  -4   67.69    7.40
   6  -1   4   66.59    7.60
   6  -1   4   75.59   10.50
   7  -1   4   -1.10    3.80
   7  -1   4    3.50    3.10
   8  -1   4    1.30    2.90
   8  -1   4    5.20    5.70
   9  -1   4    2.20    4.20
   9  -1   4    3.30    6.50
   9   0  -4   -0.30    4.10
  -9   0   4   -1.00    5.40
   8   0  -4    2.50    4.10
  -8   0   4    5.00    5.50
   7   0  -4    4.40    3.70
  -7   0   4    6.00    4.60
   6   0  -4    0.90    2.90
  -6   0   4    9.10    4.00
   5   0  -4    1.30    2.20
  -5   0   4   -0.40    1.90
  -5   0   4   -1.00    2.70
   4   0  -4   65.29    7.10
  -4   0   4   67.99    8.20
  -4   0   4   58.69    8.20
   3   0  -4  343.87   20.50
   3   0  -4  317.97   20.70
  -3   0   4  335.77   20.60
  -3   0   4  345.37   20.60
   2   0  -4    7.80    2.30
   2   0  -4    5.60    2.10
  -2   0   4    7.10    2.60
  -2   0   4    6.50    2.30
   1   0  -4  155.58   10.10
   1   0  -4  143.19    9.80
  -1   0   4  151.88   10.00
  -1   0   4  159.88   10.00
   0   0  -4   44.90    4.60
   0   0   4   44.30    4.50
   0   0   4   36.30    4.00
  -1   0  -4    1.80    1.20
  -1   0  -4    3.00    1.90
   1   0   4    1.30    1.70
  -2   0  -4   19.80    2.50
  -2   0  -4   16.20    3.10
   2   0   4   11.80    2.80
   2   0   4   12.90    2.30
  -3   0  -4    2.40    1.50
  -3   0  -4    3.20    2.40
   3   0   4    0.20    1.60
   3   0   4    1.60    2.00
  -4   0  -4  284.17   17.80
  -4   0  -4  286.37   19.00
   4   0   4  295.37   18.00
   4   0   4  301.07   19.20
  -5   0  -4   83.49    9.40
  -5   0  -4   93.49   10.10
   5   0   4   78.19    9.60
   5   0   4   90.09    7.50
  -6   0  -4    1.80    2.40
   6   0   4    1.20    3.60
   6   0   4    0.30    2.30
   7   0   4    7.10    4.90
   7   0   4    5.60    3.30
   8   0   4   15.50    4.70
   8   0   4   18.60    6.90
  -9   0  -4    6.30    5.80
   9   0   4    0.90    3.60
   9  -1  -4    6.10    4.90
  -9   1   4    2.40   10.10
   8  -1  -4   11.80    5.30
  -8   1   4    3.00    5.00
   7  -1  -4    4.80    3.70
  -7   1   4    0.70    4.00
   6  -1  -4   78.79    9.20
  -6   1   4   69.69    8.60
   5  -1  -4   -1.80    2.20
  -5   1   4    1.50    2.90
  -5   1   4    4.00    3.00
   4  -1  -4   10.70    2.80
  -4   1   4   11.70    3.30
  -4   1   4   11.30    3.90
  -4   1   4   13.70    3.50
   3  -1  -4    8.80    2.80
  -3   1   4    4.80    2.10
  -3   1   4    7.90    3.10
  -3   1   4    8.20    2.90
   2  -1  -4  136.19    9.40
   2  -1  -4  128.89    9.00
  -2   1   4  129.39    9.10
  -2   1   4  129.39    9.00
   1  -1  -4   60.19    4.80
  -1   1   4   57.59    4.90
  -1   1   4   58.69    5.10
   0  -1  -4  131.69    8.10
   0   1   4  129.79    8.60
   0   1   4  119.79    8.10
   0   1   4  132.49    8.10
  -1  -1  -4   11.50    2.00
  -1  -1  -4    8.50    2.00
   1   1   4    8.90    1.80
   1   1   4   10.50    2.00
  -2  -1  -4   65.69    5.10
  -2  -1  -4   67.49    4.90
   2   1   4   63.19    4.90
   2   1   4   59.09    5.10
  -3  -1  -4   16.90    3.20
  -3  -1  -4   14.70    2.60
   3   1   4   15.60    3.20
   3   1   4   12.10    2.50
  -4  -1  -4    0.70    2.00
  -4  -1  -4    0.20    1.40
   4   1   4    1.00    2.10
   4   1   4    1.40    1.90
  -5  -1  -4    0.80    2.50
  -5  -1  -4    1.60    1.80
   5   1   4    3.30    2.50
   5   1   4    7.50    3.20
  -6  -1  -4   24.50    5.70
   6   1   4   30.10    6.00
   6   1   4   28.80    5.10
   7   1   4    9.90    3.90
   7   1   4    3.90    4.30
  -8  -1  -4    8.10    5.20
   8   1   4   13.10    4.30
  -9  -1  -4    3.50    5.60
   9   1   4   11.60    5.10
   9  -2  -4    1.90    4.90
  -9   2   4    1.20    5.90
   8  -2  -4    3.70    4.10
  -8   2   4   -0.10    5.20
   7  -2  -4    3.10    3.60
  -7   2   4    6.70    4.40
   6  -2  -4   27.50    5.50
  -6   2   4   30.00    6.10
   5  -2  -4  108.79   10.00
  -5   2   4  132.69   10.60
   4  -2  -4   89.49    7.90
  -4   2   4   83.79    7.40
  -4   2   4   94.19    8.30
  -4   2   4   84.59    8.70
   3  -2  -4   27.50    4.20
  -3   2   4   22.30    4.70
  -3   2   4   29.40    4.40
  -3   2   4   31.40    4.50
   2  -2  -4   11.00    2.80
  -2   2   4   11.40    2.70
  -2   2   4   11.90    2.60
  -2   2   4   15.00    3.30
   1  -2  -4   56.09    5.30
  -1   2   4   62.59    5.40
  -1   2   4   58.59    4.90
  -1   2   4   64.39    5.30
   0  -2  -4   20.00    2.40
   0   2   4   16.30    2.40
   0   2   4   20.60    3.40
   0   2   4   19.60    2.30
  -1  -2  -4   52.89    3.30
  -1  -2  -4   48.30    4.00
   1   2   4   49.20    4.10
   1   2   4   46.60    3.30
  -2  -2  -4  147.29    9.70
  -2  -2  -4  150.68    9.20
   2   2   4  156.78    9.90
   2   2   4  155.68    9.20
  -3  -2  -4  227.08   13.80
  -3  -2  -4  231.88   14.00
   3   2   4  209.48   14.00
   3   2   4  226.28   13.80
  -4  -2  -4   49.20    5.70
  -4  -2  -4   54.99    5.60
   4   2   4   59.29    6.20
   4   2   4   58.49    6.10
  -5  -2  -4   21.10    3.80
  -5  -2  -4   23.20    4.40
   5   2   4   17.80    4.10
   5   2   4   27.60    4.90
  -6  -2  -4    2.20    3.20
   6   2   4    3.60    2.90
  -7  -2  -4   11.30    4.40
   7   2   4    3.60    3.10
  -8  -2  -4   15.30    5.50
   8   2   4   16.80    4.90
  -9  -2  -4   -2.70    4.80
   9   2   4    2.60    4.10
 -10  -2  -4   -1.20    6.20
  10   2   4   -1.00    3.40
   8  -3  -4    1.90    4.00
  -8   3   4    0.90    5.40
   7  -3  -4    3.50    3.90
  -7   3   4    0.30    4.10
   6  -3  -4   53.29    7.80
  -6   3   4   73.29    9.50
   5  -3  -4    2.30    2.70
  -5   3   4    4.00    3.50
   4  -3  -4   80.09    8.40
  -4   3   4   81.19    7.60
  -4   3   4   57.89    8.20
  -4   3   4   76.59    6.80
   3  -3  -4   29.70    4.50
  -3   3   4   33.10    4.60
  -3   3   4   45.20    6.20
   2  -3  -4  112.09    8.90
   2  -3  -4  111.09    8.30
  -2   3   4  104.39    8.60
  -2   3   4  111.49    8.10
   1  -3  -4   46.60    5.20
   1  -3  -4   54.29    5.20
  -1   3   4   58.79    5.80
  -1   3   4   52.19    5.10
   0   3   4    4.50    1.90
   0   3   4    4.30    1.70
   0   3   4    3.70    1.60
  -1  -3  -4    1.00    1.30
   1   3   4    1.00    1.30
  -2  -3  -4    1.70    1.40
   2   3   4    7.80    2.10
  -3  -3  -4   10.50    1.80
  -3  -3  -4   14.00    2.60
  -3  -3  -4    9.80    1.90
   3   3   4    8.70    2.50
  -4  -3  -4   46.30    4.40
  -4  -3  -4   41.70    4.80
  -4  -3  -4   47.80    5.10
   4   3   4   36.30    4.80
  -5  -3  -4  102.29    8.30
  -5  -3  -4  115.09    8.30
  -5  -3  -4  106.79    8.80
   5   3   4  105.39    8.70
  -6  -3  -4    7.80    3.10
  -6  -3  -4    7.00    3.60
   6   3   4    8.50    3.20
  -7  -3  -4    6.70    3.80
  -7  -3  -4    4.30    4.50
   7   3   4   -0.60    2.40
  -8  -3  -4   30.60    6.20
   8   3   4   21.10    5.30
  -9  -3  -4    1.60    5.30
   9   3   4    4.40    4.20
 -10  -3  -4   -2.10    5.80
  10   3   4   -5.50    3.00
   8  -4  -4   -0.30    3.90
   7  -4  -4    1.20    3.50
  -7   4   4   -0.30    4.20
   6  -4  -4    5.40    3.70
  -6   4   4    4.00    3.90
   5  -4  -4   40.70    6.50
   4  -4  -4  141.19   12.50
   4  -4  -4  152.98   11.40
  -4   4   4  141.79   10.70
   3  -4  -4    1.30    2.10
   3  -4  -4    4.70    3.50
  -3   4   4    2.80    2.60
  -3   4   4    1.80    1.90
   2  -4  -4  132.49   10.50
   2  -4  -4  139.89    9.90
  -2   4   4  134.69   10.40
  -2   4   4  134.69    9.50
   1  -4  -4   53.29    5.70
  -1   4   4   44.40    5.50
  -1   4   4   38.10    4.80
  -1   4   4   44.90    4.50
   0   4   4    8.30    1.90
   0   4   4    5.20    2.20
   0   4   4    7.50    2.20
  -1  -4  -4   24.00    3.10
  -1  -4  -4   22.40    2.50
   1   4   4   16.30    2.20
   1   4   4   14.00    2.50
  -2  -4  -4  104.29    7.40
   2   4   4  109.59    7.60
  -3  -4  -4    6.70    2.30
  -3  -4  -4   11.50    2.00
  -3  -4  -4   10.30    1.90
   3   4   4    8.40    2.20
  -4  -4  -4   86.59    7.10
  -4  -4  -4   91.79    6.90
  -4  -4  -4   92.39    6.70
   4   4   4   95.29    7.50
  -5  -4  -4   85.49    7.80
  -5  -4  -4  103.29    7.70
  -5  -4  -4   98.99    8.00
   5   4   4  112.49    8.60
  -6  -4  -4   92.89    8.00
  -6  -4  -4   91.79    8.60
   6   4   4  101.89    8.90
  -7  -4  -4   66.59    8.80
  -7  -4  -4   99.49    8.60
   7   4   4   69.29    8.80
  -8  -4  -4   48.40   11.70
   8   4   4   19.90    4.90
  -9  -4  -4   30.70    7.50
   9   4   4   12.10    5.20
 -10  -4  -4   -5.70    6.00
  10   4   4    2.30    4.70
   8  -5  -4   14.40    5.90
  -8   5   4    5.50    6.40
   7  -5  -4    4.70    4.50
  -7   5   4   10.30    5.90
   6  -5  -4   18.70    5.20
   5  -5  -4    0.50    3.00
   5  -5  -4   -2.20    4.10
   4  -5  -4   20.10    4.40
   4  -5  -4   24.00    6.40
  -4   5   4   20.30    4.10
   3  -5  -4   76.49    7.20
   3  -5  -4   79.39    9.20
  -3   5   4   68.89    6.40
  -3   5   4   75.39    9.20
   2  -5  -4   69.69    7.90
   2  -5  -4   67.69    7.00
  -2   5   4   68.09    7.90
  -2   5   4   64.39    5.80
   1  -5  -4  148.59   11.20
  -1   5   4  159.38   10.20
  -1   5   4  163.88   11.40
  -1   5   4  161.48   10.70
   0  -5  -4  113.89    8.10
   0   5   4  107.49    8.10
   0   5   4  111.89    7.50
   0   5   4  106.09    7.90
  -1  -5  -4  173.88   10.80
  -1  -5  -4  177.98   10.90
   1   5   4  161.88   10.90
   1   5   4  172.58   10.70
  -2  -5  -4   35.90    3.30
  -2  -5  -4   36.50    4.40
   2   5   4   39.10    3.40
   2   5   4   34.50    4.20
  -3  -5  -4   24.90    3.10
  -3  -5  -4   27.90    3.90
   3   5   4   30.00    2.90
   3   5   4   20.80    3.50
  -4  -5  -4   44.50    6.10
   4   5   4   42.10    5.20
  -5  -5  -4   62.89    7.10
  -5  -5  -4   61.89    5.90
  -5  -5  -4   67.89    6.00
   5   5   4   65.79    7.20
  -6  -5  -4   11.90    3.70
  -6  -5  -4   14.70    3.70
  -7  -5  -4    5.20    3.90
  -7  -5  -4    1.50    3.30
   7   5   4    3.90    3.40
  -8  -5  -4   66.49    8.40
   8   5   4   36.50    6.70
  -9  -5  -4   18.90    6.80
   9   5   4   21.50    6.20
 -10  -5  -4    9.90    7.60
  10   5   4    0.60    5.30
   7  -6  -4   11.80    4.90
  -7   6   4    6.90    6.80
   6  -6  -4   25.40    5.70
   6  -6  -4   39.20    9.70
   5  -6  -4    3.30    4.80
   5  -6  -4    7.10    3.50
   4  -6  -4    3.80    4.20
   4  -6  -4    2.60    2.90
  -4   6   4    1.90    2.20
   3  -6  -4   11.30    4.70
   3  -6  -4   18.20    4.00
  -3   6   4    6.90    2.50
   2  -6  -4   87.89    8.30
  -2   6   4   67.59    8.50
  -2   6   4   74.59    6.40
   1  -6  -4   81.19    7.60
  -1   6   4   77.19    6.00
  -1   6   4   81.29    6.60
  -1   6   4   77.49    7.30
   0  -6  -4   65.29    6.60
   0   6   4   72.39    6.50
   0   6   4   75.19    5.60
   0   6   4   82.69    6.30
  -1  -6  -4  389.46   22.90
  -1  -6  -4  370.16   22.40
   1   6   4  378.96   22.60
   1   6   4  394.96   22.70
  -2  -6  -4   45.60    4.20
  -2  -6  -4   48.40    4.40
   2   6   4   42.60    4.30
   2   6   4   45.80    5.00
  -3  -6  -4    8.50    2.20
  -3  -6  -4    7.20    2.10
   3   6   4   15.40    3.20
  -4  -6  -4    4.40    2.20
  -4  -6  -4    3.50    1.90
   4   6   4    3.90    2.30
   4   6   4    6.20    2.00
  -5  -6  -4   45.10    5.10
   5   6   4   33.90    5.20
  -6  -6  -4   52.59    6.00
  -6  -6  -4   51.89    6.60
   6   6   4   41.10    6.60
  -7  -6  -4    7.30    3.90
  -7  -6  -4    8.00    4.00
   7   6   4   10.20    3.80
  -8  -6  -4    2.80    4.70
   8   6   4    7.50    3.80
  -9  -6  -4   35.20    7.90
   9   6   4   45.40    8.00
 -10  -6  -4    9.60    7.30
  10   6   4    5.20    4.60
   6  -7  -4   -2.70    5.50
   6  -7  -4   -1.70    3.30
   5  -7  -4   24.00    5.50
   5  -7  -4   31.00    8.30
   4  -7  -4  112.09   13.70
   4  -7  -4  103.29    9.10
  -4   7   4   80.69    7.90
   3  -7  -4   -0.80    3.60
  -3   7   4    1.90    2.10
   2  -7  -4   -0.20    2.90
  -2   7   4    2.70    2.90
  -2   7   4    1.10    1.50
  -2   7   4   -0.30    1.60
   1  -7  -4   56.99    7.50
  -1   7   4   52.69    4.80
  -1   7   4   68.59    6.80
   0  -7  -4   37.10    5.60
   0   7   4   30.00    4.40
   0   7   4   30.20    3.90
   0   7   4   32.90    5.10
  -1  -7  -4   -1.20    1.70
  -1  -7  -4    1.60    1.30
   1   7   4    1.40    1.40
   1   7   4    1.70    1.80
  -2  -7  -4   17.90    3.00
  -2  -7  -4   22.90    3.80
   2   7   4   28.20    3.80
   2   7   4   15.00    3.00
  -3  -7  -4  127.69    9.50
  -3  -7  -4  141.29    9.40
   3   7   4  140.09    9.90
   3   7   4  140.29    9.30
  -4  -7  -4  221.88   14.10
  -4  -7  -4  221.38   14.80
   4   7   4  235.28   15.30
   4   7   4  228.18   13.90
  -5  -7  -4    1.80    2.40
   5   7   4    2.80    2.10
   5   7   4    3.00    2.50
  -6  -7  -4   10.90    4.10
   6   7   4   23.10    5.00
  -7  -7  -4   11.50    4.10
  -7  -7  -4   15.60    4.70
   7   7   4    6.00    3.70
  -8  -7  -4    4.00    4.50
   8   7   4    0.80    3.60
  -9  -7  -4    4.80    5.80
   9   7   4    4.70    4.20
 -10  -7  -4   -2.10    6.30
  10   7   4   10.00    5.20
   6  -8  -4   13.40    4.90
   5  -8  -4    2.90    3.50
   5  -8  -4   14.30    7.00
   4  -8  -4   29.30    8.10
  -4   8   4   22.90    4.40
   3  -8  -4   20.80    6.50
  -3   8   4   10.30    3.80
  -3   8   4   15.80    3.20
   2  -8  -4    9.40    5.00
  -2   8   4    8.50    2.90
  -2   8   4   15.70    3.00
   1  -8  -4    9.00    4.30
  -1   8   4    8.50    2.80
  -1   8   4   11.70    3.90
  -1   8   4   13.50    2.70
   0  -8  -4   49.40    7.10
   0   8   4   56.29    5.80
   0   8   4   53.89    6.30
   0   8   4   59.09    7.70
  -1  -8  -4  108.59    7.50
  -1  -8  -4  110.39    9.20
   1   8   4   97.59    8.30
   1   8   4  104.99    7.70
  -2  -8  -4   66.09    5.70
  -2  -8  -4   77.49    6.90
   2   8   4   88.49    6.40
   2   8   4   62.49    6.00
  -3  -8  -4   12.20    3.00
  -3  -8  -4   10.50    2.70
   3   8   4   15.80    3.30
   3   8   4   10.90    2.80
  -4  -8  -4   46.00    5.70
  -4  -8  -4   45.40    5.40
   4   8   4   44.20    5.80
   4   8   4   50.99    5.50
  -5  -8  -4  111.39    8.70
   5   8   4  106.59    8.10
   5   8   4  104.09    9.20
  -6  -8  -4   -0.50    2.80
   6   8   4    3.00    2.60
   6   8   4    2.50    2.60
  -7  -8  -4   24.60    5.40
  -7  -8  -4   44.20    6.00
   7   8   4   30.50    5.80
  -8  -8  -4   58.99    7.90
   8   8   4   53.09    8.00
  -9  -8  -4   11.20    6.20
   9   8   4    1.20    3.80
 -10  -8  -4  -10.80    5.50
  10   8   4   -2.20    3.20
   5  -9  -4   11.20    7.50
  -5   9   4   12.30    3.60
   4  -9  -4    1.70    6.10
  -4   9   4    7.60    3.00
  -4   9   4    7.10    2.90
   3  -9  -4   -3.80    3.70
  -3   9   4    0.60    2.00
  -3   9   4    3.80    3.10
   2  -9  -4   33.60    7.30
  -2   9   4   35.70    4.50
  -2   9   4   31.60    4.80
   1  -9  -4    6.40    4.30
  -1   9   4    4.50    1.90
  -1   9   4    3.60    2.30
   0  -9  -4   12.60    4.30
   0   9   4    8.60    3.80
   0   9   4    5.60    2.10
   0   9   4   14.40    3.20
  -1  -9  -4   -1.00    2.60
   1   9   4    3.80    1.90
   1   9   4    1.80    2.50
  -2  -9  -4   84.79    9.10
  -2  -9  -4   76.09    6.30
   2   9   4   80.19    7.00
   2   9   4   76.09    6.60
  -3  -9  -4   -1.20    2.50
  -3  -9  -4   -0.30    1.50
   3   9   4    2.30    2.00
   3   9   4    5.20    2.60
  -4  -9  -4   -1.10    1.70
  -4  -9  -4    5.10    3.00
   4   9   4   -0.20    3.00
   4   9   4    6.80    2.90
  -5  -9  -4   41.50    5.50
   5   9   4   24.20    4.40
   5   9   4   31.00    5.40
  -6  -9  -4   24.00    4.90
   6   9   4   22.50    4.30
   6   9   4   27.60    5.20
  -7  -9  -4   11.90    4.30
   7   9   4   22.40    4.00
   7   9   4   17.00    4.90
  -8  -9  -4   34.40    6.40
   8   9   4   30.80    6.80
  -9  -9  -4   15.20    6.00
   9   9   4   12.20    5.10
   4 -10  -4   42.60   10.20
  -4  10   4   32.70    4.60
  -4  10   4   26.80    4.70
   3 -10  -4   52.39    9.60
  -3  10   4   26.20    4.60
  -3  10   4   42.80    5.00
   2 -10  -4    2.00    4.20
  -2  10   4    3.50    1.90
  -2  10   4    4.50    2.50
   1 -10  -4   13.00    5.40
  -1  10   4   17.10    3.70
  -1  10   4   17.60    3.30
   0 -10  -4   14.00    5.10
   0  10   4    7.90    2.90
   0  10   4   18.00    3.20
  -1 -10  -4   98.79   10.00
   1  10   4  100.89    7.60
   1  10   4   91.49    8.00
   1  10   4   96.29    9.30
  -2 -10  -4    7.00    4.00
   2  10   4    8.60    2.90
   2  10   4   11.50    3.50
  -3 -10  -4   56.59    6.50
  -3 -10  -4   66.89    8.60
   3  10   4   68.09    7.50
   3  10   4   75.19    7.80
  -4 -10  -4   12.90    4.50
   4  10   4   16.70    4.20
   4  10   4   13.30    4.20
  -5 -10  -4   29.50    5.50
   5  10   4   33.60    5.20
   5  10   4   19.70    4.70
  -6 -10  -4   15.60    4.90
   6  10   4   15.00    4.40
  -7 -10  -4   26.10    5.70
   7  10   4   14.70    4.70
   7  10   4   13.60    4.10
  -8 -10  -4   32.70    6.80
   8  10   4   27.10    6.50
  -9 -10  -4    1.40    4.90
   9  10   4    1.30    3.80
   3 -11  -4    1.90    5.20
  -3  11   4   10.30    2.90
  -3  11   4    3.80    2.10
   2 -11  -4    8.50    6.10
  -2  11   4    3.80    2.40
  -2  11   4    6.60    2.40
   1 -11  -4   16.00    6.50
  -1  11   4    6.40    2.60
  -1  11   4    4.80    2.00
   0 -11  -4   41.50    8.50
   0  11   4   43.30    5.20
   0  11   4   49.90    6.20
  -1 -11  -4    3.00    4.40
   1  11   4    2.70    1.90
   1  11   4    1.40    2.50
  -2 -11  -4   30.50    7.20
  -2 -11  -4   16.10    3.30
   2  11   4   16.90    5.00
   2  11   4   17.50    3.50
  -3 -11  -4    0.10    3.60
  -3 -11  -4    0.10    1.60
   3  11   4    5.70    3.00
   3  11   4    2.60    2.30
  -4 -11  -4   19.30    5.30
   4  11   4   20.60    4.80
   4  11   4   19.80    4.40
  -5 -11  -4   97.29    9.50
   5  11   4   74.79    8.60
   5  11   4   99.19    8.70
  -6 -11  -4    7.30    4.30
   6  11   4    1.10    3.50
   6  11   4   11.70    4.00
  -7 -11  -4    6.30    4.80
   7  11   4    5.40    3.90
   7  11   4    0.30    4.30
  -8 -11  -4    6.50    5.60
   8  11   4   -1.10    3.20
  -9 -11  -4   34.80    7.20
   9  11   4   26.20    7.20
   2 -12  -4    6.80    6.40
  -2  12   4   -0.80    1.60
  -2  12   4    3.80    2.10
   1 -12  -4   18.70    7.30
  -1  12   4   38.40    4.30
  -1  12   4   17.50    3.70
   0 -12  -4   19.30    6.90
   0  12   4   14.10    3.50
   0  12   4   13.40    3.00
  -1 -12  -4   15.00    6.30
   1  12   4    7.50    3.20
   1  12   4    2.10    2.00
  -2 -12  -4   15.30    7.00
   2  12   4   12.30    3.40
  -3 -12  -4   20.60    5.90
   3  12   4   16.30    3.80
  -4 -12  -4   -1.00    4.20
   4  12   4    1.10    2.30
  -5 -12  -4    4.50    4.30
   5  12   4   -3.30    2.00
   5  12   4   -5.80    4.40
  -6 -12  -4   11.60    5.10
   6  12   4    9.70    4.10
  -7 -12  -4    8.30    5.10
   7  12   4    3.70    3.50
  -8 -12  -4    5.80    5.40
   8  12   4   -0.60    3.40
   1 -13  -4    0.40    5.40
  -1  13   4   -1.00    1.50
  -1  13   4    0.80    1.80
   0 -13  -4   34.20    8.80
   0  13   4   23.50    4.10
   0  13   4   21.00    3.50
  -1 -13  -4    8.70    5.80
   1  13   4    6.00    2.60
   1  13   4    8.50    3.40
  -2 -13  -4   -4.10    4.60
   2  13   4    2.00    2.10
   2  13   4   -2.30    2.60
  -3 -13  -4   -2.80    5.20
   3  13   4    1.80    2.30
  -4 -13  -4   22.10    7.50
   4  13   4   19.50    4.40
   5  13   4    6.30    3.10
   6  13   4   -0.70    2.80
  -7 -13  -4    2.80    5.20
   7  13   4    4.50    3.60
  -2 -14  -4   -1.00    5.10
   2  14   4    0.50    1.90
   2  14   4   -1.00    3.10
  -3 -14  -4    6.90    6.90
   3  14   4    3.30    2.60
  -4 -14  -4    5.90    6.00
   4  14   4    1.30    2.40
  -5 -14  -4   32.60    8.20
   5  14   4   14.60    4.40
   4  12  -5    1.30    2.40
  -4 -12   5   -3.30    6.10
  -4 -12   5   -0.40    2.30
  -3 -12   5   10.60    7.60
  -2 -12   5    5.90   14.10
  -1 -12   5    5.80    7.70
   6  11  -5    0.60    2.80
  -6 -11   5   -0.10    6.50
   5  11  -5    7.90    6.10
  -5 -11   5   -2.60    5.40
   4  11  -5    4.90    2.90
  -4 -11   5    5.80    2.70
  -4 -11   5    8.70    6.70
   3  11  -5   -0.30    1.90
  -3 -11   5    7.80    6.50
  -3 -11   5    1.80    1.70
  -2 -11   5   -3.00    5.50
  -1 -11   5   14.80    7.30
   0 -11   5   26.60    9.70
   1 -11   5    1.40    6.50
   7  10  -5    2.10    3.40
  -7 -10   5    5.00    6.20
   6  10  -5    5.20    3.60
  -6 -10   5    3.30    5.70
  -5 -10   5    2.90    5.60
   4  10  -5    1.40    2.40
  -4 -10   5    0.00    5.00
  -4 -10   5   -0.40    2.30
   3  10  -5   24.90    4.00
  -3 -10   5   34.40    8.50
  -3 -10   5   32.20    3.90
  -2 -10   5   57.69   10.20
  -2 -10   5   49.99    3.50
  -1 -10   5    0.60    4.80
   0 -10   5    1.00    5.50
   1 -10   5    5.70    6.00
   2 -10   5    1.00    6.70
   8   9  -5    5.00    4.20
  -8  -9   5    1.70    6.40
   7   9  -5    0.50    2.80
  -7  -9   5   -0.30    5.10
   6   9  -5   16.30    4.30
  -6  -9   5   30.80    7.60
  -5  -9   5   51.49    9.30
   4   9  -5   -0.70    2.10
  -4  -9   5    2.00    2.50
  -4  -9   5    3.30    4.60
   3   9  -5   10.30    2.90
  -3  -9   5   17.00    6.00
  -3  -9   5   13.10    2.80
   2   9  -5   33.10    4.00
  -2  -9   5   43.50    8.70
  -2  -9   5   37.20    3.40
  -1  -9   5    1.90    4.80
   0  -9   5    0.40    4.40
   1  -9   5    7.40    5.50
   2  -9   5   45.50   10.90
   3  -9   5   21.40    8.30
   4  -9   5   -3.90    5.20
  -9  -8   5    8.70   11.00
   8   8  -5    9.30    4.50
  -8  -8   5   15.60    7.60
   7   8  -5    7.90    4.10
  -7  -8   5   33.80    8.20
   6   8  -5    1.40    2.70
  -6  -8   5    5.90    5.40
   5   8  -5    2.80    2.70
  -5  -8   5   12.20    5.70
   4   8  -5   61.59    7.40
  -4  -8   5   56.39    6.50
  -4  -8   5   74.99    9.90
   3   8  -5   24.40    4.20
  -3  -8   5   26.80    6.60
  -3  -8   5   34.70    4.40
   2   8  -5    0.80    1.70
  -2  -8   5    6.00    4.40
  -2  -8   5    0.60    1.50
  -1  -8   5    2.70    4.70
   0  -8   5   31.50    7.30
   1  -8   5   28.60    7.60
   2  -8   5   -2.90    3.90
   3  -8   5   76.19   12.80
   4  -8   5    6.10    5.80
   5  -8   5    4.70    6.00
   9   7  -5    2.70    5.20
  -9  -7   5   14.00    8.00
   8   7  -5   -1.10    3.20
  -8  -7   5   -0.20    5.40
   7   7  -5   -3.50    2.70
  -7  -7   5    3.70    5.10
   6   7  -5    7.40    3.70
  -6  -7   5    5.00    5.40
   5   7  -5   41.10    6.30
  -5  -7   5   55.99    8.70
   4   7  -5   23.50    4.40
  -4  -7   5   17.70    5.50
  -4  -7   5   16.90    3.60
   3   7  -5   34.90    4.80
  -3  -7   5   34.70    4.50
  -3  -7   5   42.10    7.30
   2   7  -5   78.19    6.30
  -2  -7   5   74.79    5.80
  -2  -7   5   79.39    9.90
  -1  -7   5   27.00    3.00
  -1  -7   5   20.30    5.80
   0  -7   5   -0.80    3.20
   1  -7   5   -1.00    3.90
   2  -7   5   11.70    5.70
   3  -7   5    1.20    4.80
   4  -7   5   10.80    6.20
   5  -7   5    6.50    6.00
   9   6  -5   13.30    5.40
  -9  -6   5   15.40    7.70
   8   6  -5   -0.10    3.50
  -8  -6   5   -2.30    5.80
   7   6  -5    3.80    3.40
  -7  -6   5    4.30    5.50
   6   6  -5    1.60    3.10
  -6  -6   5    1.50    4.70
   5   6  -5   64.09    7.70
  -5  -6   5   77.89    9.50
   4   6  -5   18.20    3.90
  -4  -6   5   11.20    3.00
  -4  -6   5   11.90    4.70
   3   6  -5  104.49    8.00
  -3  -6   5   84.79    7.20
  -3  -6   5   94.49   10.60
   2   6  -5   61.09    5.60
  -2  -6   5   61.69    8.40
  -2  -6   5   69.99    5.40
   1   6  -5  104.49    8.80
  -1  -6   5  103.99    7.10
  -1  -6   5  129.79   10.90
   0  -6   5   63.29    8.70
   1  -6   5   -1.80    2.90
   2  -6   5   30.50    6.70
   3  -6   5   23.00    6.70
  -4   6  -5    0.10    1.00
   4  -6   5    1.70    1.20
   4  -6   5   -1.30    4.20
  -5   6  -5    2.20    1.40
   5  -6   5   -1.80    4.50
   5  -6   5    1.60    1.80
  -6   6  -5    2.10    1.80
   6  -6   5   -0.60    2.10
   6  -6   5    3.20    6.00
   9   5  -5    0.90    4.00
  -9  -5   5   -3.30    6.60
   8   5  -5    8.80    4.40
  -8  -5   5    6.60    6.40
   7   5  -5   27.80    6.20
  -7  -5   5   31.10    7.30
   6   5  -5   -1.40    2.30
  -6  -5   5    2.40    4.30
   5   5  -5    1.30    2.40
  -5  -5   5   -0.50    3.70
   4   5  -5    0.40    2.00
  -4  -5   5    3.80    3.80
  -4  -5   5    1.10    1.90
   3   5  -5   49.20    5.80
   3   5  -5   38.50    6.00
  -3  -5   5   38.80    6.20
  -3  -5   5   34.00    4.50
   2   5  -5   16.90    4.20
   2   5  -5   21.70    3.50
  -2  -5   5   17.10    4.30
  -2  -5   5   19.20    3.10
   1   5  -5   31.80    5.30
   1   5  -5   30.20    3.70
  -1  -5   5   34.00    3.50
  -1  -5   5   24.40    5.00
   0   5  -5   88.59    8.70
   0  -5   5   92.09    5.90
   0  -5   5   92.79    9.00
   0  -5   5   95.59    5.80
   1  -5   5   42.30    6.90
   2  -5   5    2.60    3.40
  -3   5  -5   19.00    2.10
   3  -5   5   17.10    2.30
   3  -5   5   18.60    5.60
  -4   5  -5   30.70    3.30
   4  -5   5   29.50    3.60
   4  -5   5   32.50    7.70
  -5   5  -5    9.20    2.20
   5  -5   5   10.00    5.30
   5  -5   5   12.90    2.90
  -6   5  -5    2.10    2.40
   6  -5   5    7.80    5.70
   6  -5   5    0.90    2.30
   7  -5   5    5.30    3.10
   9   4  -5    6.80    5.30
  -9  -4   5    4.50    7.10
   8   4  -5   21.00    5.60
  -8  -4   5   21.90    7.50
  -7  -4   5   72.09   10.00
   6   4  -5    5.40    3.10
  -6  -4   5   11.90    5.10
   5   4  -5   11.20    3.50
  -5  -4   5   12.90    5.20
   4   4  -5   -0.70    2.90
   4   4  -5    3.60    2.50
  -4  -4   5   -0.80    1.70
  -4  -4   5    1.40    3.30
   3   4  -5   54.39    6.30
   3   4  -5   65.59    7.40
  -3  -4   5   59.19    5.50
  -3  -4   5   56.49    7.10
   2   4  -5   58.39    5.20
   2   4  -5   46.50    6.20
  -2  -4   5   47.50    6.40
  -2  -4   5   50.99    4.70
   1   4  -5  445.76   25.20
  -1  -4   5  430.56   26.90
  -1  -4   5  417.86   24.90
   0   4  -5   36.20    5.30
   0  -4   5   30.80    5.20
   0  -4   5   28.20    2.60
  -1   4  -5  125.99   11.00
   1  -4   5  144.59    8.30
   1  -4   5  137.89    8.60
   1  -4   5  142.69   11.50
  -2   4  -5  124.69   10.40
   2  -4   5  116.99    7.30
   2  -4   5  109.09   10.60
  -3   4  -5   10.70    1.90
   3  -4   5   12.00    2.20
   3  -4   5   10.40    4.50
  -4   4  -5    1.80    1.30
   4  -4   5    0.00    3.50
   4  -4   5    4.10    1.90
  -5   4  -5   -0.80    1.40
   5  -4   5   -3.80    3.00
   5  -4   5    0.10    1.80
  -6   4  -5   15.00    3.10
   6  -4   5   20.10    6.90
   6  -4   5   15.00    3.60
   7  -4   5    0.80    5.60
   7  -4   5    1.20    3.00
   9   3  -5    1.40    4.00
  -9  -3   5   -0.40    6.40
   8   3  -5    7.60    4.40
  -8  -3   5   12.80    6.60
   7   3  -5    4.40    3.80
  -7  -3   5    7.50    5.00
   6   3  -5   -2.50    2.20
  -6  -3   5    4.00    4.80
   5   3  -5    3.00    2.80
  -5  -3   5    0.00    3.80
   4   3  -5   29.40    5.00
   4   3  -5   34.00    5.20
  -4  -3   5   17.90    4.90
  -4  -3   5   31.30    4.50
   3   3  -5   35.50    4.80
   3   3  -5   46.30    6.60
  -3  -3   5   45.80    5.10
  -3  -3   5   39.40    6.00
   2   3  -5    8.90    2.70
   2   3  -5   14.20    4.20
  -2  -3   5   14.60    2.90
  -2  -3   5   21.90    4.50
   1   3  -5  584.94   33.20
   1   3  -5  564.94   34.10
  -1  -3   5  570.04   33.00
  -1  -3   5  591.44   34.50
   0   3  -5   75.89    7.10
   0  -3   5   79.99    7.40
   0  -3   5   72.79    5.40
   0  -3   5   71.39    5.40
  -1   3  -5   17.80    3.90
   1  -3   5   10.20    3.50
   1  -3   5   15.80    2.00
  -2   3  -5    6.90    3.10
  -2   3  -5    3.60    1.30
   2  -3   5   11.40    2.20
   2  -3   5    6.40    3.70
  -3   3  -5   43.10    3.70
  -3   3  -5   49.10    6.90
   3  -3   5   45.70    7.30
   3  -3   5   39.40    4.30
  -4   3  -5   75.39    5.80
   4  -3   5   74.79    9.80
   4  -3   5   75.89    6.10
  -5   3  -5   -0.10    1.50
   5  -3   5    1.70    3.60
   5  -3   5    2.30    2.20
  -6   3  -5   18.80    3.70
   6  -3   5   27.20    7.30
   6  -3   5   36.70    5.20
   7  -3   5   16.60    4.60
   7  -3   5    8.80    6.30
   8  -3   5    4.60    6.50
   8  -3   5    3.80    3.80
   9   2  -5    7.10    5.10
  -9  -2   5   12.40    6.70
   8   2  -5    9.80    4.50
  -8  -2   5   -4.40    4.70
   7   2  -5    2.40    3.40
  -7  -2   5    3.60    4.50
   6   2  -5   37.40    6.40
  -6  -2   5   39.40    7.00
   5   2  -5   -0.70    2.10
  -5  -2   5   -0.80    3.30
   4   2  -5   32.30    4.70
   4   2  -5   23.90    4.70
  -4  -2   5   28.40    5.10
  -4  -2   5   21.50    4.00
   3   2  -5   15.20    3.60
   3   2  -5   11.50    2.90
  -3  -2   5    5.40    3.40
  -3  -2   5   19.00    3.40
   2   2  -5   87.29    7.70
   2   2  -5   90.19    7.30
  -2  -2   5  100.29    8.10
  -2  -2   5   92.39    7.00
   1   2  -5   41.60    5.10
   1   2  -5   34.60    4.40
  -1  -2   5   30.50    4.80
  -1  -2   5   42.40    4.40
   0   2  -5    1.50    2.30
   0  -2   5    4.40    1.40
   0  -2   5    3.20    1.70
   0  -2   5    4.90    2.70
  -1   2  -5   30.70    4.80
   1  -2   5   38.30    3.90
   1  -2   5   32.30    5.00
  -2   2  -5    2.80    1.20
  -2   2  -5   -0.20    2.10
   2  -2   5    4.70    1.50
   2  -2   5    3.00    2.70
  -3   2  -5    3.70    3.20
  -3   2  -5    0.00    1.20
   3  -2   5    3.30    1.80
   3  -2   5    2.50    2.80
  -4   2  -5   31.00    3.80
  -4   2  -5   23.90    5.30
   4  -2   5   25.90    5.40
   4  -2   5   34.40    4.30
  -5   2  -5   10.70    2.50
   5  -2   5    7.90    7.20
   5  -2   5    8.80    2.90
  -6   2  -5   64.89    6.80
   6  -2   5   60.79    7.20
   6  -2   5   49.20    9.00
   7  -2   5   30.00    7.80
   7  -2   5   24.70    5.20
   8  -2   5   13.70    7.20
   8  -2   5    5.20    3.80
   9   1  -5   17.60    6.10
  -9  -1   5   16.70    7.20
   8   1  -5    5.90    5.00
  -8  -1   5   -2.60    5.20
   7   1  -5   -3.30    2.70
  -7  -1   5   -2.20    3.80
   6   1  -5   10.10    3.90
  -6  -1   5    8.00    4.70
   5   1  -5   58.09    7.10
  -5  -1   5   52.39    6.80
   4   1  -5    2.60    2.60
   4   1  -5   -1.10    2.20
  -4  -1   5   -0.20    3.00
  -4  -1   5    2.40    2.00
   3   1  -5   36.80    5.20
   3   1  -5   49.70    5.80
  -3  -1   5   55.79    6.60
  -3  -1   5   45.00    5.40
   2   1  -5  109.59    8.30
   2   1  -5  107.49    8.40
  -2  -1   5  110.89    8.70
  -2  -1   5  117.49    8.20
   1   1  -5  683.33   39.40
   1   1  -5  667.93   39.40
  -1  -1   5  669.33   39.50
  -1  -1   5  732.23   39.40
   0   1  -5  135.69    9.70
   0  -1   5  148.29    9.40
   0  -1   5  140.29    9.90
   0  -1   5  139.19    8.90
  -1   1  -5   46.30    5.10
  -1   1  -5   42.50    3.40
   1  -1   5   33.80    3.40
   1  -1   5   37.60    4.70
  -2   1  -5   37.20    5.00
  -2   1  -5   35.40    3.70
   2  -1   5   36.70    3.80
   2  -1   5   41.20    5.60
  -3   1  -5   63.39    5.00
  -3   1  -5   72.29    7.70
   3  -1   5   65.29    7.60
   3  -1   5   61.79    5.20
  -4   1  -5   34.10    5.70
  -4   1  -5   36.60    4.30
   4  -1   5   36.00    6.10
   4  -1   5   37.30    4.60
   5  -1   5   15.80    3.50
   5  -1   5    9.50    4.20
  -6   1  -5   44.10    5.80
   6  -1   5   38.50    7.50
   6  -1   5   49.30    6.30
   7  -1   5   23.70    7.00
   7  -1   5   31.50    5.60
   8  -1   5   -1.60    2.90
   8  -1   5    9.00    6.30
   9  -1   5    0.70    3.50
   9  -1   5    4.00    6.30
   9   0  -5    0.60    4.20
  -9   0   5   -7.90    5.10
   8   0  -5    1.90    3.90
  -8   0   5    1.60    4.90
   7   0  -5    4.50    3.70
  -7   0   5    2.70    4.20
   6   0  -5   18.20    4.50
  -6   0   5   21.50    5.50
   5   0  -5   48.80    6.70
  -5   0   5   61.89    7.30
   4   0  -5   66.69    6.60
   4   0  -5   77.99    6.90
  -4   0   5   57.39    6.80
  -4   0   5   61.79    7.20
   3   0  -5    0.60    2.50
   3   0  -5    2.10    2.20
  -3   0   5    2.20    1.80
  -3   0   5    3.40    3.30
   2   0  -5   21.40    3.60
   2   0  -5   28.10    3.90
  -2   0   5   27.30    4.00
  -2   0   5   29.50    3.80
   1   0  -5   21.90    3.70
   1   0  -5   28.30    3.80
  -1   0   5   22.70    3.70
  -1   0   5   21.90    3.50
   0   0  -5   92.29    7.20
   0   0   5  105.99    7.40
   0   0   5   94.79    6.60
   0   0   5   95.19    7.10
  -1   0  -5   34.70    3.50
  -1   0  -5   44.10    4.60
   1   0   5   28.80    3.80
   1   0   5   29.10    3.30
  -2   0  -5    3.00    1.30
  -2   0  -5    7.00    2.50
   2   0   5    5.90    1.90
   2   0   5    0.00    2.10
  -3   0  -5    1.50    2.30
  -3   0  -5    2.30    1.50
   3   0   5    7.50    2.80
   3   0   5    7.40    2.20
  -4   0  -5   26.20    3.70
  -4   0  -5   25.60    4.80
   4   0   5   30.70    4.20
   4   0   5   21.10    4.50
  -5   0  -5    2.00    1.70
  -5   0  -5   -1.40    2.60
   5   0   5    1.40    2.30
   5   0   5    2.50    3.10
   6   0   5    1.60    2.60
   6   0   5    6.50    4.20
   7   0   5   11.10    4.00
   7   0   5    6.50    5.20
   8   0   5   18.70    7.20
   8   0   5   14.00    4.30
   9   0   5    4.30    3.90
   9  -1  -5    1.30    4.30
  -9   1   5    2.10    6.30
   8  -1  -5    9.20    4.70
  -8   1   5   11.40    6.00
   7  -1  -5   -0.90    3.00
  -7   1   5   -3.10    3.60
   6  -1  -5    1.50    3.00
  -6   1   5    8.70    4.10
   5  -1  -5   36.40    5.70
  -5   1   5   40.50    5.90
   4  -1  -5   10.40    3.40
  -4   1   5    9.70    3.70
  -4   1   5   12.80    3.80
  -4   1   5   12.80    3.20
   3  -1  -5  125.69    9.50
  -3   1   5  117.99    9.00
  -3   1   5  123.29    9.40
   2  -1  -5  394.06   23.20
   2  -1  -5  378.96   22.60
  -2   1   5  382.96   22.90
  -2   1   5  364.46   22.60
   1  -1  -5  382.06   21.80
   1  -1  -5  353.46   21.00
  -1   1   5  350.46   21.50
  -1   1   5  353.86   21.20
   0  -1  -5   39.10    3.90
   0   1   5   35.20    3.80
   0   1   5   37.60    3.60
   0   1   5   52.99    5.20
  -1  -1  -5   41.00    3.80
  -1  -1  -5   44.10    4.10
   1   1   5   39.20    3.90
   1   1   5   43.70    3.80
  -2  -1  -5   78.69    5.90
  -2  -1  -5   82.69    6.10
   2   1   5   81.29    6.20
   2   1   5   74.99    5.90
  -3  -1  -5    0.10    1.80
  -3  -1  -5    0.20    1.30
   3   1   5    0.10    1.60
   3   1   5    3.40    2.10
  -4  -1  -5   68.29    7.20
  -4  -1  -5   55.29    5.20
   4   1   5   64.89    6.50
   4   1   5   56.89    6.80
  -5  -1  -5    9.00    3.50
  -5  -1  -5    6.70    2.30
   5   1   5    4.40    2.60
   5   1   5    7.80    3.40
  -6  -1  -5   44.60    7.00
   6   1   5   28.40    6.10
   6   1   5   43.50    6.20
   7   1   5   11.00    4.00
   7   1   5    2.60    4.10
   8   1   5    6.50    4.00
  -9  -1  -5    3.80    5.60
   9   1   5    8.80    4.60
   9  -2  -5    0.60    4.70
  -9   2   5   -0.70    5.30
   8  -2  -5    1.80    3.90
  -8   2   5    0.30    4.70
   7  -2  -5   14.70    4.80
  -7   2   5   10.10    5.00
   6  -2  -5    2.00    3.40
  -6   2   5    4.60    4.00
   5  -2  -5   -0.10    2.70
  -5   2   5    6.10    5.60
   4  -2  -5   42.50    6.00
  -4   2   5   52.59    6.10
  -4   2   5   48.60    5.90
  -4   2   5   40.30    6.80
   3  -2  -5   18.40    3.90
  -3   2   5   22.70    4.00
  -3   2   5   21.50    4.30
  -3   2   5   29.20    4.10
   2  -2  -5    6.20    2.50
  -2   2   5    5.60    2.50
  -2   2   5    5.70    2.40
  -2   2   5    1.40    1.90
   1  -2  -5   45.20    4.30
   1  -2  -5   32.90    4.50
  -1   2   5   41.40    4.10
  -1   2   5   42.40    5.10
   0  -2  -5  301.07   17.50
   0   2   5  294.47   17.60
   0   2   5  320.27   18.60
   0   2   5  302.87   18.00
  -1  -2  -5   65.29    5.00
  -1  -2  -5   63.59    4.40
   1   2   5   57.19    4.90
   1   2   5   58.79    4.30
  -2  -2  -5   -0.90    1.30
  -2  -2  -5    0.00    1.30
   2   2   5   -0.40    1.40
   2   2   5   -0.40    1.20
  -3  -2  -5  203.88   12.90
  -3  -2  -5  210.48   12.70
   3   2   5  190.28   12.90
  -4  -2  -5   73.39    6.20
  -4  -2  -5   70.19    6.50
   4   2   5   81.49    6.80
   4   2   5   75.49    6.50
  -5  -2  -5    1.80    1.90
  -5  -2  -5    4.60    2.90
   5   2   5    1.40    2.20
   5   2   5    4.30    2.80
  -6  -2  -5    3.10    3.20
   6   2   5    0.60    2.50
   6   2   5   -2.30    2.60
  -7  -2  -5    3.20    4.30
   7   2   5    0.90    3.30
  -8  -2  -5   20.20    6.10
   8   2   5   12.20    4.30
  -9  -2  -5    5.70    5.60
   9   2   5    3.70    4.30
 -10  -2  -5    9.80    7.20
  10   2   5   14.30    5.80
   8  -3  -5   15.80    6.20
  -8   3   5    7.60    5.60
   7  -3  -5   23.80    6.00
  -7   3   5   26.60    6.80
   6  -3  -5   36.90    6.30
  -6   3   5   37.40    6.70
   5  -3  -5   20.70    5.10
  -5   3   5   12.40    4.50
   4  -3  -5   16.70    3.80
  -4   3   5   18.30    3.80
  -4   3   5   13.20    4.80
  -4   3   5   22.60    4.50
   3  -3  -5   12.80    3.30
  -3   3   5    1.70    2.90
  -3   3   5   11.30    2.90
  -3   3   5    5.40    2.90
   2  -3  -5  183.98   12.80
  -2   3   5  183.28   12.40
  -2   3   5  180.18   12.90
  -2   3   5  190.08   12.40
   1  -3  -5  102.99    8.00
  -1   3   5   96.79    7.90
  -1   3   5  106.79    7.90
  -1   3   5  108.09    7.40
   0   3   5   33.80    4.50
   0   3   5   41.80    4.20
   0   3   5   41.90    4.00
   0   3   5   32.10    3.30
  -1  -3  -5  145.99    9.30
   1   3   5  148.99    8.30
   1   3   5  132.49    8.20
   1   3   5  137.39    9.30
  -2  -3  -5   37.40    4.00
   2   3   5   30.00    3.70
  -3  -3  -5    2.30    1.70
  -3  -3  -5    0.60    1.30
   3   3   5    0.60    1.60
  -4  -3  -5   57.49    5.50
  -4  -3  -5   56.39    5.30
   4   3   5   67.49    6.80
  -5  -3  -5   65.39    6.00
  -5  -3  -5   64.39    6.50
  -5  -3  -5   61.59    6.00
   5   3   5   78.39    7.00
  -6  -3  -5    0.60    2.90
  -6  -3  -5    8.00    3.40
   6   3   5    3.90    2.70
  -7  -3  -5    2.40    3.70
  -7  -3  -5    7.90    4.20
   7   3   5    5.20    3.20
  -8  -3  -5    6.60    4.60
   8   3   5   -0.80    2.90
  -9  -3  -5   33.20    7.90
   9   3   5   25.70    6.40
 -10  -3  -5    8.90    6.80
  10   3   5    2.20    4.20
   8  -4  -5    1.80    4.20
  -8   4   5   -0.80    4.90
   7  -4  -5    1.20    3.70
  -7   4   5   -1.90    4.40
   6  -4  -5    7.40    4.10
  -6   4   5   -0.20    3.80
   5  -4  -5   40.20    6.60
  -5   4   5   52.89    7.20
   4  -4  -5  156.38   11.80
  -4   4   5  139.29   11.60
  -4   4   5  148.79   11.20
   3  -4  -5   24.50    4.60
  -3   4   5   15.40    4.10
   2  -4  -5  110.29    9.30
   2  -4  -5  115.39    9.00
  -2   4   5  117.49    9.30
  -2   4   5  109.69    8.50
   1  -4  -5  135.29    9.40
  -1   4   5  124.69    8.60
  -1   4   5  113.19    9.10
  -1   4   5  129.99    9.20
   0   4   5  254.47   15.40
   0   4   5  223.38   14.70
   0   4   5  249.18   14.80
  -1  -4  -5   48.00    4.70
   1   4   5   43.30    4.70
   1   4   5   35.80    3.00
   1   4   5   35.20    2.90
  -2  -4  -5   49.10    5.10
   2   4   5   41.60    4.70
  -3  -4  -5   67.19    4.30
  -3  -4  -5   64.29    4.40
  -3  -4  -5   60.09    6.40
   3   4   5   62.69    5.80
  -4  -4  -5   30.40    4.40
  -4  -4  -5   31.70    4.00
  -4  -4  -5   38.00    3.50
   4   4   5   39.30    5.00
  -5  -4  -5   19.40    3.10
  -5  -4  -5   19.60    3.60
  -5  -4  -5   18.80    3.50
   5   4   5   30.10    4.90
  -6  -4  -5   82.39    7.50
  -6  -4  -5   92.99    8.30
  -7  -4  -5   74.29    7.80
  -7  -4  -5   51.89    8.10
   7   4   5   57.09    7.60
  -8  -4  -5    7.00    5.00
   8   4   5    9.80    4.30
  -9  -4  -5    6.00    5.30
   9   4   5   -0.30    3.50
 -10  -4  -5    4.40    6.80
  10   4   5    3.90    6.00
   7  -5  -5    5.80    4.80
  -7   5   5   14.50    6.20
   6  -5  -5    3.90    3.70
  -6   5   5    2.10    4.60
  -5   5   5    1.10    3.60
   4  -5  -5   88.49   10.90
   4  -5  -5   99.09    9.00
  -4   5   5   92.69    8.40
   3  -5  -5  137.79   11.90
   3  -5  -5  159.38   11.30
  -3   5   5  136.39   11.80
  -3   5   5  134.49   10.50
   2  -5  -5   72.09    7.40
   2  -5  -5   67.69    7.80
  -2   5   5   49.00    6.00
  -2   5   5   63.39    7.80
   1  -5  -5   12.20    3.50
  -1   5   5   13.80    3.00
  -1   5   5    5.90    2.60
  -1   5   5   11.30    2.40
   0  -5  -5  147.59   10.00
   0   5   5  156.98   10.40
   0   5   5  144.39    9.70
   0   5   5  139.49   10.00
  -1  -5  -5   13.60    2.20
  -1  -5  -5    9.60    2.40
   1   5   5   15.00    2.90
   1   5   5   10.20    2.10
  -2  -5  -5    0.30    1.30
   2   5   5    4.30    1.90
  -3  -5  -5  330.27   20.50
   3   5   5  347.67   20.80
  -4  -5  -5  136.99    8.80
  -4  -5  -5  130.89    8.50
  -4  -5  -5  130.89    9.60
   4   5   5  131.49    9.90
  -5  -5  -5    7.50    2.40
  -5  -5  -5   -0.80    1.60
   5   5   5    5.10    2.60
  -6  -5  -5   23.10    4.00
  -6  -5  -5    5.80    3.00
   6   5   5   15.50    3.90
  -7  -5  -5    0.70    3.10
  -7  -5  -5    1.20    3.20
   7   5   5   -1.40    2.70
  -8  -5  -5   62.09    8.60
   8   5   5   49.00    8.40
  -9  -5  -5   16.80    6.50
   9   5   5    9.90    5.00
 -10  -5  -5   -3.60    6.50
   7  -6  -5    0.10    4.00
  -7   6   5   13.60   10.80
   6  -6  -5   25.10    6.00
  -6   6   5   14.20    5.80
   5  -6  -5   15.00    5.10
   5  -6  -5   14.60    6.10
   4  -6  -5   -1.20    4.00
   4  -6  -5   -1.00    2.70
  -4   6   5    3.50    2.70
   3  -6  -5    3.50    2.80
   3  -6  -5    6.90    4.10
  -3   6   5    6.00    2.60
   2  -6  -5  260.77   17.50
  -2   6   5  236.08   17.20
  -2   6   5  244.78   15.70
  -2   6   5  254.17   16.20
   1  -6  -5   16.10    4.00
  -1   6   5   20.50    3.30
  -1   6   5   15.50    3.30
  -1   6   5   17.70    4.00
   0  -6  -5    4.30    2.50
   0   6   5    8.10    2.30
   0   6   5    9.70    2.90
   0   6   5    3.10    2.00
  -1  -6  -5  176.08   11.10
  -1  -6  -5  162.78   11.90
   1   6   5  168.28   11.20
   1   6   5  169.88   10.90
  -2  -6  -5   48.90    4.90
  -2  -6  -5   47.20    3.80
   2   6   5   40.20    3.60
   2   6   5   36.00    4.80
  -3  -6  -5    4.10    2.30
  -3  -6  -5    9.70    1.80
   3   6   5   10.70    1.60
   3   6   5    6.80    2.40
  -4  -6  -5   13.30    2.30
  -4  -6  -5   11.20    2.90
   4   6   5   14.50    3.60
  -5  -6  -5   55.09    5.50
  -5  -6  -5   69.69    5.70
   5   6   5   65.19    7.30
  -6  -6  -5  153.98   11.00
  -6  -6  -5  138.49   10.70
   6   6   5  148.29   11.80
  -7  -6  -5   -1.20    2.80
  -7  -6  -5    3.70    4.10
   7   6   5    1.50    3.40
  -8  -6  -5    7.10    4.80
  -8  -6  -5    9.20    5.80
   8   6   5    2.40    3.80
  -9  -6  -5   15.70    6.60
   9   6   5   27.10    6.70
 -10  -6  -5   22.40    7.80
  10   6   5   14.70    5.70
   6  -7  -5   -1.10    3.60
   5  -7  -5   43.90    7.30
   5  -7  -5   47.30    9.60
   4  -7  -5   58.09    9.70
   4  -7  -5   56.79    7.70
   3  -7  -5   51.19    8.60
  -3   7   5   45.40    5.90
   2  -7  -5   31.40    6.10
  -2   7   5   20.30    3.50
  -2   7   5   23.40    4.20
  -2   7   5   14.10    4.40
   1  -7  -5   40.30    6.40
  -1   7   5   36.20    4.50
  -1   7   5   39.20    5.20
  -1   7   5   26.90    5.30
   0  -7  -5   92.39    7.90
   0   7   5   99.69    7.00
   0   7   5   85.49    7.60
   0   7   5   79.19    7.30
  -1  -7  -5  141.19    9.60
  -1  -7  -5  142.49   10.00
   1   7   5  141.19    9.80
   1   7   5  138.39    9.70
  -2  -7  -5    6.00    1.90
  -2  -7  -5    4.40    2.60
   2   7   5    6.10    2.10
   2   7   5    7.70    2.60
  -3  -7  -5   94.39    7.60
  -3  -7  -5  106.59    7.10
   3   7   5   97.59    8.00
  -4  -7  -5  104.69    7.00
  -4  -7  -5   88.99    7.60
   4   7   5   90.09    6.50
   4   7   5   92.89    8.00
  -5  -7  -5   15.10    3.10
   5   7   5   14.20    3.80
  -6  -7  -5    6.40    3.00
  -6  -7  -5    3.10    2.60
   6   7   5   11.10    3.90
  -7  -7  -5   17.60    4.60
  -7  -7  -5   14.60    4.30
   7   7   5   13.70    4.60
  -8  -7  -5    2.00    4.10
  -8  -7  -5    6.80    4.70
   8   7   5    0.60    3.10
  -9  -7  -5    7.40    5.90
   9   7   5    8.00    4.80
 -10  -7  -5   12.70    7.40
  10   7   5   21.70    6.40
   6  -8  -5   -0.80    3.70
   5  -8  -5    1.80    3.80
   5  -8  -5    6.80    6.10
   4  -8  -5   10.20    6.10
   3  -8  -5   28.40    7.20
  -3   8   5   32.60    4.60
  -3   8   5   21.30    4.50
   2  -8  -5    8.50    4.80
  -2   8   5    8.50    2.60
   1  -8  -5    0.10    3.10
  -1   8   5    2.20    2.30
  -1   8   5    3.70    3.00
  -1   8   5    2.40    1.90
   0  -8  -5   78.79    8.00
   0   8   5   78.79    7.80
   0   8   5   85.39    6.70
   0   8   5   93.29    7.60
  -1  -8  -5   35.70    4.40
  -1  -8  -5   29.00    4.80
   1   8   5   29.00    4.20
   1   8   5   28.70    4.60
  -2  -8  -5   12.80    3.50
   2   8   5    8.80    2.60
   2   8   5   12.10    2.90
  -3  -8  -5   12.10    2.80
  -3  -8  -5   11.60    3.00
   3   8   5   11.60    3.20
   3   8   5   14.50    3.00
  -4  -8  -5  132.89    9.40
   4   8   5  131.79    9.00
   4   8   5  147.69   10.50
  -5  -8  -5   30.20    4.30
   5   8   5   27.70    3.90
   5   8   5   32.20    6.30
  -6  -8  -5    9.70    3.60
   6   8   5   10.10    3.90
  -7  -8  -5   10.60    4.00
   7   8   5   17.00    4.60
  -8  -8  -5    8.20    4.60
  -8  -8  -5   14.00    5.00
   8   8   5   13.80    4.70
   9   8   5   19.80    5.40
 -10  -8  -5   -3.00    6.00
  10   8   5    1.70    4.00
   5  -9  -5    5.30    7.00
  -5   9   5    8.10    3.40
   4  -9  -5    8.60    6.60
  -4   9   5   15.50    3.90
   3  -9  -5   -0.70    4.70
  -3   9   5   -0.30    2.20
  -3   9   5    2.40    2.50
   2  -9  -5   98.59   12.10
  -2   9   5   75.49    8.30
  -2   9   5   69.59    6.40
   1  -9  -5   93.99   11.00
  -1   9   5   88.19    7.10
  -1   9   5   88.19    7.90
   0  -9  -5   -0.30    2.90
   0   9   5    2.70    1.70
   0   9   5    3.60    2.50
   0   9   5    0.50    2.70
  -1  -9  -5    1.40    2.40
   1   9   5   -0.50    2.00
   1   9   5    2.80    1.90
  -2  -9  -5    9.80    2.70
  -2  -9  -5   11.30    3.60
   2   9   5    6.90    2.70
   2   9   5   16.50    3.50
  -3  -9  -5   82.89    7.00
  -3  -9  -5   68.59    6.40
   3   9   5   70.99    6.40
   3   9   5   75.59    6.90
  -4  -9  -5    0.60    2.40
   4   9   5    4.90    2.70
   4   9   5    0.30    2.40
  -5  -9  -5    9.20    3.10
   5   9   5   11.40    3.70
   5   9   5   11.90    3.00
  -6  -9  -5   32.60    5.00
   6   9   5   30.30    5.70
   6   9   5   26.20    4.20
  -7  -9  -5   11.90    4.10
  -7  -9  -5   26.50    5.00
   7   9   5    9.70    4.20
  -8  -9  -5    1.70    4.10
  -8  -9  -5    6.50    4.40
   8   9   5    5.60    4.10
  -9  -9  -5   -1.00    6.30
   9   9   5    2.60    3.70
   4 -10  -5   21.10    7.90
  -4  10   5   18.80    4.10
   3 -10  -5   42.50    9.30
  -3  10   5   25.30    4.80
  -3  10   5   38.10    5.20
   2 -10  -5    2.20    4.60
  -2  10   5   -0.50    1.50
  -2  10   5    2.50    2.50
   1 -10  -5   45.40    8.50
  -1  10   5   39.60    5.20
   0 -10  -5   68.59    9.40
   0  10   5   44.20    7.10
   0  10   5   44.70    5.50
  -1 -10  -5   49.40    7.30
   1  10   5   33.90    6.00
   1  10   5   34.80    5.50
   1  10   5   47.20    5.60
  -2 -10  -5    8.80    2.70
  -2 -10  -5   14.80    4.60
   2  10   5   12.40    3.40
   2  10   5   10.40    3.50
  -3 -10  -5   -2.20    2.70
  -3 -10  -5    1.70    1.70
   3  10   5    0.50    2.10
   3  10   5    1.80    2.30
  -4 -10  -5   95.89    8.30
   4  10   5   91.69    9.90
   4  10   5   80.09    8.30
  -5 -10  -5   -1.60    2.70
   5  10   5   -1.30    2.30
   5  10   5    3.30    2.80
  -6 -10  -5   -3.00    2.70
   6  10   5   -1.40    2.60
   6  10   5   -3.20    2.40
  -7 -10  -5   21.70    5.00
   7  10   5   14.90    4.60
  -8 -10  -5   21.50    5.40
  -8 -10  -5    7.30    4.70
   8  10   5   10.90    5.00
  -9 -10  -5    5.80    7.80
   3 -11  -5    2.20    6.00
  -3  11   5    4.30    2.30
  -3  11   5    5.00    3.10
   2 -11  -5   21.30    7.40
  -2  11   5   22.90    3.90
  -2  11   5   17.90    4.10
   1 -11  -5    3.50    5.00
  -1  11   5    3.50    2.20
   0 -11  -5   10.10    5.10
   0  11   5    9.10    2.70
   0  11   5    8.60    3.80
  -1 -11  -5  109.59   12.10
   1  11   5   77.69    7.10
   1  11   5   84.09    9.20
  -2 -11  -5   -0.30    1.70
  -2 -11  -5    0.30    3.30
   2  11   5    0.40    2.10
   2  11   5    4.60    2.80
  -3 -11  -5   15.40    5.00
   3  11   5    9.30    3.00
  -4 -11  -5   -1.00    3.30
   4  11   5    5.40    3.10
   4  11   5    0.90    3.10
  -5 -11  -5   80.49    8.50
   5  11   5   49.00    6.50
   5  11   5   49.10    7.50
  -6 -11  -5    2.80    3.60
   6  11   5    4.00    3.20
   6  11   5    2.00    3.00
  -7 -11  -5    5.60    4.10
   7  11   5    2.90    3.30
   7  11   5    8.30    3.90
  -8 -11  -5   18.60    8.00
  -8 -11  -5   21.30    5.50
   8  11   5   21.20    5.70
   2 -12  -5    7.70    6.40
  -2  12   5    1.40    2.00
   1 -12  -5   40.70    9.00
  -1  12   5   45.00    5.30
   0 -12  -5   80.89   11.40
   0  12   5   61.39    7.70
   0  12   5   67.49    7.10
  -1 -12  -5   23.60    6.80
   1  12   5   24.50    4.30
   1  12   5   17.90    4.60
  -2 -12  -5   52.29    8.60
   2  12   5   41.50    5.70
  -3 -12  -5    2.70    4.30
   3  12   5   13.80    3.90
   3  12   5    1.00    2.40
  -4 -12  -5   -1.30    3.80
   4  12   5    1.40    2.70
   4  12   5    2.80    3.50
  -5 -12  -5   17.60    5.50
   5  12   5   12.20    4.00
   5  12   5   11.80    4.60
  -6 -12  -5   10.60    4.90
   6  12   5    5.90    3.50
   6  12   5    0.70    3.40
  -7 -12  -5   22.90    5.90
   7  12   5   16.90    4.80
   7  12   5   15.30    4.80
  -8 -12  -5    5.40    4.70
   8  12   5   -0.40    3.70
   1 -13  -5   20.40    7.90
  -1  13   5    6.40    2.50
   0 -13  -5    4.00    5.70
   0  13   5    9.60    2.90
  -1 -13  -5   18.50    6.50
   1  13   5   14.50    3.70
   1  13   5    7.90    3.70
  -2 -13  -5    0.70    4.60
   2  13   5    1.40    2.40
  -3 -13  -5   11.20    7.60
   3  13   5   19.30    6.60
  -4 -13  -5    5.40    5.00
   4  13   5    7.90    3.40
  -5 -13  -5   -0.30    4.70
   5  13   5    3.20    2.80
  -6 -13  -5    1.50    4.80
   6  13   5    6.40    3.70
  -7 -13  -5    3.90    5.10
   7  13   5    4.80    3.90
  -2 -14  -5    6.10    6.30
   2  14   5    4.90    2.80
  -3 -14  -5    9.60    5.70
   3  14   5    2.50    3.00
  -4 -14  -5   -4.50    5.00
   4  14   5   -0.10    2.50
  -5 -14  -5   19.30   10.30
   5  14   5   12.80    4.40
   6  11  -6   -0.40    2.70
  -6 -11   6   12.50    9.60
   5  11  -6   -0.80    2.60
  -5 -11   6   -4.80    5.60
   4  11  -6    9.20    3.30
  -4 -11   6   12.60    7.10
  -4 -11   6    1.00    2.60
   3  11  -6    5.20    2.30
  -3 -11   6    1.70    6.10
  -3 -11   6    3.70    1.80
  -2 -11   6   10.90    7.20
  -1 -11   6    9.40    6.80
   0 -11   6   14.10    8.20
   7  10  -6    1.10    3.80
  -7 -10   6   12.60   11.60
   6  10  -6    0.20    3.30
  -6 -10   6   11.10    6.80
   5  10  -6   -0.40    2.50
  -5 -10   6   -3.30    5.20
   4  10  -6    3.50    2.60
  -4 -10   6   15.20    6.90
  -4 -10   6    5.90    2.90
   3  10  -6   11.60    3.10
  -3 -10   6   10.80    6.10
  -3 -10   6   16.10    3.00
  -2 -10   6    8.00    6.40
  -1 -10   6   -1.50    5.00
   0 -10   6   53.19   10.70
   1 -10   6   -0.30    5.40
   2 -10   6    1.10    6.80
   8   9  -6    2.70    3.70
  -8  -9   6    4.00    7.50
   7   9  -6    4.50    3.90
  -7  -9   6   -4.60    5.40
   6   9  -6    1.20    2.80
  -6  -9   6    1.40    5.50
   5   9  -6    9.40    3.70
  -5  -9   6   15.20    7.00
   4   9  -6    4.00    2.70
  -4  -9   6   -4.00    4.60
  -4  -9   6    3.50    2.70
   3   9  -6    1.60    2.20
  -3  -9   6    2.80    2.20
  -3  -9   6   14.20    6.10
   2   9  -6   17.10    2.80
  -2  -9   6   11.70    2.20
  -2  -9   6   23.80    6.60
  -1  -9   6   46.70    9.50
   0  -9   6    6.80    5.60
   1  -9   6    2.80    5.70
   2  -9   6   23.00    8.50
   3  -9   6   17.80    9.60
   8   8  -6   12.00    5.00
  -8  -8   6   21.20    8.00
   7   8  -6    4.60    3.50
  -7  -8   6    4.50    5.90
   6   8  -6    3.80    3.20
  -6  -8   6   -0.60    5.00
   5   8  -6    0.10    2.60
  -5  -8   6    3.90    4.70
   4   8  -6    5.90    3.10
  -4  -8   6   11.00    5.40
  -4  -8   6   11.50    3.10
   3   8  -6   25.90    4.30
  -3  -8   6   23.40    3.80
  -3  -8   6   37.80    7.40
   2   8  -6   15.30    3.10
  -2  -8   6   17.40    5.70
  -2  -8   6   20.90    2.90
  -1  -8   6    1.90    0.90
  -1  -8   6    1.10    4.10
  -1  -8   6    0.60    0.90
   0  -8   6    7.00    5.20
   1  -8   6   34.20    8.40
   2  -8   6   -2.40    4.00
   3  -8   6    6.60    5.80
   4  -8   6   17.90   13.40
   9   7  -6    1.70    4.80
  -9  -7   6   -2.70    6.30
   8   7  -6   -2.80    3.00
  -8  -7   6   -4.80    5.40
   7   7  -6    6.30    4.00
  -7  -7   6   14.30    6.70
   6   7  -6    2.90    3.20
  -6  -7   6    3.60    4.90
   5   7  -6    1.60    2.70
  -5  -7   6   -2.90    3.70
   4   7  -6    3.80    2.70
  -4  -7   6    9.80    3.20
  -4  -7   6   10.10    5.20
   3   7  -6   50.69    6.00
  -3  -7   6   56.39    8.60
  -3  -7   6   47.90    5.50
   2   7  -6   14.80    3.20
  -2  -7   6   16.50    2.90
  -2  -7   6   17.20    5.40
  -1  -7   6   41.20    3.50
  -1  -7   6   32.50    7.10
   0  -7   6   16.30    5.50
   1  -7   6    5.30    4.70
   2  -7   6   22.10    6.90
   3  -7   6    8.50    5.70
   4  -7   6   11.60    6.40
   5  -7   6   28.30   15.90
   9   6  -6    0.40    4.80
   8   6  -6   10.30    4.70
  -8  -6   6    9.30    6.40
   7   6  -6   -2.00    2.90
  -7  -6   6    3.80    5.50
   6   6  -6   10.80    3.80
  -6  -6   6   10.60    5.50
  -5  -6   6   23.80    6.60
   4   6  -6    3.60    2.70
  -4  -6   6   10.80    3.30
  -4  -6   6    5.60    4.20
   3   6  -6    1.30    2.00
  -3  -6   6    1.60    2.00
  -3  -6   6    6.10    4.10
   2   6  -6    1.00    1.90
  -2  -6   6   -1.70    3.10
  -2  -6   6    3.80    1.90
   1   6  -6  106.49    7.20
  -1  -6   6  104.89   11.70
  -1  -6   6   90.09    6.70
   0  -6   6   23.80    2.20
   0  -6   6   30.70    6.30
   0  -6   6   26.90    2.40
   1  -6   6   15.80    5.30
   2  -6   6   45.20    8.10
   3  -6   6   21.20    6.40
   4  -6   6    5.50    5.00
  -5   6  -6    4.30    1.60
   5  -6   6    2.50    4.80
   5  -6   6    7.70    2.30
  -6   6  -6    1.20    1.70
   6  -6   6    1.20    2.00
   6  -6   6    4.90    7.90
  -9  -5   6   19.20    8.80
   8   5  -6   10.70    5.10
  -8  -5   6   10.90    7.00
   7   5  -6    8.30    4.10
  -7  -5   6    9.70    5.80
   6   5  -6   38.70    7.00
  -6  -5   6   48.10    8.00
  -5  -5   6   56.59    8.40
   4   5  -6   14.70    3.80
  -4  -5   6   15.60    3.60
  -4  -5   6   11.90    4.60
   3   5  -6    1.80    2.30
  -3  -5   6    1.80    2.20
  -3  -5   6   -0.60    3.00
   2   5  -6    3.60    2.20
  -2  -5   6    5.40    2.00
  -2  -5   6    8.20    4.00
   1   5  -6    4.40    1.90
  -1  -5   6    1.40    3.00
  -1  -5   6    4.30    1.80
   0  -5   6   23.30    2.90
   0  -5   6   31.90    6.00
   0  -5   6   30.60    2.60
   1  -5   6  181.78   13.90
   1  -5   6  161.78    9.80
   1  -5   6  158.98    9.60
   2  -5   6    7.20    1.50
   2  -5   6   -1.40    3.10
   2  -5   6    3.90    1.20
   3  -5   6   34.20    3.30
   3  -5   6   24.40    6.60
  -4   5  -6   21.20    2.70
   4  -5   6   30.10    8.20
   4  -5   6   20.80    3.00
  -5   5  -6    2.70    1.70
   5  -5   6    1.50    4.40
   5  -5   6    9.80    2.60
  -6   5  -6    1.70    2.10
   6  -5   6   -2.50    4.50
   6  -5   6    5.00    2.60
   7  -5   6   13.70    3.90
   7  -5   6   -2.80    5.20
   9   4  -6    4.50    5.10
  -9  -4   6    5.20    6.80
   8   4  -6   -2.80    3.40
  -8  -4   6   -1.10    4.90
   7   4  -6   11.60    4.70
  -7  -4   6   13.10    5.80
   6   4  -6   68.89    9.30
  -6  -4   6   70.09    9.60
   5   4  -6   55.59    8.30
  -5  -4   6   50.69    7.60
   4   4  -6    5.00    2.90
  -4  -4   6    4.30    3.70
  -4  -4   6    5.20    2.60
   3   4  -6    3.80    3.50
   3   4  -6    2.00    2.00
  -3  -4   6   -2.10    1.50
  -3  -4   6   -3.80    2.40
   2   4  -6    7.30    2.50
   2   4  -6    8.40    3.60
  -2  -4   6    7.10    2.40
  -2  -4   6    4.80    3.30
   1   4  -6   78.39    8.10
   1   4  -6   89.29    6.80
  -1  -4   6   89.39    8.70
  -1  -4   6   89.49    6.50
   0   4  -6  110.29   10.10
   0  -4   6  116.19    8.00
   0  -4   6  127.09    7.80
   0  -4   6  122.49   10.40
  -1   4  -6  100.59   10.10
   1  -4   6   74.69    5.80
   1  -4   6   83.69    9.70
   1  -4   6   82.79    5.50
   2  -4   6  134.19    8.60
   2  -4   6  129.59   11.70
   2  -4   6  121.89    8.30
  -3   4  -6   22.30    2.80
   3  -4   6   23.10    6.10
   3  -4   6   24.00    3.00
  -4   4  -6   -1.40    1.10
   4  -4   6   -0.10    3.60
   4  -4   6    0.90    1.80
  -5   4  -6    1.90    1.70
   5  -4   6    7.10    2.50
   5  -4   6    2.10    4.40
  -6   4  -6    4.20    2.30
   6  -4   6    1.40    2.40
   6  -4   6    0.80    5.10
   7  -4   6   15.40    4.10
   7  -4   6    3.90    5.60
   9   3  -6    1.90    4.70
  -9  -3   6   -0.80    6.20
   8   3  -6    3.00    3.70
  -8  -3   6   -0.10    5.20
   7   3  -6    3.60    3.80
  -7  -3   6    2.00    5.20
   6   3  -6   10.20    3.90
  -6  -3   6    8.60    5.00
   5   3  -6    3.00    2.90
  -5  -3   6    2.90    4.10
   4   3  -6   52.79    6.50
  -4  -3   6   45.60    5.70
  -4  -3   6   53.29    7.00
   3   3  -6    3.20    3.20
   3   3  -6    3.50    2.40
  -3  -3   6    1.90    3.40
  -3  -3   6    0.60    1.70
   2   3  -6    0.70    1.80
   2   3  -6    0.00    2.90
  -2  -3   6    0.50    1.60
  -2  -3   6   -0.60    2.50
   1   3  -6   24.00    4.50
   1   3  -6   21.00    3.50
  -1  -3   6   28.70    5.00
  -1  -3   6   25.70    3.70
   0   3  -6    2.50    2.60
   0  -3   6    9.50    3.00
   0  -3   6    1.10    1.60
   0  -3   6    6.10    1.70
  -1   3  -6   36.40    6.00
   1  -3   6   34.80    5.90
   1  -3   6   46.80    4.60
   1  -3   6   41.70    3.50
  -2   3  -6    0.10    1.00
  -2   3  -6    3.90    2.80
   2  -3   6    1.60    2.70
   2  -3   6    1.90    1.20
  -3   3  -6   63.09    5.00
   3  -3   6   66.89    8.80
   3  -3   6   70.29    5.40
  -4   3  -6   50.69    4.60
   4  -3   6   51.79    8.60
   4  -3   6   51.99    5.50
  -5   3  -6    4.10    2.00
   5  -3   6   -1.60    3.20
   5  -3   6    4.50    2.50
  -6   3  -6    4.90    2.50
   6  -3   6    8.10    5.00
   6  -3   6    8.50    3.00
   7  -3   6    5.50    5.60
   8  -3   6   46.70    7.20
   8  -3   6   35.80   12.40
   9   2  -6    8.80    5.30
  -9  -2   6    0.60    6.40
   8   2  -6    3.90    4.40
  -8  -2   6    3.00    5.30
   7   2  -6   29.70    6.00
  -7  -2   6   31.00    7.00
  -6  -2   6   56.49    8.30
   5   2  -6   37.00    5.90
   4   2  -6   -1.20    1.90
   4   2  -6    1.80    2.70
  -4  -2   6   -1.50    3.30
  -4  -2   6    1.50    1.80
   3   2  -6   35.50    5.20
   3   2  -6   49.30    5.90
  -3  -2   6   39.50    5.20
  -3  -2   6   36.70    5.60
   2   2  -6    5.60    3.10
   2   2  -6    1.70    2.00
  -2  -2   6   -0.20    1.60
  -2  -2   6    2.50    2.80
   1   2  -6    3.30    1.80
   1   2  -6    1.00    2.60
  -1  -2   6    3.30    1.90
  -1  -2   6   -0.90    2.80
   0   2  -6   24.70    4.50
   0  -2   6   28.30    4.70
   0  -2   6   27.00    3.10
   0  -2   6   31.00    3.90
  -1   2  -6  178.58   12.70
   1  -2   6  185.18   11.60
   1  -2   6  177.68   11.10
   1  -2   6  182.08   13.00
  -2   2  -6  103.59    6.90
  -2   2  -6  107.09    8.80
   2  -2   6   98.29    6.90
   2  -2   6   93.59    8.90
  -3   2  -6    3.70    1.50
  -3   2  -6    3.20    2.80
   3  -2   6    5.60    2.00
   3  -2   6   10.80    3.60
  -4   2  -6   -1.10    1.30
   4  -2   6    2.30    1.90
   4  -2   6    3.60    3.30
   5  -2   6   16.30    5.40
   5  -2   6   24.40    4.20
  -6   2  -6   -1.40    1.80
   6  -2   6    4.60    4.20
   6  -2   6    2.70    2.90
   7  -2   6   -3.10    4.40
   7  -2   6    5.50    2.90
   8  -2   6    1.90    3.30
   8  -2   6    5.30    6.50
   9   1  -6   11.40    6.10
  -9  -1   6    9.20   12.40
   8   1  -6    3.60    4.30
  -8  -1   6    3.30    5.50
   7   1  -6    7.60    4.30
  -7  -1   6    3.20    4.50
   6   1  -6   -3.50    2.50
  -6  -1   6    2.30    3.90
   5   1  -6   10.80    3.90
  -5  -1   6   10.20    4.60
   4   1  -6   26.30    4.60
   4   1  -6   21.10    4.10
  -4  -1   6   19.20    3.60
  -4  -1   6   21.60    4.80
   3   1  -6   34.80    5.10
   3   1  -6   46.40    6.80
  -3  -1   6   38.60    5.60
  -3  -1   6   48.30    5.90
   2   1  -6  106.49    8.60
   2   1  -6  110.39    8.80
  -2  -1   6  110.29    8.40
  -2  -1   6  112.29    9.20
   1   1  -6   76.79    6.70
   1   1  -6   77.59    7.10
  -1  -1   6   82.09    7.20
  -1  -1   6   95.29    6.90
   0   1  -6  240.78   15.20
   0  -1   6  234.38   14.30
   0  -1   6  243.38   15.50
   0  -1   6  232.38   14.90
  -1   1  -6   -0.80    2.10
   1  -1   6    0.00    2.10
   1  -1   6   -1.00    1.10
  -2   1  -6   74.79    6.90
  -2   1  -6   72.89    5.70
   2  -1   6   77.79    7.10
   2  -1   6   73.69    5.60
  -3   1  -6   96.69    8.30
  -3   1  -6   94.19    6.70
   3  -1   6   83.19    6.80
   3  -1   6   97.99    8.60
  -4   1  -6   15.00    4.20
  -4   1  -6   15.80    3.10
   4  -1   6   21.30    3.50
   4  -1   6   10.60    3.80
  -5   1  -6   -0.40    1.50
   5  -1   6   -4.10    2.70
   5  -1   6    2.80    2.50
   6  -1   6    2.20    2.60
   6  -1   6    4.20    4.20
   7  -1   6    4.70    5.50
   7  -1   6    7.30    3.60
   8  -1   6   -3.20    4.90
   8  -1   6    3.90    3.50
   9  -1   6   -1.90    5.80
   9   0  -6   10.50    5.70
  -9   0   6    4.50    7.40
   8   0  -6    3.80    4.00
  -8   0   6   -0.20    5.30
   7   0  -6   -0.30    3.10
  -7   0   6    3.00    4.60
   6   0  -6   24.40    5.50
  -6   0   6   30.50    6.60
   5   0  -6   29.90    6.80
  -5   0   6   28.90    6.90
   4   0  -6    8.60    3.00
   4   0  -6    7.80    3.00
  -4   0   6    9.90    3.60
  -4   0   6    5.60    2.70
   3   0  -6  186.18   12.60
   3   0  -6  186.68   13.00
  -3   0   6  172.88   12.80
   2   0  -6   43.00    4.90
   2   0  -6   28.60    4.50
  -2   0   6   35.80    4.40
  -2   0   6   33.40    4.80
   1   0  -6   54.39    5.40
   1   0  -6   59.09    6.10
  -1   0   6   41.90    5.10
  -1   0   6   52.59    5.60
   0   0  -6   58.69    5.50
   0   0   6   69.29    5.70
   0   0   6   62.09    5.70
   0   0   6   59.79    4.90
  -1   0  -6  210.18   12.70
  -1   0  -6  218.08   13.30
   1   0   6  196.18   13.30
   1   0   6  200.68   12.70
  -2   0  -6   20.60    3.70
  -2   0  -6   20.40    2.90
   2   0   6   28.10    4.20
   2   0   6   25.00    3.40
  -3   0  -6   38.00    5.50
  -3   0  -6   48.10    4.20
   3   0   6   42.80    4.90
   3   0   6   41.30    5.60
  -4   0  -6   73.69    8.00
  -4   0  -6   64.99    5.60
   4   0   6   71.99    8.20
   4   0   6   58.09    5.80
  -5   0  -6    6.00    2.30
  -5   0  -6    4.80    3.40
   5   0   6    9.80    2.90
   5   0   6    5.10    3.50
   6   0   6    8.60    4.50
   6   0   6   10.80    3.50
   7   0   6    5.90    3.30
   7   0   6   -0.10    4.50
   8   0   6    4.80    5.40
   8   0   6   13.90    4.50
   9   0   6   -2.60    5.90
   9   0   6   -0.40    3.70
  -9   1   6   -4.70    5.60
   8  -1  -6   -4.20    3.40
  -8   1   6    6.20    5.40
   7  -1  -6   27.20    6.50
  -7   1   6    9.10    5.00
   6  -1  -6   10.20    3.90
  -6   1   6   15.80    5.00
  -5   1   6   33.40    6.80
   4  -1  -6   19.90    4.80
  -4   1   6   19.20    3.80
  -4   1   6   19.20    4.30
  -4   1   6   29.70    5.60
   3  -1  -6   28.80    4.60
   3  -1  -6   27.10    4.30
  -3   1   6   29.60    4.70
  -3   1   6   28.10    4.40
   2  -1  -6  151.08   10.90
   2  -1  -6  153.18   10.40
  -2   1   6  146.19   10.60
  -2   1   6  152.88   10.60
   1  -1  -6  255.37   15.90
  -1   1   6  268.87   16.60
  -1   1   6  259.37   16.10
   0  -1  -6   16.40    3.00
   0   1   6   21.40    2.90
   0   1   6   19.10    3.60
   0   1   6   18.90    3.00
  -1  -1  -6   35.30    3.80
  -1  -1  -6   32.40    3.80
   1   1   6   33.10    4.00
  -2  -1  -6  222.88   13.60
  -2  -1  -6  218.48   13.40
   2   1   6  214.18   13.60
   2   1   6  207.18   13.50
  -3  -1  -6   60.29    5.20
  -3  -1  -6   61.89    5.80
   3   1   6   62.59    6.00
   3   1   6   63.99    5.50
  -4  -1  -6   28.40    4.10
  -4  -1  -6   31.80    4.90
   4   1   6   36.60    5.40
   4   1   6   33.80    4.60
  -5  -1  -6   40.80    5.30
  -5  -1  -6   41.40    6.50
   5   1   6   55.79    6.70
   5   1   6   38.90    6.20
  -6  -1  -6   48.90    7.60
   6   1   6   60.19    8.40
   6   1   6   61.69    7.30
   7   1   6    9.20    5.00
   7   1   6    4.90    3.40
   8   1   6   -1.60    2.70
   8   1   6   -0.70    4.80
  -9  -1  -6    9.20    5.80
   9   1   6    3.50    3.70
   8  -2  -6    5.10    4.60
  -8   2   6   17.80    6.80
   7  -2  -6    0.60    4.00
  -7   2   6    9.60    4.60
   6  -2  -6    9.60    4.30
  -6   2   6   16.10    5.10
  -5   2   6   40.00    6.40
   4  -2  -6    7.60    3.20
  -4   2   6    5.70    3.30
  -4   2   6    6.20    2.60
  -4   2   6    5.20    3.10
   3  -2  -6   12.80    3.70
  -3   2   6   13.40    3.40
  -3   2   6   10.10    3.60
  -3   2   6   12.60    3.10
   2  -2  -6  173.78   12.50
  -2   2   6  180.88   12.10
  -2   2   6  173.68   12.10
   1  -2  -6   15.80    3.40
   1  -2  -6    6.50    2.30
  -1   2   6   15.20    2.80
  -1   2   6    6.10    2.40
   0  -2  -6  502.05   28.70
   0   2   6  498.55   29.30
   0   2   6  521.85   29.90
   0   2   6  505.75   29.30
  -1  -2  -6  168.68   10.60
  -1  -2  -6  166.08   11.10
   1   2   6  183.98   10.70
   1   2   6  178.98   11.20
  -2  -2  -6    1.00    1.60
  -2  -2  -6    0.60    1.40
   2   2   6   -0.70    1.30
   2   2   6    0.80    1.50
  -3  -2  -6  174.58   11.70
  -3  -2  -6  181.78   11.90
   3   2   6  188.38   11.80
   3   2   6  186.38   12.10
  -4  -2  -6   73.39    6.50
   4   2   6   70.29    6.40
   4   2   6   71.69    6.50
  -5  -2  -6   -0.70    1.50
  -5  -2  -6    1.00    2.30
   5   2   6    4.20    2.80
   5   2   6    2.90    2.50
  -6  -2  -6    1.70    3.10
   6   2   6    5.70    3.80
   6   2   6    4.70    3.10
   7   2   6    1.30    2.90
   7   2   6    9.40    4.70
  -8  -2  -6   12.00    5.40
   8   2   6   17.00    5.10
  -9  -2  -6   16.20    6.50
   9   2   6    6.40    4.50
   8  -3  -6   -3.50    3.70
  -8   3   6   -0.60    4.80
   7  -3  -6   17.10    5.60
  -7   3   6   28.20    6.70
   6  -3  -6   24.20    5.80
  -6   3   6   32.20    6.40
   5  -3  -6   -3.30    2.10
  -5   3   6    5.20    3.60
   4  -3  -6   19.20    4.10
  -4   3   6   10.20    3.60
   3  -3  -6   52.89    6.50
  -3   3   6   48.80    6.10
  -3   3   6   53.79    6.10
  -3   3   6   45.90    6.50
   2  -3  -6  215.48   14.80
  -2   3   6  204.68   14.40
  -2   3   6  227.18   14.20
  -2   3   6  222.08   14.80
   1  -3  -6    9.20    2.70
  -1   3   6   10.10    2.80
  -1   3   6   11.80    2.90
  -1   3   6   12.30    2.70
   0   3   6    9.30    2.80
   0   3   6   12.80    2.50
   0   3   6   11.70    2.20
  -1  -3  -6  268.97   16.00
  -1  -3  -6  249.28   14.80
   1   3   6  262.17   15.00
   1   3   6  270.07   16.10
  -2  -3  -6  315.17   18.10
  -2  -3  -6  314.77   19.40
   2   3   6  332.07   18.20
   2   3   6  332.37   19.70
  -3  -3  -6   32.10    3.30
  -3  -3  -6   28.80    3.90
   3   3   6   33.20    3.50
   3   3   6   38.10    4.90
  -4  -3  -6   45.30    5.50
  -4  -3  -6   52.09    5.10
   4   3   6   60.69    5.20
   4   3   6   56.39    6.10
  -5  -3  -6  100.29    8.30
  -5  -3  -6  111.19    8.60
   5   3   6   90.09    8.50
   5   3   6  110.29    8.50
  -6  -3  -6    2.50    3.00
  -7  -3  -6    0.60    3.40
  -7  -3  -6   -0.80    3.40
   7   3   6    1.50    3.00
  -8  -3  -6   11.40    5.10
   8   3   6   11.70    4.70
  -9  -3  -6   25.60    7.20
   9   3   6   13.30    4.80
 -10  -3  -6    5.00    7.30
  10   3   6   16.20    8.10
   8  -4  -6   -1.80    4.00
  -8   4   6    8.00    6.10
   7  -4  -6    1.40    3.80
  -7   4   6    5.50    4.70
   6  -4  -6    0.30    3.60
  -6   4   6    7.30    4.30
   5  -4  -6   46.30    7.30
  -5   4   6   39.20    6.80
   4  -4  -6   47.80    6.70
  -4   4   6   45.10    6.60
   3  -4  -6    1.40    2.40
  -3   4   6    3.70    3.00
  -3   4   6    3.70    2.40
  -3   4   6    2.40    2.60
   2  -4  -6  339.37   21.20
  -2   4   6  328.37   20.60
  -2   4   6  330.87   21.30
  -2   4   6  336.17   20.90
  -1   4   6  269.67   16.80
  -1   4   6  275.07   17.60
  -1   4   6  283.77   17.40
  -1   4   6  267.67   16.80
   0   4   6  142.69    9.70
   0   4   6  149.29    9.50
   0   4   6  130.29   10.10
  -1  -4  -6  181.88   12.00
   1   4   6  190.18   11.00
   1   4   6  185.58   10.80
   1   4   6  187.38   12.10
  -2  -4  -6   38.10    4.40
   2   4   6   45.40    5.10
  -3  -4  -6    3.90    1.80
   3   4   6    1.40    2.00
  -4  -4  -6   32.50    3.20
  -4  -4  -6   23.20    4.00
   4   4   6   26.70    4.50
  -5  -4  -6   59.39    5.30
  -5  -4  -6   60.19    6.00
   5   4   6   79.59    8.20
  -6  -4  -6  145.89   11.60
  -6  -4  -6  163.18   11.00
   6   4   6  157.38   12.20
  -7  -4  -6   10.80    4.40
  -7  -4  -6   18.10    4.60
   7   4   6   15.80    4.80
  -8  -4  -6   -0.20    4.40
   8   4   6    1.60    3.90
  -9  -4  -6    0.90    5.00
   9   4   6   -0.80    3.70
 -10  -4  -6    1.40    6.40
  10   4   6    0.60    5.80
   7  -5  -6   -1.90    3.30
  -7   5   6   -2.80    4.70
   6  -5  -6    0.70    3.60
  -6   5   6   -0.30    4.20
   5  -5  -6   -0.50    3.00
  -5   5   6    2.50    4.10
   4  -5  -6   36.00    6.20
  -4   5   6   42.40    6.60
   3  -5  -6  144.99   11.20
  -3   5   6  147.99   11.90
  -3   5   6  126.39   10.70
  -3   5   6  127.29   10.30
   2  -5  -6   35.50    5.40
  -2   5   6   36.70    5.60
  -1   5   6   58.49    6.60
  -1   5   6   56.99    5.20
  -1   5   6   49.99    6.50
   0   5   6  379.16   22.70
   0   5   6  382.96   23.40
   0   5   6  379.46   22.70
  -1  -5  -6    4.30    1.60
   1   5   6    7.00    1.70
   1   5   6    6.30    1.60
   1   5   6    5.60    2.00
  -2  -5  -6   96.79    7.30
   2   5   6   99.09    7.60
  -3  -5  -6   86.59    8.10
   3   5   6  115.19    8.20
  -4  -5  -6  144.69    8.80
  -4  -5  -6  134.49   10.20
   4   5   6  150.48   10.70
  -5  -5  -6   23.60    3.30
  -5  -5  -6   21.10    3.50
   5   5   6   17.60    4.00
  -6  -5  -6   27.40    4.20
  -6  -5  -6   16.10    3.80
   6   5   6   13.90    4.40
  -7  -5  -6   -0.60    3.70
  -7  -5  -6    6.60    3.80
   7   5   6    2.60    3.30
  -8  -5  -6  157.58   12.50
   8   5   6  123.89   12.20
  -9  -5  -6    0.70    5.40
   9   5   6    4.00    3.90
 -10  -5  -6   10.80    7.40
  10   5   6    3.50    4.50
   7  -6  -6    3.60    4.60
  -7   6   6   10.10   11.20
   6  -6  -6   -0.70    3.60
  -6   6   6  -11.60    3.60
   5  -6  -6   -2.30    3.00
  -5   6   6    2.40    3.90
   4  -6  -6   21.00    5.50
   3  -6  -6    7.80    4.60
   3  -6  -6   11.70    3.90
  -3   6   6    2.00    2.50
   2  -6  -6  106.79    9.70
  -2   6   6  114.49    8.20
  -2   6   6   94.29    8.40
  -2   6   6   95.39    9.30
   1  -6  -6  344.97   22.50
  -1   6   6  376.76   21.90
  -1   6   6  369.66   22.80
  -1   6   6  343.37   22.40
   0  -6  -6   98.99    7.30
   0   6   6   81.09    6.90
   0   6   6   76.19    7.10
   0   6   6   80.79    6.60
  -1  -6  -6  166.68   10.80
  -1  -6  -6  165.88   11.30
   1   6   6  174.38   11.50
   1   6   6  173.28   10.90
  -2  -6  -6   43.40    5.00
   2   6   6   40.80    3.10
   2   6   6   44.10    5.00
  -3  -6  -6   32.30    4.50
   3   6   6   39.90    5.20
  -4  -6  -6   -1.10    1.00
  -4  -6  -6   -0.60    1.10
  -4  -6  -6    3.10    1.90
   4   6   6   -0.70    1.50
  -5  -6  -6   24.80    3.50
   5   6   6   19.20    4.10
  -6  -6  -6   35.20    4.80
  -6  -6  -6   36.80    5.20
   6   6   6   39.90    6.50
  -7  -6  -6    0.40    3.10
  -7  -6  -6    4.80    3.80
   7   6   6   -0.10    2.90
  -8  -6  -6    5.80    4.50
  -8  -6  -6   -1.70    3.70
   8   6   6   10.80    4.70
  -9  -6  -6   25.90    7.00
   9   6   6   19.80    5.70
 -10  -6  -6   17.80    7.70
  10   6   6    0.90    4.40
   6  -7  -6   -1.70    3.70
  -6   7   6    4.30    5.00
   5  -7  -6   19.30    5.20
   4  -7  -6   12.00    4.50
   4  -7  -6    7.30    5.00
   3  -7  -6    3.10    4.20
  -3   7   6    0.20    2.30
   2  -7  -6   12.20    4.70
  -2   7   6   11.20    4.20
  -2   7   6   12.00    3.50
  -2   7   6   18.50    3.40
   1  -7  -6   71.19    8.30
  -1   7   6   64.19    5.60
  -1   7   6   46.90    7.10
   0  -7  -6  136.59   10.60
   0   7   6  139.49   10.60
   0   7   6  140.19   10.70
   0   7   6  157.18   10.20
  -1  -7  -6   42.60    4.90
  -1  -7  -6   38.70    4.90
   1   7   6   40.60    5.10
   1   7   6   37.10    4.60
  -2  -7  -6   53.29    5.20
  -2  -7  -6   60.79    4.70
   2   7   6   59.09    4.70
   2   7   6   62.19    5.70
  -3  -7  -6   51.89    6.00
  -3  -7  -6   48.70    3.70
   3   7   6   56.19    6.40
   3   7   6   45.40    3.50
  -4  -7  -6   15.00    2.20
   4   7   6   14.80    3.90
  -5  -7  -6   26.30    3.50
  -5  -7  -6   20.60    3.40
   5   7   6   32.00    6.40
  -6  -7  -6   28.90    4.60
  -6  -7  -6   29.50    4.30
   6   7   6   22.50    4.90
  -7  -7  -6    0.60    3.00
  -7  -7  -6    3.10    3.20
   7   7   6    7.00    3.40
  -8  -7  -6   13.30    5.10
  -8  -7  -6    9.20    4.70
   8   7   6    9.40    4.10
  -9  -7  -6    2.20    5.40
   9   7   6    2.00    4.30
 -10  -7  -6   -3.30    6.00
  10   7   6   -2.60    3.50
   6  -8  -6    3.50    4.20
  -6   8   6   11.90    9.30
   5  -8  -6   -4.00    5.00
   5  -8  -6    3.80    3.60
   4  -8  -6   24.40    7.40
  -4   8   6   37.80    5.70
   3  -8  -6   24.20    6.90
  -3   8   6   21.90    4.20
   2  -8  -6   20.80    5.60
  -2   8   6   15.00    3.40
  -2   8   6    8.70    3.40
   1  -8  -6    1.20    3.50
  -1   8   6    2.10    1.90
  -1   8   6   -1.70    1.90
  -1   8   6   -0.20    2.80
   0  -8  -6   75.19    7.60
   0   8   6   79.29    6.70
   0   8   6   68.69    8.10
   0   8   6   83.79    8.80
  -1  -8  -6  229.78   14.70
  -1  -8  -6  229.28   15.00
   1   8   6  232.58   14.90
   1   8   6  218.28   14.60
  -2  -8  -6    5.00    2.20
  -2  -8  -6    3.00    1.90
   2   8   6    5.30    2.00
   2   8   6    7.50    2.90
  -3  -8  -6   14.10    2.70
  -3  -8  -6   10.10    2.80
   3   8   6   12.30    3.30
  -4  -8  -6   60.59    5.10
   4   8   6   73.89    8.00
   4   8   6   65.69    5.50
   5   8   6  182.28   13.60
  -6  -8  -6    3.90    2.60
  -6  -8  -6   -1.50    2.50
   6   8   6   -0.80    3.20
  -7  -8  -6    5.50    3.30
  -7  -8  -6    2.20    3.20
   7   8   6    3.90    3.50
  -8  -8  -6   23.20    5.60
  -8  -8  -6   28.20    5.60
   8   8   6   30.40    6.70
  -9  -8  -6   21.90    6.30
   9   8   6    6.40    4.50
   5  -9  -6    9.00    7.20
  -5   9   6   15.30    4.30
   4  -9  -6   26.70    8.10
  -4   9   6   27.70    4.90
   3  -9  -6   -1.80    4.30
  -3   9   6   -0.50    2.10
   2  -9  -6   26.80    7.20
  -2   9   6   21.90    4.80
  -2   9   6   25.70    4.40
   1  -9  -6   59.89    8.90
  -1   9   6   41.40    6.20
  -1   9   6   38.10    5.20
   0  -9  -6   26.60    5.50
   0   9   6   19.00    3.70
   0   9   6   14.70    4.10
   0   9   6   20.80    4.50
  -1  -9  -6   -0.80    2.60
   1   9   6    2.40    2.60
   1   9   6    2.70    2.40
   1   9   6    3.10    2.10
  -2  -9  -6   67.09    6.00
  -2  -9  -6   66.09    6.50
   2   9   6   62.79    5.90
   2   9   6   69.49    7.60
  -3  -9  -6   64.79    6.20
   3   9   6   65.59    5.90
   3   9   6   83.09    8.50
  -4  -9  -6    4.20    2.40
   4   9   6    0.90    1.90
   4   9   6    1.60    4.40
  -5  -9  -6   10.20    2.80
   5   9   6    9.50    2.50
   5   9   6   10.20    4.00
  -6  -9  -6   40.20    5.00
  -6  -9  -6   34.80    5.00
   6   9   6   33.00    6.00
  -7  -9  -6   -0.30    2.90
  -7  -9  -6    2.50    3.10
   7   9   6    2.40    3.40
  -8  -9  -6    2.20    3.80
  -8  -9  -6    2.80    4.30
   8   9   6   -0.30    3.70
  -9  -9  -6   10.80    4.80
   9   9   6    3.40    4.10
   4 -10  -6   13.40    7.20
  -4  10   6    3.70    3.30
   3 -10  -6   -0.70    5.20
  -3  10   6    1.00    2.30
   2 -10  -6   -2.80    4.20
  -2  10   6   -1.40    2.10
  -2  10   6    1.60    2.80
   1 -10  -6   52.09    8.70
  -1  10   6   59.79    6.70
  -1  10   6   47.90    6.80
   0 -10  -6  106.39   10.50
   0  10   6   96.89    9.20
   0  10   6  120.39    8.70
   0  10   6  100.99    9.90
  -1 -10  -6   32.40    6.00
   1  10   6   30.80    5.40
   1  10   6   18.70    5.30
   1  10   6   27.90    4.60
  -2 -10  -6    1.90    2.00
  -2 -10  -6    0.20    2.80
   2  10   6    2.80    2.50
   2  10   6   -0.60    2.00
  -3 -10  -6  155.68   11.30
   3  10   6  142.79   11.20
  -4 -10  -6    5.80    2.90
   4  10   6   15.00    4.00
   4  10   6    9.60    3.10
  -5 -10  -6   25.40    4.20
   5  10   6   25.00    5.10
   5  10   6   16.10    3.20
  -6 -10  -6   -1.00    2.80
   6  10   6    1.90    3.20
   6  10   6    5.60    2.50
  -7 -10  -6    7.00    3.70
  -7 -10  -6   17.30    4.30
   7  10   6   11.60    4.00
  -8 -10  -6   31.30    5.60
  -8 -10  -6   19.90    6.10
   8  10   6   38.80    7.60
  -9 -10  -6    4.10    4.10
   9  10   6   -2.20    3.80
   3 -11  -6   11.00    6.60
  -3  11   6   -0.90    1.90
   2 -11  -6   12.10    6.30
  -2  11   6    7.70    2.80
  -2  11   6    3.80    4.50
   1 -11  -6    0.20    4.40
  -1  11   6    2.20    3.00
  -1  11   6    0.60    1.70
   0  11   6    6.80    2.80
   0  11   6    1.40    3.00
  -1 -11  -6   32.00    6.60
   1  11   6   22.40    4.80
   1  11   6   36.80    5.40
   1  11   6   42.80    6.60
  -2 -11  -6   57.39    8.00
   2  11   6   58.09    6.80
   2  11   6   41.90    6.80
  -3 -11  -6   45.40    6.80
   3  11   6   44.30    5.70
  -4 -11  -6   30.20    5.30
   4  11   6   34.60    5.80
   4  11   6   23.10    4.50
  -5 -11  -6   19.00    4.30
   5  11   6   10.40    3.40
   5  11   6   24.20    5.20
  -6 -11  -6   -0.20    3.00
   6  11   6    3.70    3.20
   6  11   6    2.30    2.70
  -7 -11  -6    3.10    3.60
   7  11   6    0.30    3.00
  -8 -11  -6    8.00    3.90
  -8 -11  -6    5.30    4.40
   8  11   6    6.10    4.40
   2 -12  -6    2.80    5.90
  -2  12   6   -0.10    2.10
   1 -12  -6    7.80    5.80
  -1  12   6    2.20    2.40
  -1  12   6    5.70    3.50
   0 -12  -6   80.59   11.50
   0  12   6   60.59    8.00
   0  12   6   62.19    7.00
   1  12   6   -0.60    2.20
  -2 -12  -6   26.60    6.60
   2  12   6   29.20    5.10
   2  12   6   27.90    5.50
  -3 -12  -6   26.20    5.80
   3  12   6   14.50    4.20
   3  12   6   18.70    4.10
  -4 -12  -6    4.50    4.00
   4  12   6    8.40    3.90
   4  12   6    8.00    3.60
  -5 -12  -6   -1.90    3.50
   5  12   6    0.60    3.00
   5  12   6   -3.30    2.90
  -6 -12  -6    5.50    3.90
   6  12   6   -0.30    2.70
   6  12   6   -1.70    2.60
  -7 -12  -6   11.00    4.40
   7  12   6   12.20    4.30
   7  12   6    0.70    3.60
  -8 -12  -6    3.30    4.50
  -8 -12  -6    6.00    4.30
   8  12   6    4.60    4.10
   0 -13  -6   22.50    7.10
   0  13   6   18.80    5.70
   0  13   6   27.00    4.60
  -1 -13  -6   11.80    6.10
   1  13   6    4.80    2.90
  -2 -13  -6    4.50    9.40
  -3 -13  -6    3.70    4.70
   3  13   6    0.70    2.60
  -4 -13  -6   15.80    5.40
   4  13   6   18.40    4.80
   4  13   6   12.90    4.60
  -5 -13  -6    6.20    4.60
   5  13   6    7.30    3.70
   5  13   6   -1.90    3.70
  -6 -13  -6    4.10    4.50
   6  13   6    1.10    4.00
   6  13   6   -0.50    2.90
  -7 -13  -6    0.40    4.40
   7  13   6    0.90    4.70
   7  13   6    4.60    4.10
  -2 -14  -6    3.00    5.70
   2  14   6    2.10    2.70
  -3 -14  -6   21.00    6.60
   3  14   6   12.80    3.90
  -4 -14  -6    7.20    5.00
   4  14   6    1.90    3.10
  -5 -14  -6    3.30    5.30
   5  14   6    5.30    3.50
   4  11  -7    2.80    2.90
  -4 -11   7   -2.20    6.50
  -4 -11   7    0.30    2.70
  -3 -11   7    0.60    1.70
  -3 -11   7    7.70   11.20
  -2 -11   7    1.40    6.30
  -1 -11   7   -8.50    5.10
   6  10  -7   -1.00    3.00
   5  10  -7    2.50    3.00
  -5 -10   7    6.00    6.60
   4  10  -7    2.10    2.70
  -4 -10   7   -0.40    2.60
  -4 -10   7   -1.60    5.50
   3  10  -7    3.20    2.60
  -3 -10   7    9.00    2.70
  -3 -10   7   14.30    6.40
  -2 -10   7   -4.90    4.30
  -1 -10   7    4.90    6.00
   0 -10   7    4.50    5.90
   1 -10   7   21.10    8.00
   7   9  -7   -3.90    2.60
  -7  -9   7   -2.00    8.20
   6   9  -7    4.10    3.40
  -6  -9   7   -4.50    5.40
   5   9  -7   12.40    4.20
  -5  -9   7    8.50    6.40
   4   9  -7   -1.50    2.50
  -4  -9   7   -0.50    2.80
  -4  -9   7    2.00    5.40
   3   9  -7    0.90    2.20
  -3  -9   7    3.30    4.90
  -3  -9   7    3.20    2.40
  -2  -9   7   -0.50    1.50
  -2  -9   7   -0.50    4.70
  -1  -9   7   25.90    7.80
   0  -9   7   -4.70    4.20
   1  -9   7   -1.70    4.90
   2  -9   7    5.80    6.30
   3  -9   7   26.80    9.70
   8   8  -7   12.60    5.40
  -8  -8   7    6.50    6.50
   7   8  -7    3.20    3.50
  -7  -8   7    1.60    6.20
   6   8  -7   -1.00    3.10
  -6  -8   7   -3.60    5.40
   5   8  -7    1.60    3.20
  -5  -8   7   14.20    5.90
   4   8  -7    8.80    3.30
  -4  -8   7   10.20    5.50
   3   8  -7    1.80    2.20
  -3  -8   7    2.00    2.70
  -3  -8   7    1.60    4.40
   2   8  -7    3.00    2.10
  -2  -8   7    1.70    2.00
  -2  -8   7    0.20    4.40
  -1  -8   7   12.50    5.80
  -1  -8   7   15.20    1.90
  -1  -8   7   11.90    2.90
   0  -8   7   -3.20    4.00
   1  -8   7   27.20    8.10
   2  -8   7   10.70    6.30
   3  -8   7   25.10    8.40
   4  -8   7    7.90    6.30
   8   7  -7    1.70    4.30
  -8  -7   7    6.80    6.70
   7   7  -7    1.50    3.50
  -7  -7   7   10.10    6.90
   6   7  -7   38.50    6.60
  -6  -7   7   41.00    8.30
   5   7  -7   24.90    5.20
  -5  -7   7   18.90    6.60
   4   7  -7    8.70    3.30
  -4  -7   7    4.10    4.50
   3   7  -7    3.00    2.30
  -3  -7   7    9.30    5.00
  -3  -7   7    8.30    3.40
   2   7  -7   23.50    4.10
  -2  -7   7   33.70    7.40
  -2  -7   7   33.40    4.20
  -1  -7   7    1.60    1.40
  -1  -7   7   -0.70    3.90
  -1  -7   7    1.80    1.40
   0  -7   7    1.20    3.90
   1  -7   7    5.70    4.60
   2  -7   7   13.40    6.00
   3  -7   7    7.00    5.80
   4  -7   7    0.30    5.70
   5  -7   7   -2.00    5.10
   8   6  -7    0.10    4.10
  -8  -6   7    2.40    6.60
   7   6  -7    8.10    4.60
  -7  -6   7    3.70    5.20
   6   6  -7    0.60    3.10
  -6  -6   7    4.30    5.40
   5   6  -7    1.00    2.90
  -5  -6   7   -2.60    4.00
   4   6  -7   53.59    7.10
  -4  -6   7   72.19    9.40
   3   6  -7   24.20    4.40
  -3  -6   7   25.60    4.30
  -3  -6   7   32.00    6.70
   2   6  -7   -1.40    1.90
  -2  -6   7    2.00    1.90
  -2  -6   7    1.80    3.60
  -1  -6   7   35.40    3.60
  -1  -6   7   26.60    3.50
  -1  -6   7   28.10    6.40
   0  -6   7   10.30    4.80
   0  -6   7   12.20    2.00
   0  -6   7    9.70    2.00
   1  -6   7   -0.80    3.80
   2  -6   7   11.50    5.40
   3  -6   7   38.60    8.60
   4  -6   7   18.70    6.70
   5  -6   7    0.30    4.90
  -6   6  -7    5.70    2.40
   6  -6   7    7.90    7.10
   6  -6   7    3.00    2.20
   9   5  -7    8.50    5.30
  -9  -5   7   -1.00    6.20
   8   5  -7    0.60    3.50
  -8  -5   7    2.70    5.70
   7   5  -7   21.10    5.70
  -7  -5   7   11.90    5.80
   6   5  -7   -2.20    2.70
  -6  -5   7   -1.00    4.10
   5   5  -7   17.80    4.30
  -5  -5   7   33.30    6.90
   4   5  -7   19.80    4.30
  -4  -5   7   25.50    6.20
   3   5  -7   64.39    7.20
  -3  -5   7   67.69    8.70
  -3  -5   7   57.39    6.60
   2   5  -7    0.30    1.90
  -2  -5   7    2.70    1.90
   1   5  -7   16.10    3.10
  -1  -5   7   29.40    6.10
  -1  -5   7   21.90    3.20
   0  -5   7    2.00    1.20
   0  -5   7    2.20    1.60
   1  -5   7   10.80    2.10
   1  -5   7   11.40    1.90
   1  -5   7   12.20    4.60
   2  -5   7    4.10    3.90
   2  -5   7   12.80    1.90
   3  -5   7   33.10    7.30
   3  -5   7   20.40    3.00
  -4   5  -7   15.80    2.50
   4  -5   7   16.30    2.70
   4  -5   7   22.30    7.20
  -5   5  -7    3.10    1.80
   5  -5   7    4.80    2.30
   5  -5   7    0.30    4.60
  -6   5  -7    1.30    1.90
   6  -5   7    1.30    5.40
   6  -5   7   -1.40    2.00
   9   4  -7    4.30    4.20
  -9  -4   7    1.80    7.40
   8   4  -7   -5.60    2.80
  -8  -4   7   -3.60    6.00
   7   4  -7    4.80    4.40
  -7  -4   7    9.40    5.70
   6   4  -7   24.10    5.90
  -6  -4   7   27.90    6.80
   5   4  -7   14.80    4.40
  -5  -4   7   16.20    5.40
   4   4  -7   13.20    4.00
  -4  -4   7    0.40    3.10
   3   4  -7   10.40    3.10
  -3  -4   7   10.00    4.20
  -3  -4   7   11.50    3.20
   2   4  -7   26.70    4.50
  -2  -4   7   23.50    5.20
  -2  -4   7   26.60    4.10
   1   4  -7   60.89    5.50
   1   4  -7   58.99    7.50
  -1  -4   7   53.29    7.50
  -1  -4   7   53.29    5.60
   0   4  -7   31.50    7.30
   0  -4   7   26.90    5.40
   0  -4   7   36.20    4.20
   0  -4   7   35.60    3.40
   1  -4   7    9.90    2.40
   1  -4   7   14.70    2.20
   1  -4   7    7.10    3.90
   2  -4   7   63.79    4.80
   2  -4   7   39.10    9.50
   2  -4   7   61.89    5.20
  -3   4  -7    2.80    1.50
   3  -4   7    0.30    3.70
   3  -4   7    3.10    1.70
  -4   4  -7    0.20    1.30
   4  -4   7    0.80    1.80
   4  -4   7   -4.40    3.30
  -5   4  -7    1.00    1.70
   5  -4   7   11.90    6.40
   5  -4   7    2.50    2.20
  -6   4  -7    6.70    2.40
   6  -4   7    7.00    2.90
   6  -4   7    4.20    5.10
   7  -4   7    6.40    3.40
   7  -4   7    2.90    6.10
   9   3  -7    0.10    4.20
  -9  -3   7    2.20    7.60
   8   3  -7   -1.30    3.30
  -8  -3   7   -1.40    5.80
   7   3  -7   -1.70    3.30
  -7  -3   7   -2.50    4.80
   6   3  -7    1.60    2.90
  -6  -3   7    1.50    4.90
   5   3  -7    1.00    2.70
  -5  -3   7    8.30    5.40
   4   3  -7   32.60    5.50
  -4  -3   7   31.50    6.00
   3   3  -7   42.80    6.10
   3   3  -7   60.09    8.20
  -3  -3   7   63.69    6.60
  -3  -3   7   57.19    7.30
   2   3  -7   16.80    3.50
   2   3  -7   10.40    3.90
  -2  -3   7   11.70    4.10
  -2  -3   7    7.20    2.70
   1   3  -7   32.40    5.40
   1   3  -7   33.70    4.60
  -1  -3   7   37.60    5.90
  -1  -3   7   27.60    4.00
   0   3  -7   22.70    4.90
   0  -3   7   31.60    3.60
   0  -3   7   32.40    5.50
   0  -3   7   29.50    4.10
  -1   3  -7    5.70    2.90
   1  -3   7    0.80    1.30
   1  -3   7    2.90    1.80
   1  -3   7    4.60    3.20
  -2   3  -7    7.50    3.60
   2  -3   7    3.60    1.60
   2  -3   7    2.80    1.90
   2  -3   7    1.30    2.90
  -3   3  -7   86.49    6.40
   3  -3   7   84.59   10.10
   3  -3   7   88.49    6.60
  -4   3  -7   96.59    6.90
   4  -3   7   84.99    7.00
   4  -3   7   86.79   11.00
  -5   3  -7    1.40    1.90
   5  -3   7    1.20    3.90
   5  -3   7    2.10    2.20
  -6   3  -7    1.50    2.00
   6  -3   7    5.50    5.00
   6  -3   7    3.40    2.70
   7  -3   7   14.20    6.70
   7  -3   7   16.70    5.20
   9   2  -7    0.20    4.60
  -9  -2   7    3.00    7.40
   8   2  -7    7.80    4.30
  -8  -2   7   11.00    6.90
   7   2  -7    3.00    3.60
  -7  -2   7    7.80    5.60
   6   2  -7   39.00    6.90
  -6  -2   7   33.30    7.30
   5   2  -7   30.60    5.60
  -5  -2   7   39.10    6.70
   4   2  -7    6.80    3.00
  -4  -2   7    3.40    4.00
   3   2  -7    2.80    2.50
   3   2  -7    2.20    2.80
  -3  -2   7    3.50    2.20
  -3  -2   7    6.30    3.30
   2   2  -7  115.49    9.00
   2   2  -7  116.69    9.40
  -2  -2   7  103.59    9.50
  -2  -2   7  108.09    8.50
   1   2  -7  189.08   12.90
   1   2  -7  185.38   12.30
  -1  -2   7  190.88   13.10
  -1  -2   7  157.38   11.80
   0   2  -7   22.50    4.50
   0  -2   7   21.20    4.60
   0  -2   7   27.00    3.90
   0  -2   7   24.60    3.20
  -1   2  -7    7.40    3.20
   1  -2   7    4.10    2.20
   1  -2   7    8.20    1.80
   1  -2   7    5.70    3.10
  -2   2  -7   86.09    8.40
  -2   2  -7   90.79    6.50
   2  -2   7   93.99    8.80
   2  -2   7   95.39    6.70
  -3   2  -7   61.69    8.00
  -3   2  -7   50.79    4.70
   3  -2   7   56.69    5.00
   3  -2   7   59.79    7.90
  -4   2  -7    0.40    1.50
   4  -2   7   -0.10    2.00
   4  -2   7   -0.30    2.90
  -5   2  -7   34.30    4.70
   5  -2   7   45.30    5.70
   5  -2   7   46.00    8.10
   6  -2   7    4.70    4.80
   6  -2   7    3.90    2.60
   7  -2   7    4.70    3.20
   7  -2   7    6.90    5.50
   8  -2   7    7.70    6.90
   8  -2   7   -0.10    3.00
   9   1  -7   -1.90    3.80
  -9  -1   7   11.90    7.70
   8   1  -7    2.00    4.10
  -8  -1   7    2.40    5.60
   7   1  -7   10.30    4.30
  -7  -1   7   11.90    5.50
   6   1  -7    2.20    3.60
  -6  -1   7   -0.60    4.80
   5   1  -7   13.10    4.10
  -5  -1   7   12.40    4.60
   4   1  -7   14.50    3.80
  -4  -1   7   18.70    4.80
   3   1  -7    9.10    3.70
   3   1  -7    4.50    2.60
  -3  -1   7    8.30    4.00
  -3  -1   7    8.50    2.70
   2   1  -7   39.20    5.40
   2   1  -7   54.49    6.00
  -2  -1   7   40.90    5.70
  -2  -1   7   42.10    5.60
   1   1  -7  269.27   17.50
   1   1  -7  275.97   17.50
  -1  -1   7  277.57   17.40
  -1  -1   7  277.27   17.90
   0   1  -7    4.40    3.00
   0  -1   7   -0.50    1.80
   0  -1   7    1.00    2.40
   0  -1   7    3.80    1.70
  -1   1  -7   17.20    3.70
   1  -1   7   18.30    3.40
   1  -1   7   17.60    2.70
   1  -1   7   15.50    3.60
  -2   1  -7   46.60    6.10
  -2   1  -7   42.40    4.10
   2  -1   7   41.30    5.90
   2  -1   7   50.09    5.00
  -3   1  -7  109.59   11.20
  -3   1  -7  113.09    8.00
   3  -1   7  115.29    8.30
   3  -1   7  117.99    9.90
  -4   1  -7   32.40    6.00
  -4   1  -7   29.80    4.10
   4  -1   7   31.80    6.00
   4  -1   7   35.80    4.90
  -5   1  -7   -0.90    1.60
   5  -1   7    3.30    2.30
   5  -1   7   -0.60    3.10
   6  -1   7   20.60    6.30
   6  -1   7   31.30    5.20
   7  -1   7   40.30    8.70
   7  -1   7   28.10    5.30
   8  -1   7   -4.00    5.60
   8  -1   7   -0.50    3.30
   9   0  -7   -0.70    4.50
  -9   0   7    9.30    6.80
   8   0  -7   -3.00    3.80
  -8   0   7   -0.20    4.90
   7   0  -7   23.20    5.90
  -7   0   7   24.80    6.60
   6   0  -7   13.30    4.80
  -6   0   7    9.70    5.00
   5   0  -7   -0.80    2.50
  -5   0   7   -5.20    3.10
   4   0  -7    5.80    3.00
  -4   0   7   16.40    4.20
   3   0  -7  126.39   10.60
   3   0  -7  139.69   10.50
  -3   0   7  134.49   10.40
  -3   0   7  148.59   11.20
   2   0  -7   33.10    5.00
   2   0  -7   55.59    5.80
  -2   0   7   38.70    5.60
  -2   0   7   49.20    5.80
   1   0  -7  119.29    9.00
   1   0  -7  117.69    9.20
  -1   0   7  115.79    8.90
  -1   0   7  111.69    9.20
   0   0  -7    6.50    2.70
   0   0   7    5.30    2.40
   0   0   7    5.20    2.40
   0   0   7    9.00    2.20
  -1   0  -7  180.38   12.00
   1   0   7  163.08   11.80
   1   0   7  178.88   11.30
  -2   0  -7   58.79    5.00
  -2   0  -7   61.89    6.50
   2   0   7   59.09    6.50
   2   0   7   55.09    5.10
  -3   0  -7   18.10    3.00
  -3   0  -7   23.80    4.30
   3   0   7   13.80    3.60
   3   0   7   13.60    3.00
  -4   0  -7   55.09    6.70
  -4   0  -7   53.19    7.70
   4   0   7   63.49    6.50
   4   0   7   61.59    7.90
  -5   0  -7   38.50    4.90
  -5   0  -7   32.50    6.10
   5   0   7   25.80    5.70
   5   0   7   33.60    5.10
   6   0   7   29.20    5.40
   7   0   7    7.00    3.60
   7   0   7    4.20    4.90
   8   0   7   18.50    6.30
   8   0   7   18.80    5.10
   9   0   7    7.40    6.50
   9   0   7   11.90    4.80
   8  -1  -7    7.10    4.90
  -8   1   7    3.70    5.40
   7  -1  -7   19.60    6.20
  -7   1   7   14.60    5.20
   6  -1  -7   58.59    8.10
  -6   1   7   56.69    8.10
   5  -1  -7    9.20    4.10
  -5   1   7   12.00    4.60
   4  -1  -7   79.99    9.20
  -4   1   7   81.39    8.30
   3  -1  -7   28.20    4.60
   3  -1  -7   26.60    4.50
  -3   1   7   25.90    4.30
  -3   1   7   27.10    4.70
   2  -1  -7   59.49    7.20
   2  -1  -7   67.09    6.30
  -2   1   7   76.19    6.90
  -2   1   7   79.19    6.80
   1  -1  -7   81.49    7.10
   1  -1  -7   74.39    6.60
  -1   1   7   77.39    7.00
  -1   1   7   74.29    6.80
   0  -1  -7  149.79   10.10
   0   1   7  144.09    9.90
   0   1   7  153.88   10.20
  -1  -1  -7   15.20    2.60
  -1  -1  -7   16.00    3.00
   1   1   7    9.10    2.40
   1   1   7   11.50    2.70
  -2  -1  -7  289.47   17.10
  -2  -1  -7  269.37   17.10
   2   1   7  288.77   17.20
   2   1   7  269.77   17.20
  -3  -1  -7  185.08   12.40
  -3  -1  -7  192.28   12.10
   3   1   7  187.38   12.70
   3   1   7  171.68   12.10
  -4  -1  -7   26.00    4.00
  -4  -1  -7   33.40    5.10
   4   1   7   27.00    4.90
   4   1   7   22.70    4.10
  -5  -1  -7   15.20    3.60
  -5  -1  -7   18.00    4.90
   5   1   7   19.00    4.80
   5   1   7   14.10    3.50
   6   1   7   41.00    7.30
   6   1   7   39.60    6.90
   7   1   7    0.30    4.50
   7   1   7    5.50    3.30
   8   1   7    7.80    5.90
   8   1   7    4.30    3.60
   9   1   7    1.10    4.30
   8  -2  -7   15.20    6.20
  -8   2   7   12.00    6.80
   7  -2  -7   22.20    6.20
  -7   2   7   17.90    6.00
   6  -2  -7    6.50    4.20
  -6   2   7    4.30    4.30
   5  -2  -7   23.00    5.10
  -5   2   7   29.20    5.70
   4  -2  -7   15.40    4.10
  -4   2   7   12.00    4.00
   3  -2  -7   47.20    6.30
  -3   2   7   33.00    5.00
  -3   2   7   34.60    5.90
  -3   2   7   45.50    5.80
   2  -2  -7   30.90    4.90
   2  -2  -7   24.70    4.10
  -2   2   7   30.80    6.00
  -2   2   7   31.60    4.50
   1  -2  -7   43.00    5.70
   1  -2  -7   53.39    5.20
  -1   2   7   58.69    6.00
  -1   2   7   45.40    5.70
   0  -2  -7  562.44   32.50
   0   2   7  582.24   33.10
   0   2   7  571.84   32.80
  -1  -2  -7   91.89    6.50
  -1  -2  -7   92.59    6.80
   1   2   7   87.69    6.90
   1   2   7   89.59    6.60
  -2  -2  -7   -0.40    1.50
  -2  -2  -7   -0.60    1.90
   2   2   7   -1.10    1.70
   2   2   7   -0.20    1.50
  -3  -2  -7  137.09    9.60
  -3  -2  -7  132.99    9.30
   3   2   7  131.89    9.40
   3   2   7  148.39    9.90
  -4  -2  -7  137.69   10.00
  -4  -2  -7  144.39   10.30
   4   2   7  131.69   10.20
   4   2   7  151.78   10.40
  -5  -2  -7   11.60    3.60
  -5  -2  -7    8.80    3.50
   5   2   7   11.80    4.00
   5   2   7   13.50    3.80
  -6  -2  -7    7.90    4.10
   6   2   7    9.00    3.90
   6   2   7    8.30    3.40
   7   2   7   17.20    4.70
   7   2   7   12.20    5.00
   8   2   7   14.80    5.10
  -9  -2  -7   14.80    6.60
   9   2   7    4.80    4.10
   8  -3  -7   -2.30    4.30
  -8   3   7    3.20    9.50
   7  -3  -7   -0.30    3.70
  -7   3   7    4.40    5.10
   6  -3  -7   31.50    6.70
  -6   3   7   22.20    6.00
   5  -3  -7    4.40    3.50
  -5   3   7    5.00    3.40
   4  -3  -7    6.40    3.70
  -4   3   7    4.10    3.00
   3  -3  -7   41.20    6.10
  -3   3   7   45.30    6.00
  -3   3   7   49.70    6.80
  -3   3   7   56.69    6.30
   2  -3  -7   90.39    7.90
  -2   3   7   83.69    7.00
  -2   3   7   67.79    7.30
  -2   3   7   84.29    7.40
  -1   3   7   80.29    6.70
  -1   3   7   91.19    7.60
  -1   3   7   87.49    6.80
  -1   3   7   85.89    7.20
   0  -3  -7  142.39    9.40
   0   3   7  146.99   10.70
   0   3   7  146.79    9.70
   0   3   7  146.69   10.00
  -1  -3  -7  479.05   27.40
  -1  -3  -7  453.35   26.20
   1   3   7  463.35   27.40
   1   3   7  467.45   26.40
  -2  -3  -7  128.29    9.00
  -2  -3  -7  123.59    7.90
   2   3   7  131.39    8.00
  -3  -3  -7   45.60    4.10
   3   3   7   49.40    5.90
   3   3   7   51.79    4.20
  -4  -3  -7   52.59    5.10
  -4  -3  -7   59.99    6.40
   4   3   7   54.29    5.30
   4   3   7   51.69    6.50
  -5  -3  -7   10.10    3.10
   5   3   7    5.80    2.90
   5   3   7    9.80    3.20
  -6  -3  -7   26.60    5.20
   6   3   7   31.70    5.70
   6   3   7   30.80    5.70
  -7  -3  -7    1.50    4.00
  -7  -3  -7    6.00    4.10
   7   3   7   11.60    4.30
  -8  -3  -7   40.90    7.60
   8   3   7   36.90    6.90
  -9  -3  -7   23.00    7.40
   9   3   7   15.20    5.60
   8  -4  -7   -0.40    4.70
  -8   4   7    4.70    6.00
   7  -4  -7    3.80    4.60
  -7   4   7    1.10    4.60
   6  -4  -7   -0.90    3.30
  -6   4   7   -1.10    4.30
   5  -4  -7   20.00    5.30
  -5   4   7   21.90    5.50
   4  -4  -7   22.30    6.10
   3  -4  -7   -1.00    2.30
  -3   4   7    2.80    2.80
  -3   4   7   -1.30    2.50
  -3   4   7    3.20    2.40
   2  -4  -7   42.70    6.10
  -2   4   7   42.80    6.00
  -2   4   7   35.60    5.50
  -2   4   7   53.49    5.70
  -1   4   7   75.99    6.60
  -1   4   7  106.69   10.70
  -1   4   7   78.39    6.60
  -1   4   7   90.99    7.30
   0   4   7   79.59    6.30
   0   4   7   82.69    6.60
   0   4   7   79.39    7.20
   0   4   7   80.49    6.00
  -1  -4  -7    2.80    1.70
   1   4   7    0.30    1.70
   1   4   7   -2.00    1.40
   1   4   7    1.40    1.30
  -2  -4  -7  155.78   10.30
   2   4   7  142.59   10.30
  -3  -4  -7   68.69    6.00
   3   4   7   70.89    6.30
  -4  -4  -7  171.28   10.80
  -4  -4  -7  178.08   12.30
  -4  -4  -7  176.88   11.80
   4   4   7  199.98   12.90
  -5  -4  -7    3.50    2.30
  -5  -4  -7    4.20    2.30
   5   4   7    3.40    2.80
  -6  -4  -7   73.49    8.10
  -6  -4  -7   65.89    6.90
   6   4   7   82.59    9.10
  -7  -4  -7   21.90    4.70
  -7  -4  -7    9.20    4.40
   7   4   7   17.00    4.90
  -8  -4  -7    0.50    4.10
   8   4   7   -0.70    3.10
  -9  -4  -7    2.40    5.00
   9   4   7   -3.30    3.10
   7  -5  -7   12.90    5.90
  -7   5   7   10.20    5.90
   6  -5  -7   -2.00    3.50
  -6   5   7    2.90    4.70
   5  -5  -7   -1.00    3.20
  -5   5   7    6.90    4.70
   4  -5  -7   -1.50    3.00
  -4   5   7    0.30    3.10
   3  -5  -7   11.80    3.90
  -3   5   7   15.00    3.90
  -3   5   7   17.00    4.90
   2  -5  -7   46.20    6.60
  -2   5   7   62.49    7.50
  -2   5   7   64.59    6.90
  -2   5   7   51.19    7.20
  -1   5   7   98.19    7.90
  -1   5   7   78.59    7.70
  -1   5   7   87.99    7.20
  -1   5   7   91.59    7.20
   0   5   7  142.19   11.40
   0   5   7  135.99    9.70
   0   5   7  147.19    9.70
   0   5   7  130.59    9.10
  -1  -5  -7  513.85   30.90
   1   5   7  520.95   29.50
   1   5   7  522.05   31.00
   1   5   7  545.55   29.80
  -2  -5  -7   34.70    4.40
   2   5   7   31.70    4.30
  -3  -5  -7  125.69    9.40
   3   5   7  137.89    9.90
  -4  -5  -7   93.19    8.10
   4   5   7  111.09    8.60
  -5  -5  -7   58.29    5.20
  -5  -5  -7   69.89    7.60
   5   5   7   55.49    6.90
  -6  -5  -7   17.40    3.50
  -6  -5  -7   22.10    4.10
   6   5   7   11.40    4.00
  -7  -5  -7    6.80    3.80
  -7  -5  -7    4.00    3.40
   7   5   7    5.00    3.50
  -8  -5  -7   59.49    8.00
  -8  -5  -7   42.10    7.70
   8   5   7   44.40    7.50
  -9  -5  -7    5.50    5.40
   9   5   7    3.00    4.00
 -10  -5  -7    4.90    6.70
   7  -6  -7    1.70    4.30
  -7   6   7    0.20    5.10
   6  -6  -7    8.70    5.00
  -6   6   7    6.80    4.90
   5  -6  -7    3.90    4.20
  -5   6   7   -3.40    3.60
   4  -6  -7   11.50    4.30
  -4   6   7   23.00    5.60
   3  -6  -7    3.30    3.40
  -3   6   7    1.80    3.10
  -2   6   7   59.29    7.80
  -2   6   7   76.29    7.60
  -2   6   7   61.29    5.90
  -2   6   7   54.29    7.20
  -1   6   7   76.49    8.50
  -1   6   7   76.29    6.60
  -1   6   7   79.09    8.60
   0   6   7   17.50    3.50
   0   6   7   21.20    3.30
   0   6   7   21.10    4.40
   0   6   7   22.60    3.80
  -1  -6  -7   57.59    5.40
   1   6   7   59.59    6.30
   1   6   7   58.29    4.60
  -2  -6  -7   45.20    5.20
   2   6   7   43.50    5.30
  -3  -6  -7    1.00    1.80
   3   6   7   -0.30    1.70
   4   6   7    5.70    2.60
  -5  -6  -7   29.30    3.30
  -5  -6  -7   30.80    3.50
   5   6   7   38.50    5.90
  -6  -6  -7    9.60    3.00
  -6  -6  -7    9.80    2.90
   6   6   7    7.10    3.70
  -7  -6  -7    4.60    3.60
  -7  -6  -7   12.20    4.00
   7   6   7    2.80    3.30
  -8  -6  -7    7.00    4.80
  -8  -6  -7    9.50    4.40
   8   6   7    7.30    4.40
  -9  -6  -7   13.70    7.80
   9   6   7   10.90    5.30
 -10  -6  -7   22.70    8.10
   6  -7  -7    0.60    4.10
  -6   7   7   -6.40    4.70
   5  -7  -7   23.40    6.20
  -5   7   7   25.40    6.80
   4  -7  -7   64.19    8.90
  -4   7   7   56.69    8.60
  -3   7   7   -0.90    2.10
   2  -7  -7    8.00    4.00
  -2   7   7    6.40    2.90
  -2   7   7    7.50    3.70
  -2   7   7    4.00    2.40
   1  -7  -7   27.70    5.20
  -1   7   7   28.60    5.20
  -1   7   7   23.90    4.00
  -1   7   7   28.50    5.00
   0  -7  -7  185.68   13.50
   0   7   7  198.48   14.20
   0   7   7  203.98   13.70
   0   7   7  216.38   13.60
  -1  -7  -7   44.40    5.40
  -1  -7  -7   53.09    5.30
   1   7   7   45.90    5.00
   1   7   7   42.90    5.50
  -2  -7  -7   79.59    6.80
   2   7   7   89.89    7.20
   2   7   7   79.09    5.30
  -3  -7  -7  362.16   23.20
   3   7   7  395.36   23.60
   4   7   7   17.10    3.90
   5   7   7   -2.00    2.10
  -6  -7  -7    0.60    2.20
  -6  -7  -7   -1.80    2.10
   6   7   7   -2.50    2.70
  -7  -7  -7   73.09    7.30
  -7  -7  -7   73.79    7.50
   7   7   7   68.79    8.80
  -8  -7  -7    3.40    6.00
  -8  -7  -7   -1.00    3.90
   8   7   7    3.80    4.20
  -9  -7  -7   -0.20    4.80
   9   7   7    3.20    4.00
   5  -8  -7   10.10    5.10
  -5   8   7   13.20    5.90
  -4   8   7    3.00    2.90
   3  -8  -7   32.30    7.30
   2  -8  -7   21.20    6.00
  -2   8   7   18.60    4.10
   1  -8  -7   -1.10    2.70
  -1   8   7    5.40    3.30
  -1   8   7    0.20    2.30
  -1   8   7   -1.70    1.90
   0  -8  -7   -1.70    2.30
   0   8   7    3.90    2.10
   0   8   7    1.20    2.40
   0   8   7    1.10    2.50
  -1  -8  -7   24.60    4.30
   1   8   7   30.90    4.40
   1   8   7   30.80    4.70
   1   8   7   31.60    5.40
  -2  -8  -7   64.59    6.70
  -2  -8  -7   60.29    5.40
   2   8   7   63.69    5.10
   2   8   7   74.99    7.60
   3   8   7    6.40    2.80
   5   8   7  120.29   10.30
  -6  -8  -7    4.50    2.20
   6   8   7    3.30    3.30
  -7  -8  -7    1.80    2.80
  -7  -8  -7    2.20    2.70
   7   8   7   -1.00    3.20
  -8  -8  -7   17.10    4.50
  -8  -8  -7   21.30    5.10
   8   8   7    6.80    4.40
  -9  -8  -7   -1.70    4.80
  -9  -8  -7   -3.90    4.20
   9   8   7    4.60    4.00
  -5   9   7   17.20    4.50
  -5   9   7   12.70    6.10
   4  -9  -7    8.20    6.10
  -4   9   7   22.50    4.70
   3  -9  -7    1.20    4.80
  -3   9   7    1.90    2.50
   2  -9  -7   19.60    5.70
  -2   9   7   11.70    3.50
   1  -9  -7    1.20    3.70
  -1   9   7    2.60    2.30
  -1   9   7    3.00    4.10
   0  -9  -7    7.70    3.50
   0   9   7    4.80    2.40
   0   9   7    3.50    2.70
  -1  -9  -7    3.40    3.00
   1   9   7    0.90    1.90
   1   9   7    0.60    2.40
   1   9   7    3.10    2.30
  -2  -9  -7   96.19    7.40
   2   9   7  109.39    8.30
   2   9   7   81.09    6.90
  -3  -9  -7   58.29    5.00
   3   9   7   57.59    6.90
   4   9   7   30.00    3.00
   4   9   7   35.20    6.10
  -5  -9  -7   73.49    5.40
   5   9   7   68.69    8.20
  -6  -9  -7    1.00    2.00
   6   9   7   -1.90    2.90
  -7  -9  -7   10.20    3.40
  -7  -9  -7   10.10    3.20
   7   9   7   11.70    4.30
  -8  -9  -7    0.50    3.30
  -8  -9  -7    1.80    3.50
   8   9   7    7.00    4.00
  -9  -9  -7    0.60    4.60
   9   9   7   18.00    8.80
   4 -10  -7   -2.20    5.30
  -4  10   7    7.70    3.50
   3 -10  -7   -1.50    4.90
  -3  10   7    3.10    2.90
   2 -10  -7    5.90    4.70
  -2  10   7    0.50    2.50
   1 -10  -7   40.60   13.80
  -1  10   7   23.80    4.50
   0 -10  -7   53.59    8.20
   0  10   7   46.00    7.20
   0  10   7   46.90    6.30
  -1 -10  -7    1.00    2.60
   1  10   7   -1.00    2.20
   1  10   7   -0.30    2.10
  -2 -10  -7    8.00    3.30
   2  10   7    9.20    2.90
   2  10   7   11.40    3.50
  -3 -10  -7   20.30    3.90
   3  10   7   26.00    3.80
   3  10   7   17.90    4.20
   4  10   7  115.09    7.90
   4  10   7  119.79   10.10
  -5 -10  -7   67.99    6.60
   5  10   7   65.29    8.50
  -6 -10  -7    1.90    2.20
  -6 -10  -7    6.70    3.20
   6  10   7    7.20    3.90
  -7 -10  -7   14.80    3.50
  -7 -10  -7    5.20    3.10
   7  10   7   13.10    4.90
  -8 -10  -7    4.90    3.80
  -8 -10  -7   13.70    4.00
   8  10   7    9.40    4.70
  -9 -10  -7    8.50    4.10
  -9 -10  -7    3.20    4.90
   9  10   7    3.90    4.20
   3 -11  -7   -4.20    5.30
  -3  11   7   -1.80    2.40
   2 -11  -7    3.20    5.20
  -2  11   7    7.40    3.60
   1 -11  -7   -0.20    4.80
  -1  11   7    6.20    2.90
   0 -11  -7    1.40    3.60
   0  11   7    1.10    2.20
  -1 -11  -7    1.40    3.40
   1  11   7    1.60    2.10
   1  11   7   -0.10    2.90
  -2 -11  -7   50.19    6.90
   2  11   7   40.30    5.70
   2  11   7   50.89    7.40
  -3 -11  -7    1.30    2.60
   3  11   7   -1.20    2.20
  -4 -11  -7    8.70    3.10
   4  11   7    5.00    3.20
   4  11   7    3.90    2.70
  -5 -11  -7   30.40    4.40
   5  11   7   21.80    3.30
   5  11   7   29.00    5.60
  -6 -11  -7    2.60    2.70
   6  11   7    3.10    3.30
  -7 -11  -7    4.60    3.00
  -7 -11  -7    4.80    3.00
   7  11   7    3.60    3.70
  -8 -11  -7    3.50    3.60
  -8 -11  -7    1.60    3.40
   8  11   7    1.40    3.20
   2 -12  -7   -1.80    5.10
  -2  12   7   -0.70    2.20
   1 -12  -7    7.40    5.80
   0 -12  -7    6.40    5.10
  -1 -12  -7    3.90    4.50
   1  12   7   -2.10    2.20
  -2 -12  -7   90.49   10.10
   2  12   7   68.39    8.30
   2  12   7   72.69    8.70
  -3 -12  -7   32.40    5.80
   3  12   7   21.50    4.80
   3  12   7   24.50    4.40
  -4 -12  -7   -0.10    2.80
   4  12   7    2.60    2.80
   4  12   7    0.90    3.00
  -5 -12  -7    0.90    3.00
   5  12   7    2.40    3.50
   5  12   7   -1.40    2.50
  -6 -12  -7    6.90    3.50
   6  12   7    5.80    3.90
   6  12   7    4.80    2.80
  -7 -12  -7   12.60    3.90
  -7 -12  -7    4.10    3.30
   7  12   7   10.40    4.90
  -8 -12  -7    2.80    3.40
  -8 -12  -7    1.30    3.80
   0 -13  -7    8.70    5.60
   0  13   7    2.20    2.50
  -1 -13  -7   11.90    5.80
   1  13   7   16.30    4.10
  -2 -13  -7   -1.30    4.20
   2  13   7    1.40    2.70
  -3 -13  -7    2.20    3.90
   3  13   7   15.90    4.00
   3  13   7    2.50    2.80
  -4 -13  -7   11.50    4.60
   4  13   7    6.90    4.90
   4  13   7    7.90    3.90
  -5 -13  -7    6.70    4.20
   5  13   7   -0.20    2.80
   5  13   7   -1.00    3.00
  -6 -13  -7   -0.40    3.30
   6  13   7   -0.60    3.00
   6  13   7   -3.40    2.80
  -7 -13  -7    1.10    3.60
   7  13   7    0.40    3.10
  -2 -14  -7   11.80    5.80
   2  14   7    7.60    3.20
  -3 -14  -7   12.10    5.60
   3  14   7   13.20    4.40
  -4 -14  -7    0.80    4.30
   4  14   7    2.10    4.60
   4  14   7   -0.30    2.80
  -5 -14  -7    8.40    4.40
   5  14   7    2.40    3.20
   5  10  -8   -1.20    2.80
  -5 -10   8    2.20    6.30
   4  10  -8    4.30    2.90
  -4 -10   8    3.60    8.50
   3  10  -8    6.00    2.80
  -3 -10   8   10.10    6.50
  -3 -10   8    7.70    2.70
  -2 -10   8    2.80    1.20
  -2 -10   8    1.60    6.60
   0 -10   8    2.30    6.50
   6   9  -8    1.50    3.40
  -6  -9   8   -6.80    9.10
   5   9  -8    5.00    3.80
  -5  -9   8   13.00    7.00
   4   9  -8    1.10    2.90
  -4  -9   8    7.00    5.90
   3   9  -8   10.20    3.60
  -3  -9   8    8.80    6.10
  -2  -9   8    6.40    5.40
  -2  -9   8    4.40    2.00
  -2  -9   8    4.30    1.70
  -1  -9   8   -0.30    4.80
   0  -9   8   12.80    6.60
   1  -9   8    0.60    5.40
   2  -9   8    6.50    6.70
   7   8  -8    3.70    4.20
  -7  -8   8   21.20   14.40
   6   8  -8    0.60    3.50
  -6  -8   8   22.10    7.50
   5   8  -8    4.40    3.30
  -5  -8   8    5.60    5.60
   4   8  -8   21.70    4.80
  -4  -8   8   26.00    7.10
   3   8  -8    8.30    3.20
  -3  -8   8   15.10    3.30
  -3  -8   8   10.90    5.90
  -2  -8   8    6.10    5.20
  -2  -8   8    7.20    2.40
  -1  -8   8   -0.30    1.30
  -1  -8   8    1.00    4.40
   0  -8   8   13.50    6.20
   1  -8   8    3.70    5.70
   2  -8   8    4.90    5.30
   8   7  -8    0.80    4.20
  -8  -7   8   -9.70    5.50
   7   7  -8    2.10    3.60
  -7  -7   8    6.90    5.80
   6   7  -8   10.90    4.30
  -6  -7   8    6.90    5.60
   5   7  -8   13.60    4.60
  -5  -7   8    6.80    5.90
   4   7  -8   -0.60    2.20
  -4  -7   8   -3.00    4.40
   3   7  -8   -1.10    1.90
  -3  -7   8    1.40    2.10
  -3  -7   8   -2.90    3.40
   2   7  -8   84.99    7.50
  -2  -7   8   91.19   11.60
  -2  -7   8   83.99    7.00
  -1  -7   8    4.30    4.70
  -1  -7   8    0.50    1.30
  -1  -7   8    0.50    1.60
   0  -7   8    0.40    4.30
   0  -7   8   -1.60    1.10
   0  -7   8   -0.20    1.00
   1  -7   8    1.00    4.50
   2  -7   8    2.10    5.10
   3  -7   8    7.30    6.10
   4  -7   8   -4.20    5.00
   8   6  -8   -0.60    3.40
   7   6  -8    3.60    4.00
  -7  -6   8    3.30    5.80
   6   6  -8    1.10    2.90
  -6  -6   8   -0.10    5.50
   5   6  -8    6.20    3.50
  -5  -6   8   20.30    6.10
   4   6  -8    3.80    3.30
  -4  -6   8    0.10    3.90
   3   6  -8   25.70    5.10
  -3  -6   8   41.20    5.50
  -3  -6   8   32.10    7.20
   2   6  -8   26.90    4.70
  -2  -6   8   41.00    4.80
  -2  -6   8   25.30    6.30
  -1  -6   8   73.19    5.70
  -1  -6   8   78.29   10.30
  -1  -6   8   68.19    5.90
   0  -6   8    6.90    1.80
   0  -6   8    1.10    3.90
   0  -6   8    6.60    2.00
   1  -6   8    0.60    3.90
   1  -6   8   -0.90    1.10
   2  -6   8   -7.60    3.50
   3  -6   8   -1.00    4.40
   4  -6   8   12.50    6.40
   5  -6   8   10.10    6.70
   5  -6   8    0.40    1.90
   8   5  -8   -3.70    3.70
  -8  -5   8   -4.00    5.40
   7   5  -8   16.40    5.30
  -7  -5   8   21.00    6.80
   6   5  -8   -0.90    3.00
  -6  -5   8   -3.10    4.40
   5   5  -8    2.00    3.20
  -5  -5   8    0.40    4.80
   4   5  -8    3.80    3.10
  -4  -5   8    1.30    4.20
   3   5  -8   21.80    4.40
  -3  -5   8   25.80    6.00
  -3  -5   8   14.00    3.50
   2   5  -8   31.80    5.20
  -2  -5   8   47.40    7.80
  -2  -5   8   42.00    5.20
  -1  -5   8   45.10    5.20
  -1  -5   8   52.79    4.70
  -1  -5   8   49.80    7.70
   0  -5   8   -1.80    1.30
   0  -5   8   -0.50    1.70
   0  -5   8    2.80    3.70
   1  -5   8   32.00    7.10
   1  -5   8   24.90    3.40
   1  -5   8   24.50    3.00
   2  -5   8    1.30    1.40
   2  -5   8   -4.00    3.60
   2  -5   8   -1.00    1.50
   3  -5   8   15.70    6.30
   3  -5   8    6.20    1.80
   3  -5   8    4.60    2.10
   4  -5   8    4.70    5.20
   4  -5   8    7.80    2.10
  -5   5  -8    0.40    1.60
   5  -5   8    0.60    1.90
   5  -5   8    0.80    5.20
  -6   5  -8    0.20    2.50
   6  -5   8    6.80    6.50
   6  -5   8    4.00    2.50
   8   4  -8   15.30    6.10
  -8  -4   8   15.50    7.50
   7   4  -8    0.00    3.80
  -7  -4   8   -1.70    4.90
   6   4  -8    8.00    3.80
  -6  -4   8    5.20    5.00
   5   4  -8   -1.10    3.00
  -5  -4   8    9.70    5.10
   4   4  -8    8.20    3.70
  -4  -4   8    4.70    4.50
   3   4  -8    5.10    3.00
  -3  -4   8    1.70    2.10
  -3  -4   8    1.70    3.60
   2   4  -8    7.70    2.80
  -2  -4   8    7.50    2.80
  -2  -4   8    9.80    4.80
  -1  -4   8  161.78   12.90
  -1  -4   8  137.69   10.30
   0  -4   8    9.20    4.10
   0  -4   8    6.10    2.20
   0  -4   8    7.50    2.00
   1  -4   8   28.60    3.90
   1  -4   8   25.50    3.30
   2  -4   8   12.90    3.00
   2  -4   8    6.90    4.50
   2  -4   8   16.40    2.60
   3  -4   8   39.30    7.60
   3  -4   8   33.00    4.40
   3  -4   8   30.10    3.90
  -4   4  -8   -0.80    1.40
   4  -4   8   -1.20    1.70
   4  -4   8   -1.40    4.20
  -5   4  -8    3.90    2.10
   5  -4   8    6.70    2.70
   5  -4   8   -1.30    4.70
  -6   4  -8   12.00    3.20
   6  -4   8   16.70    3.60
   6  -4   8   14.50    6.80
   9   3  -8    3.70    5.00
  -9  -3   8   -5.10    5.90
   8   3  -8    6.70    5.10
  -8  -3   8    3.70    6.30
  -7  -3   8   21.00    6.90
   6   3  -8   60.59    8.70
  -6  -3   8   57.19    8.60
   5   3  -8   -1.70    2.50
  -5  -3   8    3.00    4.10
   4   3  -8   34.60    5.80
  -4  -3   8   47.60    7.30
   3   3  -8   37.10    5.60
  -3  -3   8   48.80    6.10
  -3  -3   8   42.40    6.60
   2   3  -8   -0.50    2.00
  -2  -3   8   -3.20    2.50
   1   3  -8    5.30    3.30
   1   3  -8    2.60    2.00
  -1  -3   8    1.70    1.90
  -1  -3   8    5.80    3.40
   0   3  -8   10.20    3.70
   0  -3   8   10.20    3.90
   0  -3   8    6.80    2.00
   0  -3   8    1.70    1.90
  -1   3  -8  101.39    9.50
   1  -3   8   94.09    7.70
   1  -3   8   99.69    7.10
   1  -3   8  107.99    9.90
   2  -3   8    0.90    1.40
   2  -3   8   -2.30    2.90
   2  -3   8    1.20    1.90
  -3   3  -8    8.20    2.10
   3  -3   8    5.90    4.10
   3  -3   8   12.40    2.70
  -4   3  -8   49.10    5.10
   4  -3   8   28.50    7.50
   4  -3   8   46.40    5.30
  -5   3  -8    9.10    2.60
   5  -3   8    6.10    4.60
   5  -3   8    7.10    2.80
   6  -3   8    0.40    2.40
   6  -3   8   -0.10    4.90
   7  -3   8   10.60    3.70
   7  -3   8   16.40    7.20
   9   2  -8   17.10    6.50
  -9  -2   8   26.70    8.80
   8   2  -8    1.30    4.20
  -8  -2   8    1.00    6.40
   7   2  -8    4.50    4.10
  -7  -2   8   -1.10    4.60
   6   2  -8   10.90    4.60
  -6  -2   8   18.40    6.30
   5   2  -8   54.39    8.00
  -5  -2   8   54.19    8.00
   4   2  -8    6.40    3.40
  -4  -2   8    1.60    5.20
   3   2  -8   33.40    5.30
  -3  -2   8   33.30    5.80
  -3  -2   8   37.90    5.20
   2   2  -8  117.29    9.20
   2   2  -8  101.69    9.40
  -2  -2   8  110.79    9.70
  -2  -2   8   97.59    8.50
   1   2  -8   27.60    4.50
   1   2  -8   32.20    5.40
  -1  -2   8   37.10    5.00
  -1  -2   8   32.90    5.40
   0   2  -8   94.79    8.70
   0  -2   8   89.89    7.70
   0  -2   8   95.69    8.90
   0  -2   8  102.99    7.20
  -1   2  -8   53.79    6.90
   1  -2   8   49.90    7.00
   1  -2   8   51.99    5.20
   1  -2   8   45.00    5.60
  -2   2  -8    1.60    2.80
   2  -2   8    2.20    2.90
   2  -2   8   -1.60    1.30
  -3   2  -8   26.50    3.60
   3  -2   8   24.30    5.50
   3  -2   8   28.30    3.90
  -4   2  -8   -0.20    1.40
   4  -2   8    1.00    2.30
  -5   2  -8   41.30    5.30
   5  -2   8   64.79    6.90
   5  -2   8   48.60    8.60
   6  -2   8   23.00    7.20
   6  -2   8   20.30    4.40
   7  -2   8    2.60    5.40
   7  -2   8    4.70    3.30
   8  -2   8   -2.30    6.10
   8  -2   8    6.60    3.80
  -9  -1   8    1.30    6.60
   8   1  -8   -1.40    4.10
  -8  -1   8   10.80    6.50
   7   1  -8    0.50    3.60
  -7  -1   8    1.80    5.50
   6   1  -8    0.80    3.50
  -6  -1   8    3.90    4.90
   5   1  -8   29.40    5.60
  -5  -1   8   38.60    7.00
   4   1  -8   19.70    4.50
  -4  -1   8   34.80    5.80
   3   1  -8    3.80    2.90
   3   1  -8    3.80    3.50
  -3  -1   8    7.70    3.00
  -3  -1   8    6.60    3.70
   2   1  -8    2.20    3.10
   2   1  -8   13.90    3.80
  -2  -1   8    5.80    2.60
  -2  -1   8    8.10    3.70
   1   1  -8  119.99    9.60
   1   1  -8  108.59    9.10
  -1  -1   8  125.19    9.30
  -1  -1   8  119.19    9.80
   0   1  -8   54.39    6.20
   0  -1   8   48.60    4.60
   0  -1   8   42.60    5.90
   0  -1   8   50.99    6.00
  -1   1  -8    7.50    3.20
   1  -1   8   13.70    3.70
   1  -1   8   14.90    3.40
   1  -1   8   13.00    2.60
  -2   1  -8   18.10    3.00
  -2   1  -8   25.30    4.50
   2  -1   8   22.30    4.50
   2  -1   8   20.70    3.40
  -3   1  -8   73.29    5.90
  -3   1  -8   76.79    8.70
   3  -1   8   69.79    8.50
   3  -1   8   70.49    6.20
  -4   1  -8   59.19    8.30
  -4   1  -8   61.49    7.00
   4  -1   8   64.89    6.70
   4  -1   8   56.59    8.30
  -5   1  -8    1.70    2.00
   5  -1   8    5.20    2.80
   5  -1   8   -1.70    4.40
   6  -1   8    5.10    4.80
   6  -1   8   13.60    4.00
   7  -1   8   23.30    4.90
   7  -1   8   24.40    7.50
   8  -1   8   12.10    4.60
   8  -1   8   12.10    6.50
   8   0  -8    0.60    4.10
  -8   0   8    7.40    5.80
   7   0  -8   54.79    9.50
  -7   0   8   49.40    8.40
   6   0  -8   65.29    9.40
  -6   0   8   69.99    9.50
   5   0  -8    8.00    4.20
  -5   0   8   10.00    4.70
   4   0  -8   75.89   12.50
  -4   0   8   61.89    7.80
   3   0  -8   75.09    8.00
   3   0  -8   72.39    8.20
  -3   0   8   92.89    8.30
  -3   0   8   60.39    7.40
   2   0  -8   80.09    7.80
   2   0  -8   87.69    8.40
  -2   0   8   85.09    8.10
  -2   0   8   84.29    7.50
   1   0  -8   34.70    5.30
   1   0  -8   61.69    6.30
  -1   0   8   39.40    5.40
  -1   0   8   57.89    6.30
   0   0  -8    7.30    2.90
   0   0   8    8.20    2.90
   0   0   8    3.10    2.30
   0   0   8    9.30    2.50
  -1   0  -8   93.09    7.50
   1   0   8   86.29    6.80
   1   0   8   88.39    7.50
   1   0   8   81.59    7.30
  -2   0  -8  114.69    8.40
  -2   0  -8  121.19    9.30
   2   0   8  116.29    9.40
   2   0   8  117.39    8.50
  -3   0  -8   13.40    2.70
  -3   0  -8   13.00    3.70
   3   0   8    5.00    3.00
   3   0   8   15.90    3.10
  -4   0  -8   82.09    8.70
  -4   0  -8   61.99    5.90
   4   0   8   69.59    6.40
   4   0   8   73.49    8.80
  -5   0  -8   45.40    5.80
  -5   0  -8   46.20    8.90
   5   0   8   52.69    6.70
   5   0   8   49.99    7.60
   6   0   8   13.60    5.00
   7   0   8    1.10    3.10
   7   0   8   -1.70    3.90
   8   0   8   12.20    6.50
   8   0   8   13.40    4.80
   8  -1  -8    7.30    5.10
  -8   1   8    2.10    6.00
   7  -1  -8   -1.10    4.20
  -7   1   8   -0.20    5.00
   6  -1  -8   22.10    5.90
  -6   1   8   22.10    5.90
   5  -1  -8   30.40    6.30
  -5   1   8   35.70    6.50
   4  -1  -8    9.10    5.20
  -4   1   8   18.40    4.50
   3  -1  -8   10.60    3.20
   3  -1  -8   16.20    4.30
  -3   1   8   14.00    4.20
   2  -1  -8   86.69    7.20
   2  -1  -8   58.39    7.40
  -2   1   8   84.39    7.70
  -2   1   8   78.19    7.20
   1  -1  -8    1.40    2.10
   1  -1  -8    2.70    2.50
  -1   1   8   -0.90    2.50
  -1   1   8    3.40    2.50
   0  -1  -8   70.09    6.20
   0   1   8   68.99    6.20
   0   1   8   60.59    5.50
   0   1   8   67.29    7.40
  -1  -1  -8   24.50    3.80
   1   1   8   24.80    3.70
   1   1   8   20.90    3.70
   1   1   8   24.20    4.30
  -2  -1  -8  220.68   14.10
  -2  -1  -8  214.08   14.20
   2   1   8  237.18   14.40
   2   1   8  218.08   14.40
  -3  -1  -8  127.59    9.50
   3   1   8  125.59    9.20
   3   1   8  120.29    9.50
  -4  -1  -8    5.50    2.30
  -4  -1  -8    4.60    3.00
   4   1   8   12.00    3.60
   4   1   8    2.00    2.20
  -5  -1  -8   43.20    6.40
   5   1   8   34.00    5.50
   5   1   8   35.50    6.20
   6   1   8   49.70    8.10
   6   1   8   56.49    7.20
   7   1   8    0.90    4.60
   7   1   8   -1.20    2.90
   8   1   8   -1.90    2.90
   8   1   8    0.80    4.50
   9   1   8    8.50    4.70
   9   1   8    3.00    6.30
   8  -2  -8    0.50    5.00
   7  -2  -8   33.30    7.70
   6  -2  -8    6.40    4.40
  -6   2   8    7.10    4.70
   5  -2  -8   13.20    4.90
  -5   2   8   11.70    4.40
   4  -2  -8   25.80    5.00
  -4   2   8   27.30    5.40
   3  -2  -8   -0.80    2.20
  -3   2   8    3.40    2.80
   2  -2  -8    0.40    2.20
   2  -2  -8    4.50    2.70
  -2   2   8    4.20    2.40
  -2   2   8    5.80    3.20
   1  -2  -8   40.50    4.70
  -1   2   8   38.70    5.50
  -1   2   8   36.60    4.70
  -1   2   8   34.70    4.80
   0  -2  -8  197.58   12.70
   0   2   8  199.38   13.00
   0   2   8  199.38   12.90
   0   2   8  205.28   13.90
  -1  -2  -8  151.78   10.40
  -1  -2  -8  140.99    9.80
   1   2   8  162.78   10.20
   1   2   8  149.09   10.40
  -2  -2  -8   70.49    5.60
  -2  -2  -8   67.69    5.80
   2   2   8   55.09    5.40
   2   2   8   75.49    6.10
  -3  -2  -8  236.88   15.40
  -3  -2  -8  247.48   15.90
   3   2   8  253.97   16.10
   3   2   8  260.17   15.90
  -4  -2  -8   64.19    6.50
  -4  -2  -8   89.99    7.20
   4   2   8   80.69    7.20
   4   2   8   81.19    7.20
  -5  -2  -8   39.80    5.80
   5   2   8   38.90    5.60
   5   2   8   33.80    5.70
  -6  -2  -8    5.90    3.70
   6   2   8   12.30    4.60
   6   2   8    1.50    3.00
   7   2   8    0.90    2.90
   7   2   8   -3.20    3.60
   8   2   8   22.00    6.90
   8   2   8   26.90    6.20
  -9  -2  -8    2.50    5.40
   9   2   8    2.60    3.90
   8  -3  -8    8.40    5.30
  -8   3   8   -5.60    5.20
   7  -3  -8    5.90    4.60
  -7   3   8   10.30    5.50
   6  -3  -8    4.90    4.00
  -6   3   8    6.30    4.90
   5  -3  -8   18.90    5.20
  -5   3   8   18.50    4.90
   4  -3  -8    2.20    3.10
  -4   3   8    3.30    5.40
   3  -3  -8    9.00    3.60
  -3   3   8   20.00    4.60
  -3   3   8   23.20    4.40
   2  -3  -8   11.30    3.80
  -2   3   8   15.20    3.60
  -2   3   8   14.70    3.60
  -2   3   8   18.10    4.20
   1  -3  -8   -0.60    1.80
  -1   3   8    9.80    2.40
  -1   3   8    4.50    2.80
  -1   3   8    5.80    2.60
   0  -3  -8   19.60    3.10
   0   3   8   18.00    3.20
   0   3   8   22.00    3.40
  -1  -3  -8   84.79    6.20
  -1  -3  -8  112.19    9.60
   1   3   8   91.39    6.40
   1   3   8   82.09    7.00
  -2  -3  -8  108.59    8.40
  -2  -3  -8  117.89    7.40
   2   3   8  108.99    7.40
   2   3   8  115.99    8.60
  -3  -3  -8   20.20    3.60
  -3  -3  -8   16.90    2.90
   3   3   8   18.40    3.00
   3   3   8   22.80    3.90
  -4  -3  -8   83.79    7.00
  -4  -3  -8   82.09    6.50
   4   3   8   84.99    7.30
   4   3   8   66.69    6.40
  -5  -3  -8   67.59    7.20
   5   3   8   69.89    7.70
   5   3   8   65.39    6.70
  -6  -3  -8   85.29    9.20
   6   3   8   95.09    8.90
   6   3   8   73.49    9.00
  -7  -3  -8    2.90    4.00
   7   3   8   -4.20    3.10
   7   3   8    1.50    3.50
  -8  -3  -8   18.60    6.10
   8   3   8   23.90    5.80
  -9  -3  -8   24.40    7.20
   9   3   8    2.70    3.80
   7  -4  -8    2.50    4.80
  -7   4   8   17.70    6.60
   6  -4  -8   -3.10    3.50
  -6   4   8    2.60    4.30
   5  -4  -8   68.79    9.60
  -5   4   8   72.29    9.00
   4  -4  -8   14.10    4.60
  -4   4   8   21.40    4.70
   3  -4  -8   13.30    4.00
  -3   4   8   13.30    3.70
  -3   4   8   10.20    3.80
   2  -4  -8   -1.30    2.10
  -2   4   8   -2.60    2.20
  -2   4   8   -1.20    1.90
  -2   4   8   -2.30    2.10
  -1   4   8    1.10    2.20
  -1   4   8    4.60    2.00
  -1   4   8    2.00    2.40
  -1   4   8    0.10    2.10
   0   4   8   86.99    6.90
   0   4   8   87.89    6.70
   0   4   8   96.49    7.30
   0   4   8   85.99    7.90
  -1  -4  -8   13.50    2.90
   1   4   8   12.20    2.90
   1   4   8   12.50    2.10
  -2  -4  -8   15.10    3.10
   2   4   8   19.70    3.40
  -3  -4  -8  511.45   30.70
   3   4   8  524.05   31.00
   4   4   8    8.50    3.30
  -5  -4  -8   25.40    3.90
  -6  -4  -8   34.20    4.90
  -6  -4  -8   36.80    5.40
   6   4   8   42.00    6.70
  -7  -4  -8   17.40    4.70
  -7  -4  -8   16.20    4.80
   7   4   8   17.90    4.80
  -8  -4  -8   10.20    4.80
   8   4   8    2.30    3.90
  -9  -4  -8    9.20    5.80
   9   4   8   -0.50    3.80
   7  -5  -8   11.30    5.20
  -7   5   8   14.60    6.30
   6  -5  -8   16.40    5.60
  -6   5   8    7.30    5.40
   5  -5  -8    5.10    4.40
  -5   5   8    4.90    4.20
   4  -5  -8   27.60    5.80
  -4   5   8   27.30    5.80
   3  -5  -8   19.80    5.60
  -3   5   8   21.00    4.80
  -2   5   8   19.10    4.00
  -2   5   8   12.70    4.60
  -2   5   8   17.80    3.60
  -1   5   8   24.60    4.40
  -1   5   8   25.90    4.10
  -1   5   8   17.40    4.30
  -1   5   8   30.10    4.20
   0   5   8   91.99    7.60
   0   5   8   94.39    8.70
   0   5   8  113.79    8.20
   0   5   8  106.29    7.40
  -1  -5  -8   27.50    4.30
   1   5   8   33.70    3.40
   1   5   8   33.40    4.50
   1   5   8   33.60    3.60
  -2  -5  -8    3.10    2.00
   2   5   8    1.30    1.60
  -3  -5  -8   13.50    3.10
   3   5   8   16.50    3.20
   4   5   8  110.89    9.20
  -5  -5  -8   34.10    3.90
  -5  -5  -8   31.60    3.50
   5   5   8   25.90    4.80
  -6  -5  -8    3.40    2.40
  -6  -5  -8    0.10    2.40
   6   5   8    0.40    2.50
  -7  -5  -8   39.50    5.60
  -7  -5  -8   24.80    5.20
   7   5   8   17.00    5.10
  -8  -5  -8   27.70    6.20
  -8  -5  -8   60.49    7.40
   8   5   8   31.30    6.40
  -9  -5  -8    6.10    5.90
   9   5   8    5.70    4.70
   6  -6  -8   -3.20    3.80
  -6   6   8    0.40    4.60
   5  -6  -8   11.40    5.30
  -5   6   8   -3.10    3.60
   4  -6  -8    8.00    4.30
  -4   6   8   -0.10    3.30
   3  -6  -8    0.90    3.30
  -3   6   8    1.70    3.10
  -2   6   8  205.18   13.70
  -2   6   8  207.28   14.10
  -2   6   8  176.18   14.50
  -1   6   8   45.50    6.40
  -1   6   8   57.09    7.50
  -1   6   8   47.80    6.10
  -1   6   8   51.79    6.00
   0   6   8    2.60    1.90
   0   6   8    1.60    1.90
   0   6   8    1.80    2.00
   0   6   8    2.60    2.60
  -1  -6  -8    8.10    2.40
   1   6   8   10.80    3.10
   1   6   8   10.90    2.20
   1   6   8   11.50    2.10
  -2  -6  -8   31.60    4.80
   2   6   8   55.19    6.20
   3   6   8    2.30    2.10
   4   6   8   -0.40    1.80
   5   6   8  159.88   12.40
  -6  -6  -8   30.90    4.30
  -6  -6  -8   28.80    3.90
   6   6   8   27.80    5.40
  -7  -6  -8   -0.40    2.60
  -7  -6  -8   -0.10    3.30
   7   6   8    2.40    3.60
  -8  -6  -8   -1.90    3.70
  -8  -6  -8    0.60    4.60
   8   6   8   -0.20    3.40
  -9  -6  -8   47.60    8.20
   9   6   8   40.40    7.30
   6  -7  -8   -0.30    4.40
  -6   7   8    2.60    4.70
   5  -7  -8   10.60    4.70
  -5   7   8   12.30    5.50
   4  -7  -8    9.20    4.60
  -4   7   8   13.20    5.10
  -3   7   8    9.40    4.30
  -3   7   8   13.70    3.80
  -2   7   8    3.30    3.10
  -2   7   8    3.00    3.20
  -2   7   8    5.80    2.60
  -1   7   8   69.99    7.40
  -1   7   8   61.79    8.00
  -1   7   8   74.09    7.60
   0   7   8  160.38   11.50
   0   7   8  152.48   12.30
   0   7   8  162.28   11.50
   0   7   8  162.68   11.00
   1   7   8   13.60    3.50
   1   7   8   15.10    2.80
   1   7   8   16.70    2.60
   1   7   8   10.60    3.70
   2   7   8   28.80    4.90
   3   7   8   27.80    4.70
   4   7   8   87.99    8.10
   5   7   8   26.40    5.30
  -6  -7  -8   36.40    3.80
   6   7   8   49.40    7.30
  -7  -7  -8   54.59    5.90
  -7  -7  -8   57.79    6.40
   7   7   8   54.99    8.70
  -8  -7  -8    7.10    3.90
  -8  -7  -8    7.90    4.10
   8   7   8    7.40    4.10
  -9  -7  -8    8.80    7.00
  -9  -7  -8    1.80    5.00
   9   7   8    4.80    5.00
   5  -8  -8    1.80    4.60
  -5   8   8   -1.00    4.40
  -4   8   8    0.40    2.40
  -4   8   8    0.60    4.00
  -3   8   8   17.00    4.20
  -3   8   8   15.30    5.00
  -2   8   8    0.40    2.50
  -1   8   8    0.30    2.60
  -1   8   8    0.70    2.40
   0   8   8    2.20    2.70
   0   8   8    4.10    2.30
   1   8   8    7.30    2.40
   1   8   8   -0.10    1.90
   2   8   8   11.30    3.30
   2   8   8   14.10    2.10
   4   8   8  140.59   11.20
   5   8   8   31.90    5.80
   6   8   8   20.40    5.00
  -7  -8  -8   40.40    5.00
  -7  -8  -8   46.30    4.90
   7   8   8   49.40    8.30
  -8  -8  -8   -2.30    3.20
  -8  -8  -8    3.30    3.50
   8   8   8    6.90    4.70
  -9  -8  -8    2.90    4.40
  -9  -8  -8   12.30    5.10
  -5   9   8    7.40    5.40
  -5   9   8    4.10    3.40
  -4   9   8    3.40    3.10
  -4   9   8    6.40    4.90
  -3   9   8    6.10    3.20
   2  -9  -8   80.89   10.90
  -2   9   8   79.69    7.70
   1  -9  -8   19.30    5.50
  -1   9   8    7.90    4.20
   0  -9  -8    0.70    3.00
   0   9   8    6.40    3.20
   0   9   8   -0.70    2.20
  -1  -9  -8    0.80    2.60
   1   9   8    1.70    2.20
   1   9   8    4.00    2.80
  -2  -9  -8   15.20    3.80
   2   9   8    9.60    4.40
   2   9   8   13.30    2.60
   3   9   8    5.30    2.90
   4   9   8    1.30    2.70
   5   9   8    2.60    2.90
   6   9   8   96.79   11.10
  -7  -9  -8   13.80    3.20
   7   9   8   30.40    6.20
  -8  -9  -8    2.60    2.80
  -8  -9  -8    3.30    3.30
   8   9   8    4.80    4.10
  -9  -9  -8    2.90    3.40
   9   9   8    0.40    3.80
  -4  10   8    9.70    3.80
   3 -10  -8    7.60    6.60
  -3  10   8    6.30    3.20
   2 -10  -8   10.00    5.50
  -2  10   8   12.10    3.80
   1 -10  -8   10.40    4.90
  -1  10   8    2.70    2.50
   0 -10  -8   19.40    5.20
   0  10   8   22.90    5.10
   0  10   8   17.60    4.80
  -1 -10  -8   -0.70    2.60
   1  10   8    0.50    2.70
   1  10   8    3.40    2.60
  -2 -10  -8    8.00    2.90
   2  10   8    7.20    3.10
   2  10   8    4.20    2.10
  -3 -10  -8    1.60    2.20
   3  10   8    4.80    2.90
   4  10   8   68.99    8.20
   5  10   8    4.50    3.50
   6  10   8   -3.30    2.40
   7  10   8   22.50    5.80
  -8 -10  -8   22.40    4.30
  -8 -10  -8   28.70    4.20
   8  10   8   25.70    6.60
  -9 -10  -8    2.20    4.00
  -9 -10  -8    5.20    3.30
   9  10   8    3.00    4.10
   3 -11  -8    4.70    6.10
  -3  11   8   -0.30    2.70
   2 -11  -8   -3.70    4.40
  -2  11   8   -2.60    2.20
   1 -11  -8   29.90    7.60
  -1  11   8   39.50    6.40
   0 -11  -8   25.30    6.00
   0  11   8   25.70    5.00
  -1 -11  -8    8.20    4.00
   1  11   8    4.70    3.00
   1  11   8    4.60    3.00
  -2 -11  -8    1.40    3.00
   2  11   8    6.60    2.70
   2  11   8    3.30    2.60
  -3 -11  -8    1.70    2.30
   3  11   8    0.90    2.60
   3  11   8    2.80    2.30
  -4 -11  -8   43.20    4.50
   4  11   8   39.30    6.50
   5  11   8   19.40    4.90
   6  11   8    0.40    3.10
   7  11   8    2.60    3.60
  -8 -11  -8    1.70    2.80
  -8 -11  -8    0.80    2.70
   8  11   8   -8.40    5.10
   2 -12  -8    2.80    5.60
  -2  12   8    2.00    2.80
   1 -12  -8    3.30    5.00
  -1  12   8    3.00    3.00
   0 -12  -8   21.70    6.30
   0  12   8   19.80    4.70
  -1 -12  -8   22.90    6.00
   1  12   8   14.50    5.70
   1  12   8   12.60    3.90
  -2 -12  -8   14.90    4.60
   2  12   8   18.70    4.80
  -3 -12  -8   72.49    7.70
   3  12   8   55.89    7.70
   3  12   8   52.09    6.10
  -4 -12  -8    2.70    2.60
   4  12   8    4.20    3.70
   4  12   8    0.40    2.50
   5  12   8    0.80    3.20
   6  12   8    0.90    3.30
   7  12   8   20.00    5.90
   0 -13  -8    0.80    4.50
   0  13   8   -0.80    2.20
  -1 -13  -8    5.70    6.70
   1  13   8    8.90    3.80
  -2 -13  -8   32.60    6.40
   2  13   8   23.70    5.00
   2  13   8   16.50    4.60
  -3 -13  -8    4.00    3.40
   3  13   8    0.40    2.80
   3  13   8    6.70    3.60
  -4 -13  -8    9.60    3.70
   4  13   8   11.00    3.90
   4  13   8   15.80    4.50
  -5 -13  -8    9.40    3.10
   5  13   8    7.30    4.10
   5  13   8    6.10    2.60
   6  13   8    2.60    3.60
  -3 -14  -8    6.40    4.40
   3  14   8   19.10    4.90
  -4 -14  -8   -0.70    3.30
   4  14   8   -2.00    2.50
   4  10  -9    3.00    3.40
  -4 -10   9   -1.20    5.80
  -3 -10   9    0.70    2.60
  -3 -10   9    4.70    6.30
  -2 -10   9   15.60    7.70
  -1 -10   9   -3.50    5.30
  -6  -9   9    3.10    6.40
   5   9  -9    3.80    3.60
  -5  -9   9   18.50    9.90
   4   9  -9    2.30    5.60
  -4  -9   9    5.50    6.20
   3   9  -9    1.20    2.50
  -3  -9   9    3.50    2.70
  -3  -9   9   -1.00    5.30
  -2  -9   9   10.00    2.60
  -2  -9   9   14.10    7.30
  -2  -9   9   13.10    2.60
  -1  -9   9    8.00    6.30
   0  -9   9    3.30    7.80
   1  -9   9   -2.10    5.50
   6   8  -9   -1.30    3.20
  -6  -8   9   -0.20    7.00
   5   8  -9    2.00    3.60
  -5  -8   9    4.40    5.70
   4   8  -9   -1.50    2.80
  -4  -8   9    9.20    5.70
   3   8  -9    3.20    2.90
  -3  -8   9    3.00    2.70
  -3  -8   9    4.80    5.50
  -2  -8   9    1.60    5.20
  -2  -8   9    2.00    2.10
  -2  -8   9    1.70    1.90
  -1  -8   9    4.00    1.70
  -1  -8   9   -4.00    4.30
  -1  -8   9    3.70    1.60
   0  -8   9   26.40    8.00
   1  -8   9    0.30    5.30
   2  -8   9    1.40    5.30
   3  -8   9    7.20    6.90
   7   7  -9   -0.50    3.90
  -7  -7   9    4.10    8.20
   6   7  -9    6.90    4.20
  -6  -7   9   10.80    6.00
   5   7  -9    4.00    3.50
  -5  -7   9    3.30    6.00
   4   7  -9    0.50    3.30
  -4  -7   9    4.60    5.20
   3   7  -9    9.20    3.50
  -3  -7   9   18.10    4.00
  -3  -7   9   11.50    6.00
  -2  -7   9    2.60    2.20
  -2  -7   9   -1.40    3.90
  -1  -7   9   60.89    9.90
  -1  -7   9   54.49    5.20
  -1  -7   9   56.89    4.90
   0  -7   9    4.70    5.00
   0  -7   9    8.10    2.40
   0  -7   9   10.40    2.00
   1  -7   9    9.30    5.50
   2  -7   9   13.20    6.80
   3  -7   9    5.40    6.00
   4  -7   9   -0.80    6.40
   8   6  -9    1.90    7.00
  -8  -6   9   12.80    7.50
   7   6  -9    9.70    4.50
  -7  -6   9   18.20    7.30
   6   6  -9    0.10    3.60
  -6  -6   9    7.80    6.60
   5   6  -9    3.70    3.60
  -5  -6   9   13.80    6.20
   4   6  -9    1.60    2.90
  -4  -6   9    9.80    5.60
   3   6  -9    1.60    3.00
  -3  -6   9   12.10    5.50
  -3  -6   9    5.80    3.50
   2   6  -9    2.30    2.60
  -2  -6   9    8.20    4.70
  -2  -6   9    7.70    2.80
  -1  -6   9    7.30    2.50
  -1  -6   9    8.10    5.20
  -1  -6   9    7.10    2.20
   0  -6   9   12.40    5.80
   0  -6   9   13.30    2.80
   0  -6   9   15.30    2.40
   1  -6   9   -1.50    1.20
   1  -6   9    1.00    1.60
   1  -6   9   -0.60    3.90
   2  -6   9    1.60    1.30
   2  -6   9   -4.70    4.50
   3  -6   9    3.20    5.50
   4  -6   9    3.30    6.40
   4  -6   9    5.80    1.50
   5  -6   9   -0.80    6.00
   5  -6   9    2.90    2.40
   5  -6   9    1.50    2.50
   8   5  -9   21.80   11.50
  -8  -5   9   10.40    6.80
   7   5  -9    7.10    4.20
  -7  -5   9    2.70    5.80
   6   5  -9   31.10    6.40
  -6  -5   9   37.60    8.30
   5   5  -9   11.40    4.40
  -5  -5   9    2.50    4.90
   4   5  -9    1.60    2.70
  -4  -5   9    0.70    4.20
   3   5  -9    8.60    3.40
  -3  -5   9   14.40    5.60
   2   5  -9    0.40    2.20
  -2  -5   9    0.20    2.50
  -2  -5   9   12.10    4.90
  -1  -5   9    8.90    2.50
  -1  -5   9    7.50    4.30
  -1  -5   9   10.90    3.00
   0  -5   9   -0.30    1.80
   0  -5   9    2.40    1.70
   0  -5   9   -0.90    3.40
   1  -5   9   67.09    5.40
   1  -5   9   67.09    5.90
   1  -5   9   66.79   10.00
   2  -5   9    5.30    2.30
   2  -5   9    1.40    4.30
   2  -5   9    3.10    1.80
   3  -5   9    5.00    1.90
   3  -5   9    0.70    4.50
   3  -5   9    1.30    2.10
   4  -5   9    0.40    1.70
   4  -5   9    4.70    5.50
   4  -5   9    3.00    2.30
   5  -5   9    2.10    2.10
   5  -5   9   -0.80    5.30
   8   4  -9    0.20    4.90
   7   4  -9    1.40    3.60
  -7  -4   9    7.00    6.10
   6   4  -9   11.10    4.50
  -6  -4   9   13.40    5.90
   5   4  -9   10.50    4.20
  -5  -4   9   17.20    6.10
   4   4  -9   38.50    6.40
  -4  -4   9   42.60    7.80
   3   4  -9    3.90    2.90
  -3  -4   9    5.80    4.20
   2   4  -9   39.80    6.00
  -2  -4   9   55.39    8.20
  -2  -4   9   54.89    6.30
  -1  -4   9  119.59    9.70
  -1  -4   9  137.59    9.40
  -1  -4   9  138.19   12.40
   0  -4   9    3.90    4.00
   0  -4   9    2.30    1.80
   0  -4   9    1.20    2.10
   1  -4   9    0.70    1.60
   1  -4   9    0.00    2.10
   1  -4   9    2.00    4.00
   2  -4   9   20.60    3.70
   2  -4   9   28.30    3.60
   2  -4   9   25.60    6.60
   3  -4   9   51.59    8.90
   3  -4   9   59.99    5.30
   3  -4   9   53.79    6.30
   4  -4   9   -4.50    3.80
   4  -4   9    0.00    1.80
   5  -4   9    2.30    2.40
   5  -4   9    0.50    4.80
  -6   4  -9    2.30    2.50
   6  -4   9   12.30    7.00
   6  -4   9    7.00    3.20
   8   3  -9    4.10    4.50
  -8  -3   9    9.50    8.70
   7   3  -9   29.20    7.00
  -7  -3   9   41.70    8.50
   6   3  -9    4.20    3.50
  -6  -3   9    3.50    5.40
   5   3  -9    1.90    3.50
  -5  -3   9    3.10    4.80
   4   3  -9   12.60    4.00
  -4  -3   9   19.40    5.30
   3   3  -9   40.80    6.10
  -3  -3   9   59.59    8.10
   2   3  -9    5.60    2.80
  -2  -3   9    0.50    3.40
  -2  -3   9    1.20    2.20
  -1  -3   9    4.50    3.60
  -1  -3   9    0.90    1.90
  -1  -3   9    1.60    1.90
   0  -3   9   17.10    3.70
   0  -3   9   21.00    3.40
   0  -3   9   20.10    4.80
   1  -3   9   11.80    3.20
   1  -3   9   15.40    2.80
   1  -3   9   13.00    4.80
   2  -3   9   52.59    6.30
   2  -3   9   78.79   11.50
   2  -3   9   53.39    5.10
   3  -3   9   21.50    5.90
   3  -3   9   22.80    3.60
  -4   3  -9    0.50    1.70
   4  -3   9    4.90    5.10
   4  -3   9    2.50    2.20
  -5   3  -9    6.00    2.40
   5  -3   9   -1.40    3.80
   5  -3   9    1.50    2.30
   6  -3   9   -0.40    4.90
   6  -3   9    1.30    2.50
   7  -3   9    6.70    3.40
   7  -3   9    3.90    6.00
   8   2  -9    1.70    3.80
  -8  -2   9   -0.70    5.70
   7   2  -9    1.00    3.70
  -7  -2   9   10.00    6.30
   6   2  -9    7.10    4.30
  -6  -2   9   10.60    5.40
   5   2  -9    0.50    3.30
  -5  -2   9   -0.90    4.30
   4   2  -9    1.70    2.70
  -4  -2   9    3.80    4.30
   3   2  -9   79.29    9.20
  -3  -2   9   85.99    9.90
   2   2  -9  191.28   13.80
  -2  -2   9  185.18   14.50
  -2  -2   9  187.88   13.40
   1   2  -9    3.10    3.50
  -1  -2   9    8.70    2.50
  -1  -2   9    1.50    2.40
  -1  -2   9    2.40    3.00
   0   2  -9   12.30    3.90
   0  -2   9    9.30    2.90
   0  -2   9   11.10    2.60
   0  -2   9    8.40    3.70
  -1   2  -9   29.70    5.80
   1  -2   9   25.70    3.80
   1  -2   9   26.40    4.40
   1  -2   9   27.40    5.60
  -2   2  -9   37.70    7.80
   2  -2   9   39.50    4.60
   2  -2   9   39.20    5.30
   2  -2   9   38.50    6.60
  -3   2  -9   47.30    5.40
   3  -2   9   51.09    8.00
   3  -2   9   51.69    5.60
  -4   2  -9   -1.60    1.60
   4  -2   9    1.90    2.40
   4  -2   9   -2.50    3.50
  -5   2  -9   38.40    5.20
   5  -2   9   50.59    6.10
   5  -2   9   29.10    7.60
   6  -2   9   36.20    5.60
   6  -2   9   28.10    7.90
   7  -2   9    1.50    3.10
   7  -2   9   -2.70    4.70
   8   1  -9   14.30    6.10
  -8  -1   9    0.60    6.20
   7   1  -9    3.00    4.40
  -7  -1   9    0.30    5.40
   6   1  -9   -2.80    3.00
  -6  -1   9   -0.70    5.10
   5   1  -9   50.09    7.60
  -5  -1   9   56.99    8.70
  -4  -1   9  137.59   12.60
   3   1  -9   21.40    4.40
  -3  -1   9   19.50    4.90
   2   1  -9   36.10    5.80
   2   1  -9   40.50    5.70
  -2  -1   9   41.00    5.80
  -2  -1   9   37.40    5.90
   1   1  -9   54.19    6.90
   1   1  -9   60.39    7.10
  -1  -1   9   60.19    7.00
  -1  -1   9   61.79    7.50
   0   1  -9   56.39    7.60
   0  -1   9   71.89    8.00
   0  -1   9   58.79    6.00
   0  -1   9   52.19    6.60
  -1   1  -9  125.19   10.40
   1  -1   9  112.29    8.10
   1  -1   9   92.39    8.50
   1  -1   9  105.49    9.30
  -2   1  -9   23.60    4.80
   2  -1   9   21.50    5.00
   2  -1   9   21.70    3.60
  -3   1  -9   38.90    6.20
   3  -1   9   23.70    5.30
   3  -1   9   36.50    4.70
  -4   1  -9   56.99    6.30
   4  -1   9   61.79    8.80
   4  -1   9   64.09    6.90
   5  -1   9   -3.20    3.30
   5  -1   9    5.00    2.80
   6  -1   9   16.40    6.10
   6  -1   9   28.20    5.20
   7  -1   9   33.40    6.10
   7  -1   9   28.90    7.70
   8  -1   9    1.40    3.40
   8  -1   9    6.40    6.20
   8   0  -9    8.50    5.90
  -8   0   9    3.60    7.80
   7   0  -9    3.20    3.80
  -7   0   9    5.60    5.90
   6   0  -9   14.50    5.20
  -6   0   9   19.00    6.10
   5   0  -9   59.09    8.50
  -5   0   9   63.99    9.30
   4   0  -9    3.90    3.50
  -4   0   9    3.80    4.20
   3   0  -9   73.79    8.80
  -3   0   9   91.59    9.00
   2   0  -9   39.10    6.00
   2   0  -9   39.10    5.90
  -2   0   9   47.60    6.40
  -2   0   9   39.00    5.80
   1   0  -9    1.20    2.90
  -1   0   9    2.10    2.70
  -1   0   9    1.40    1.90
  -1   0   9    0.10    2.00
   0   0  -9   22.90    4.40
   0   0   9   28.00    4.90
   0   0   9   35.90    4.40
  -1   0  -9   21.20    4.00
   1   0   9   14.90    3.00
   1   0   9   18.90    4.00
   1   0   9   17.30    3.90
  -2   0  -9   11.50    3.50
  -2   0  -9   12.90    3.00
   2   0   9   11.30    3.60
   2   0   9   10.80    2.70
  -3   0  -9    7.60    4.00
  -3   0  -9    6.70    2.40
   3   0   9   13.10    3.20
   3   0   9   11.80    3.80
  -4   0  -9   44.20    5.50
  -4   0  -9   42.40    6.70
   4   0   9   43.00    6.80
   4   0   9   50.89    6.10
   5   0   9   21.30    4.50
   5   0   9   23.40    5.90
   6   0   9    6.90    5.00
   6   0   9   11.90    3.70
   7   0   9   -0.10    3.20
   7   0   9   -2.40    4.30
   8   0   9   26.30    5.80
   8   0   9   23.20    7.90
  -8   1   9    7.30    7.80
   7  -1  -9    6.50    5.00
  -7   1   9   10.30    6.10
   6  -1  -9    8.90    4.20
  -6   1   9   10.20    5.30
   5  -1  -9   35.90    7.30
  -5   1   9   37.90    7.10
   4  -1  -9    4.00    3.10
  -4   1   9    5.90    4.80
   3  -1  -9    4.50    3.20
   3  -1  -9    4.80    3.40
  -3   1   9    3.20    3.50
   2  -1  -9  117.49    8.90
   2  -1  -9  101.39    9.30
  -2   1   9   91.19    8.70
  -2   1   9  106.69    9.10
   1  -1  -9   65.49    6.70
  -1   1   9   60.29    5.70
  -1   1   9   55.69    6.90
  -1   1   9   46.60    6.30
   0  -1  -9    3.70    2.70
   0   1   9   -1.20    1.40
   0   1   9   -0.70    1.90
   0   1   9    0.70    2.50
  -1  -1  -9    4.30    2.80
   1   1   9    1.50    2.40
   1   1   9    4.90    2.30
   1   1   9    2.90    2.40
  -2  -1  -9   29.40    4.50
  -2  -1  -9   32.50    4.40
   2   1   9   28.00    4.70
   2   1   9   32.10    4.40
  -3  -1  -9  140.59   10.10
  -3  -1  -9  142.49   10.50
   3   1   9  143.89   10.30
   3   1   9  140.29   10.70
  -4  -1  -9    4.20    2.70
  -4  -1  -9    2.60    2.00
   4   1   9    6.00    3.40
   4   1   9    2.20    2.50
  -5  -1  -9   97.49    9.60
   5   1   9   98.39    9.90
   5   1   9  112.39    9.20
   6   1   9   22.40    6.00
   6   1   9   24.10    5.20
   7   1   9    9.70    5.80
   7   1   9   16.50    4.70
   8   1   9    3.50    3.80
   8   1   9    2.50    5.40
   8  -2  -9    4.40    5.90
  -8   2   9    4.40    6.00
   7  -2  -9   32.70    7.20
  -7   2   9   24.60    7.40
   6  -2  -9    1.80    4.30
  -6   2   9    0.40    4.80
   5  -2  -9   43.80    7.50
  -5   2   9   44.90    7.30
   4  -2  -9   34.10    6.20
  -4   2   9   32.30    6.10
   3  -2  -9   34.70    7.90
   3  -2  -9   47.70    6.10
  -3   2   9   32.10    5.50
   2  -2  -9   51.69    6.60
  -2   2   9   47.40    6.20
   1  -2  -9    3.60    2.40
  -1   2   9    2.10    2.30
  -1   2   9    2.30    1.70
  -1   2   9   -1.60    2.50
   0  -2  -9   36.40    4.60
   0   2   9   27.80    4.80
   0   2   9   37.70    4.90
   0   2   9   31.70    4.50
  -1  -2  -9    1.70    2.40
   1   2   9    7.30    2.60
   1   2   9   11.70    2.90
   1   2   9    7.20    2.70
  -2  -2  -9    6.60    2.20
  -2  -2  -9    9.70    2.60
   2   2   9   12.80    2.80
   2   2   9    6.70    2.30
  -3  -2  -9   56.29    5.60
  -3  -2  -9   57.49    6.30
   3   2   9   57.69    6.40
   3   2   9   65.29    6.10
  -4  -2  -9  103.89    8.60
   4   2   9  101.29    8.70
   4   2   9  108.29    8.80
  -5  -2  -9    2.30    2.80
   5   2   9   -0.60    2.40
  -6  -2  -9    4.00    3.70
   6   2   9    4.90    3.70
   6   2   9   14.00    4.20
   7   2   9   15.60    4.80
   8   2   9   33.80    6.60
   8   2   9   36.30    8.10
   9   2   9    4.60    4.60
   7  -3  -9   29.80    6.80
  -7   3   9   22.30    7.00
   6  -3  -9   33.90    7.20
  -6   3   9   30.10    6.90
   5  -3  -9   26.90    6.10
  -5   3   9   42.80    6.90
   4  -3  -9    0.20    3.00
  -4   3   9    5.40    3.70
   3  -3  -9  124.69   11.40
  -3   3   9  130.19   11.20
   2  -3  -9    8.60    3.20
  -2   3   9    9.50    3.40
   1  -3  -9    7.70    2.70
  -1   3   9    6.10    3.20
  -1   3   9    5.40    2.20
  -1   3   9    7.20    2.60
   0  -3  -9   26.80    3.70
   0   3   9   18.60    3.50
   0   3   9   28.70    5.10
   0   3   9   27.70    4.20
  -1  -3  -9   26.90    3.40
   1   3   9   25.20    3.50
   1   3   9   15.80    3.90
   1   3   9   24.10    4.00
  -2  -3  -9   74.19    6.00
  -2  -3  -9   85.29    7.00
   2   3   9   89.39    7.20
  -3  -3  -9   43.50    4.40
  -3  -3  -9   32.00    4.70
   3   3   9   32.50    5.00
  -4  -3  -9    1.10    2.10
   4   3   9   -2.00    1.90
   4   3   9    2.60    2.20
  -5  -3  -9  119.89    9.50
   5   3   9  114.69    9.80
   5   3   9  131.99   10.40
  -6  -3  -9    5.50    3.60
   6   3   9    6.60    3.50
   6   3   9    3.00    3.70
  -7  -3  -9    0.50    3.80
   7   3   9    3.60    3.70
   7   3   9    5.70    4.30
   8   3   9   12.90    4.40
  -9  -3  -9   18.00    7.10
   9   3   9    9.80    5.30
   7  -4  -9    2.60    4.50
  -7   4   9    7.00    5.40
   6  -4  -9    7.00    5.20
  -6   4   9   15.30    6.00
   5  -4  -9   55.49    9.00
  -5   4   9   60.39    8.30
   4  -4  -9   35.60    6.70
  -4   4   9   31.30    6.00
   3  -4  -9    6.20    3.70
  -3   4   9    2.10    3.50
   2  -4  -9  102.69    9.00
  -2   4   9   61.69    9.30
  -2   4   9   80.29    7.70
  -1   4   9   46.30    5.30
  -1   4   9   80.19   12.30
  -1   4   9   45.60    6.00
  -1   4   9   48.80    5.60
   0   4   9   22.30    3.90
   0   4   9   25.90    5.10
   0   4   9   25.90    4.00
   0   4   9   24.30    3.60
   1   4   9    3.10    2.60
   1   4   9   17.10    2.70
   1   4   9   13.10    3.20
  -2  -4  -9   35.30    4.80
  -2  -4  -9   30.20    2.70
   2   4   9   25.80    2.80
   2   4   9   31.10    4.50
  -3  -4  -9   83.69    5.60
   3   4   9   97.29    7.80
   3   4   9   85.09    5.80
   4   4   9   50.09    4.60
   4   4   9   60.69    6.90
  -5  -4  -9   -1.80    2.30
   5   4   9    0.50    2.30
   5   4   9    1.40    2.90
  -6  -4  -9   27.30    4.70
   6   4   9   25.60    5.40
  -7  -4  -9    9.00    4.20
  -7  -4  -9    5.40    3.70
   7   4   9   11.50    4.10
  -8  -4  -9   -0.50    4.50
   8   4   9    1.90    3.80
  -9  -4  -9    9.40    6.10
   9   4   9    2.50    4.30
   7  -5  -9    8.60    5.70
  -7   5   9    3.00    7.20
   6  -5  -9    6.20    4.50
  -6   5   9    3.80    4.80
   5  -5  -9   10.10    4.70
  -5   5   9    4.50    4.00
   4  -5  -9    2.10    3.70
  -4   5   9    1.40    3.30
   3  -5  -9   18.60    5.10
  -3   5   9   10.00    3.90
  -2   5   9   -0.40    2.60
  -2   5   9    1.70    2.30
  -2   5   9   -3.90    2.40
  -1   5   9   -0.10    2.30
  -1   5   9   -2.40    1.90
  -1   5   9   -3.20    1.20
   0   5   9  270.87   19.30
   0   5   9  245.28   16.60
   0   5   9  266.47   16.30
   0   5   9  252.57   15.80
   1   5   9   39.00    3.80
   1   5   9   28.50    4.80
   1   5   9   45.20    6.30
   1   5   9   42.60    3.80
   2   5   9    2.10    1.90
   3   5   9    9.70    3.00
   4   5   9   32.30    8.00
  -5  -5  -9    9.40    2.20
   5   5   9   14.20    3.90
  -6  -5  -9   -0.90    2.30
  -6  -5  -9    3.10    2.50
   6   5   9   -0.60    2.60
  -7  -5  -9   92.19    8.30
  -7  -5  -9   77.79    8.70
   7   5   9   86.09   10.60
  -8  -5  -9   42.30    7.60
  -8  -5  -9   61.49    7.70
   8   5   9   52.29    8.10
  -9  -5  -9    1.90    5.50
   9   5   9   -1.50    3.20
   6  -6  -9    5.10    5.10
  -6   6   9   17.50    6.10
   5  -6  -9   18.40    6.00
  -5   6   9   12.30    5.30
   4  -6  -9    1.50    3.60
  -4   6   9    4.00    4.10
  -2   6   9   44.20    5.90
  -2   6   9   26.00    5.70
  -2   6   9   53.49    6.40
  -1   6   9   98.49    8.40
  -1   6   9   84.69    7.60
  -1   6   9   77.69    7.20
   0   6   9    2.70    2.40
   0   6   9    0.80    2.10
   0   6   9    1.20    2.00
   1   6   9   63.59    5.10
   1   6   9   71.09    7.60
   2   6   9   29.90    5.00
   3   6   9    0.20    1.90
   4   6   9    4.10    2.60
   5   6   9    0.00    2.60
  -6  -6  -9   32.10    3.90
   6   6   9   38.40    6.40
  -7  -6  -9    8.80    3.30
  -7  -6  -9   11.50    3.70
   7   6   9   13.10    4.80
  -8  -6  -9    0.60    4.40
   8   6   9    4.60    4.00
  -9  -6  -9   12.30    6.10
   9   6   9   15.70    6.20
   6  -7  -9   -0.30    4.10
  -6   7   9   -1.50    4.80
   5  -7  -9   23.20    6.50
  -5   7   9   33.70    7.20
   4  -7  -9    2.50    4.10
  -4   7   9   -4.00    3.10
  -3   7   9    3.20    3.50
  -3   7   9    7.10    2.90
  -2   7   9    1.70    3.10
  -2   7   9    0.50    2.90
  -2   7   9   -0.20    2.10
  -1   7   9   33.80    5.90
  -1   7   9   54.99    6.10
   0   7   9   46.40    6.00
   0   7   9   53.69    5.70
   0   7   9   52.49    6.30
   1   7   9    7.10    2.80
   1   7   9   12.00    2.60
   2   7   9   65.59    7.50
   3   7   9    4.00    2.70
   4   7   9    1.10    2.90
   5   7   9    6.20    3.40
   6   7   9   12.70    4.50
  -7  -7  -9   22.80    3.70
  -7  -7  -9   24.50    3.90
   7   7   9   26.90    6.10
  -8  -7  -9   37.40    5.90
  -8  -7  -9   33.40    5.50
   8   7   9   33.50    6.90
  -9  -7  -9    2.60    4.80
  -9  -7  -9    3.20    4.60
   9   7   9   -1.30    4.90
  -5   8   9   22.20    5.50
  -5   8   9   19.60    6.70
  -4   8   9   -4.90    2.20
  -4   8   9   -5.60    3.30
  -3   8   9   -1.20    3.70
  -3   8   9   -2.40    2.20
  -2   8   9   -0.90    2.20
  -2   8   9   -3.40    3.20
  -1   8   9    8.30    3.80
  -1   8   9    2.60    3.00
  -1   8   9    6.50    2.90
   0   8   9   12.40    3.90
   0   8   9   11.20    3.30
   0   8   9    9.80    3.40
   1   8   9    7.00    2.40
   1   8   9    6.20    2.40
   2   8   9   46.00    6.20
   3   8   9    2.10    2.80
   4   8   9   30.40    6.10
   5   8   9   -1.30    2.50
   6   8   9   10.00    4.10
   7   8   9   -1.80    3.60
  -8  -8  -9   45.40    5.20
  -8  -8  -9   45.10    5.80
   8   8   9   45.30    7.90
  -9  -8  -9    9.10    4.20
   9   8   9    6.90    4.80
  -4   9   9   56.79    8.00
  -4   9   9   50.19    8.90
  -3   9   9   17.60    4.60
  -3   9   9    7.60    4.70
  -2   9   9   61.49    8.40
  -2   9   9   67.19    8.20
  -1   9   9   41.90    7.20
  -1   9   9   55.79    6.80
  -1   9   9   47.00    6.70
   0   9   9   67.19    7.00
   0   9   9   43.20    6.60
   0   9   9   56.89    7.20
   1   9   9   12.70    3.40
   1   9   9   10.00    3.30
   1   9   9   15.30    3.30
   2   9   9    2.10    2.50
   2   9   9    5.10    1.90
   2   9   9    1.50    2.50
   3   9   9   36.70    5.80
   4   9   9    5.30    3.10
   5   9   9    1.20    3.30
   6   9   9   39.60    6.70
   7   9   9    0.60    3.50
  -8  -9  -9    1.80    2.50
   8   9   9    1.60    4.00
  -9  -9  -9    1.00    3.60
  -9  -9  -9   10.40    3.30
   9   9   9    0.80    4.40
  -3  10   9   36.30    7.40
  -3  10   9   38.30    6.40
  -2  10   9    7.30    3.40
  -1  10   9    3.80    2.80
   0  10   9   -1.70    2.80
   0  10   9   -3.00    2.00
   1  10   9   -1.70    2.20
   1  10   9    1.50    2.40
   2  10   9   16.00    2.90
   2  10   9   23.20    4.80
   3  10   9    2.80    2.80
   4  10   9    9.30    4.10
   5  10   9   24.40    5.40
   6  10   9   12.30    4.50
   7  10   9   27.30    6.40
   8  10   9    0.10    4.20
  -2  11   9    4.90    3.10
   1 -11  -9    1.50    4.70
  -1  11   9   15.00    4.20
   0 -11  -9   25.00    6.10
   0  11   9   22.50    4.90
  -1 -11  -9    1.00    3.30
   1  11   9    7.20    3.20
   1  11   9    7.40    3.40
  -2 -11  -9   41.40    5.60
   2  11   9   47.50    7.10
   2  11   9   38.40    4.90
   3  11   9   33.50    6.20
   4  11   9    1.40    3.00
   5  11   9   29.00    6.20
   6  11   9   11.00    4.50
   7  11   9    3.20    4.30
   8  11   9   -2.10    3.70
   1 -12  -9   23.70    7.40
  -1  12   9   17.50    4.70
   0  12   9    6.00    3.60
  -1 -12  -9   -0.30    3.60
   1  12   9    4.90    3.60
   1  12   9    5.20    3.60
  -2 -12  -9    1.60    3.00
   2  12   9    2.00    2.90
   2  12   9    3.80    2.50
  -3 -12  -9   19.30    3.80
   3  12   9   13.40    3.00
   3  12   9   14.70    4.50
   4  12   9   27.30    5.30
   5  12   9    3.50    3.50
   6  12   9   11.00    5.30
   7  12   9    9.80    5.30
   0 -13  -9    3.90    5.10
   0  13   9   -1.40    2.60
  -1 -13  -9    6.90    5.00
   1  13   9    2.90    3.40
  -2 -13  -9   16.10    4.90
   2  13   9   20.10    5.40
   2  13   9   11.70    3.80
  -3 -13  -9    1.70    3.00
   3  13   9    2.90    3.10
   3  13   9    5.50    2.80
   4  13   9   16.60    5.00
   4  13   9    6.00    2.60
   5  13   9   10.50    4.60
   6  13   9   -1.50    3.30
   4   9 -10    7.50    3.90
  -4  -9  10    0.80    5.80
  -3  -9  10    2.90    2.80
  -3  -9  10    7.70    7.00
  -2  -9  10    1.60    2.10
  -2  -9  10   14.40    7.60
  -2  -9  10    3.30    2.00
  -1  -9  10   -7.00    5.10
   0  -9  10    6.30    6.00
   6   8 -10   -1.00    3.20
  -6  -8  10    5.30    6.20
   5   8 -10    2.10    3.80
   4   8 -10    5.20    3.80
  -4  -8  10    0.70    5.80
   3   8 -10    9.30    4.00
  -3  -8  10    7.60    5.70
  -2  -8  10    6.60    5.60
  -2  -8  10    4.50    2.30
  -1  -8  10    5.70    5.80
  -1  -8  10    2.70    1.90
  -1  -8  10    0.20    1.60
   0  -8  10   14.10    7.00
   1  -8  10   37.40   12.40
   2  -8  10   -3.10    5.40
   6   7 -10   16.20    5.40
   5   7 -10    8.80    4.00
  -5  -7  10   10.30    5.90
   4   7 -10    0.80    3.00
  -4  -7  10    7.60    5.40
   3   7 -10    0.20    2.60
  -3  -7  10    9.40    5.80
  -2  -7  10   32.90    7.70
  -2  -7  10   15.30    3.70
  -2  -7  10   29.60    4.20
  -1  -7  10    1.40    4.40
  -1  -7  10    0.80    1.70
  -1  -7  10    0.70    2.00
   0  -7  10    4.10    5.40
   0  -7  10   -1.80    1.40
   0  -7  10    2.90    1.70
   1  -7  10    5.10    5.40
   2  -7  10   11.40    6.30
   3  -7  10   12.60    9.50
   7   6 -10    8.10    4.80
  -7  -6  10    7.30    6.80
   6   6 -10   -4.80    3.10
  -6  -6  10    0.20    5.10
   5   6 -10   -1.90    2.80
  -5  -6  10   -2.60    4.70
   4   6 -10   47.90    7.30
  -4  -6  10   53.29    9.40
   3   6 -10   13.80    4.30
  -3  -6  10   23.30    6.60
  -2  -6  10   -2.00    3.90
  -2  -6  10    0.40    2.60
  -1  -6  10    2.00    2.10
  -1  -6  10   10.80    5.50
  -1  -6  10    1.10    2.20
   0  -6  10   -1.90    4.20
   0  -6  10   -0.40    1.90
   0  -6  10   -0.20    1.50
   1  -6  10    1.10    1.80
   1  -6  10    0.30    4.10
   1  -6  10   -0.10    1.40
   2  -6  10   -2.30    5.00
   2  -6  10   -0.60    1.60
   2  -6  10    1.70    2.00
   3  -6  10    6.80    2.50
   3  -6  10   15.80    7.10
   4  -6  10    6.40    2.30
   4  -6  10   20.10    8.60
   7   5 -10    8.10    5.50
  -7  -5  10    8.80    7.00
   6   5 -10    4.80    3.90
  -6  -5  10   14.60    6.40
   5   5 -10   16.20    5.00
  -5  -5  10   11.40    6.10
   4   5 -10    5.10    3.50
  -4  -5  10    6.90    5.30
   3   5 -10   26.70    5.50
  -3  -5  10   21.10    6.40
   2   5 -10   49.00    6.80
  -2  -5  10   69.69    7.50
  -2  -5  10   66.79   10.10
  -1  -5  10   14.80    3.20
  -1  -5  10   18.30    3.80
  -1  -5  10   17.00    6.00
   0  -5  10   17.90    5.80
   0  -5  10   22.80    3.40
   0  -5  10   14.60    3.40
   1  -5  10   80.69    6.50
   1  -5  10   90.49   11.90
   1  -5  10   82.39    7.10
   2  -5  10   12.70    3.20
   2  -5  10   11.20    2.60
   2  -5  10   13.60    6.10
   3  -5  10    0.50    2.20
   3  -5  10    0.20    5.40
   3  -5  10   -1.40    1.70
   4  -5  10    2.50    5.90
   4  -5  10    0.10    1.80
   4  -5  10    1.60    2.30
   5  -5  10   -0.60    5.80
   5  -5  10    6.90    2.60
   5  -5  10    2.50    2.80
   8   4 -10   14.10    6.60
  -8  -4  10    9.80    6.50
   7   4 -10    3.60    4.10
  -7  -4  10    5.20    6.10
   6   4 -10    3.20    3.80
  -6  -4  10    8.70    5.90
   5   4 -10    4.30    3.30
  -5  -4  10   14.90    5.50
   4   4 -10   -3.70    2.10
  -4  -4  10   -3.00    3.80
   3   4 -10    2.30    4.00
  -3  -4  10    9.60    4.70
   2   4 -10   12.60    3.80
  -2  -4  10   16.20    4.00
  -2  -4  10   12.00    5.30
  -1  -4  10  120.79    8.60
  -1  -4  10  103.09    9.00
  -1  -4  10   93.19   11.80
   0  -4  10   -3.30    3.50
   0  -4  10    1.00    2.30
   0  -4  10    1.60    1.90
   1  -4  10   11.90    5.10
   1  -4  10   13.50    2.90
   1  -4  10   13.90    3.40
   2  -4  10   26.40    3.80
   2  -4  10   27.70    7.30
   2  -4  10   26.70    4.50
   3  -4  10    8.00    3.10
   3  -4  10   12.90    5.90
   3  -4  10   18.20    3.30
   4  -4  10    7.20    3.10
   4  -4  10   21.70    7.40
   4  -4  10    6.00    2.50
  -5   4 -10    7.00    2.60
   5  -4  10   11.30    7.00
   5  -4  10    6.50    2.80
   6  -4  10    0.40    2.40
   6  -4  10   -2.30    5.30
   8   3 -10   -3.10    4.00
  -8  -3  10    7.90    6.60
   7   3 -10   26.00    7.20
  -7  -3  10   10.90    6.10
   6   3 -10   15.90    5.20
  -6  -3  10   11.60    6.20
   5   3 -10    3.00    3.60
  -5  -3  10   -6.10    4.20
   4   3 -10   14.30    4.60
  -4  -3  10   21.20    6.20
  -3  -3  10    4.20    4.20
   2   3 -10   21.00    4.60
  -2  -3  10   28.50    6.10
  -1  -3  10    2.40    3.80
  -1  -3  10    2.70    2.40
  -1  -3  10    2.00    2.00
   0  -3  10   57.79    8.20
   0  -3  10   79.49    6.40
   0  -3  10   68.29    9.10
   1  -3  10   20.00    4.20
   1  -3  10   16.70    5.40
   1  -3  10   30.60    4.00
   2  -3  10   12.80    2.90
   2  -3  10    7.70    3.30
   2  -3  10   15.70    5.60
   3  -3  10    5.90    4.70
   3  -3  10   11.70    2.90
   3  -3  10    6.30    3.40
  -4   3 -10   13.80    3.10
   4  -3  10   15.50    6.10
   4  -3  10   19.70    4.00
  -5   3 -10    6.50    2.80
   5  -3  10    6.00    5.70
   5  -3  10    7.70    3.20
   6  -3  10    5.50    3.10
   6  -3  10    4.80    6.40
   8   2 -10    1.60    5.10
  -8  -2  10    6.30    6.70
   7   2 -10    1.50    3.80
  -7  -2  10    3.30    5.80
  -6  -2  10   40.60    8.20
   5   2 -10   26.60    5.90
  -5  -2  10   13.40    5.70
   4   2 -10    5.30    3.50
  -4  -2  10    3.30    5.10
   3   2 -10   48.00    8.10
  -3  -2  10   51.59    7.60
   2   2 -10  183.48   14.10
  -2  -2  10  197.88   16.30
  -1  -2  10   43.20    5.30
  -1  -2  10   46.40    7.10
  -1  -2  10   42.00    5.80
   0  -2  10    9.70    2.90
   0  -2  10   22.10    5.20
   0  -2  10   18.40    4.10
   1  -2  10   11.10    2.90
   1  -2  10   12.20    4.40
   2  -2  10   53.59    8.20
   2  -2  10   61.49    6.40
  -3   2 -10   -0.10    1.80
   3  -2  10    2.10    2.20
   3  -2  10    5.40    4.30
  -4   2 -10    3.60    2.20
   4  -2  10    4.30    2.40
   4  -2  10    1.70    4.20
   5  -2  10   18.40    6.60
   5  -2  10   17.90    4.30
   6  -2  10   24.90    7.50
   6  -2  10   20.50    4.80
   7  -2  10    3.00    3.10
   7  -2  10   -6.50    4.70
   8   1 -10    9.00    5.70
  -8  -1  10   10.80    7.20
   7   1 -10    6.40    4.60
  -7  -1  10   14.20    6.50
   6   1 -10   -2.90    3.50
  -6  -1  10   -2.10    4.80
   5   1 -10    2.00    3.50
  -5  -1  10    1.90    4.70
   4   1 -10    9.70    4.10
  -4  -1  10   11.00    4.70
  -3  -1  10  106.79   13.20
   2   1 -10    2.70    2.80
  -2  -1  10    0.60    3.20
   1   1 -10   84.19    8.80
  -1  -1  10   86.49    7.00
  -1  -1  10   76.59    8.90
  -1  -1  10   69.19    8.30
   0   1 -10   33.70    5.70
   0  -1  10   38.80    5.00
   0  -1  10   44.10    6.60
   0  -1  10   33.60    5.70
  -1   1 -10    4.90    2.90
   1  -1  10    1.70    2.50
   1  -1  10    1.50    2.00
   1  -1  10   -0.10    3.10
  -2   1 -10   10.40    3.90
   2  -1  10   10.10    3.40
   2  -1  10   12.50    4.10
   2  -1  10    7.70    2.80
  -3   1 -10    3.70    2.20
   3  -1  10    1.80    3.20
   3  -1  10   11.30    3.00
  -4   1 -10   -0.20    1.70
   4  -1  10    0.00    2.40
   5  -1  10    3.70    4.50
   5  -1  10    3.20    3.10
   6  -1  10   13.30    3.90
   6  -1  10    6.90    5.60
   7  -1  10   20.90    5.20
   7  -1  10   14.90    6.80
   8   0 -10    3.80    5.00
  -8   0  10    2.10    6.00
   7   0 -10   11.40    5.30
  -7   0  10   23.90    7.30
   6   0 -10    2.60    3.80
  -6   0  10   -0.20    5.10
   5   0 -10   16.10    5.20
  -5   0  10   16.10    5.80
   4   0 -10   12.70    4.40
  -4   0  10   15.00    5.10
   3   0 -10  140.59   12.30
  -3   0  10  148.69   12.40
   2   0 -10   44.80    6.40
   2   0 -10   38.10    5.80
  -2   0  10   38.50    6.10
   1   0 -10   -0.40    2.80
  -1   0  10   -0.90    2.20
  -1   0  10   -0.60    2.60
  -1   0  10    0.90    1.60
   0   0  10   38.50    4.90
   0   0  10   45.60    6.20
   0   0  10   33.00    5.60
  -1   0 -10   83.39    7.80
   1   0  10   75.39    6.80
   1   0  10   84.39    7.90
   1   0  10   78.59    8.60
   2   0  10    0.90    2.60
   2   0  10    2.20    2.00
  -3   0 -10    6.50    3.50
  -3   0 -10    2.00    2.00
   3   0  10    0.10    3.00
   3   0  10    4.20    2.70
  -4   0 -10    2.70    3.40
   4   0  10   -0.20    2.30
   4   0  10    2.10    3.20
   5   0  10   31.40    6.70
   6   0  10    5.00    3.50
   6   0  10    8.90    5.50
   7   0  10   18.30    6.80
   7   0  10   15.40    4.70
   8   0  10   13.80    7.00
   8   0  10   18.40    5.40
   8  -1 -10    6.70    5.50
  -8   1  10    6.60    6.70
   7  -1 -10    3.70    4.60
  -7   1  10   12.70    6.30
   6  -1 -10   15.10    5.90
  -6   1  10    4.60    5.50
   5  -1 -10   67.39    9.20
  -5   1  10   62.79    8.70
   4  -1 -10    3.50    3.50
  -4   1  10    8.70    4.50
   3  -1 -10   17.80    4.70
  -3   1  10   30.30    5.70
   2  -1 -10  113.79    9.50
   2  -1 -10   97.19    9.60
  -2   1  10  112.79    9.80
   1  -1 -10  112.69   10.40
  -1   1  10  119.29    9.60
  -1   1  10  103.59    8.60
   0  -1 -10   30.80    4.90
   0   1  10   31.50    5.60
   0   1  10   42.30    5.10
   0   1  10   35.70    5.30
  -1  -1 -10    8.70    3.20
   1   1  10    7.90    2.60
   1   1  10    7.30    3.20
   1   1  10    8.90    3.20
  -2  -1 -10    1.40    1.70
  -2  -1 -10    5.80    3.10
   2   1  10    2.80    2.10
   2   1  10    1.90    2.70
  -3  -1 -10   51.99    6.20
  -3  -1 -10   49.80    6.50
   3   1  10   51.79    6.80
   3   1  10   60.89    6.60
  -4  -1 -10   16.90    4.90
   4   1  10   11.60    4.10
   4   1  10   16.30    3.90
  -5  -1 -10   25.60    5.50
   5   1  10   24.80    5.60
   5   1  10   30.40    5.40
   6   1  10   12.40    9.10
   6   1  10   19.20    4.70
   7   1  10    0.00    3.20
   7   1  10   -1.60    4.50
   8   1  10   -0.10    4.80
   8   1  10    3.00    3.70
   7  -2 -10   17.60    6.70
  -7   2  10   17.70    6.70
   6  -2 -10    0.10    3.80
  -6   2  10    7.90    5.40
   5  -2 -10   36.50    7.00
  -5   2  10   57.69    8.40
   4  -2 -10   75.59   10.00
  -4   2  10   90.19    9.90
   3  -2 -10   50.19    7.50
  -3   2  10   47.10    6.80
   2  -2 -10   28.00    4.90
   2  -2 -10   29.90    6.20
  -2   2  10   34.40    5.60
   1  -2 -10   62.69    6.50
  -1   2  10   71.59    6.90
  -1   2  10   60.99    6.70
   0  -2 -10   52.79    5.80
   0   2  10   41.30    5.40
   0   2  10   48.80    5.80
   0   2  10   45.90    6.70
  -1  -2 -10    1.30    2.50
   1   2  10    1.30    2.40
   1   2  10   -0.80    1.50
   1   2  10    0.70    2.20
  -2  -2 -10    4.40    2.20
  -2  -2 -10    8.30    2.80
   2   2  10    3.50    2.50
   2   2  10    7.60    2.60
  -3  -2 -10   28.50    4.30
   3   2  10   29.50    4.50
   3   2  10   20.50    4.10
  -4  -2 -10   69.99    7.90
   4   2  10   87.89    9.10
   4   2  10   73.99    8.40
   5   2  10    0.80    3.10
   5   2  10   -0.90    2.40
  -6  -2 -10   -2.60    3.10
   6   2  10    2.80    3.70
   6   2  10    7.00    4.20
   7   2  10   24.70    5.70
   7   2  10   29.10    6.90
   8   2  10   -2.80    3.30
   8   2  10    5.60    5.40
   7  -3 -10   -0.50    4.90
  -7   3  10   -3.90    4.90
   6  -3 -10   24.30    6.30
  -6   3  10   20.00    6.40
   5  -3 -10   36.10    7.50
  -5   3  10   36.00    6.90
   4  -3 -10    5.80    3.90
  -4   3  10    6.90    4.20
   3  -3 -10   78.29   10.10
  -3   3  10  108.29    9.70
   2  -3 -10   46.70    5.90
   2  -3 -10   33.90    6.70
  -2   3  10   47.90    6.20
   1  -3 -10    7.00    2.90
  -1   3  10   12.30    3.50
  -1   3  10    8.80    2.60
   0  -3 -10   29.30    4.10
   0   3  10   31.20    4.60
   0   3  10   34.40    4.60
  -1  -3 -10   65.89    5.80
   1   3  10   72.89    6.00
   1   3  10   58.09    6.60
  -2  -3 -10   39.10    4.30
   2   3  10   36.30    4.40
   2   3  10   41.80    5.40
  -3  -3 -10   16.40    3.00
   3   3  10   10.60    2.90
   3   3  10   15.40    3.60
  -4  -3 -10    9.50    3.10
   4   3  10    8.00    5.00
   4   3  10    7.10    2.80
  -5  -3 -10   11.50    3.40
   5   3  10    9.60    3.40
   5   3  10    6.90    3.30
   6   3  10   20.40    5.10
   6   3  10   24.80    5.30
   7   3  10    1.50    3.70
   7   3  10    4.40    3.70
   8   3  10    7.60    4.60
  -9  -3 -10   19.00    6.70
   7  -4 -10   -2.60    4.30
   6  -4 -10    1.90    4.70
  -6   4  10   -4.90    4.20
   5  -4 -10   30.40    7.20
  -5   4  10   24.00    5.90
   4  -4 -10   36.20    7.20
  -4   4  10   35.50    6.20
   3  -4 -10   17.90    5.10
  -3   4  10   17.80    4.80
  -2   4  10    4.80    2.40
  -2   4  10   -1.20    2.70
  -2   4  10    0.90    3.00
  -1   4  10   33.50    5.20
  -1   4  10   32.40    5.00
  -1   4  10   41.70    5.40
   0   4  10    2.30    2.40
   0   4  10    3.60    2.30
  -1  -4 -10   39.80    4.10
   1   4  10   45.60    4.40
   1   4  10   67.59    7.00
   2   4  10  114.49    9.20
   2   4  10  115.49    7.60
  -3  -4 -10  178.68   11.00
   3   4  10  190.68   13.20
   3   4  10  180.58   11.30
  -4  -4 -10   18.10    2.80
   4   4  10   12.80    3.60
  -5  -4 -10    7.70    2.70
   5   4  10    8.60    3.60
   5   4  10    6.30    2.70
  -6  -4 -10    0.70    2.90
   6   4  10    2.60    3.10
   6   4  10    2.50    2.90
  -7  -4 -10    5.80    3.80
   7   4  10    6.70    4.30
  -8  -4 -10   23.60    6.00
   8   4  10   25.20    6.20
  -9  -4 -10    9.80    6.30
   9   4  10    1.60    4.30
   6  -5 -10   -0.40    4.70
  -6   5  10   -5.80    4.20
   5  -5 -10   -2.20    4.20
  -5   5  10   -2.20    3.80
   4  -5 -10   30.60    6.90
  -4   5  10   27.10    5.60
   3  -5 -10   33.80    6.60
  -3   5  10   29.00    5.90
  -2   5  10   10.10    3.10
  -2   5  10   20.20    4.30
  -2   5  10    7.30    3.60
  -1   5  10    3.00    2.60
  -1   5  10    6.50    2.90
  -1   5  10    7.60    2.90
   0   5  10   14.00    3.50
   0   5  10    8.70    3.00
   0   5  10   12.30    3.10
   1   5  10   23.30    3.30
   1   5  10   21.50    4.00
   2   5  10    2.20    2.10
   3   5  10   50.99    6.60
   4   5  10   29.40    5.50
  -5  -5 -10   17.20    2.50
   5   5  10   20.50    5.10
  -6  -5 -10    0.00    2.40
  -6  -5 -10    2.90    2.50
   6   5  10   -2.20    2.40
  -7  -5 -10    2.20    3.50
  -7  -5 -10    0.90    3.10
   7   5  10    1.80    3.90
  -8  -5 -10   23.40    5.80
  -8  -5 -10    7.60    4.30
   8   5  10   10.80    5.00
   6  -6 -10   14.40    6.50
  -6   6  10   17.70    6.20
   5  -6 -10   14.30    5.40
  -5   6  10    3.90    4.50
   4  -6 -10   71.19   10.00
  -4   6  10   80.29    9.70
  -3   6  10   17.60    4.40
  -3   6  10    7.80    3.90
  -2   6  10   14.70    3.90
  -2   6  10   12.80    4.40
  -2   6  10    9.90    3.70
  -1   6  10   -0.40    2.50
  -1   6  10    0.80    2.20
  -1   6  10    2.40    2.80
   0   6  10    4.20    2.60
   0   6  10    3.60    2.50
   0   6  10    5.30    3.00
   1   6  10   22.10    4.00
   1   6  10   30.30    3.60
   2   6  10   30.40    5.10
   3   6  10   24.60    4.60
   4   6  10   -1.60    2.20
   5   6  10   11.60    4.10
  -6  -6 -10    0.70    1.80
   6   6  10    0.60    3.10
  -7  -6 -10    3.20    3.40
  -7  -6 -10    4.10    2.80
   7   6  10    5.70    4.00
  -8  -6 -10   -3.00    4.20
  -8  -6 -10    2.70    3.70
   8   6  10    2.30    3.80
  -9  -6 -10    1.50    5.60
   9   6  10    1.90    4.30
   5  -7 -10    7.90    4.90
  -5   7  10   -1.20    4.50
  -4   7  10    5.70    4.70
  -4   7  10   14.60    4.90
  -3   7  10   22.40    4.80
  -3   7  10   18.80    5.20
  -2   7  10   12.30    4.20
  -2   7  10   13.50    4.10
  -1   7  10    1.10    2.40
  -1   7  10    3.50    2.90
  -1   7  10    1.40    3.30
   0   7  10   71.49    7.00
   0   7  10   75.09    6.50
   0   7  10   79.29    8.70
   1   7  10    4.50    2.10
   1   7  10    4.80    3.20
   2   7  10   60.49    7.50
   3   7  10   12.10    3.70
   4   7  10   31.70    5.80
   5   7  10    4.70    3.60
   6   7  10   -1.70    2.60
  -7  -7 -10   21.00    3.40
   7   7  10   24.60    6.30
  -8  -7 -10   -2.30    3.20
  -8  -7 -10   -1.10    2.80
   8   7  10   -3.60    3.30
  -9  -7 -10   -1.10    4.00
  -9  -7 -10    4.80    4.70
   9   7  10   -2.30    3.90
  -5   8  10   -2.50    3.10
  -5   8  10   -3.00    4.20
  -4   8  10   -1.40    2.90
  -4   8  10    6.30    4.90
  -3   8  10   23.70    5.60
  -3   8  10   25.10    5.40
  -2   8  10   83.29    9.10
  -2   8  10   71.29    8.70
  -1   8  10   35.70    6.40
  -1   8  10   47.20    6.40
  -1   8  10   59.89    7.70
   0   8  10    3.60    2.80
   0   8  10    2.90    2.60
   0   8  10   -0.40    2.40
   1   8  10   41.50    4.70
   1   8  10   37.10    4.20
   1   8  10   47.30    6.50
   2   8  10  121.29   10.20
   3   8  10   10.50    3.60
   4   8  10    5.40    3.40
   5   8  10    8.60    3.90
   6   8  10    0.30    3.50
   7   8  10    2.80    4.00
  -8  -8 -10    9.30    2.90
   8   8  10   17.20    5.90
  -9  -8 -10    5.50    3.20
  -9  -8 -10    1.40    3.40
   9   8  10   -4.80    3.10
  -4   9  10    3.70    4.80
  -4   9  10   -2.60    2.90
  -3   9  10    2.40    3.10
  -3   9  10    0.50    4.30
  -2   9  10   23.60    5.80
  -2   9  10   25.90    5.40
  -1   9  10   91.09   10.70
  -1   9  10   93.99    9.00
  -1   9  10  105.19    9.30
   0   9  10    3.80    3.10
   0   9  10    3.30    2.90
   0   9  10    4.00    2.90
   1   9  10    2.10    2.10
   1   9  10    1.40    2.00
   1   9  10    1.10    2.60
   2   9  10   -1.80    2.30
   3   9  10   12.30    3.90
   4   9  10   79.69    9.30
   5   9  10    0.20    2.80
   6   9  10   19.30    5.70
   7   9  10   40.80    8.30
   8   9  10    5.10    4.90
  -3  10  10    1.60    4.50
  -3  10  10   12.40    4.50
  -2  10  10    2.40    3.30
  -2  10  10    1.40    3.90
  -1  10  10    3.40    3.00
  -1  10  10   11.70    4.50
   0  10  10   47.20    6.30
   0  10  10   50.19    7.30
   0  10  10   33.70    6.20
   1  10  10    7.40    2.80
   1  10  10    9.60    3.60
   1  10  10    8.00    3.10
   2  10  10    2.90    2.00
   2  10  10    9.60    4.00
   3  10  10    0.30    2.90
   4  10  10   32.10    6.10
   5  10  10  106.39   12.40
   6  10  10    2.00    3.70
   7  10  10   44.90    8.70
   8  10  10   16.60    5.80
  -2  11  10   21.30    5.50
  -2  11  10   26.80    6.50
  -1  11  10    5.70    3.70
  -1  11  10   15.00    4.80
   0  11  10    2.10    3.40
   0  11  10    3.70    3.40
   0  11  10    1.90    3.60
   1  11  10   13.60    4.60
   1  11  10   18.60    4.10
   1  11  10   10.70    3.40
   2  11  10   35.30    6.10
   2  11  10   27.80    3.90
   2  11  10   25.00    3.50
   3  11  10   -0.80    2.60
   4  11  10   11.00    4.40
   5  11  10    1.50    3.90
   6  11  10   33.90    7.20
   7  11  10   -1.30    4.10
  -1  12  10    9.20    3.90
  -1  12  10   12.20    4.40
   0  12  10    7.20    3.90
   1  12  10   20.40    5.20
   1  12  10   11.20    4.10
   2  12  10    0.00    2.90
   2  12  10    5.20    2.50
   3  12  10    2.70    3.40
   4  12  10   11.20    4.40
   5  12  10   -2.90    2.80
   6  12  10   -1.20    3.50
   7  12  10    9.40    5.30
   1  13  10    7.00    3.80
   2  13  10    7.50    3.00
   2  13  10    8.10    4.10
   3  13  10    6.30    2.70
   3  13  10   18.80    5.10
   4  13  10   24.80    6.00
   5  13  10   21.70    6.20
   4   8 -11    4.60    4.00
  -4  -8  11   10.30    7.10
  -3  -8  11   18.60   13.20
  -2  -8  11    8.30    3.10
  -2  -8  11   10.30    3.00
  -1  -8  11    0.50    1.60
  -1  -8  11    4.60    2.30
   0  -8  11    6.70    6.70
   0  -8  11    4.60    1.60
   1  -8  11    1.00    6.10
   6   7 -11   -2.30    3.60
  -6  -7  11   -3.60    5.30
   5   7 -11    5.20    3.90
  -5  -7  11   -4.20    8.50
   4   7 -11   -0.50    3.10
  -4  -7  11   -3.10    4.80
   3   7 -11   -0.20    2.70
  -3  -7  11    4.10    5.40
  -2  -7  11   62.89    6.60
  -2  -7  11   53.89    6.60
  -2  -7  11   43.40    8.90
  -1  -7  11   16.90    3.90
  -1  -7  11   34.90    8.40
  -1  -7  11   23.90    3.80
   0  -7  11   -0.50    1.70
   0  -7  11    5.20    5.90
   0  -7  11    3.00    2.00
   1  -7  11   -1.60    4.90
   1  -7  11    4.40    1.70
   2  -7  11  -12.80    8.50
   6   6 -11   -0.10    4.10
  -6  -6  11   -4.60    5.30
   5   6 -11    1.10    3.50
  -5  -6  11    9.40    5.70
   4   6 -11   13.00    4.50
  -4  -6  11   10.00    5.70
   3   6 -11    2.30    3.20
  -3  -6  11    9.50    5.30
  -2  -6  11    4.00    5.10
  -2  -6  11    0.00    2.20
  -1  -6  11    3.40    2.30
  -1  -6  11    2.00    2.50
  -1  -6  11    3.70    4.90
   0  -6  11   20.80    6.90
   0  -6  11   13.50    3.40
   0  -6  11   20.10    3.40
   1  -6  11   15.30    6.70
   1  -6  11    2.10    2.20
   1  -6  11    6.10    2.20
   2  -6  11    2.30    1.80
   2  -6  11    2.20    2.00
   2  -6  11    2.40    5.80
   3  -6  11    7.40    2.30
   3  -6  11   13.30    2.40
   3  -6  11    2.70    6.20
   7   5 -11    8.30    5.00
  -7  -5  11   12.40    7.00
   6   5 -11   16.80    5.80
  -6  -5  11   20.00    7.10
   5   5 -11    0.20    3.50
  -5  -5  11    3.20    5.50
   4   5 -11    8.30    4.50
  -4  -5  11    0.30    4.90
   3   5 -11   15.50    4.40
  -3  -5  11   14.70    6.20
  -2  -5  11    0.40    2.20
  -2  -5  11   -1.50    4.40
  -1  -5  11   11.00    5.30
  -1  -5  11    4.90    2.90
  -1  -5  11   19.20    3.80
   0  -5  11    1.70    4.50
   0  -5  11    4.30    3.70
   0  -5  11    2.40    2.00
   1  -5  11   50.09    6.30
   1  -5  11   66.89    5.90
   1  -5  11   61.79   10.20
   2  -5  11   12.60    3.00
   2  -5  11    9.30    5.90
   2  -5  11   10.10    3.20
   3  -5  11    1.10    2.30
   3  -5  11    2.40    5.00
   3  -5  11    2.90    2.10
   4  -5  11    4.00    6.10
   4  -5  11    1.20    2.00
   4  -5  11    1.50    2.60
   7   4 -11    6.10    4.80
  -7  -4  11    2.00    6.00
   6   4 -11    4.60    4.40
  -6  -4  11   12.60    6.10
   5   4 -11   -0.70    3.20
  -5  -4  11    7.40    5.50
   4   4 -11    1.60    3.20
  -4  -4  11    9.10    5.60
   3   4 -11    2.90    3.00
  -3  -4  11    1.00    4.30
   2   4 -11   14.80    4.50
  -2  -4  11   30.30    6.80
  -1  -4  11   16.70    3.50
  -1  -4  11   13.00    3.80
  -1  -4  11    9.70    5.00
   0  -4  11   27.50    6.60
   0  -4  11   12.70    3.80
   0  -4  11   21.70    3.80
   1  -4  11   -0.20    3.10
   1  -4  11    0.90    4.10
   1  -4  11    0.90    1.90
   2  -4  11   32.30    5.80
   2  -4  11   44.40    5.20
   2  -4  11   47.90    9.10
   3  -4  11   17.30    6.70
   3  -4  11   18.90    3.70
   4  -4  11   12.90    3.20
   4  -4  11    6.60    3.50
   4  -4  11    8.90    6.20
   5  -4  11    3.10    2.60
   5  -4  11    6.60    6.60
   5  -4  11    1.40    3.30
   7   3 -11   20.30    6.50
  -7  -3  11   15.80    8.80
   6   3 -11    1.60    3.60
  -6  -3  11    2.90    5.50
   5   3 -11    8.30    4.50
  -5  -3  11   12.10    5.50
   4   3 -11   17.90    5.00
  -4  -3  11   29.60    6.60
   3   3 -11    8.40    3.80
  -3  -3  11   10.40    4.60
   2   3 -11   18.80    4.60
  -2  -3  11   14.10    5.10
  -1  -3  11    0.60    2.10
  -1  -3  11   -1.90    3.80
   0  -3  11   53.89    8.90
   0  -3  11   72.29    8.00
   0  -3  11   81.79    6.80
   1  -3  11   66.19    6.10
   1  -3  11   75.89    8.20
   1  -3  11   47.70    8.80
   2  -3  11    1.60    2.60
   2  -3  11   -1.00    1.80
   2  -3  11    9.40    5.10
   3  -3  11    1.00    2.90
   3  -3  11   -4.60    3.80
   3  -3  11   -4.00    1.80
   4  -3  11   20.80    7.20
   4  -3  11   16.00    4.30
   4  -3  11   13.40    3.60
   5  -3  11    0.80    2.80
   5  -3  11   -3.50    5.20
   6  -3  11    1.60    2.90
   6  -3  11    2.40    5.50
   7   2 -11    3.40    4.70
  -7  -2  11    2.80    6.00
   6   2 -11   18.70    6.10
  -6  -2  11   21.90    7.20
   5   2 -11   13.20    5.10
  -5  -2  11   16.30    6.60
   4   2 -11   -0.40    2.90
  -4  -2  11    3.50    4.60
   3   2 -11   -2.60    2.60
  -3  -2  11   -4.20    3.20
  -2  -2  11   15.90    5.20
  -1  -2  11   94.29    8.00
  -1  -2  11   88.89   10.50
   0  -2  11    0.70    2.10
   0  -2  11    4.50    2.80
   1  -2  11   13.20    3.90
   1  -2  11   25.80    9.20
   1  -2  11   20.50    3.80
   2  -2  11   47.70    6.80
   2  -2  11   54.39    6.40
   2  -2  11   57.09    8.60
   3  -2  11   46.80    5.80
   3  -2  11   46.40    8.20
   3  -2  11   29.70    5.70
   4  -2  11    4.30    2.90
   4  -2  11    6.50    4.70
   5  -2  11    0.30    5.20
   5  -2  11    7.60    3.60
   6  -2  11   -0.90    2.70
   6  -2  11    8.60    6.40
   7   1 -11    6.30    5.00
  -7  -1  11   10.30    6.60
   6   1 -11   -4.00    3.50
  -6  -1  11    3.00    4.90
   5   1 -11   10.50    4.40
  -5  -1  11   15.00    5.70
   4   1 -11    1.20    3.10
  -4  -1  11   -0.50    4.70
   3   1 -11    8.70    4.10
  -3  -1  11    7.70    4.50
   2   1 -11    6.80    3.70
  -1  -1  11  172.88   13.50
  -1  -1  11  150.18   11.50
   0  -1  11   33.20    6.60
   0  -1  11   36.00    6.40
   0  -1  11   49.90    5.80
   1  -1  11    2.60    2.20
   1  -1  11    1.70    2.80
   1  -1  11    2.30    3.80
   2  -1  11    1.20    2.80
   2  -1  11   -1.00    2.90
   2  -1  11    2.40    2.40
  -3   1 -11   13.90    3.50
   3  -1  11    7.90    4.50
   3  -1  11   22.50    4.20
   4  -1  11    7.10    4.60
   4  -1  11   12.70    3.60
   5  -1  11    3.40    4.30
   5  -1  11    0.00    2.80
   6  -1  11    2.90    5.00
   6  -1  11    2.90    3.30
   7  -1  11   10.20    4.10
   7  -1  11   14.60    7.00
   7   0 -11   -0.10    4.30
  -7   0  11    5.00    6.10
   6   0 -11    6.00    4.30
  -6   0  11    0.50    5.00
   5   0 -11    0.50    3.40
  -5   0  11    7.80    5.30
   4   0 -11   -5.10    2.60
  -4   0  11    1.80    4.20
  -3   0  11  238.78   17.70
   2   0 -11   76.69    9.00
  -2   0  11   90.29    9.80
   1   0 -11    1.70    3.50
  -1   0  11    9.10    2.90
  -1   0  11    3.20    3.50
   0   0 -11   69.89    8.00
   0   0  11   69.29    6.50
   0   0  11   58.09    7.70
  -1   0 -11   84.79    7.90
   1   0  11   60.99    7.90
   1   0  11   73.29    6.70
   1   0  11   80.09   10.80
  -2   0 -11    5.40    3.60
   2   0  11    5.20    2.60
   2   0  11    9.30    4.10
  -3   0 -11    4.30    3.00
   3   0  11   -1.60    3.00
   3   0  11    4.20    2.60
   4   0  11   -5.90    2.90
   4   0  11   -2.30    2.10
   5   0  11   19.20    5.60
   5   0  11   26.10    5.20
   6   0  11   18.90    6.10
   6   0  11   21.10    5.50
   7   0  11    0.30    4.80
   7   0  11    6.70    4.20
   7  -1 -11    6.90    5.60
  -7   1  11   -4.10    6.00
   6  -1 -11    3.40    4.60
  -6   1  11    9.30    6.20
   5  -1 -11    7.60    4.00
  -5   1  11   15.00    5.90
   4  -1 -11    7.70    4.10
  -4   1  11   14.90    5.30
   3  -1 -11   12.80    4.40
  -3   1  11   12.90    5.40
   2  -1 -11  112.79   10.80
  -2   1  11  127.59   11.10
   1  -1 -11   98.99    9.10
  -1   1  11  119.09    9.70
  -1   1  11   91.89    8.40
   0   1  11   23.90    4.10
   0   1  11   28.90    5.20
  -1  -1 -11   29.60    5.10
   1   1  11   25.10    4.50
   1   1  11   29.20    5.00
  -2  -1 -11   24.00    4.60
   2   1  11   24.00    4.40
   2   1  11   25.10    4.80
   3   1  11   44.00    6.60
   3   1  11   33.00    5.20
  -4  -1 -11    0.80    3.20
   4   1  11    1.00    2.90
   4   1  11    1.50    3.00
   5   1  11   16.90    5.00
   5   1  11   17.30    4.60
   6   1  11    1.70    4.40
   6   1  11    6.70    3.60
   7   1  11   10.00    4.50
   7   1  11   11.00    5.50
   8   1  11    4.80    3.90
   8   1  11   10.70    6.40
  -7   2  11   -1.60    5.50
   6  -2 -11   -3.20    3.50
  -6   2  11   -3.90    5.10
   5  -2 -11   -0.10    4.00
  -5   2  11    0.30    4.50
   4  -2 -11   21.30    5.30
  -4   2  11   23.20    5.90
   3  -2 -11   17.80    5.20
  -3   2  11   23.90    8.80
   2  -2 -11   -2.10    2.90
   2  -2 -11   -3.00    2.30
  -2   2  11   -0.20    3.70
   1  -2 -11   59.09    6.70
  -1   2  11   53.49    6.60
  -1   2  11   39.30    6.80
   0  -2 -11  112.09    9.50
   0   2  11  127.49    9.90
   0   2  11  124.69    9.50
  -1  -2 -11   19.10    3.90
   1   2  11   13.80    3.60
   1   2  11   17.40    4.00
  -2  -2 -11   41.00    5.00
   2   2  11   23.70    4.40
   2   2  11   31.40    4.90
  -3  -2 -11   53.29    6.40
   3   2  11   46.10    7.10
   3   2  11   47.70    6.20
  -4  -2 -11   41.60    5.80
   4   2  11   39.40    6.00
   4   2  11   36.90    5.90
  -5  -2 -11   27.10    5.60
   5   2  11   20.20    5.40
   5   2  11   32.80    5.70
   6   2  11    3.50    4.10
   6   2  11   13.70    4.70
   7   2  11   16.40    5.30
   7   2  11    9.10    5.00
   8   2  11    8.30    4.70
   8   2  11    1.30    5.10
   7  -3 -11    0.10    5.00
   6  -3 -11    4.70    4.80
  -6   3  11   -4.70    4.90
   5  -3 -11    3.70    4.20
  -5   3  11   13.40    5.40
   4  -3 -11   -0.60    3.20
  -4   3  11    1.90    4.20
   3  -3 -11   84.39   10.20
  -3   3  11   88.29   13.20
   2  -3 -11   87.69    8.10
  -2   3  11   98.89    9.20
  -2   3  11   82.89    8.10
   1  -3 -11    4.40    2.80
  -1   3  11    1.60    2.80
  -1   3  11    3.80    2.50
   0  -3 -11   55.49    5.90
   0   3  11   48.50    5.90
  -1  -3 -11   11.60    3.20
   1   3  11   15.20    3.70
   1   3  11   16.20    3.40
  -2  -3 -11   29.20    4.00
   2   3  11   28.30    4.10
   2   3  11   23.20    5.00
  -3  -3 -11   22.90    3.90
   3   3  11   19.10    3.70
   3   3  11   27.20    4.80
  -4  -3 -11   17.70    3.80
   4   3  11   19.70    3.90
   4   3  11   19.90    4.40
  -5  -3 -11   43.70    6.00
   5   3  11   45.50    6.50
   5   3  11   49.50    7.20
  -6  -3 -11    7.40    3.80
   6   3  11   -1.40    3.10
   6   3  11    5.00    3.70
   7   3  11    9.10    4.50
   7   3  11    1.00    4.10
   8   3  11    2.30    4.60
   8   3  11   -5.90    2.90
   6  -4 -11    1.00    4.40
  -6   4  11   -4.00    4.90
   5  -4 -11    7.90    5.10
  -5   4  11   -2.30    4.20
   4  -4 -11    0.90    3.70
  -4   4  11    7.60    4.50
   3  -4 -11   -1.60    3.50
  -2   4  11   68.79    7.40
  -2   4  11   59.19    7.00
  -2   4  11   40.80    6.70
  -1   4  11   63.09    7.50
  -1   4  11   63.59    7.00
   0  -4 -11   28.10    4.00
   0   4  11   29.10    4.30
   0   4  11   21.60    4.30
  -1  -4 -11    2.50    2.00
   1   4  11   -1.10    1.90
   1   4  11   -2.30    1.70
  -2  -4 -11   -0.20    1.70
   2   4  11    0.80    2.30
   2   4  11   -0.30    1.70
  -3  -4 -11   83.09    6.40
   3   4  11   92.09    8.30
  -4  -4 -11   19.30    3.10
   4   4  11   18.50    4.30
   4   4  11   17.30    3.30
  -5  -4 -11   10.70    3.00
   5   4  11    8.00    3.20
   5   4  11   13.50    4.20
  -6  -4 -11    4.80    3.30
   6   4  11    4.80    3.40
   6   4  11    2.30    3.40
  -7  -4 -11    6.40    4.00
   7   4  11    9.30    4.40
  -8  -4 -11    5.50    5.10
   8   4  11    0.00    4.20
   6  -5 -11    1.10    4.90
  -6   5  11    0.60    5.50
   5  -5 -11    3.90    4.70
  -5   5  11   -7.80    3.80
   4  -5 -11   22.90    6.70
  -4   5  11   13.20    5.20
  -3   5  11    5.40    3.20
  -3   5  11    6.10    4.10
  -2   5  11  130.39   10.30
  -2   5  11  130.09   10.50
  -2   5  11   98.79   10.50
  -1   5  11    2.00    2.90
  -1   5  11   -1.90    2.10
  -1   5  11    4.00    2.60
   0   5  11    2.20    2.40
   0   5  11    3.80    2.60
   0   5  11   -1.00    2.60
   1   5  11    5.10    2.10
   1   5  11    8.70    2.90
   1   5  11    3.50    2.20
   2   5  11    0.90    1.30
   2   5  11   -1.10    2.00
   3   5  11    1.70    2.50
   4   5  11   22.00    4.70
   5   5  11   25.80    5.50
  -6  -5 -11    3.20    2.40
  -6  -5 -11    8.70    2.90
   6   5  11    4.70    3.80
  -7  -5 -11    0.40    3.40
  -7  -5 -11    0.40    2.80
   7   5  11   -2.50    3.40
  -8  -5 -11   -1.20    4.50
  -8  -5 -11    1.60    4.00
   8   5  11    1.20    4.10
   6  -6 -11    2.50    5.10
  -6   6  11    1.50    5.20
   5  -6 -11    5.30    4.70
  -5   6  11   17.20    6.10
   4  -6 -11   -1.20    3.90
  -4   6  11   -2.10    3.90
  -3   6  11    3.90    3.90
  -3   6  11    8.50    3.50
  -2   6  11   48.80    6.70
  -2   6  11   53.29    7.10
  -1   6  11  110.39    9.40
  -1   6  11  117.49    9.20
  -1   6  11   92.19    9.20
   0   6  11   77.09    8.30
   0   6  11   60.29    6.10
   0   6  11   53.09    6.40
   1   6  11    3.40    2.20
   1   6  11    3.90    2.60
   1   6  11    0.70    2.60
   2   6  11  128.59   10.50
   3   6  11    2.40    2.50
   4   6  11    4.90    3.30
   5   6  11    9.80    3.90
   6   6  11   15.80    5.00
  -7  -6 -11   16.80    4.00
  -7  -6 -11   17.40    3.40
   7   6  11   19.40    6.10
  -8  -6 -11   -0.70    3.10
  -8  -6 -11   -9.40    3.70
   8   6  11    0.90    3.90
   5  -7 -11    3.50    5.30
  -5   7  11   12.50    5.70
  -4   7  11   -1.10    3.70
  -4   7  11    1.60    3.40
  -3   7  11   -3.70    3.40
  -3   7  11    3.00    3.20
  -2   7  11   -0.70    3.30
  -2   7  11    0.30    2.60
  -1   7  11   46.20    8.90
  -1   7  11   83.59    8.50
  -1   7  11   66.19    7.30
   0   7  11  169.38   12.90
   0   7  11  190.08   13.70
   0   7  11  192.78   12.50
   1   7  11   39.50    4.50
   1   7  11   34.70    5.90
   2   7  11    5.00    3.50
   3   7  11   44.20    7.10
   4   7  11   53.79    7.80
   5   7  11    5.20    3.50
   6   7  11    0.40    3.20
   7   7  11   14.50    5.80
  -8  -7 -11   12.90    3.20
  -8  -7 -11    3.30    3.10
   8   7  11    7.80    4.90
  -4   8  11    3.10    4.40
  -4   8  11   -0.20    3.50
  -3   8  11   11.70    4.80
  -3   8  11   12.80    4.70
  -2   8  11    1.50    3.30
  -2   8  11   -2.70    5.60
  -1   8  11   14.90    4.00
  -1   8  11   13.80    4.70
  -1   8  11   29.60    5.50
   0   8  11    8.20    3.30
   0   8  11   12.40    3.50
   0   8  11    7.40    3.30
   1   8  11  131.59   10.20
   1   8  11  115.09    8.20
   1   8  11  107.39    7.90
   2   8  11   20.00    4.70
   3   8  11    2.10    2.60
   4   8  11    6.10    3.30
   5   8  11    5.80    3.70
   6   8  11   41.30    7.00
   7   8  11    4.50    4.20
  -4   9  11    5.40    5.20
  -4   9  11    7.10    4.30
  -3   9  11    1.50    4.40
  -3   9  11    5.60    3.80
  -2   9  11   14.10    5.00
  -2   9  11   10.10    4.60
  -1   9  11   12.60    4.80
  -1   9  11   39.80    6.60
  -1   9  11   29.40    5.50
   0   9  11   -0.10    2.80
   0   9  11   -1.20    2.70
   0   9  11    2.30    2.60
   1   9  11   15.70    4.30
   1   9  11   12.00    2.90
   1   9  11    6.30    2.50
   2   9  11   75.69    9.10
   3   9  11    4.90    3.20
   4   9  11   24.00    5.60
   5   9  11    4.70    3.70
   6   9  11   22.80    5.80
   7   9  11   29.20    6.40
   8   9  11   12.20    5.70
  -3  10  11    4.90    4.20
  -3  10  11   -0.90    4.20
  -2  10  11   14.10    5.40
  -2  10  11   25.80    6.00
  -1  10  11   20.70    5.00
  -1  10  11   20.50    5.20
   0  10  11   48.00    6.30
   0  10  11   38.70    6.60
   1  10  11    3.00    3.40
   1  10  11    6.20    2.80
   1  10  11    4.70    2.70
   2  10  11    0.30    2.70
   3  10  11   -1.00    2.50
   4  10  11   10.10    4.80
   5  10  11    8.10    4.40
   6  10  11   -2.90    3.20
   7  10  11    4.40    4.60
   8  10  11   14.70    5.80
  -2  11  11   12.40    5.40
  -2  11  11   15.90    5.30
  -1  11  11   44.90    7.60
  -1  11  11   46.80    7.40
   0  11  11    1.50    3.10
   0  11  11   -2.10    3.20
   0  11  11    0.20    3.30
   1  11  11    8.20    3.00
   1  11  11    5.50    3.50
   1  11  11   11.70    4.30
   2  11  11   37.60    5.20
   2  11  11   44.40    7.20
   3  11  11    0.50    3.30
   4  11  11   -2.50    3.00
   5  11  11   -2.80    3.40
   6  11  11    5.50    4.60
   7  11  11    5.50    4.90
   0  12  11   12.40    4.80
   0  12  11   13.90    4.70
   1  12  11    8.70    3.60
   1  12  11    8.30    4.40
   1  12  11   11.20    3.90
   2  12  11    0.30    2.00
   2  12  11    4.30    2.00
   2  12  11    0.10    2.90
   3  12  11   28.70    6.50
   4  12  11    5.70    4.10
   5  12  11    6.10    4.50
   6  12  11   10.90    5.60
   2  13  11   14.30    4.90
   2  13  11   17.30    3.40
   2  13  11   23.20    4.10
   3  13  11    2.10    3.60
   4  13  11   10.60    4.70
  -2  -8  12   10.70    7.00
  -2  -8  12    6.00    2.70
   4   7 -12   -1.60    3.10
  -4  -7  12   -1.60    5.60
  -3  -7  12    4.40    3.00
  -3  -7  12    6.90    9.50
  -2  -7  12   14.90    3.70
  -2  -7  12    2.20    5.80
  -1  -7  12    8.00    6.40
  -1  -7  12    2.10    2.30
  -1  -7  12    3.30    2.80
   0  -7  12   16.80   12.50
   0  -7  12    6.80    2.40
   0  -7  12    2.30    2.40
   1  -7  12   -0.50    1.60
   1  -7  12    1.80    1.80
   1  -7  12    4.80    7.10
   5   6 -12    9.50    4.80
  -5  -6  12   17.40    8.10
   4   6 -12   12.30    4.60
  -4  -6  12    5.20    5.50
   3   6 -12    5.00    3.80
  -3  -6  12   -5.40    4.30
  -2  -6  12    2.50    5.30
  -1  -6  12    0.00    2.00
  -1  -6  12    1.40    2.90
  -1  -6  12    2.20    5.30
   0  -6  12    2.00    2.30
   0  -6  12    5.60    5.50
   0  -6  12    1.60    2.60
   1  -6  12    8.10    6.80
   1  -6  12    6.00    2.50
   1  -6  12    6.50    2.80
   2  -6  12    2.80    2.30
   2  -6  12   -2.60    5.80
   2  -6  12    1.10    2.00
   6   5 -12    2.90    4.20
  -6  -5  12    0.80    5.50
   5   5 -12    1.80    3.70
  -5  -5  12    7.50    5.90
   4   5 -12    2.30    3.50
  -4  -5  12    5.60    5.40
   3   5 -12    6.70    3.80
  -3  -5  12    9.20    5.50
  -2  -5  12   35.30    5.40
  -2  -5  12   26.90    7.50
  -1  -5  12    8.20    3.10
  -1  -5  12    0.20    5.00
   0  -5  12    4.30    2.50
   0  -5  12    8.70    3.70
   0  -5  12    2.30    4.50
   1  -5  12   10.10    3.10
   1  -5  12   12.40    6.40
   1  -5  12    6.30    3.30
   2  -5  12   21.30    3.80
   2  -5  12   29.60    8.40
   3  -5  12    0.30    2.70
   3  -5  12    1.50    2.30
   3  -5  12   -2.60    5.00
   4  -5  12   11.10   11.80
   4  -5  12    5.90    2.60
   4  -5  12    2.70    3.30
   6   4 -12    5.70    4.60
  -6  -4  12   12.20    7.00
   5   4 -12    7.40    4.60
  -5  -4  12   12.30    6.20
   4   4 -12    6.80    4.00
  -4  -4  12    1.50    4.60
   3   4 -12    0.20    2.90
  -3  -4  12    5.10    4.80
  -2  -4  12   21.40    4.40
  -2  -4  12   10.60    5.50
  -1  -4  12   17.50    6.10
  -1  -4  12   12.60    3.40
   0  -4  12   -1.40    1.90
   0  -4  12    5.30    3.70
   0  -4  12    1.70    4.80
   1  -4  12   -3.20    4.00
   1  -4  12   -1.50    2.50
   1  -4  12   -1.10    2.20
   2  -4  12   24.10    4.90
   2  -4  12   23.00    6.90
   2  -4  12   25.80    4.40
   3  -4  12   25.70    4.30
   3  -4  12   32.90    9.10
   3  -4  12   16.10    4.40
   4  -4  12   -1.40    2.30
   4  -4  12   -9.90    4.40
   4  -4  12   -1.70    3.10
   7   3 -12   25.60    7.20
  -7  -3  12   33.40    8.40
   6   3 -12    0.80    4.10
  -6  -3  12    2.90    5.70
   5   3 -12    1.70    4.00
  -5  -3  12    4.30    5.20
   4   3 -12    3.70    3.50
  -4  -3  12   11.60    5.50
   3   3 -12   10.30    4.10
  -3  -3  12   14.80    5.70
  -2  -3  12   21.10    6.10
  -2  -3  12   12.60    3.90
  -1  -3  12    8.60    5.30
  -1  -3  12    8.20    3.00
   0  -3  12   15.30    5.30
   0  -3  12   19.90    4.10
   1  -3  12  105.29    8.10
   1  -3  12   76.59    9.10
   1  -3  12   83.79   11.40
   2  -3  12    4.10    3.30
   2  -3  12    2.20    2.50
   2  -3  12   -0.60    4.00
   3  -3  12   -0.90    3.20
   3  -3  12   -1.80    4.10
   3  -3  12    1.50    2.50
   4  -3  12    9.80    3.60
   4  -3  12    9.30    6.00
   5  -3  12   17.10    7.60
   5  -3  12   13.50    4.60
   7   2 -12   -2.70    4.20
  -7  -2  12    5.60    6.00
   6   2 -12   -1.50    3.60
  -6  -2  12   16.40    6.60
   5   2 -12    5.90    4.80
  -5  -2  12    3.60    4.90
   4   2 -12   -0.50    3.30
  -4  -2  12   -0.10    4.40
   3   2 -12   28.80    6.00
  -3  -2  12   36.10    7.30
  -2  -2  12   -1.60    3.60
  -2  -2  12   -1.70    2.30
  -1  -2  12    2.80    4.10
   0  -2  12    2.00    2.50
   0  -2  12    3.70    4.10
   1  -2  12   45.30    8.20
   1  -2  12   79.19    7.70
   2  -2  12   61.59    7.10
   2  -2  12   51.29    8.80
   3  -2  12   11.60    5.30
   3  -2  12   10.30    3.30
   4  -2  12    1.10    4.90
   4  -2  12   -0.80    2.60
   5  -2  12   10.00    3.90
   5  -2  12   11.20    6.00
   6  -2  12    3.50    3.40
   6  -2  12    2.80    6.00
   7   1 -12    0.90    4.80
  -7  -1  12   -8.60    5.30
   6   1 -12    0.90    4.30
  -6  -1  12   -1.10    4.90
   5   1 -12    0.00    3.40
  -5  -1  12    3.20    5.00
   4   1 -12   12.60    4.70
  -4  -1  12   13.50    5.40
   3   1 -12    1.80    3.40
  -3  -1  12   -0.70    4.00
  -2  -1  12   -2.70    2.10
  -2  -1  12   -5.90    3.30
  -1  -1  12  224.88   15.50
   0  -1  12   99.49    8.60
   0  -1  12  101.39   12.70
   1  -1  12   -2.70    1.70
   1  -1  12   -2.90    3.40
   2  -1  12   10.90    3.40
   3  -1  12   13.00    5.70
   3  -1  12   31.00    4.90
   4  -1  12   21.10    6.40
   4  -1  12   20.20    4.70
   5  -1  12    4.30    3.40
   5  -1  12    2.10    4.50
   6  -1  12   -4.10    4.60
   6  -1  12    1.60    3.60
   7   0 -12   -3.60    4.20
  -7   0  12    6.60    8.90
   6   0 -12    4.30    5.40
  -6   0  12    4.40    6.00
   5   0 -12    1.50    4.50
  -5   0  12   -0.20    4.40
   4   0 -12    3.60    4.10
  -4   0  12    3.00    4.30
   3   0 -12   19.90    5.70
  -3   0  12   20.10    5.50
  -2   0  12   30.80    5.20
  -2   0  12   30.80    6.50
  -1   0  12    0.40    2.20
  -1   0  12   -3.80    2.80
   0   0  12   92.49   10.30
  -1   0 -12   71.69    8.40
   1   0  12   62.29    8.50
   1   0  12   76.99    7.10
  -2   0 -12    7.40    3.80
   2   0  12   13.00    3.80
   2   0  12    6.10    4.00
   3   0  12    8.30    4.40
   4   0  12    1.90    2.60
   5   0  12   14.20    4.10
   5   0  12   15.90    6.00
   6   0  12   -1.10    4.60
   6   0  12    2.20    3.80
   7   0  12    2.60    3.80
   7   0  12   -1.10    4.90
   7  -1 -12   -4.40    4.00
  -7   1  12    7.60    7.80
   6  -1 -12    8.10    4.90
  -6   1  12   16.70    6.90
   5  -1 -12    2.90    4.10
  -5   1  12    0.50    5.00
   4  -1 -12    0.50    3.60
  -4   1  12   -2.10    4.50
   3  -1 -12   17.00    5.20
  -3   1  12   22.70    5.60
  -2   1  12   17.10    4.30
  -2   1  12   12.30    4.70
   1  -1 -12   32.40    6.10
  -1   1  12   37.30    5.70
  -1   1  12   45.00    6.70
   0  -1 -12   -0.80    3.40
   0   1  12   -3.20    2.80
   0   1  12    0.00    2.00
  -1  -1 -12   11.90    4.20
   1   1  12   12.70    5.30
   1   1  12    3.80    3.30
  -2  -1 -12   89.09    8.50
   2   1  12   86.29    8.80
   2   1  12   88.59   10.60
  -3  -1 -12   43.10    6.70
   3   1  12   53.59    7.60
   3   1  12   63.79    7.60
  -4  -1 -12    7.30    3.50
   4   1  12   -2.90    3.30
   4   1  12    0.90    2.60
   5   1  12   11.90    4.30
   5   1  12    7.20    4.30
   6   1  12    1.00    3.50
   6   1  12   10.60    5.20
   7   1  12   13.70    6.30
   7   1  12   16.70    5.70
   7  -2 -12    1.60    5.40
  -7   2  12   -2.10    5.70
   6  -2 -12    7.20    5.80
  -6   2  12    3.90    6.20
   5  -2 -12    2.30    4.00
  -5   2  12    0.50    4.90
   4  -2 -12   -0.90    3.40
  -4   2  12    5.80    4.60
   3  -2 -12    1.50    3.30
  -3   2  12    1.70    4.10
  -2   2  12   -0.30    2.30
  -2   2  12   -1.90    3.20
   1  -2 -12   28.30    5.30
  -1   2  12   28.20    5.60
  -1   2  12   36.50    5.40
   0   2  12  110.29    9.70
   0   2  12  106.89    9.10
  -1  -2 -12   -3.90    2.90
   1   2  12    2.80    2.70
   1   2  12   -0.60    2.50
  -2  -2 -12   21.90    4.40
   2   2  12   23.40    4.70
   2   2  12   21.80    4.50
  -3  -2 -12    9.70    3.40
   3   2  12    7.20    3.40
   3   2  12    9.00    3.70
  -4  -2 -12   15.20    6.80
   4   2  12   14.20    4.80
   4   2  12   14.60    4.30
  -5  -2 -12   15.30    4.60
   5   2  12   11.20    4.20
   5   2  12   12.80    4.20
   6   2  12   11.50    4.60
   6   2  12    6.70    4.50
   7   2  12   30.60    7.30
   7   2  12   33.40    6.90
   6  -3 -12    2.00    4.60
  -6   3  12    3.20    5.20
   5  -3 -12   31.30    7.50
  -5   3  12   41.10    8.10
   4  -3 -12   -2.80    3.00
  -4   3  12    2.30    4.20
   3  -3 -12   15.60    4.80
  -3   3  12   23.70    5.60
  -2   3  12   -1.70    3.90
  -2   3  12    0.20    2.50
   1  -3 -12   54.59    6.50
  -1   3  12   51.89    6.90
  -1   3  12   51.29    6.70
   0  -3 -12    1.70    3.00
   0   3  12    3.10    3.00
   0   3  12    6.80    3.00
  -1  -3 -12   11.30    3.60
   1   3  12    3.50    2.80
   1   3  12    8.70    3.30
  -2  -3 -12   40.30    5.20
   2   3  12   43.40    5.50
   2   3  12   43.40    6.20
  -3  -3 -12    3.70    2.80
   3   3  12    2.30    2.40
   3   3  12   -1.30    2.40
  -4  -3 -12   15.70    3.60
   4   3  12   10.50    3.70
   4   3  12   14.50    4.40
  -5  -3 -12   16.40    4.00
   5   3  12    7.60    4.10
   5   3  12   10.00    3.90
  -6  -3 -12   13.10    4.30
   6   3  12    3.00    3.80
   6   3  12    9.00    4.30
   7   3  12   -1.10    4.10
   7   3  12    1.10    3.90
   8   3  12    0.60    4.20
   8   3  12   -4.90    4.60
   6  -4 -12    0.60    5.60
  -6   4  12   -0.90    5.40
   5  -4 -12    4.20    4.30
  -5   4  12    8.20    5.60
   4  -4 -12   10.10    4.70
  -4   4  12   17.20    5.40
   3  -4 -12   -0.20    4.00
  -3   4  12    1.90    3.80
  -2   4  12   22.60    4.80
  -2   4  12   31.10    5.60
  -1   4  12   23.10    4.90
  -1   4  12   25.40    4.90
   0  -4 -12   58.19    6.50
   0   4  12   87.69    8.80
   0   4  12   75.19    7.10
  -1  -4 -12   10.80    3.10
   1   4  12   14.60    3.90
   1   4  12   11.10    3.20
  -2  -4 -12    0.10    2.30
   2   4  12    1.00    2.00
   2   4  12   -1.60    2.20
  -3  -4 -12   39.70    4.40
   3   4  12   38.20    4.70
   3   4  12   50.59    6.80
  -4  -4 -12   29.90    4.00
   4   4  12   32.30    5.60
   4   4  12   32.40    4.60
  -5  -4 -12    5.00    2.70
   5   4  12    0.80    2.50
   5   4  12    3.30    3.20
  -6  -4 -12   12.80    3.80
   6   4  12   11.50    4.60
   6   4  12    8.70    3.80
  -7  -4 -12   11.60    4.40
   7   4  12   18.70    5.60
   7   4  12   11.70    4.70
  -8  -4 -12    1.80    4.50
   8   4  12    0.80    4.20
   6  -5 -12    3.00    5.60
  -6   5  12    9.80    6.00
   5  -5 -12   -3.00    4.00
  -5   5  12    3.90    5.20
   4  -5 -12    2.00    4.60
  -4   5  12   -6.30    3.60
  -3   5  12   21.90    5.50
  -3   5  12   12.50    4.10
  -2   5  12    2.40    2.50
  -2   5  12    4.30    3.60
  -1   5  12   19.50    4.60
  -1   5  12   28.10    4.90
   0   5  12   27.30    4.70
   0   5  12   39.60    4.90
   0   5  12   35.70    5.60
   1   5  12  101.19    7.60
   1   5  12   94.59    8.80
   2   5  12   40.20    4.20
   2   5  12   39.80    6.20
   3   5  12    5.40    3.10
   4   5  12   66.59    8.40
   5   5  12   22.00    5.40
  -6  -5 -12    5.50    2.50
   6   5  12   -0.60    3.30
  -7  -5 -12    5.60    3.80
  -7  -5 -12    3.60    3.00
   7   5  12   -1.80    3.30
  -8  -5 -12    4.20    4.60
  -8  -5 -12    3.90    4.20
   8   5  12    5.90    4.90
   5  -6 -12   20.30    6.70
  -5   6  12   18.70    6.70
  -4   6  12    4.50    4.90
  -4   6  12    6.10    4.20
  -3   6  12   29.20    5.60
  -3   6  12   20.00    5.70
  -2   6  12   14.50    4.50
  -2   6  12   24.00    5.00
  -1   6  12    1.90    2.50
  -1   6  12    0.90    3.10
  -1   6  12    0.80    3.80
   0   6  12    7.40    3.20
   0   6  12    6.90    3.50
   0   6  12    9.10    3.30
   1   6  12   49.50    4.90
   1   6  12   42.40    5.00
   1   6  12   53.49    7.20
   2   6  12  168.28   13.00
   3   6  12   66.99    8.30
   4   6  12   11.50    3.90
   5   6  12    8.80    4.00
   6   6  12   30.30    6.40
  -7  -6 -12   15.90    3.00
  -7  -6 -12   17.90    4.90
   7   6  12   24.10    6.60
  -8  -6 -12   -0.70    4.20
  -8  -6 -12    7.20    3.60
   8   6  12    3.40    7.10
  -5   7  12   11.00    5.80
  -5   7  12   -0.40    3.30
  -4   7  12   -4.30    4.30
  -4   7  12    2.50    3.40
  -3   7  12   15.70    5.00
  -3   7  12   11.40    4.80
  -2   7  12   14.20    4.20
  -2   7  12    3.70    4.10
  -1   7  12    8.80    3.90
  -1   7  12    8.30    3.90
  -1   7  12    5.90    3.60
   0   7  12    2.50    2.70
   0   7  12    3.60    3.00
   0   7  12    0.10    3.00
   1   7  12    4.20    3.40
   1   7  12    2.20    2.10
   1   7  12    4.80    2.30
   2   7  12   10.90    3.90
   3   7  12  127.99   11.10
   4   7  12   10.80    3.80
   5   7  12   -1.00    2.70
   6   7  12    7.40    4.40
   7   7  12    6.30    5.20
   8   7  12   44.60    9.20
  -4   8  12    1.50    4.50
  -4   8  12    9.40    4.50
  -3   8  12   -3.20    3.90
  -3   8  12    1.20    3.40
  -2   8  12   18.40    5.30
  -2   8  12   26.30    5.60
  -1   8  12   19.60    4.50
  -1   8  12   29.90    5.80
  -1   8  12   13.90    4.60
   0   8  12    6.50    3.00
   0   8  12    2.60    2.80
   0   8  12   -4.90    2.20
   1   8  12   48.40    4.90
   1   8  12   39.80    4.80
   1   8  12   55.29    7.80
   2   8  12   43.60    7.00
   3   8  12    9.90    3.70
   4   8  12   60.29    8.70
   5   8  12   -4.20    2.70
   6   8  12    4.10    4.40
   7   8  12    7.20    4.20
   8   8  12    5.70    4.80
  -3   9  12    8.90    5.20
  -3   9  12    2.70    3.90
  -2   9  12    3.40    3.80
  -2   9  12    7.50    4.40
  -1   9  12    5.20    3.70
  -1   9  12    9.90    4.50
  -1   9  12    2.70    3.90
   0   9  12   30.40    4.70
   0   9  12   34.40    5.90
   0   9  12   25.20    5.00
   1   9  12    6.20    3.40
   1   9  12   12.80    3.00
   1   9  12   10.30    2.70
   2   9  12   42.10    7.00
   3   9  12   72.29    9.10
   4   9  12   17.40    5.10
   5   9  12   -2.30    3.00
   6   9  12   14.50    5.50
   7   9  12    8.60    5.40
  -2  10  12   11.30    5.00
  -2  10  12   33.10    6.70
  -1  10  12    5.70    3.90
  -1  10  12    4.70    4.10
   0  10  12   10.80    4.30
   0  10  12    8.80    4.60
   0  10  12   10.40    3.70
   1  10  12   30.90    4.10
   1  10  12   27.20    4.10
   1  10  12   35.00    6.40
   2  10  12    4.40    3.80
   3  10  12    5.50    3.70
   4  10  12   37.20    7.70
   5  10  12   30.80    6.70
   6  10  12   -1.60    3.10
   7  10  12   12.50    5.50
  -1  11  12   25.70    6.30
  -1  11  12   10.70    4.70
   0  11  12    0.70    3.40
   0  11  12   -0.80    2.90
   0  11  12    0.70    3.20
   1  11  12   21.10    3.80
   1  11  12   17.30    3.70
   1  11  12   39.80    7.10
   2  11  12   30.80    6.60
   3  11  12    4.10    4.10
   4  11  12   -1.50    3.00
   5  11  12    3.80    4.10
   6  11  12   17.30    7.40
   0  12  12   16.50    5.00
   0  12  12    8.90    4.60
   1  12  12    4.10    2.90
   1  12  12    0.50    2.80
   1  12  12   -0.40    3.60
   2  12  12   -0.60    3.00
   3  12  12   26.80    6.30
   4  12  12    8.30    4.50
   5  12  12    3.60    4.30
  -2  -7  13   14.40    3.90
  -2  -7  13    9.40    6.90
  -1  -7  13    0.60    2.50
  -1  -7  13   14.00    7.40
   4   6 -13   11.70    5.10
  -4  -6  13   -0.80    5.10
  -3  -6  13   11.70    4.00
  -3  -6  13   19.90    9.50
  -2  -6  13   -2.80    5.10
  -2  -6  13    1.20    2.70
  -1  -6  13    2.70    5.90
  -1  -6  13    0.50    2.60
   0  -6  13   25.70    4.30
   0  -6  13   29.40    8.60
   0  -6  13   14.10    4.20
   1  -6  13    4.30    3.40
   1  -6  13    3.80    2.40
   5   5 -13    2.90    4.80
  -5  -5  13   -4.50    4.60
   4   5 -13    5.20    4.20
  -4  -5  13    0.80    5.10
  -3  -5  13   28.10    7.90
  -2  -5  13   10.50    3.60
  -2  -5  13    9.50    6.30
  -1  -5  13   -0.40    5.30
  -1  -5  13    1.00    2.90
   0  -5  13   -1.10    4.70
   0  -5  13    4.80    2.80
   1  -5  13    8.30    6.20
   1  -5  13    8.50    3.90
   1  -5  13   13.10    3.50
   2  -5  13    3.90    2.90
   2  -5  13   -0.90    5.60
   2  -5  13    1.60    3.20
   3  -5  13    8.90    7.60
   3  -5  13    2.80    3.30
   3  -5  13    4.20    2.60
   6   4 -13    0.80    4.30
  -6  -4  13   10.00    6.30
   5   4 -13   15.90    5.70
  -5  -4  13   29.60    8.10
   4   4 -13   -0.70    3.60
  -4  -4  13    6.80    5.50
   3   4 -13   -0.40    3.00
  -3  -4  13   -0.10    5.20
  -2  -4  13   10.30    3.80
  -2  -4  13    1.50    4.90
  -1  -4  13   10.80    6.10
  -1  -4  13   11.30    3.60
   0  -4  13   -1.70    4.50
   0  -4  13   -1.50    2.20
   1  -4  13    4.50    5.20
   1  -4  13   -0.60    2.30
   2  -4  13    7.30    3.10
   2  -4  13   10.50    6.10
   3  -4  13   51.29    9.90
   3  -4  13   29.40    5.00
   4  -4  13    0.70    2.70
   4  -4  13   -1.30    5.70
   6   3 -13    2.20    4.40
  -6  -3  13    8.40    6.40
   5   3 -13    0.50    3.70
  -5  -3  13    0.00    5.40
   4   3 -13    2.00    4.00
  -4  -3  13   12.60    6.40
   3   3 -13    5.10    4.00
  -3  -3  13    6.80    5.00
  -2  -3  13    2.40    4.50
  -2  -3  13    1.50    2.80
  -1  -3  13    1.20    4.60
  -1  -3  13    7.30    3.40
   0  -3  13    7.40    5.20
   0  -3  13    8.20    4.10
   1  -3  13   13.60    3.90
   1  -3  13    9.30    5.60
   2  -3  13   -0.50    4.50
   2  -3  13    0.20    2.30
   3  -3  13   22.10    7.40
   3  -3  13   16.00    4.20
   4  -3  13   18.40    7.60
   6   2 -13   10.80    5.70
  -6  -2  13    2.20    6.30
   5   2 -13    6.60    4.40
  -5  -2  13   -2.20    4.70
   4   2 -13    1.80    3.90
  -4  -2  13    9.90    5.20
   3   2 -13    8.40    4.60
  -3  -2  13    4.70    4.60
  -2  -2  13   16.10    5.60
  -2  -2  13   13.10    3.90
  -1  -2  13    1.90    2.70
  -1  -2  13    2.10    4.50
   0  -2  13    3.00    4.40
   0  -2  13    8.40    3.30
   1  -2  13   68.89    9.10
   1  -2  13   54.59    9.30
   2  -2  13   94.99   12.10
   3  -2  13    3.00    3.10
   3  -2  13   -8.00    4.00
   4  -2  13    1.70    4.90
   4  -2  13   14.00    4.20
   5  -2  13    6.20    3.80
   5  -2  13   16.60    7.20
   6   1 -13   -3.30    4.30
  -6  -1  13    6.40    5.70
   5   1 -13    6.80    4.90
  -5  -1  13   -0.70    5.10
   4   1 -13   11.20    4.90
  -4  -1  13    9.70    5.70
   3   1 -13    7.10    4.40
  -3  -1  13   13.80    5.30
  -2  -1  13    0.60    3.90
  -2  -1  13    3.60    2.80
  -1  -1  13    3.60    2.90
  -1  -1  13    0.40    3.90
   0  -1  13    5.60    4.00
   0  -1  13    5.70    2.80
   1  -1  13    1.10    2.60
   1  -1  13   -4.30    3.30
   2  -1  13   18.00    5.70
   2  -1  13   30.10    5.40
   3  -1  13   25.60    7.20
   3  -1  13   36.70    5.90
   4  -1  13   18.40    4.60
   4  -1  13   16.00    6.50
   5  -1  13    5.10    5.20
   5  -1  13   -3.60    2.80
   6  -1  13    0.30    5.10
   6  -1  13    5.30    4.00
   6   0 -13   -5.70    5.20
  -6   0  13    9.20    6.30
   5   0 -13   10.40    5.20
  -5   0  13   16.40    6.30
   4   0 -13    7.00    4.70
  -4   0  13    7.80    5.20
   3   0 -13    7.40    4.20
  -3   0  13   16.70    5.60
  -2   0  13    0.70    2.60
  -2   0  13   -1.20    3.60
  -1   0  13   15.10    5.00
  -1   0  13   23.00    4.50
   0   0  13   15.60    5.40
   0   0  13   13.50    3.90
   1   0  13   10.60    4.40
   1   0  13   12.10    3.60
   2   0  13    6.90    4.30
   2   0  13    6.00    3.10
   3   0  13    2.80    3.00
   4   0  13    7.90    4.60
   4   0  13    6.90    3.60
   5   0  13   17.20    6.20
   5   0  13   14.30    4.80
   6   0  13   12.80    6.40
   6   0  13    4.10    3.90
  -6   1  13    6.60    6.00
   5  -1 -13   12.60    5.70
  -5   1  13    6.80    5.50
   4  -1 -13    1.60    3.50
  -4   1  13   -0.70    4.30
   3  -1 -13   -2.50    2.90
  -3   1  13    0.30    4.30
  -2   1  13    2.80    3.10
  -2   1  13    4.70    4.00
  -1   1  13   17.40    4.20
  -1   1  13   17.10    4.90
   0  -1 -13    1.00    4.40
   0   1  13    4.30    2.60
   0   1  13    3.20    3.50
  -1  -1 -13    9.20    4.60
   1   1  13    5.00    3.70
   1   1  13    9.90    3.40
  -2  -1 -13   72.29    8.50
   2   1  13   60.09    8.20
   2   1  13   78.69    8.60
  -3  -1 -13   29.30    5.50
   3   1  13   15.40    4.80
   3   1  13   13.40    4.40
   4   1  13   15.60    5.30
   4   1  13   20.20    4.70
   5   1  13    1.40    3.30
   5   1  13   -2.30    3.60
   6   1  13    3.90    4.90
   6   1  13    1.50    3.80
   7   1  13   18.10    6.80
   7   1  13   11.60    5.10
   6  -2 -13   -2.60    4.20
  -6   2  13    9.60    6.10
   5  -2 -13    3.40    5.10
  -5   2  13   -2.90    4.60
   4  -2 -13   -2.00    3.70
  -4   2  13    2.10    4.50
   3  -2 -13   34.70    6.70
  -3   2  13   34.50    6.70
  -2   2  13   12.30    5.20
  -2   2  13    4.30    2.90
  -1   2  13    2.30    3.40
  -1   2  13    3.50    2.80
   0  -2 -13    0.50    4.00
   0   2  13   -0.20    2.20
   0   2  13    3.40    3.70
  -1  -2 -13   41.30    6.30
   1   2  13   51.09    6.70
   1   2  13   39.30    6.10
  -2  -2 -13   10.60    6.90
   2   2  13   17.40    4.30
   2   2  13   11.90    3.90
   3   2  13    3.60    3.00
   3   2  13    4.30    3.20
  -4  -2 -13   23.90    4.70
   4   2  13   18.40    4.70
   4   2  13   28.80    5.70
  -5  -2 -13   11.80    4.30
   5   2  13    0.90    3.20
   5   2  13   -0.90    3.80
   6   2  13    2.50    7.30
   6   2  13    0.70    3.60
   7   2  13   10.00    5.90
   7   2  13    5.70    4.70
   6  -3 -13   -1.90    4.00
  -6   3  13    6.10    6.50
   5  -3 -13    9.60    5.60
  -5   3  13   16.00    6.60
   4  -3 -13    0.30    4.10
  -4   3  13    4.30    4.70
  -3   3  13   33.60    6.60
  -3   3  13   31.30    5.90
  -2   3  13   26.80    5.90
  -2   3  13   27.90    5.40
   1  -3 -13    0.30    3.30
  -1   3  13    2.70    2.60
  -1   3  13    2.40    3.50
   0  -3 -13   -0.80    3.50
   0   3  13    3.00    2.90
   0   3  13    5.20    3.30
  -1  -3 -13   -2.70    3.20
   1   3  13    3.50    2.80
   1   3  13    0.90    2.90
  -2  -3 -13   79.99    7.80
   2   3  13   90.09    9.50
   2   3  13   79.09    7.60
  -3  -3 -13   42.50    5.60
   3   3  13   35.70    5.60
   3   3  13   52.69    7.20
  -4  -3 -13    4.60    3.00
   4   3  13    0.80    2.60
   4   3  13    5.10    3.20
  -5  -3 -13   18.40    5.40
   5   3  13    6.90    4.40
   5   3  13   12.10    4.00
  -6  -3 -13   25.20    5.40
   6   3  13   12.00    4.90
   6   3  13   15.90    5.10
   7   3  13   -0.60    3.50
   7   3  13    0.90    4.80
   5  -4 -13   -3.80    4.20
  -5   4  13    0.90    5.00
   4  -4 -13   16.60    6.20
  -4   4  13   13.50    5.90
  -3   4  13    3.80    3.30
  -3   4  13    4.00    4.70
  -2   4  13    8.40    3.20
  -2   4  13    3.00    3.90
  -1   4  13   51.29    7.20
  -1   4  13   47.50    6.40
   0  -4 -13   26.70    4.40
   0   4  13   26.40    5.30
   0   4  13   18.90    4.50
  -1  -4 -13   16.80    4.00
   1   4  13   16.60    4.20
   1   4  13   18.30    4.00
  -2  -4 -13   20.60    3.80
   2   4  13   20.40    3.70
   2   4  13   36.00    6.20
  -3  -4 -13  106.99    8.90
   3   4  13  133.09    9.20
   3   4  13  137.99   11.10
  -4  -4 -13   58.99    6.00
   4   4  13   55.29    6.40
   4   4  13   85.89    9.40
  -5  -4 -13    5.90    2.80
   5   4  13    4.10    3.60
   5   4  13   -0.10    2.70
  -6  -4 -13   25.60    4.80
   6   4  13   15.00    4.50
   6   4  13   16.00    5.40
  -7  -4 -13   21.40    5.20
   7   4  13   30.70    6.80
   7   4  13   20.20    5.50
   5  -5 -13    6.20    5.40
  -5   5  13    0.70    5.10
  -4   5  13    0.70    3.10
  -4   5  13   -3.10    4.20
  -3   5  13   15.20    5.40
  -3   5  13   16.30    4.70
  -2   5  13   30.80    5.60
  -2   5  13   22.10    5.20
  -1   5  13    4.80    3.30
  -1   5  13    1.30    3.00
  -1   5  13    9.00    3.90
   0   5  13    4.70    2.90
   0   5  13    0.00    2.40
   0   5  13    1.80    2.50
   1   5  13   -1.10    2.10
   1   5  13   -1.10    2.50
   2   5  13    5.00    2.20
   2   5  13    2.80    2.70
  -3  -5 -13    5.00    2.20
   3   5  13    0.10    2.50
   3   5  13    2.20    1.80
   4   5  13   46.60    7.80
   5   5  13   40.80    7.50
  -6  -5 -13    4.50    2.30
   6   5  13   -7.20    2.90
  -7  -5 -13    0.80    3.60
  -7  -5 -13    7.80    3.30
   7   5  13    5.30    5.10
  -5   6  13    2.30    5.20
  -4   6  13    7.40    3.90
  -4   6  13    6.20    5.00
  -3   6  13   10.70    5.30
  -3   6  13   12.20    4.60
  -2   6  13   15.50    4.50
  -2   6  13    9.20    4.60
  -1   6  13   48.20    7.00
  -1   6  13   45.30    6.50
  -1   6  13   68.09    8.20
   0   6  13   33.00    5.60
   0   6  13   56.69    6.10
   0   6  13   63.59    7.80
   1   6  13    1.60    2.00
   1   6  13    3.50    2.30
   1   6  13   -0.10    2.70
   2   6  13    0.50    2.90
   3   6  13    2.60    3.10
   4   6  13   21.20    5.50
   5   6  13   30.80    6.40
   6   6  13   19.10    5.90
   7   6  13   16.50    5.80
  -4   7  13   12.40    4.70
  -4   7  13    8.30    5.60
  -3   7  13   13.00    5.20
  -3   7  13   15.60    4.90
  -2   7  13   24.60    5.80
  -2   7  13   19.20    9.30
  -1   7  13    3.00    3.30
  -1   7  13    3.60    3.70
  -1   7  13    0.90    3.50
   0   7  13   16.20    3.70
   0   7  13   16.90    4.50
   0   7  13    9.70    3.70
   1   7  13    8.10    2.80
   1   7  13    7.50    2.20
   1   7  13   14.70    4.40
   2   7  13    3.90    3.50
   3   7  13   36.50    6.70
   4   7  13   42.50    6.90
   5   7  13   -0.20    3.60
   6   7  13   15.80    5.50
   7   7  13   -2.10    3.70
  -3   8  13   -2.00    4.20
  -3   8  13    1.00    3.40
  -2   8  13   13.20    4.70
  -2   8  13   21.60    5.60
  -1   8  13   36.10    6.80
  -1   8  13   62.59    7.90
  -1   8  13   47.00    6.40
   0   8  13    3.60    3.20
   0   8  13    0.40    3.20
   0   8  13    6.70    3.40
   1   8  13   29.40    5.70
   1   8  13   15.30    3.10
   1   8  13   17.60    3.40
   2   8  13  105.69   10.20
   3   8  13    4.00    3.80
   4   8  13    4.50    3.70
   5   8  13   30.90    7.00
   6   8  13   18.40    5.60
   7   8  13   13.50    6.80
  -3   9  13   -3.80    4.20
  -3   9  13    2.60    4.20
  -2   9  13   11.60    5.00
  -2   9  13   -3.80    3.80
  -1   9  13   14.90    4.60
  -1   9  13   16.80    5.80
  -1   9  13   13.70    4.40
   0   9  13   20.30    4.20
   0   9  13   22.00    5.60
   0   9  13    9.30    3.80
   1   9  13   29.50    6.30
   1   9  13   24.50    3.60
   1   9  13   25.40    4.00
   2   9  13    7.00    3.90
   3   9  13  103.49   11.60
   4   9  13   14.30    5.30
   5   9  13    0.30    3.50
   6   9  13   21.80    6.30
   7   9  13   10.20    5.60
  -2  10  13    6.30    4.40
  -2  10  13    4.50    4.70
  -1  10  13   -1.80    3.70
  -1  10  13    0.70    3.60
   0  10  13    4.80    4.00
   0  10  13    0.50    3.30
   0  10  13    1.60    3.40
   1  10  13    8.90    2.80
   1  10  13   10.90    4.20
   1  10  13   11.20    2.70
   2  10  13    2.50    3.00
   3  10  13    5.30    3.90
   4  10  13   22.90    6.00
   5  10  13   26.30    6.50
   0  11  13   -0.60    3.30
   0  11  13    8.70    4.30
   0  11  13   -1.50    3.10
   1  11  13   18.60    3.50
   1  11  13   31.40    6.50
   1  11  13   19.10    3.30
   2  11  13   44.10    7.90
   3  11  13    2.70    3.80
   4  11  13    2.60    3.90
   5  11  13   -1.80    3.30
   6  11  13   39.80    8.20
   1  12  13   -2.10    2.60
   2  12  13    0.90    3.90
   3  12  13   23.00    6.10
   4  12  13   21.10    6.40
  -2  -6  14   -5.50    5.10
  -2  -6  14   -0.50    2.80
  -1  -6  14    3.10    6.30
  -1  -6  14    5.60    3.40
   4   5 -14    2.50    4.20
  -4  -5  14   -1.00    5.20
  -3  -5  14   15.10    8.60
  -3  -5  14   19.80    4.90
  -2  -5  14    8.80    3.90
  -2  -5  14    8.70    6.20
  -1  -5  14   -5.30    4.90
  -1  -5  14    1.30    2.60
   0  -5  14    2.50    5.80
   0  -5  14    3.60    2.90
   1  -5  14    7.30    6.70
   1  -5  14    3.60    2.80
   5   4 -14    7.40    5.80
  -5  -4  14    3.20    5.40
   4   4 -14    7.50    5.00
  -4  -4  14   20.60    7.00
  -3  -4  14    1.20    4.40
  -3  -4  14   -1.90    2.90
  -2  -4  14   -0.70    4.90
  -2  -4  14    4.70    3.60
  -1  -4  14    5.10    3.20
  -1  -4  14   -1.00    5.30
   0  -4  14   -1.20    5.50
   0  -4  14   -0.20    2.50
   1  -4  14    4.60    3.50
   1  -4  14    9.70    6.30
   2  -4  14   -0.10    3.50
   2  -4  14   -3.70    5.10
   3  -4  14    4.10    6.60
   3  -4  14    0.10    3.10
   5   3 -14    2.20    4.40
   4   3 -14    8.40    4.50
  -4  -3  14   10.80    5.80
  -3  -3  14    3.40    3.50
  -3  -3  14    1.50    5.10
  -2  -3  14   -2.10    2.60
  -2  -3  14   -2.30    4.40
  -1  -3  14   -0.20    2.90
  -1  -3  14    9.90    6.10
   0  -3  14   10.50    6.00
   0  -3  14    6.60    3.40
   1  -3  14   -2.20    4.60
   1  -3  14   -0.60    2.70
   2  -3  14    6.90    5.70
   2  -3  14    8.00    3.50
   3  -3  14    6.60    3.50
   3  -3  14   -3.90    5.10
   4  -3  14   28.30    5.30
   4  -3  14   31.50    8.80
   5   2 -14   14.90    6.10
  -5  -2  14   15.10    6.60
   4   2 -14    0.00    3.50
  -4  -2  14    3.20    5.60
  -3  -2  14    6.40    4.00
  -3  -2  14    6.50    5.40
  -2  -2  14   -3.50    2.80
  -2  -2  14    6.20    5.00
  -1  -2  14    3.90    4.80
  -1  -2  14    9.40    3.70
   0  -2  14   13.50    5.90
   0  -2  14   20.40    4.70
   1  -2  14    9.30    5.80
   1  -2  14    6.70    3.40
   2  -2  14   14.10    6.40
   2  -2  14   13.50    4.30
   3  -2  14    1.00    3.00
   3  -2  14    3.00    5.40
   4  -2  14   10.90    4.20
   4  -2  14   11.40    6.30
  -6  -1  14    4.60    5.80
   5   1 -14    7.50    5.40
  -5  -1  14    3.90    5.80
   4   1 -14   12.70    5.50
  -4  -1  14    8.60    5.30
   3   1 -14   24.30    6.10
  -3  -1  14   35.70    7.40
  -2  -1  14    9.90    3.60
  -2  -1  14   -0.20    4.20
  -1  -1  14   25.10    5.10
  -1  -1  14   11.50    5.20
   0  -1  14    6.00    3.00
   0  -1  14    6.40    4.90
   1  -1  14   11.80    5.30
   1  -1  14    2.70    3.10
   2  -1  14    0.70    4.10
   2  -1  14    1.00    3.00
   3  -1  14    3.40    4.70
   3  -1  14    6.00    3.40
   4  -1  14   -5.00    2.70
   4  -1  14    2.50    4.70
   5  -1  14    6.30    5.90
   5  -1  14   -2.40    3.20
   6   0 -14    6.50    5.30
  -6   0  14   11.00    7.70
   5   0 -14    2.70    5.00
  -5   0  14    0.10    5.20
   4   0 -14    4.30    4.70
  -4   0  14    0.30    4.80
   3   0 -14   23.50    6.00
  -3   0  14   31.00    5.90
  -3   0  14   25.90    6.30
  -2   0  14   26.70    5.10
  -2   0  14   31.30    7.00
  -1   0  14    0.10    4.00
  -1   0  14    1.00    2.80
   0   0  14   -1.80    3.70
   0   0  14    1.40    2.70
   1   0  14   11.30    3.80
   1   0  14    3.00    3.80
   2   0  14   -1.60    2.60
   2   0  14    0.00    4.00
   3   0  14    3.50    4.40
   3   0  14    1.40    2.90
   4   0  14   -1.20    4.20
   4   0  14   -0.60    2.90
   5   0  14   12.70    4.80
   5   0  14    8.80    5.50
   6  -1 -14    2.20    5.80
   5  -1 -14   -1.10    3.70
  -5   1  14   10.80    5.80
   4  -1 -14   -0.20    4.10
  -4   1  14   11.60    5.80
  -3   1  14    4.00    4.40
  -3   1  14   -2.00    2.60
  -2   1  14    5.30    4.60
  -2   1  14   -0.30    2.60
  -1   1  14   81.29   10.10
  -1   1  14  107.19    9.40
   0   1  14   29.50    5.40
   0   1  14   18.90    5.20
   1   1  14    4.80    3.90
   1   1  14    7.20    3.50
   2   1  14    1.00    3.30
   2   1  14   11.00    3.80
   3   1  14   51.19    8.10
   3   1  14   44.70    7.10
   4   1  14   11.70   10.20
   4   1  14    9.40    4.40
   5   1  14   -0.30    3.30
   5   1  14    2.70    4.60
   6   1  14    3.50    4.00
   6   1  14   -2.60    4.60
   5  -2 -14   -2.00    5.20
  -5   2  14    2.00    5.60
   4  -2 -14    2.20    4.30
  -4   2  14    4.90    4.80
  -3   2  14    8.70    4.00
  -3   2  14    3.80    4.60
  -2   2  14   23.40    5.70
  -2   2  14   19.50    4.80
  -1   2  14   -2.10    2.50
  -1   2  14    6.20    4.10
   0   2  14   27.40    5.10
   0   2  14   17.90    4.70
  -1  -2 -14   -8.20    3.40
   1   2  14    1.60    3.30
   1   2  14    0.80    2.70
  -2  -2 -14   -3.00    3.60
   2   2  14   -3.00    2.80
   2   2  14   -1.10    2.50
  -3  -2 -14    2.50    3.60
   3   2  14    4.50    3.60
   3   2  14    3.30    2.90
  -4  -2 -14   39.60    6.10
   4   2  14   24.80    5.70
   4   2  14   32.10    6.30
   5   2  14   17.20    5.50
   5   2  14   29.70    6.10
   6   2  14    2.70    4.80
   6   2  14    0.90    3.80
   5  -3 -14   10.80    8.90
  -5   3  14    4.20    6.00
   4  -3 -14    8.80    5.70
  -4   3  14    6.00    5.20
  -3   3  14    5.50    4.60
  -3   3  14   -1.80    2.40
  -2   3  14   21.90    5.60
  -2   3  14   19.00    4.90
  -1   3  14    6.20    3.50
  -1   3  14    6.90    4.10
   0  -3 -14   15.70    4.60
   0   3  14   33.80    5.80
   0   3  14   31.70    5.70
   1   3  14   40.60    5.90
   1   3  14   37.00    6.20
  -2  -3 -14   -6.80    2.90
   2   3  14   -3.80    2.20
   2   3  14    0.00    2.70
  -3  -3 -14   28.60    5.30
   3   3  14   33.60    6.30
   3   3  14   26.60    5.20
  -4  -3 -14    6.30    3.40
   4   3  14    4.80    3.40
   4   3  14    4.40    3.40
  -5  -3 -14   36.30    5.60
   5   3  14   25.40    5.70
   5   3  14   41.20    7.30
  -6  -3 -14   36.20    6.80
   6   3  14   26.40    6.20
   6   3  14   39.90    7.50
   7   3  14    0.20    4.40
   7   3  14    9.40    5.70
   5  -4 -14   -3.90    4.00
  -5   4  14   -4.40    5.10
  -4   4  14    5.50    3.70
  -4   4  14    1.00    4.90
  -3   4  14    4.90    4.90
  -3   4  14    4.10    3.40
  -2   4  14   11.60    4.60
  -2   4  14    6.60    3.60
   1  -4 -14   22.90    5.10
  -1   4  14   21.60    5.20
  -1   4  14   25.30    5.30
   0  -4 -14   15.90    4.10
   0   4  14   14.90    4.10
   0   4  14   15.80    4.20
  -1  -4 -14    4.30    3.20
   1   4  14    6.00    3.10
   1   4  14    2.90    3.00
  -2  -4 -14    1.10    3.00
   2   4  14   -2.50    2.30
   2   4  14    2.70    2.90
  -3  -4 -14   -1.30    2.90
   3   4  14    0.60    2.60
   3   4  14   -0.30    2.70
  -4  -4 -14    1.10    3.00
   4   4  14    6.60    3.30
   4   4  14   15.10    5.00
  -5  -4 -14    9.40    3.20
   5   4  14    6.70    3.50
   5   4  14    4.20    3.90
  -6  -4 -14   22.30    4.40
   6   4  14   10.60    5.10
   6   4  14    5.30    4.10
  -7  -4 -14   28.80    5.60
   7   4  14   23.90    6.60
   7   4  14   21.70    5.70
  -5   5  14   10.60    6.50
  -4   5  14    4.20    5.10
  -4   5  14   12.40    4.70
  -3   5  14    8.00    4.30
  -3   5  14    1.10    4.40
  -2   5  14   51.39    7.30
  -2   5  14   37.80    6.30
  -1   5  14    7.70    3.80
  -1   5  14    7.00    3.40
  -1   5  14    7.20    4.00
   0   5  14    0.20    3.00
   0   5  14    4.10    3.10
   0   5  14   -1.20    2.40
   1   5  14   66.59    8.60
   1   5  14   60.39    6.50
   2   5  14   48.90    5.30
   2   5  14   53.99    7.60
  -3  -5 -14    7.40    2.60
   3   5  14    9.20    3.90
  -4  -5 -14   -1.20    3.40
   4   5  14    1.50    3.30
   4   5  14    1.00    2.30
  -5  -5 -14    1.50    2.70
   5   5  14    2.50    3.90
  -6  -5 -14    9.50    2.80
   6   5  14    7.50    4.60
  -7  -5 -14   13.20    4.40
  -7  -5 -14   16.40    3.70
   7   5  14   14.00    5.90
  -4   6  14   -2.00    5.10
  -4   6  14   11.80    7.10
  -3   6  14   11.80    5.10
  -3   6  14   -0.30    3.40
  -2   6  14   24.70    6.00
  -2   6  14   24.40    5.70
  -1   6  14    7.60    4.20
  -1   6  14   25.50    5.20
  -1   6  14   21.60    5.20
   0   6  14   18.50    4.50
   0   6  14   26.50    4.60
   0   6  14   37.30    6.50
   1   6  14    3.60    2.70
   1   6  14    5.20    2.50
   1   6  14    2.10    3.30
   2   6  14   53.79    6.70
   2   6  14   40.70    4.10
   2   6  14   58.79    7.80
   3   6  14   17.00    4.90
   4   6  14    9.10    4.20
   5   6  14   -1.80    3.00
   6   6  14   60.99   10.00
   7   6  14   10.20    6.90
  -3   7  14   12.90    5.60
  -3   7  14   11.00    4.50
  -2   7  14    2.40    3.40
  -2   7  14    0.20    4.10
  -1   7  14    3.40    4.00
  -1   7  14   -0.90    3.60
  -1   7  14    8.90    3.90
   0   7  14    0.00    2.50
   0   7  14    1.50    3.00
   0   7  14    5.30    3.80
   1   7  14   36.20    5.00
   1   7  14   42.60    6.90
   1   7  14   51.59    4.90
   2   7  14   23.70    5.70
   3   7  14   17.80    5.20
   4   7  14   65.39    8.90
   5   7  14   -1.20    3.00
   6   7  14    3.50    4.20
   7   7  14   15.00    6.50
  -3   8  14   10.30    5.30
  -3   8  14   14.50    5.70
  -2   8  14   17.80    5.60
  -2   8  14   14.20    5.20
  -1   8  14    9.80    4.90
  -1   8  14   18.60    5.00
  -1   8  14   34.30    6.90
   0   8  14   -1.60    3.20
   0   8  14    3.50    3.30
   0   8  14    1.50    3.00
   1   8  14   33.90    4.40
   1   8  14   52.69    8.00
   1   8  14   38.30    5.40
   2   8  14   33.20    6.50
   3   8  14   46.10    7.80
   4   8  14    6.30    3.90
   5   8  14   31.30    6.90
   6   8  14    3.70    4.40
   7   8  14    6.00    5.00
  -2   9  14    3.70    4.30
  -2   9  14    5.30    3.90
  -1   9  14    3.80    4.10
  -1   9  14   18.60    5.20
   0   9  14    3.40    3.40
   0   9  14    6.30    3.50
   0   9  14    9.10    4.50
   1   9  14   -0.40    2.80
   2   9  14    1.90    3.30
   3   9  14   32.90    6.60
   4   9  14    9.80    4.30
   5   9  14    3.40    4.10
   6   9  14    1.00    4.40
  -1  10  14   -0.20    3.60
  -1  10  14   -1.20    3.80
   0  10  14    3.10    3.60
   0  10  14    8.00    3.90
   0  10  14    4.70    3.90
   1  10  14   14.30    5.40
   2  10  14    8.30    4.10
   3  10  14    9.40    4.30
   4  10  14   61.89    9.60
   5  10  14   18.00   10.20
   6  10  14   -1.20    3.30
   1  11  14   12.50    5.30
   2  11  14   26.20    6.40
   3  11  14    3.10    3.60
   5  11  14   -1.70    3.40
  -3  -4  15   -0.60    3.50
  -2  -4  15    6.10    6.10
  -2  -4  15    1.70    3.50
  -1  -4  15    9.20    3.90
  -1  -4  15   12.60    7.10
   0  -4  15    2.50    3.50
   0  -4  15   -2.20    5.50
   1  -4  15    1.30    5.70
   1  -4  15    3.30    3.30
   4   3 -15    4.60    4.50
  -3  -3  15   19.10    6.80
  -3  -3  15   21.70    5.20
  -2  -3  15    6.80    3.80
  -2  -3  15   -3.70    4.50
  -1  -3  15   -4.20    4.70
  -1  -3  15    0.40    3.00
   0  -3  15    0.30    3.20
   0  -3  15   -1.30    5.20
   1  -3  15   10.90    4.10
   1  -3  15    5.20    5.50
   2  -3  15    0.20    2.90
   2  -3  15    9.40    6.70
   4   2 -15   -1.90    3.80
  -4  -2  15    1.80    5.00
  -3  -2  15    0.70    3.20
  -3  -2  15   -2.50    4.40
  -2  -2  15    1.60    5.30
  -2  -2  15    1.80    3.40
  -1  -2  15   24.90    7.40
  -1  -2  15   27.80    5.50
   0  -2  15    4.20    5.30
   0  -2  15   -1.10    2.90
   1  -2  15    2.10    3.40
   1  -2  15    0.60    4.60
   2  -2  15    5.20    6.00
   2  -2  15   -1.90    2.80
   3  -2  15    8.40    4.20
   3  -2  15   14.70    7.10
   5   1 -15    2.40    4.20
   4   1 -15   10.00    5.40
  -4  -1  15   12.90    6.90
  -3  -1  15    8.70    5.90
  -3  -1  15    7.60    4.10
  -2  -1  15    0.90    5.10
  -2  -1  15    2.30    3.10
  -1  -1  15   32.70    6.10
  -1  -1  15   21.00    6.70
   0  -1  15   20.20    6.20
   0  -1  15   13.40    4.20
   1  -1  15   -0.30    4.50
   1  -1  15    7.80    3.80
   2  -1  15    6.80    5.40
   2  -1  15    4.60    3.50
   3  -1  15    1.60    5.10
   3  -1  15    5.50    3.50
   4  -1  15    7.80    5.80
   4  -1  15    2.40    3.60
   5   0 -15    6.50    5.70
  -5   0  15   -0.10    5.60
   4   0 -15   -5.30    3.50
  -4   0  15   -3.10    4.70
  -3   0  15   13.10    4.50
  -3   0  15    5.10    5.40
  -2   0  15   15.20    4.70
  -2   0  15    8.20    5.20
  -1   0  15    6.30    4.70
  -1   0  15    6.70    3.70
   0   0  15   -2.10    3.90
   0   0  15    0.10    3.10
   1   0  15   46.30    7.20
   1   0  15   27.30    6.80
   2   0  15   15.70    4.90
   2   0  15   16.50    6.10
   3   0  15    8.50    3.80
   3   0  15    2.00    4.70
   4   0  15    0.20    3.40
   4   0  15    0.20    4.60
   5   0  15   23.40    5.80
   5   0  15   19.40    6.80
   5  -1 -15    3.40    5.40
  -5   1  15   10.70    5.90
   4  -1 -15    6.90    5.30
  -4   1  15    7.60    5.60
  -3   1  15   13.40    4.50
  -3   1  15    5.60    5.00
  -2   1  15    2.50    4.10
  -2   1  15    5.00    3.50
  -1   1  15    6.60    3.80
  -1   1  15    2.20    4.30
   0   1  15   22.10    5.90
   0   1  15   20.90    4.90
   1   1  15    4.80    4.10
   1   1  15   -0.80    2.70
   2   1  15   44.30    6.80
   2   1  15   31.80    6.80
   3   1  15   -0.20    3.20
   3   1  15   -2.70    3.70
   4   1  15    5.00    3.90
   4   1  15   -1.40    4.30
   5   1  15   -4.60    3.30
   5   1  15    3.50    4.70
   5  -2 -15   -1.90    4.70
  -5   2  15    3.70    6.00
   4  -2 -15    2.00    4.80
  -4   2  15    8.40    5.30
  -3   2  15   10.20    5.30
  -3   2  15    9.00    4.20
  -2   2  15   11.40    5.20
  -2   2  15   20.70    5.10
  -1   2  15   12.60    5.00
  -1   2  15   11.20    4.20
   0   2  15    8.40    4.70
   0   2  15   20.00    5.00
   1   2  15   12.20    4.10
   1   2  15   14.20    4.80
  -2  -2 -15    3.00    5.00
   2   2  15   12.00    4.70
   2   2  15   21.10    5.10
  -3  -2 -15   12.10    6.50
   3   2  15   26.80    6.10
   3   2  15   17.30    5.00
   4   2  15   -0.10    3.70
   4   2  15    3.90    3.70
   5   2  15    8.80    9.30
   5   2  15   -0.60    3.80
   6   2  15    4.40    4.50
   6   2  15    5.90    4.80
  -4   3  15    1.10    5.00
  -4   3  15    5.70    5.30
  -3   3  15    7.40    5.50
  -3   3  15    3.90    3.40
  -2   3  15    7.30    4.10
  -2   3  15    3.90    4.30
  -1   3  15   10.30    5.50
  -1   3  15    9.00    3.90
   0   3  15    0.10    3.60
   0   3  15   -0.20    2.70
  -1  -3 -15    2.10    4.10
   1   3  15    8.70    3.80
   1   3  15    5.10    3.60
  -2  -3 -15   47.20    7.00
   2   3  15   75.09    8.90
   2   3  15   66.09    7.80
  -3  -3 -15    3.80    6.30
   3   3  15    8.10    4.50
   3   3  15    8.20    4.10
  -4  -3 -15   15.20    4.60
   4   3  15    9.10    4.40
   4   3  15    9.80    4.20
  -5  -3 -15   11.20    4.00
   5   3  15    3.30    4.10
   5   3  15    6.60    4.40
   6   3  15    8.20    5.10
   6   3  15   11.60    4.90
  -4   4  15    9.90    5.70
  -4   4  15    0.30    4.70
  -3   4  15   17.20    5.10
  -3   4  15   17.80    5.90
  -2   4  15    5.20    5.00
  -2   4  15    7.40    4.30
  -1   4  15   -2.20    3.30
  -1   4  15    7.90    3.80
   0  -4 -15   14.00    4.20
   0   4  15   15.00    4.50
   0   4  15   10.30    3.80
  -1  -4 -15    0.20    4.80
   1   4  15    3.20    3.20
   1   4  15    9.90    3.90
  -2  -4 -15    1.30    3.40
   2   4  15    8.10    3.30
   2   4  15    4.30    3.60
  -3  -4 -15   28.20    5.00
   3   4  15   30.90    4.90
   3   4  15   62.09    8.40
  -4  -4 -15   33.60    5.20
   4   4  15   30.70    5.30
   4   4  15   44.80    7.40
  -5  -4 -15    5.00    3.40
   5   4  15    0.20    3.30
   5   4  15    4.50    4.30
   6   4  15   -2.20    4.00
   6   4  15   -0.10    3.60
  -4   5  15    0.70    5.50
  -4   5  15   -1.60    3.00
  -3   5  15   19.00    5.80
  -3   5  15   20.80    5.40
  -2   5  15   29.20    6.40
  -2   5  15   19.40    5.20
  -1   5  15    6.30    3.80
  -1   5  15    9.10    4.30
   0   5  15   20.30    4.30
   0   5  15   13.90    4.20
   0   5  15   33.60    5.90
   1   5  15   17.80    3.90
   1   5  15   14.90    4.60
  -2  -5 -15   13.30    3.10
   2   5  15    4.50    2.70
   2   5  15   -2.20    2.50
  -3  -5 -15   11.20    2.90
   3   5  15   21.50    3.60
   3   5  15   21.00    5.40
  -4  -5 -15    1.40    2.80
   4   5  15    4.20    3.90
  -5  -5 -15   12.50    3.60
   5   5  15   12.10    3.50
   5   5  15   32.70    6.80
  -6  -5 -15    7.20    3.10
   6   5  15    5.30    5.10
  -3   6  15   -5.40    4.70
  -3   6  15    0.50    5.20
  -2   6  15    0.50    4.10
  -2   6  15   16.60    5.50
  -1   6  15    8.30    4.00
  -1   6  15    8.90    4.20
   0   6  15   12.00    3.60
   0   6  15    0.00    3.40
   0   6  15    6.00    3.40
   1   6  15    9.60    3.00
   1   6  15    6.80    3.00
   1   6  15   19.60    5.30
   2   6  15    9.40    4.30
   2   6  15    4.70    3.00
   3   6  15   49.70    7.90
   4   6  15   29.00    6.60
   5   6  15   -1.00    3.60
   6   6  15   54.09   13.40
  -3   7  15    5.60    5.60
  -3   7  15   14.80    5.20
  -2   7  15    0.10    3.20
  -2   7  15   -5.10    3.80
  -1   7  15    7.40    7.40
  -1   7  15   15.80    5.10
  -1   7  15   10.50    4.30
   0   7  15    9.00    4.00
   0   7  15    9.30    3.60
   0   7  15   17.00    5.00
   1   7  15   22.70    5.40
   1   7  15   16.90    3.80
   1   7  15   20.40    3.50
   2   7  15    4.70    3.40
   3   7  15   14.30    4.80
   4   7  15    8.80    4.50
   5   7  15   10.00    4.50
   6   7  15    7.90    5.30
  -2   8  15    3.30    4.80
  -1   8  15   16.20    5.00
  -1   8  15   12.50    4.80
   0   8  15    2.80    4.00
   0   8  15    1.90    3.50
   0   8  15    3.20    3.00
   1   8  15   14.70    3.30
   1   8  15   24.10    5.50
   1   8  15   16.50    3.30
   2   8  15   15.40    5.00
   3   8  15    4.40    3.60
   4   8  15   -0.70    3.20
   5   8  15   15.70    9.60
   6   8  15    4.80    4.50
  -1   9  15   -4.00    3.70
  -1   9  15    5.50    5.80
   0   9  15    4.60    3.10
   0   9  15   13.00    5.10
   0   9  15    7.80    3.90
   1   9  15   -3.00    2.90
   2   9  15    4.60    3.70
   3   9  15   20.40    5.80
   4   9  15    8.30    4.80
   5   9  15    6.10    4.70
   0  10  15    4.50    3.20
   0  10  15    3.20    5.50
   1  10  15    6.50    5.00
   2  10  15   10.50    5.20
   4  10  15   20.90    5.80
  -2  -3  16   10.40    6.90
  -2  -3  16    7.00    4.20
  -1  -3  16   -0.10    5.10
  -1  -3  16   -4.00    2.90
   0  -3  16    0.80    3.50
   0  -3  16   -1.10    5.10
  -3  -2  16    1.10    3.70
  -3  -2  16    3.70    5.30
  -2  -2  16    6.30    5.50
  -2  -2  16   12.90    4.60
  -1  -2  16    7.80    4.20
  -1  -2  16    6.20    5.40
   0  -2  16   -0.90    3.00
   0  -2  16   -3.40    4.60
   1  -2  16   19.30    7.00
   1  -2  16   21.70    5.50
   2  -2  16   21.20    5.60
   2  -2  16   32.90    8.40
  -3  -1  16    6.20    5.80
  -3  -1  16   11.90    5.10
  -2  -1  16    4.70    5.40
  -2  -1  16    0.10    3.00
  -1  -1  16    2.80    5.30
  -1  -1  16    2.30    3.60
   0  -1  16    3.10    5.00
   0  -1  16    0.90    3.10
   1  -1  16    6.50    5.50
   1  -1  16    5.60    4.00
   2  -1  16   12.70    6.20
   2  -1  16    6.20    4.00
   3  -1  16   13.00    4.50
   3  -1  16   10.30    6.40
  -4   0  16   -4.30    2.90
  -4   0  16    2.10    5.10
  -3   0  16   15.10    5.20
  -3   0  16   13.20    5.90
  -2   0  16   10.30    4.60
  -2   0  16    4.50    5.10
  -1   0  16   13.60    5.60
  -1   0  16   13.60    4.80
   0   0  16   -0.50    4.10
   0   0  16   -3.20    2.70
   1   0  16   -4.60    3.90
   1   0  16   -0.50    3.10
   2   0  16   18.10    5.50
   2   0  16   19.70    6.30
   3   0  16    9.70    4.40
   3   0  16    3.30    5.30
   4   0  16    5.00    4.10
   4   0  16    1.90    5.20
  -4   1  16    4.50    3.90
  -4   1  16    5.50    5.60
  -3   1  16    1.50    4.70
  -3   1  16    2.70    3.70
  -2   1  16    1.10    4.40
  -2   1  16    4.10    4.00
  -1   1  16    6.50    4.60
  -1   1  16   11.10    4.30
   0   1  16    4.70    4.70
   0   1  16   13.20    4.30
   1   1  16    2.60    3.50
   1   1  16   -0.40    4.00
   2   1  16   13.30    5.20
   2   1  16   13.70    4.80
   3   1  16    2.40    3.80
   3   1  16    0.00    4.50
   4   1  16    7.30    4.40
   4   1  16    1.20    4.30
  -4   2  16   13.80    5.10
  -4   2  16    8.40    5.90
  -3   2  16   25.50    6.70
  -3   2  16   43.70    7.60
  -2   2  16   10.00    5.30
  -2   2  16   12.00    4.60
  -1   2  16    5.10    3.90
  -1   2  16    0.20    3.80
   0   2  16    4.80    3.70
   0   2  16   10.00    5.00
   1   2  16   27.70    5.90
   1   2  16   20.70    6.80
   2   2  16   -1.20    3.00
   2   2  16    0.60    4.00
   3   2  16    0.10    3.10
   3   2  16    4.50    4.60
   4   2  16   18.10    5.70
   4   2  16   24.40    8.80
   5   2  16    8.40    4.80
   5   2  16    0.60    4.60
  -4   3  16    1.20    3.80
  -4   3  16   -3.60    4.60
  -3   3  16   16.50    6.10
  -3   3  16    6.80    6.60
  -2   3  16   19.10    5.50
  -2   3  16   24.20    6.30
  -1   3  16   28.00    6.30
  -1   3  16   34.40    6.70
   0   3  16   -0.40    3.30
   0   3  16   -0.90    5.20
   1   3  16    3.50    3.80
   1   3  16    4.40    3.70
  -2  -3 -16   15.50    5.80
   2   3  16   46.50    7.70
   2   3  16   36.20    6.20
  -3  -3 -16    6.30    4.90
   3   3  16   16.60    4.90
   3   3  16   13.00    4.70
  -4  -3 -16   -1.80    4.10
   4   3  16    1.20    3.80
   4   3  16    4.60    4.30
  -5  -3 -16   17.70    6.50
   5   3  16   31.50    7.30
   5   3  16   20.80    5.90
  -3   4  16   33.60    6.80
  -3   4  16   29.90    6.80
  -2   4  16    2.80    3.50
  -2   4  16    3.00    4.30
  -1   4  16   14.00    4.90
  -1   4  16   30.90    6.10
   0   4  16    7.00    4.10
   0   4  16   10.40    4.10
  -1  -4 -16   -2.20    3.80
   1   4  16    3.30    3.30
   1   4  16    0.20    3.30
  -2  -4 -16   -3.30    4.10
   2   4  16   17.40    5.10
   2   4  16    2.00    3.40
  -3  -4 -16    3.80    4.20
   3   4  16    9.40    3.70
   3   4  16    6.10    4.10
  -4  -4 -16   -4.40    3.30
   4   4  16    7.90    4.70
   4   4  16    1.70    3.30
  -5  -4 -16    0.90    3.90
   5   4  16   -0.20    3.50
   5   4  16    1.80    4.00
  -3   5  16   23.90    6.50
  -3   5  16   22.30    5.80
  -2   5  16   32.30    6.60
  -2   5  16   33.80    7.10
  -1   5  16    9.00    4.30
   0   5  16   12.30    4.10
   0   5  16    9.00    4.10
   1   5  16   19.00    4.30
   1   5  16   20.90    5.30
  -2  -5 -16    4.90    3.00
   2   5  16    4.10    3.00
   2   5  16   -1.10    3.10
  -3  -5 -16   -0.90    2.60
   3   5  16    2.20    2.60
   3   5  16    1.50    3.40
  -4  -5 -16   -2.40    2.60
   4   5  16    2.40    3.90
   4   5  16    0.50    2.50
  -5  -5 -16    9.00    3.50
   5   5  16   25.60    4.40
   5   5  16   40.30    7.80
  -2   6  16   13.20    5.00
  -2   6  16    8.00    5.80
  -1   6  16   11.40    4.60
  -1   6  16   18.50    5.50
   0   6  16    3.80    3.70
   0   6  16    8.00    4.00
   0   6  16    6.10    3.40
   1   6  16   14.80    3.50
   1   6  16   21.80    5.60
   1   6  16   12.60    3.90
   2   6  16   16.30    3.30
   2   6  16   17.20    4.80
   2   6  16   17.80    3.10
   3   6  16   25.30    6.40
   4   6  16    4.40    4.30
  -2   7  16    7.70    5.00
  -2   7  16   13.10    4.90
  -1   7  16   -0.80    3.30
  -1   7  16   -1.20    6.70
   0   7  16   10.70    4.50
   0   7  16    6.60    3.30
   1   7  16   12.70    3.80
   1   7  16   22.70    3.70
   1   7  16   35.60    6.80
   2   7  16    6.60    4.30
   3   7  16    8.50    4.40
   4   7  16   -2.10    3.60
   5   7  16   -0.70    3.50
  -1   8  16    3.60    3.70
  -1   8  16    1.40    3.60
   0   8  16    7.00    3.10
   0   8  16    3.60    3.80
   1   8  16   10.10    2.90
   1   8  16    7.10    3.10
   1   8  16   17.10    5.00
   2   8  16    5.80    4.30
   3   8  16    8.20    7.60
   4   8  16    1.60    4.20
   5   8  16   22.30    6.30
   0   9  16   10.90    5.30
   0   9  16   10.80    3.10
   1   9  16    3.10    3.80
   2   9  16    4.50    4.10
   3   9  16   10.60    5.00
   4   9  16    3.40    3.80
  -1  -1  17    9.40    5.60
  -1  -1  17    2.70    3.50
   0  -1  17    7.50    6.10
   0  -1  17    7.40    4.50
   1  -1  17    4.40    6.10
   1  -1  17    8.40    4.20
  -2   0  17   14.30    6.30
  -2   0  17   14.80    5.20
  -1   0  17    7.90    5.60
  -1   0  17    6.00    4.20
   0   0  17    8.50    4.40
   0   0  17   -0.40    4.90
   1   0  17    6.10    4.10
   1   0  17    4.50    5.50
   2   0  17   12.70    5.50
   2   0  17   -0.70    4.60
  -2   1  17    4.40    5.10
  -2   1  17   -2.20    3.00
  -1   1  17   25.40    6.80
  -1   1  17   33.10    6.70
   0   1  17   13.80    5.40
   0   1  17    8.90    4.30
   1   1  17   -1.10    4.20
   1   1  17    1.30    3.50
   2   1  17    3.80    4.10
   2   1  17    7.10    4.80
   3   1  17   11.30    5.60
   3   1  17   16.00    5.60
  -2   2  17   17.70    9.20
  -2   2  17    4.50    5.20
  -1   2  17    3.60    4.80
  -1   2  17   -4.20    3.00
   0   2  17    8.20    4.40
   0   2  17    8.40    5.20
   1   2  17   58.39    8.60
   1   2  17   56.69    8.60
   2   2  17    5.20    4.30
   2   2  17    9.80    5.20
   3   2  17   -2.00    3.20
   3   2  17    1.70    4.20
  -2   3  17   26.90    7.00
  -2   3  17   25.70    6.70
  -1   3  17   22.00    5.80
  -1   3  17   26.10    5.80
   0   3  17   15.20    5.30
   0   3  17   10.20    5.00
   1   3  17    2.30    6.20
   1   3  17   12.30    4.60
   2   3  17    2.80    4.10
   2   3  17   19.60    5.40
   3   3  17    3.50    4.00
   3   3  17    3.60    3.80
   4   3  17   -0.20    4.10
   4   3  17    0.30    3.50
  -2   4  17   -0.80    3.40
  -2   4  17    6.20    5.00
  -1   4  17   14.50    6.10
  -1   4  17    7.30    4.40
   0   4  17   13.40    5.00
  -1  -4 -17    7.90    4.80
   1   4  17    2.40    3.80
   1   4  17   10.70    4.70
  -2  -4 -17    0.10    4.00
   2   4  17   -2.10    3.00
   2   4  17    3.00    3.80
   3   4  17   11.10    4.00
   3   4  17    9.90    5.30
  -4  -4 -17   -9.10    4.70
   4   4  17   -0.20    3.40
   4   4  17   -2.20    3.20
  -2   5  17   12.20    5.40
  -2   5  17   11.80    5.10
  -1   5  17    2.50    4.00
  -1   5  17    2.80    4.10
   0   5  17   24.80    5.20
   0   5  17    8.50    4.50
   1   5  17   10.50    4.70
   1   5  17   23.30    4.80
  -2  -5 -17   11.20    3.50
   2   5  17    8.50    3.30
   2   5  17   11.30    5.00
  -3  -5 -17    0.40    2.90
   3   5  17    2.10    3.90
   3   5  17   -1.40    2.70
  -4  -5 -17   -3.60    2.70
   4   5  17    1.80    6.60
   4   5  17    1.50    2.80
  -1   6  17   16.10    5.00
  -1   6  17   13.30    5.20
   0   6  17   12.60    4.30
   0   6  17    6.40    4.40
   0   6  17   12.50    5.60
   1   6  17    2.60    3.40
   1   6  17    2.70    6.00
   1   6  17   -2.10    2.50
   2   6  17    5.00    5.70
   2   6  17    2.40    2.70
   2   6  17    3.00    2.50
   4   6  17   -0.50    3.70
   0   7  17    9.70    4.90
   0   7  17    7.10    4.70
   0   7  17   14.20    4.00
   1   7  17    2.30    3.20
   1   7  17   13.60    5.00
   1   7  17    5.60    2.90
   2   7  17    4.70    4.40
   3   7  17   10.20    5.00
   4   7  17    0.40    4.00
   1   8  17    4.70    4.70
   1   8  17    4.40    2.90
   1   8  17    8.00    3.30
   2   8  17    8.20    4.70
   3   8  17    0.80    3.70
   0   2  18    9.30    4.90
   1   2  18   32.70    7.20
   1   2  18   23.70    6.40
   0   3  18    0.20    4.40
   0   3  18    3.00    4.00
   1   3  18    7.70    4.70
   2   3  18   12.00    5.30
   0   4  18    4.10    4.60
   0   4  18    6.70    4.50
   1   4  18   11.50    5.10
   1   4  18    9.70    4.60
  -2  -4 -18    0.40    4.70
   2   4  18    8.50    4.10
   2   4  18    1.90    3.90
   1   5  18    9.00    4.00
   1   5  18   26.60    6.70
  -2  -5 -18   14.90    5.20
   2   5  18    8.00    3.80
   2   5  18    7.70    4.60
   0   0   0    0.00    0.00

_computing_structure_solution     'SHELXT 2018/2 (Sheldrick, 2018)'
;
_shelx_hkl_checksum   59383

