 
data_1_a
 
_audit_creation_method            'SHELXL-2018/3'
_shelx_SHELXL_version_number      '2018/3'
_chemical_name_systematic         ?
_chemical_name_common             ?
_chemical_melting_point           ?
_chemical_formula_moiety          ?
_chemical_formula_sum
 'C2.13 H0.03 N0.40 O0.40 S0.07 Zn0.07' 
_chemical_formula_weight          44.15

loop_
 _atom_type_symbol
 _atom_type_description
 _atom_type_scat_dispersion_real
 _atom_type_scat_dispersion_imag
 _atom_type_scat_source
 'C'  'C'   0.0033   0.0016
 'International Tables Vol C Tables 4.2.6.8 and 6.1.1.4'
 'N'  'N'   0.0061   0.0033
 'International Tables Vol C Tables 4.2.6.8 and 6.1.1.4'
 'O'  'O'   0.0106   0.0060
 'International Tables Vol C Tables 4.2.6.8 and 6.1.1.4'
 'Zn'  'Zn'   0.2839   1.4301
 'International Tables Vol C Tables 4.2.6.8 and 6.1.1.4'
 'S'  'S'   0.1246   0.1234
 'International Tables Vol C Tables 4.2.6.8 and 6.1.1.4'
 'H'  'H'   0.0000   0.0000
 'International Tables Vol C Tables 4.2.6.8 and 6.1.1.4'
 
_space_group_crystal_system       triclinic
_space_group_IT_number            2
_space_group_name_H-M_alt         'P -1'
_space_group_name_Hall            '-P 1'
 
_shelx_space_group_comment
;
The symmetry employed for this shelxl refinement is uniquely defined
by the following loop, which should always be used as a source of
symmetry information in preference to the above space-group names.
They are only intended as comments.
;
 
loop_
 _space_group_symop_operation_xyz
 'x, y, z'
 '-x, -y, -z'
 
_cell_length_a                    11.4148(8)
_cell_length_b                    12.9240(9)
_cell_length_c                    17.6698(11)
_cell_angle_alpha                 70.715(2)
_cell_angle_beta                  79.689(2)
_cell_angle_gamma                 88.445(2)
_cell_volume                      2419.3(3)
_cell_formula_units_Z             30
_cell_measurement_temperature     150(2)
_cell_measurement_reflns_used     ?
_cell_measurement_theta_min       ?
_cell_measurement_theta_max       ?
 
_exptl_crystal_description        ?
_exptl_crystal_colour             ?
_exptl_crystal_density_meas       ?
_exptl_crystal_density_method     ?
_exptl_crystal_density_diffrn     0.909          
_exptl_crystal_F_000              657
_exptl_transmission_factor_min    ?
_exptl_transmission_factor_max    ?
_exptl_crystal_size_max           ?
_exptl_crystal_size_mid           ?
_exptl_crystal_size_min           ?
_exptl_absorpt_coefficient_mu     0.585
_shelx_estimated_absorpt_T_min    ?
_shelx_estimated_absorpt_T_max    ?
_exptl_absorpt_correction_type    ?
_exptl_absorpt_correction_T_min   ?
_exptl_absorpt_correction_T_max   ?
_exptl_absorpt_process_details    ?
_exptl_absorpt_special_details    ?
_diffrn_ambient_temperature       150(2)
_diffrn_radiation_wavelength      0.71073
_diffrn_radiation_type            MoK\a
_diffrn_source                    ?
_diffrn_measurement_device_type   ?
_diffrn_measurement_method        ?
_diffrn_detector_area_resol_mean  ?
_diffrn_reflns_number             22434
_diffrn_reflns_av_unetI/netI      0.0799
_diffrn_reflns_av_R_equivalents   0.0505
_diffrn_reflns_limit_h_min        -13
_diffrn_reflns_limit_h_max        13
_diffrn_reflns_limit_k_min        -15
_diffrn_reflns_limit_k_max        15
_diffrn_reflns_limit_l_min        -21
_diffrn_reflns_limit_l_max        21
_diffrn_reflns_theta_min          1.670
_diffrn_reflns_theta_max          25.729
_diffrn_reflns_theta_full         25.242
_diffrn_measured_fraction_theta_max   0.992
_diffrn_measured_fraction_theta_full  0.996
_diffrn_reflns_Laue_measured_fraction_max    0.992
_diffrn_reflns_Laue_measured_fraction_full   0.996
_diffrn_reflns_point_group_measured_fraction_max   0.992
_diffrn_reflns_point_group_measured_fraction_full  0.996
_reflns_number_total              9161
_reflns_number_gt                 6094
_reflns_threshold_expression      'I > 2\s(I)'
_reflns_Friedel_coverage          0.000
_reflns_Friedel_fraction_max      .
_reflns_Friedel_fraction_full     .
 
_reflns_special_details
;
 Reflections were merged by SHELXL according to the crystal
 class for the calculation of statistics and refinement.
 
 _reflns_Friedel_fraction is defined as the number of unique
 Friedel pairs measured divided by the number that would be
 possible theoretically, ignoring centric projections and
 systematic absences.
;
 
_computing_data_collection        ?
_computing_cell_refinement        ?
_computing_data_reduction         ?
_computing_structure_solution     'SHELXT 2018/2 (Sheldrick, 2018)'
_computing_structure_refinement 'SHELXL-2018/3 (Sheldrick, 2018)'
_computing_molecular_graphics     ?
_computing_publication_material   ?
_refine_special_details           ?
_refine_ls_structure_factor_coef  Fsqd
_refine_ls_matrix_type            full
_refine_ls_weighting_scheme       calc
_refine_ls_weighting_details
'w=1/[\s^2^(Fo^2^)+(0.2000P)^2^] where P=(Fo^2^+2Fc^2^)/3'
_atom_sites_solution_primary      ?
_atom_sites_solution_secondary    ?
_atom_sites_solution_hydrogens    geom
_refine_ls_hydrogen_treatment     constr
_refine_ls_extinction_method      none
_refine_ls_extinction_coef        .
_refine_ls_number_reflns          9161
_refine_ls_number_parameters      433
_refine_ls_number_restraints      0
_refine_ls_R_factor_all           0.1433
_refine_ls_R_factor_gt            0.1022
_refine_ls_wR_factor_ref          0.3540
_refine_ls_wR_factor_gt           0.3230
_refine_ls_goodness_of_fit_ref    1.305
_refine_ls_restrained_S_all       1.305
_refine_ls_shift/su_max           1.627
_refine_ls_shift/su_mean          0.019
 
loop_
 _atom_site_label
 _atom_site_type_symbol
 _atom_site_fract_x
 _atom_site_fract_y
 _atom_site_fract_z
 _atom_site_U_iso_or_equiv
 _atom_site_adp_type
 _atom_site_occupancy
 _atom_site_site_symmetry_order  
 _atom_site_calc_flag
 _atom_site_refinement_flags_posn
 _atom_site_refinement_flags_adp
 _atom_site_refinement_flags_occupancy
 _atom_site_disorder_assembly
 _atom_site_disorder_group
Zn1_1 Zn 0.36321(6) -0.15761(5) 1.02235(4) 0.0348(3) Uani 1 1 d . . . . .
S1_1 S -0.10798(16) 0.31853(15) 1.09428(13) 0.0514(5) Uani 1 1 d . . . . .
O1_1 O 0.4749(4) -0.1494(4) 0.9213(2) 0.0402(11) Uani 1 1 d . . . . .
N1_1 N 0.2085(5) 0.5331(4) 1.0792(4) 0.0450(14) Uani 1 1 d . . . . .
C1_1 C 0.1345(7) 0.5653(6) 1.1371(5) 0.058(2) Uani 1 1 d . . . . .
H1_1 H 0.068107 0.525209 1.174997 0.070 Uiso 1 1 calc R U . . .
O2_1 O 0.4796(5) -0.1516(4) 0.0921(2) 0.0452(12) Uani 1 1 d . . . . .
N2_1 N 0.2712(5) 0.6976(4) 1.0678(3) 0.0406(13) Uani 1 1 d . . . . .
C2_1 C 0.1763(7) 0.6659(6) 1.1286(5) 0.059(2) Uani 1 1 d . . . . .
H2_1 H 0.143094 0.708690 1.161149 0.070 Uiso 1 1 calc R U . . .
O3_1 O 0.3037(4) -0.1591(4) 0.8794(3) 0.0430(11) Uani 1 1 d . . . . .
N3_1 N 0.2644(5) -0.0255(4) 1.0041(3) 0.0374(12) Uani 1 1 d . . . . .
C3_1 C 0.2911(6) 0.6150(5) 1.0375(4) 0.0419(16) Uani 1 1 d . . . . .
H3_1 H 0.352921 0.613939 0.993935 0.050 Uiso 1 1 calc R U . . .
O4_1 O 0.3084(5) -0.1638(5) 0.1807(3) 0.0570(14) Uani 1 1 d . . . . .
N4_1 N 0.2033(5) 0.1351(4) 1.0070(3) 0.0418(13) Uani 1 1 d . . . . .
C4_1 C 0.2069(7) 0.4315(5) 1.0620(5) 0.0477(18) Uani 1 1 d . . . . .
O5_1 O 0.2474(6) -0.1626(10) 0.5356(4) 0.151(5) Uani 1 1 d . . . . .
N5_1 N -0.0182(5) 0.2370(5) 1.0620(4) 0.0444(14) Uani 1 1 d . . . . .
C5_1 C 0.3060(7) 0.3877(6) 1.0383(6) 0.061(2) Uani 1 1 d . . . . .
H5_1 H 0.380130 0.422312 1.034631 0.073 Uiso 1 1 calc R U . . .
N6_1 N -0.0156(5) 0.4098(5) 1.0957(4) 0.0466(14) Uani 1 1 d . . . . .
C6_1 C 0.3057(7) 0.2892(6) 1.0177(6) 0.062(2) Uani 1 1 d . . . . .
H6_1 H 0.379083 0.259894 1.000786 0.075 Uiso 1 1 calc R U . . .
N7_1 N 0.6358(6) -0.1233(8) 0.6808(4) 0.089(3) Uani 1 1 d . . . . .
C7_1 C 0.2007(6) 0.2372(5) 1.0223(4) 0.0447(16) Uani 1 1 d . . . . .
N8_1 N 0.5304(6) -0.1363(6) 0.6591(3) 0.0627(19) Uani 1 1 d . . . . .
C8_1 C 0.0922(6) 0.2798(5) 1.0502(4) 0.0386(15) Uani 1 1 d . . . . .
N9_1 N 0.5358(6) -0.1422(6) 0.3368(3) 0.0594(18) Uani 1 1 d . . . . .
C9_1 C 0.0936(6) 0.3788(5) 1.0700(4) 0.0404(15) Uani 1 1 d . . . . .
N10_1 N 0.6418(6) -0.1339(7) 0.2855(4) 0.068(2) Uani 1 1 d . . . . .
C10_1 C 0.1662(6) 0.0004(5) 0.9651(4) 0.0424(16) Uani 1 1 d . . . . .
H10_1 H 0.132946 -0.043653 0.939965 0.051 Uiso 1 1 calc R U . . .
N11_1 N 0.3133(7) -0.1535(11) 0.4619(5) 0.120(4) Uani 1 1 d . . . . .
C11_1 C 0.1260(6) 0.0984(6) 0.9688(5) 0.0482(17) Uani 1 1 d . . . . .
H11_1 H 0.058375 0.134473 0.949187 0.058 Uiso 1 1 calc R U . . .
N12_1 N 0.3103(7) -0.1538(11) 0.5901(5) 0.117(4) Uani 1 1 d . . . . .
C12_1 C 0.2828(6) 0.0577(5) 1.0288(4) 0.0401(15) Uani 1 1 d . . . . .
H12_1 H 0.343803 0.061937 1.057890 0.048 Uiso 1 1 calc R U . . .
C13_1 C 0.4106(6) -0.1499(5) 0.8664(4) 0.0386(15) Uani 1 1 d . . . . .
C14_1 C 0.4828(6) -0.1413(6) 0.7852(4) 0.0445(17) Uani 1 1 d . . . . .
C15_1 C 0.6051(7) -0.1285(9) 0.7589(5) 0.072(3) Uani 1 1 d . . . . .
H15_1 H 0.660377 -0.123953 0.792053 0.087 Uiso 1 1 calc R U . . .
C16_1 C 0.4375(7) -0.1450(6) 0.7207(4) 0.0497(18) Uani 1 1 d . . . . .
H16_1 H 0.355607 -0.152225 0.718726 0.060 Uiso 1 1 calc R U . . .
C17_1 C 0.4170(8) -0.1555(5) 0.1628(4) 0.051(2) Uani 1 1 d . . . . .
C18_1 C 0.4893(7) -0.1490(6) 0.2231(4) 0.0482(18) Uani 1 1 d . . . . .
C19_1 C 0.4408(7) -0.1499(7) 0.3008(4) 0.055(2) Uani 1 1 d . . . . .
H19_1 H 0.358636 -0.154697 0.324393 0.066 Uiso 1 1 calc R U . . .
C20_1 C 0.6111(8) -0.1365(7) 0.2173(4) 0.059(2) Uani 1 1 d . . . . .
H20_1 H 0.667054 -0.130340 0.169106 0.070 Uiso 1 1 calc R U . . .
C21_1 C 0.5290(7) -0.1366(8) 0.5784(4) 0.063(2) Uani 1 1 d . . . . .
C22_1 C 0.6344(8) -0.1296(10) 0.5247(5) 0.085(3) Uani 1 1 d . . . . .
H22_1 H 0.707935 -0.124395 0.541449 0.102 Uiso 1 1 calc R U . . .
C23_1 C 0.6338(8) -0.1301(9) 0.4432(5) 0.082(3) Uani 1 1 d . . . . .
H23_1 H 0.707906 -0.122582 0.407100 0.098 Uiso 1 1 calc R U . . .
C24_1 C 0.5344(7) -0.1407(8) 0.4161(4) 0.059(2) Uani 1 1 d . . . . .
C25_1 C 0.4233(8) -0.1506(10) 0.4715(5) 0.081(3) Uani 1 1 d . . . . .
C26_1 C 0.4245(8) -0.1467(9) 0.5518(4) 0.071(3) Uani 1 1 d . . . . .
O1_2 O 0.4739(9) 0.5449(9) 0.8880(7) 0.132(3) Uani 1 1 d . . . . .
N1_2 N 0.594(2) 0.5410(19) 0.7666(14) 0.219(8) Uiso 1 1 d . . . . .
C1_2 C 0.691(3) 0.612(2) 0.6850(17) 0.265(13) Uiso 1 1 d . . . . .
H1A_2 H 0.735978 0.562122 0.660485 0.397 Uiso 1 1 calc R U . . .
H1B_2 H 0.746730 0.654264 0.701322 0.397 Uiso 1 1 calc R U . . .
H1C_2 H 0.648735 0.663110 0.645247 0.397 Uiso 1 1 calc R U . . .
C2_2 C 0.491(6) 0.565(5) 0.828(4) 0.49(4) Uiso 1 1 d . . . . .
H2_2 H 0.431035 0.609026 0.802362 0.587 Uiso 1 1 calc R U . . .
C3_2 C 0.554(3) 0.431(2) 0.7701(17) 0.271(13) Uiso 1 1 d . . . . .
H3A_2 H 0.564853 0.427508 0.714706 0.406 Uiso 1 1 calc R U . . .
H3B_2 H 0.470080 0.417591 0.795558 0.406 Uiso 1 1 calc R U . . .
H3C_2 H 0.601998 0.374956 0.802289 0.406 Uiso 1 1 calc R U . . .
 
loop_
 _atom_site_aniso_label
 _atom_site_aniso_U_11
 _atom_site_aniso_U_22
 _atom_site_aniso_U_33
 _atom_site_aniso_U_23
 _atom_site_aniso_U_13
 _atom_site_aniso_U_12
Zn1_1 0.0467(5) 0.0294(4) 0.0317(4) -0.0152(3) -0.0048(3) -0.0085(3)
S1_1 0.0407(10) 0.0434(11) 0.0805(14) -0.0313(10) -0.0161(9) -0.0014(8)
O1_1 0.048(3) 0.048(3) 0.030(2) -0.0183(19) -0.010(2) -0.005(2)
N1_1 0.050(3) 0.030(3) 0.060(4) -0.020(3) -0.011(3) -0.006(3)
C1_1 0.065(5) 0.047(4) 0.056(4) -0.020(4) 0.015(4) -0.027(4)
O2_1 0.070(3) 0.042(3) 0.027(2) -0.0162(19) -0.008(2) -0.015(2)
N2_1 0.049(3) 0.032(3) 0.045(3) -0.019(2) -0.008(3) -0.007(2)
C2_1 0.071(5) 0.046(4) 0.060(5) -0.027(4) 0.010(4) -0.021(4)
O3_1 0.040(3) 0.056(3) 0.039(2) -0.024(2) -0.006(2) -0.010(2)
N3_1 0.045(3) 0.028(3) 0.041(3) -0.015(2) -0.005(2) -0.009(2)
C3_1 0.051(4) 0.027(3) 0.050(4) -0.016(3) -0.007(3) -0.010(3)
O4_1 0.061(3) 0.071(4) 0.042(3) -0.024(3) -0.003(3) -0.017(3)
N4_1 0.044(3) 0.032(3) 0.053(3) -0.021(2) -0.006(3) -0.006(2)
C4_1 0.055(4) 0.024(3) 0.072(5) -0.020(3) -0.021(4) -0.009(3)
O5_1 0.060(4) 0.362(15) 0.058(4) -0.103(7) -0.003(3) -0.034(6)
N5_1 0.041(3) 0.037(3) 0.063(4) -0.022(3) -0.018(3) -0.003(2)
C5_1 0.050(5) 0.036(4) 0.109(7) -0.037(4) -0.022(4) -0.005(3)
N6_1 0.046(3) 0.036(3) 0.062(4) -0.021(3) -0.011(3) -0.004(3)
C6_1 0.040(4) 0.038(4) 0.117(7) -0.039(4) -0.011(4) 0.000(3)
N7_1 0.050(4) 0.189(9) 0.049(4) -0.066(5) -0.006(3) -0.027(5)
C7_1 0.052(4) 0.025(3) 0.062(4) -0.019(3) -0.012(3) -0.006(3)
N8_1 0.056(4) 0.108(6) 0.034(3) -0.036(3) -0.010(3) -0.010(4)
C8_1 0.041(4) 0.026(3) 0.050(4) -0.011(3) -0.015(3) -0.001(3)
N9_1 0.058(4) 0.094(5) 0.032(3) -0.030(3) -0.003(3) -0.019(4)
C9_1 0.048(4) 0.028(3) 0.049(4) -0.015(3) -0.016(3) -0.003(3)
N10_1 0.060(4) 0.119(6) 0.036(3) -0.039(4) -0.003(3) -0.014(4)
C10_1 0.044(4) 0.038(4) 0.054(4) -0.026(3) -0.009(3) -0.007(3)
N11_1 0.050(4) 0.279(14) 0.051(4) -0.083(7) -0.004(4) -0.025(6)
C11_1 0.039(4) 0.047(4) 0.068(5) -0.028(4) -0.015(3) -0.004(3)
N12_1 0.053(5) 0.262(14) 0.057(5) -0.083(7) -0.011(4) -0.008(6)
C12_1 0.050(4) 0.028(3) 0.044(4) -0.013(3) -0.011(3) -0.006(3)
C13_1 0.054(4) 0.034(3) 0.032(3) -0.015(3) -0.012(3) -0.006(3)
C14_1 0.051(4) 0.059(4) 0.032(3) -0.024(3) -0.010(3) -0.011(3)
C15_1 0.050(5) 0.132(9) 0.051(4) -0.050(5) -0.010(4) -0.007(5)
C16_1 0.048(4) 0.074(5) 0.032(3) -0.026(3) -0.004(3) -0.011(4)
C17_1 0.090(6) 0.031(4) 0.032(3) -0.011(3) -0.011(4) -0.013(4)
C18_1 0.068(5) 0.049(4) 0.032(3) -0.017(3) -0.011(3) -0.008(4)
C19_1 0.059(5) 0.083(6) 0.027(3) -0.021(3) -0.009(3) -0.018(4)
C20_1 0.066(5) 0.080(6) 0.031(3) -0.024(4) 0.001(4) -0.006(4)
C21_1 0.056(5) 0.108(7) 0.036(4) -0.040(4) -0.002(4) -0.013(5)
C22_1 0.063(5) 0.165(10) 0.041(4) -0.053(6) -0.006(4) -0.014(6)
C23_1 0.057(5) 0.155(10) 0.045(4) -0.052(6) 0.000(4) -0.028(6)
C24_1 0.059(5) 0.092(6) 0.031(3) -0.028(4) -0.004(3) -0.009(4)
C25_1 0.068(6) 0.143(10) 0.040(4) -0.039(5) -0.010(4) -0.030(6)
C26_1 0.061(5) 0.131(9) 0.029(4) -0.038(5) -0.004(4) -0.015(5)
O1_2 0.119(7) 0.153(9) 0.116(7) -0.032(6) -0.021(6) -0.041(6)
 
_geom_special_details
;
 All esds (except the esd in the dihedral angle between two l.s. planes)
 are estimated using the full covariance matrix.  The cell esds are taken
 into account individually in the estimation of esds in distances, angles
 and torsion angles; correlations between esds in cell parameters are only
 used when they are defined by crystal symmetry.  An approximate (isotropic)
 treatment of cell esds is used for estimating esds involving l.s. planes.
;
 
loop_
 _geom_bond_atom_site_label_1
 _geom_bond_atom_site_label_2
 _geom_bond_distance
 _geom_bond_site_symmetry_2
 _geom_bond_publ_flag
Zn1_1 O1_1 1.973(4) . ?
Zn1_1 O2_1 1.986(5) 1_556 ?
Zn1_1 N3_1 1.989(6) . ?
Zn1_1 N2_1 2.015(5) 1_545 ?
S1_1 N6_1 1.612(6) . ?
S1_1 N5_1 1.618(6) . ?
O1_1 C13_1 1.320(7) . ?
N1_1 C3_1 1.358(8) . ?
N1_1 C1_1 1.372(9) . ?
N1_1 C4_1 1.443(8) . ?
C1_1 C2_1 1.349(9) . ?
O2_1 C17_1 1.309(8) . ?
N2_1 C3_1 1.342(8) . ?
N2_1 C2_1 1.346(9) . ?
O3_1 C13_1 1.202(8) . ?
N3_1 C12_1 1.320(8) . ?
N3_1 C10_1 1.396(9) . ?
O4_1 C17_1 1.222(10) . ?
N4_1 C12_1 1.340(9) . ?
N4_1 C11_1 1.381(8) . ?
N4_1 C7_1 1.430(8) . ?
C4_1 C5_1 1.315(11) . ?
C4_1 C9_1 1.442(9) . ?
O5_1 N12_1 1.335(9) . ?
O5_1 N11_1 1.351(9) . ?
N5_1 C8_1 1.345(8) . ?
C5_1 C6_1 1.435(9) . ?
N6_1 C9_1 1.345(9) . ?
C6_1 C7_1 1.367(10) . ?
N7_1 C15_1 1.339(10) . ?
N7_1 N8_1 1.357(9) . ?
C7_1 C8_1 1.416(10) . ?
N8_1 C16_1 1.353(9) . ?
N8_1 C21_1 1.431(8) . ?
C8_1 C9_1 1.434(8) . ?
N9_1 N10_1 1.359(9) . ?
N9_1 C19_1 1.374(9) . ?
N9_1 C24_1 1.405(8) . ?
N10_1 C20_1 1.325(9) . ?
C10_1 C11_1 1.354(10) . ?
N11_1 C25_1 1.300(11) . ?
N12_1 C26_1 1.347(11) . ?
C13_1 C14_1 1.492(9) . ?
C14_1 C16_1 1.347(9) . ?
C14_1 C15_1 1.387(11) . ?
C17_1 C18_1 1.484(10) . ?
C18_1 C19_1 1.382(9) . ?
C18_1 C20_1 1.386(11) . ?
C21_1 C22_1 1.376(11) . ?
C21_1 C26_1 1.381(11) . ?
C22_1 C23_1 1.443(10) . ?
C23_1 C24_1 1.336(11) . ?
C24_1 C25_1 1.437(12) . ?
C25_1 C26_1 1.440(9) . ?
O1_2 C2_2 0.99(6) . ?
N1_2 C3_2 1.48(3) . ?
N1_2 C2_2 1.55(6) . ?
N1_2 C1_2 1.66(3) . ?
 
loop_
 _geom_angle_atom_site_label_1
 _geom_angle_atom_site_label_2
 _geom_angle_atom_site_label_3
 _geom_angle
 _geom_angle_site_symmetry_1
 _geom_angle_site_symmetry_3
 _geom_angle_publ_flag
O1_1 Zn1_1 O2_1 99.37(18) . 1_556 ?
O1_1 Zn1_1 N3_1 110.2(2) . . ?
O2_1 Zn1_1 N3_1 109.9(2) 1_556 . ?
O1_1 Zn1_1 N2_1 110.4(2) . 1_545 ?
O2_1 Zn1_1 N2_1 110.5(2) 1_556 1_545 ?
N3_1 Zn1_1 N2_1 115.3(2) . 1_545 ?
N6_1 S1_1 N5_1 101.2(3) . . ?
C13_1 O1_1 Zn1_1 107.4(4) . . ?
C3_1 N1_1 C1_1 108.2(5) . . ?
C3_1 N1_1 C4_1 122.5(6) . . ?
C1_1 N1_1 C4_1 129.3(6) . . ?
C2_1 C1_1 N1_1 105.3(6) . . ?
C17_1 O2_1 Zn1_1 106.4(5) . 1_554 ?
C3_1 N2_1 C2_1 106.5(6) . . ?
C3_1 N2_1 Zn1_1 124.5(5) . 1_565 ?
C2_1 N2_1 Zn1_1 128.9(5) . 1_565 ?
N2_1 C2_1 C1_1 111.1(7) . . ?
C12_1 N3_1 C10_1 106.3(6) . . ?
C12_1 N3_1 Zn1_1 123.9(5) . . ?
C10_1 N3_1 Zn1_1 129.8(4) . . ?
N2_1 C3_1 N1_1 108.9(6) . . ?
C12_1 N4_1 C11_1 108.3(5) . . ?
C12_1 N4_1 C7_1 124.7(6) . . ?
C11_1 N4_1 C7_1 127.0(6) . . ?
C5_1 C4_1 C9_1 119.8(6) . . ?
C5_1 C4_1 N1_1 121.5(6) . . ?
C9_1 C4_1 N1_1 118.7(6) . . ?
N12_1 O5_1 N11_1 114.4(7) . . ?
C8_1 N5_1 S1_1 106.2(4) . . ?
C4_1 C5_1 C6_1 122.1(7) . . ?
C9_1 N6_1 S1_1 106.0(4) . . ?
C7_1 C6_1 C5_1 120.5(7) . . ?
C15_1 N7_1 N8_1 103.8(6) . . ?
C6_1 C7_1 C8_1 119.0(6) . . ?
C6_1 C7_1 N4_1 119.3(7) . . ?
C8_1 C7_1 N4_1 121.4(6) . . ?
C16_1 N8_1 N7_1 111.7(5) . . ?
C16_1 N8_1 C21_1 128.9(6) . . ?
N7_1 N8_1 C21_1 119.5(6) . . ?
N5_1 C8_1 C7_1 127.1(6) . . ?
N5_1 C8_1 C9_1 113.0(6) . . ?
C7_1 C8_1 C9_1 119.9(6) . . ?
N10_1 N9_1 C19_1 112.2(5) . . ?
N10_1 N9_1 C24_1 119.5(6) . . ?
C19_1 N9_1 C24_1 128.3(6) . . ?
N6_1 C9_1 C8_1 113.5(6) . . ?
N6_1 C9_1 C4_1 127.9(6) . . ?
C8_1 C9_1 C4_1 118.5(6) . . ?
C20_1 N10_1 N9_1 103.7(6) . . ?
C11_1 C10_1 N3_1 108.9(6) . . ?
C25_1 N11_1 O5_1 105.0(6) . . ?
C10_1 C11_1 N4_1 105.9(6) . . ?
O5_1 N12_1 C26_1 104.3(7) . . ?
N3_1 C12_1 N4_1 110.5(6) . . ?
O3_1 C13_1 O1_1 124.4(6) . . ?
O3_1 C13_1 C14_1 121.7(6) . . ?
O1_1 C13_1 C14_1 113.9(6) . . ?
C16_1 C14_1 C15_1 105.6(6) . . ?
C16_1 C14_1 C13_1 124.8(7) . . ?
C15_1 C14_1 C13_1 129.7(6) . . ?
N7_1 C15_1 C14_1 111.6(7) . . ?
C14_1 C16_1 N8_1 107.3(6) . . ?
O4_1 C17_1 O2_1 125.3(7) . . ?
O4_1 C17_1 C18_1 120.4(7) . . ?
O2_1 C17_1 C18_1 114.3(7) . . ?
C19_1 C18_1 C20_1 104.8(6) . . ?
C19_1 C18_1 C17_1 123.6(7) . . ?
C20_1 C18_1 C17_1 131.5(7) . . ?
N9_1 C19_1 C18_1 105.8(6) . . ?
N10_1 C20_1 C18_1 113.4(7) . . ?
C22_1 C21_1 C26_1 117.6(7) . . ?
C22_1 C21_1 N8_1 120.1(7) . . ?
C26_1 C21_1 N8_1 122.3(7) . . ?
C21_1 C22_1 C23_1 120.5(8) . . ?
C24_1 C23_1 C22_1 123.3(8) . . ?
C23_1 C24_1 N9_1 122.4(7) . . ?
C23_1 C24_1 C25_1 117.4(6) . . ?
N9_1 C24_1 C25_1 120.2(7) . . ?
N11_1 C25_1 C24_1 132.1(7) . . ?
N11_1 C25_1 C26_1 108.7(8) . . ?
C24_1 C25_1 C26_1 118.9(7) . . ?
N12_1 C26_1 C21_1 130.4(7) . . ?
N12_1 C26_1 C25_1 107.2(7) . . ?
C21_1 C26_1 C25_1 122.4(7) . . ?
C3_2 N1_2 C2_2 100(3) . . ?
C3_2 N1_2 C1_2 117(2) . . ?
C2_2 N1_2 C1_2 137(3) . . ?
O1_2 C2_2 N1_2 133(6) . . ?
 
_refine_diff_density_max    2.025
_refine_diff_density_min   -0.697
_refine_diff_density_rms    0.203

_shelx_res_file
;
TITL 1_a.res in P-1
    1_a.res
    created by SHELXL-2018/3 at 17:06:45 on 29-Mar-2023
REM Old TITL 1 in P-1
REM SHELXT solution in P-1: R1 0.239, Rweak 0.022, Alpha 0.064
REM <I/s>   0.000 for    0 systematic absences,  Orientation as input
REM Formula found by SHELXT:  C32 N6 O7 Zn
CELL  0.71073  11.4148  12.9240  17.6698   70.715   79.689   88.445
ZERR   30.000   0.0008   0.0009   0.0011    0.002    0.002    0.002
LATT  1
SFAC C N O Zn S H
UNIT 64 12 12 2 2 1
ACTA
TEMP -123.150
L.S. 10
BOND
LIST 6
FMAP 2
PLAN 20
WGHT    0.200000
FVAR       0.42171
RESI 1 M001
ZN1   4    0.363207   -0.157609    1.022346    11.00000    0.04673    0.02944 =
         0.03172   -0.01518   -0.00476   -0.00847
S1    5   -0.107979    0.318530    1.094277    11.00000    0.04068    0.04337 =
         0.08048   -0.03132   -0.01615   -0.00142
O1    3    0.474913   -0.149392    0.921290    11.00000    0.04835    0.04770 =
         0.03021   -0.01831   -0.00969   -0.00535
N1    2    0.208466    0.533088    1.079224    11.00000    0.05032    0.02979 =
         0.06022   -0.02049   -0.01126   -0.00637
C1    1    0.134542    0.565252    1.137055    11.00000    0.06526    0.04683 =
         0.05570   -0.01952    0.01535   -0.02725
AFIX  43
H1    6    0.068107    0.525209    1.174997    11.00000   -1.20000
AFIX   0
O2    3    0.479587   -0.151597    0.092108    11.00000    0.07011    0.04217 =
         0.02735   -0.01617   -0.00779   -0.01490
N2    2    0.271238    0.697609    1.067810    11.00000    0.04900    0.03204 =
         0.04535   -0.01865   -0.00772   -0.00654
C2    1    0.176308    0.665877    1.128556    11.00000    0.07101    0.04552 =
         0.05974   -0.02690    0.00989   -0.02129
AFIX  43
H2    6    0.143094    0.708690    1.161149    11.00000   -1.20000
AFIX   0
O3    3    0.303713   -0.159104    0.879358    11.00000    0.04014    0.05557 =
         0.03946   -0.02393   -0.00576   -0.00984
N3    2    0.264379   -0.025476    1.004063    11.00000    0.04524    0.02849 =
         0.04059   -0.01483   -0.00492   -0.00903
C3    1    0.291103    0.614979    1.037498    11.00000    0.05061    0.02687 =
         0.05040   -0.01581   -0.00676   -0.01044
AFIX  43
H3    6    0.352921    0.613939    0.993935    11.00000   -1.20000
AFIX   0
O4    3    0.308371   -0.163836    0.180656    11.00000    0.06052    0.07132 =
         0.04152   -0.02351   -0.00334   -0.01689
N4    2    0.203297    0.135120    1.006959    11.00000    0.04448    0.03189 =
         0.05345   -0.02104   -0.00552   -0.00590
C4    1    0.206924    0.431517    1.062047    11.00000    0.05514    0.02370 =
         0.07215   -0.02034   -0.02106   -0.00876
O5    3    0.247401   -0.162591    0.535559    11.00000    0.05964    0.36156 =
         0.05751   -0.10327   -0.00322   -0.03385
N5    2   -0.018246    0.236955    1.061952    11.00000    0.04112    0.03698 =
         0.06311   -0.02245   -0.01793   -0.00252
C5    1    0.305994    0.387679    1.038291    11.00000    0.04958    0.03583 =
         0.10940   -0.03694   -0.02200   -0.00506
AFIX  43
H5    6    0.380130    0.422312    1.034631    11.00000   -1.20000
AFIX   0
N6    2   -0.015560    0.409756    1.095689    11.00000    0.04597    0.03640 =
         0.06181   -0.02092   -0.01077   -0.00389
C6    1    0.305699    0.289193    1.017720    11.00000    0.04001    0.03823 =
         0.11728   -0.03929   -0.01112   -0.00002
AFIX  43
H6    6    0.379083    0.259894    1.000786    11.00000   -1.20000
AFIX   0
N7    2    0.635761   -0.123291    0.680849    11.00000    0.04994    0.18930 =
         0.04856   -0.06574   -0.00601   -0.02665
C7    1    0.200699    0.237182    1.022289    11.00000    0.05153    0.02476 =
         0.06221   -0.01881   -0.01205   -0.00588
N8    2    0.530366   -0.136340    0.659141    11.00000    0.05606    0.10799 =
         0.03447   -0.03566   -0.00962   -0.01008
C8    1    0.092221    0.279824    1.050212    11.00000    0.04133    0.02631 =
         0.05000   -0.01150   -0.01450   -0.00060
N9    2    0.535843   -0.142236    0.336817    11.00000    0.05815    0.09424 =
         0.03192   -0.02999   -0.00272   -0.01879
C9    1    0.093561    0.378780    1.069956    11.00000    0.04831    0.02810 =
         0.04939   -0.01472   -0.01602   -0.00342
N10   2    0.641779   -0.133894    0.285473    11.00000    0.05983    0.11866 =
         0.03609   -0.03942   -0.00274   -0.01372
C10   1    0.166169    0.000365    0.965056    11.00000    0.04355    0.03844 =
         0.05357   -0.02556   -0.00930   -0.00694
AFIX  43
H10   6    0.132946   -0.043653    0.939965    11.00000   -1.20000
AFIX   0
N11   2    0.313262   -0.153508    0.461936    11.00000    0.04979    0.27925 =
         0.05077   -0.08270   -0.00441   -0.02515
C11   1    0.125966    0.098364    0.968800    11.00000    0.03885    0.04697 =
         0.06773   -0.02776   -0.01465   -0.00388
AFIX  43
H11   6    0.058375    0.134473    0.949187    11.00000   -1.20000
AFIX   0
N12   2    0.310322   -0.153811    0.590076    11.00000    0.05348    0.26244 =
         0.05728   -0.08271   -0.01090   -0.00836
C12   1    0.282779    0.057657    1.028759    11.00000    0.04971    0.02832 =
         0.04430   -0.01312   -0.01069   -0.00587
AFIX  43
H12   6    0.343803    0.061937    1.057890    11.00000   -1.20000
AFIX   0
C13   1    0.410557   -0.149896    0.866355    11.00000    0.05374    0.03435 =
         0.03224   -0.01454   -0.01159   -0.00580
C14   1    0.482782   -0.141333    0.785151    11.00000    0.05121    0.05882 =
         0.03197   -0.02372   -0.01029   -0.01093
C15   1    0.605130   -0.128495    0.758853    11.00000    0.04996    0.13193 =
         0.05084   -0.04972   -0.01034   -0.00731
AFIX  43
H15   6    0.660377   -0.123953    0.792053    11.00000   -1.20000
AFIX   0
C16   1    0.437518   -0.144961    0.720657    11.00000    0.04783    0.07441 =
         0.03239   -0.02578   -0.00408   -0.01061
AFIX  43
H16   6    0.355607   -0.152225    0.718726    11.00000   -1.20000
AFIX   0
C17   1    0.416982   -0.155536    0.162756    11.00000    0.09035    0.03135 =
         0.03162   -0.01135   -0.01063   -0.01274
C18   1    0.489267   -0.149032    0.223109    11.00000    0.06801    0.04894 =
         0.03199   -0.01738   -0.01072   -0.00811
C19   1    0.440752   -0.149859    0.300784    11.00000    0.05927    0.08312 =
         0.02689   -0.02106   -0.00906   -0.01767
AFIX  43
H19   6    0.358636   -0.154697    0.324393    11.00000   -1.20000
AFIX   0
C20   1    0.611075   -0.136483    0.217276    11.00000    0.06579    0.07984 =
         0.03101   -0.02362    0.00087   -0.00635
AFIX  43
H20   6    0.667054   -0.130340    0.169106    11.00000   -1.20000
AFIX   0
C21   1    0.528977   -0.136613    0.578364    11.00000    0.05562    0.10787 =
         0.03588   -0.03999   -0.00170   -0.01284
C22   1    0.634353   -0.129612    0.524721    11.00000    0.06311    0.16528 =
         0.04085   -0.05328   -0.00584   -0.01359
AFIX  43
H22   6    0.707935   -0.124395    0.541449    11.00000   -1.20000
AFIX   0
C23   1    0.633820   -0.130145    0.443243    11.00000    0.05671    0.15521 =
         0.04550   -0.05187    0.00033   -0.02819
AFIX  43
H23   6    0.707906   -0.122582    0.407100    11.00000   -1.20000
AFIX   0
C24   1    0.534375   -0.140740    0.416105    11.00000    0.05865    0.09224 =
         0.03062   -0.02842   -0.00405   -0.00918
C25   1    0.423265   -0.150572    0.471451    11.00000    0.06754    0.14348 =
         0.04009   -0.03936   -0.01030   -0.03014
C26   1    0.424511   -0.146698    0.551816    11.00000    0.06058    0.13142 =
         0.02906   -0.03775   -0.00355   -0.01490
RESI 2 M002
O1    3    0.473857    0.544901    0.887981    11.00000    0.11892    0.15301 =
         0.11606   -0.03154   -0.02078   -0.04052
N1    2    0.593891    0.541006    0.766640    11.00000    0.21895
C1    1    0.691358    0.612476    0.685030    11.00000    0.26477
AFIX 137
H1A   6    0.735978    0.562122    0.660485    11.00000   -1.50000
H1B   6    0.746730    0.654264    0.701322    11.00000   -1.50000
H1C   6    0.648735    0.663110    0.645247    11.00000   -1.50000
AFIX   0
C2    1    0.490517    0.565426    0.827854    11.00000    0.48951
AFIX  43
H2    6    0.431035    0.609026    0.802362    11.00000   -1.20000
AFIX   0
C3    1    0.554354    0.430934    0.770091    11.00000    0.27063
AFIX 137
H3A   6    0.564853    0.427508    0.714706    11.00000   -1.50000
H3B   6    0.470080    0.417591    0.795558    11.00000   -1.50000
H3C   6    0.601998    0.374956    0.802289    11.00000   -1.50000
RESI 0
AFIX   0
HKLF 4




REM  1_a.res in P-1
REM wR2 = 0.3540, GooF = S = 1.305, Restrained GooF = 1.305 for all data
REM R1 = 0.1022 for 6094 Fo > 4sig(Fo) and 0.1433 for all 9161 data
REM 433 parameters refined using 0 restraints

END

WGHT      0.2000      0.0000

REM Highest difference peak  2.025,  deepest hole -0.697,  1-sigma level  0.203
Q1    1   0.1109 -0.0410  0.7389  11.00000  0.05    2.03
Q2    1   0.0111  0.0142  0.7573  11.00000  0.05    1.81
Q3    1   0.8778 -0.0983  0.7872  11.00000  0.05    1.70
Q4    1   0.0099  0.0823  0.7884  11.00000  0.05    1.32
Q5    1   0.5642  0.5827  0.8246  11.00000  0.05    1.24
Q6    1   0.2637  0.5660  0.7546  11.00000  0.05    1.20
Q7    1   0.3524  0.4966  0.8090  11.00000  0.05    1.18
Q8    1  -0.2061  0.4956  1.2536  11.00000  0.05    0.91
Q9    1   0.2071  0.4080  0.8075  11.00000  0.05    0.80
Q10   1   0.2256  0.3683  0.7668  11.00000  0.05    0.74
Q11   1   0.0781 -0.1328  0.7225  11.00000  0.05    0.73
Q12   1   0.9728  0.6969  0.6990  11.00000  0.05    0.71
Q13   1   0.0251  0.2163  1.2529  11.00000  0.05    0.69
Q14   1   0.3710  0.4754  0.5363  11.00000  0.05    0.67
Q15   1   0.4016  0.5734  0.6000  11.00000  0.05    0.67
Q16   1   0.3864  0.5687  0.8469  11.00000  0.05    0.67
Q17   1   0.6445 -0.4167  0.4241  11.00000  0.05    0.67
Q18   1   0.9418  0.7839  0.6182  11.00000  0.05    0.66
Q19   1   0.3333  0.4785  0.6272  11.00000  0.05    0.66
Q20   1   0.4995  0.4877  0.8526  11.00000  0.05    0.65
;
_shelx_res_checksum   74550

_shelx_hkl_file
;
  -2   0   0  986.40   47.60
  -2   0   0 1001.50   46.80
   2   0   0  950.20   47.60
   2   0   0  977.00   46.80
  -3   0   0  430.06   20.70
   3   0   0  431.66   20.80
   3   0   0  416.66   22.20
  -4   0   0  143.09    9.70
  -4   0   0  143.19    7.50
   4   0   0  137.69    7.60
   4   0   0  148.99   10.00
  -5   0   0  243.58   14.30
  -5   0   0  239.58   12.10
   5   0   0  242.28   14.70
   5   0   0  230.98   12.10
  -6   0   0  130.99   10.00
  -6   0   0  127.09    7.10
   6   0   0  114.69   10.50
   6   0   0  131.99    7.30
  -7   0   0   40.60    6.70
  -7   0   0   46.00    4.00
   7   0   0   55.99    7.80
   7   0   0   52.59    4.40
  -8   0   0  101.89    6.80
  -8   0   0  123.39   10.90
   8   0   0  105.19   11.60
   8   0   0  111.09    7.20
  -9   0   0   18.00    6.70
   9   0   0   31.50    4.20
   9   0   0   21.40    7.90
  10   0   0   38.70    5.20
  10   0   0   63.09   11.90
  11   0   0  132.09    9.90
  11   0   0  127.79   15.90
  12   0   0   42.90   12.00
  12   0   0   45.40    6.20
  13   0   0   10.70    5.70
  13   0   0    1.60   10.80
  13  -1   0    8.40    5.80
  13  -1   0   -1.00   10.90
  12  -1   0   21.60   12.00
  12  -1   0   45.10    6.20
  11  -1   0   25.50   11.10
  11  -1   0    9.80    5.00
  10  -1   0   62.69   11.80
  10  -1   0   60.99    6.30
   9  -1   0   88.89   12.90
   9  -1   0  125.59    8.10
   8  -1   0   25.10    7.70
   8  -1   0   26.30    3.60
  -8   1   0   20.60    2.90
  -8   1   0   21.60    6.30
   7  -1   0    8.40    5.50
   7  -1   0    8.40    2.60
  -7   1   0   15.20    2.40
  -7   1   0   16.00    5.20
   6  -1   0  254.57   13.20
   6  -1   0  267.77   16.70
  -6   1   0  244.68   15.70
  -6   1   0  252.27   12.90
   5  -1   0    5.50    2.00
   5  -1   0    8.30    4.60
  -5   1   0   11.00    4.40
  -5   1   0   11.10    1.90
   4  -1   0  160.68    8.50
   4  -1   0  152.58   11.00
  -4   1   0  153.58   10.80
  -4   1   0  167.88    8.40
   3  -1   0  240.68   14.70
   3  -1   0  231.18   11.40
  -3   1   0  213.58   13.20
  -3   1   0  225.78   11.40
   2  -1   0 3156.68  152.18
  -2   1   0 3132.19  152.18
  -2   1   0 3298.37  153.38
   1  -1   0 3164.08  141.69
  -1   1   0 2764.72  140.69
  -1   1   0 2766.92  140.79
  -1   1   0 3141.19  141.59
   0   1   0   -0.30    0.80
  -1  -1   0  138.19    7.00
   1   1   0  144.29    7.00
   1   1   0  145.59    6.90
   1   1   0  138.59    7.30
   1   1   0  142.89    7.70
  -2  -1   0   23.70    3.00
  -2  -1   0   26.30    1.90
   2   1   0   22.40    1.80
   2   1   0   21.80    2.90
  -3  -1   0  397.46   19.50
  -3  -1   0  415.86   20.70
   3   1   0  391.66   20.80
  -4  -1   0   55.09    5.50
  -4  -1   0   42.20    3.20
   4   1   0   40.50    3.40
   4   1   0   47.40    5.30
  -5  -1   0    0.90    3.10
  -5  -1   0    0.30    1.60
   5   1   0    0.30    1.60
   5   1   0    2.10    3.40
  -6  -1   0   27.60    5.30
  -6  -1   0   29.90    2.90
   6   1   0   35.70    3.20
   6   1   0   24.10    5.50
  -7  -1   0   18.80    5.30
  -7  -1   0   26.80    2.90
   7   1   0   17.00    5.50
   7   1   0   20.40    2.90
  -8  -1   0   64.79   13.20
  -8  -1   0   66.69    5.20
   8   1   0   76.79    9.60
   8   1   0   70.89    5.60
  -9  -1   0    2.60    5.50
   9   1   0   -3.20    3.00
   9   1   0    5.30    6.70
  10   1   0   19.90    4.40
  10   1   0   29.00    8.80
  11   1   0   21.00    5.00
  11   1   0   19.40    9.40
  12   1   0   -2.90    4.80
  12   1   0   11.80   10.30
  13   1   0   -5.30    5.20
  13   1   0   -1.80   11.10
  13  -2   0    7.60   12.20
  13  -2   0    4.20    5.70
  12  -2   0   -0.60    5.40
  12  -2   0    6.10   11.50
  11  -2   0   23.40   10.90
  11  -2   0   11.10    5.30
  10  -2   0   18.10   10.30
  10  -2   0    9.90    4.50
   9  -2   0    5.90    3.80
   9  -2   0   -1.10    8.20
   8  -2   0    4.00    6.60
   8  -2   0    0.50    3.10
  -8   2   0    4.60    2.50
  -8   2   0    5.40    5.50
   7  -2   0    3.20    2.70
   7  -2   0   -0.30    5.20
  -7   2   0   -0.70    2.10
  -7   2   0   -0.10    4.70
   6  -2   0    3.00    4.90
   6  -2   0    4.60    2.50
  -6   2   0   -1.20    1.90
  -6   2   0    1.00    4.20
   5  -2   0   29.90    6.60
   5  -2   0   42.60    3.50
  -5   2   0   29.80    2.90
  -5   2   0   33.70    6.00
   4  -2   0   11.00    2.20
   4  -2   0   16.70    5.10
  -4   2   0   14.40    4.60
  -4   2   0   12.00    1.90
   3  -2   0  236.18   12.00
   3  -2   0  237.18   14.70
  -3   2   0  227.88   14.20
  -3   2   0  239.68   11.90
  -2   2   0 1039.00   49.10
  -2   2   0  941.61   47.20
   1  -2   0   55.79    5.60
   1  -2   0   53.99    3.10
  -1   2   0   50.69    5.40
  -1   2   0   51.39    3.10
   0  -2   0   46.40    4.60
   0  -2   0   28.40    2.10
   0   2   0   44.20    4.30
   0   2   0   28.30    2.10
  -1  -2   0  447.56   22.90
  -1  -2   0  451.65   21.80
   1   2   0  468.75   23.00
   1   2   0  437.96   21.70
  -2  -2   0 2407.56  114.39
   2   2   0 2385.16  114.29
   2   2   0 2437.56  114.49
   2   2   0 2360.36  115.09
   2   2   0 2405.76  115.69
  -3  -2   0  315.27   15.40
   3   2   0  309.87   16.50
   3   2   0  314.17   15.40
  -4  -2   0  213.98   12.40
  -4  -2   0  224.18   11.10
   4   2   0  223.38   12.70
   4   2   0  213.68   11.10
  -5  -2   0   78.69    7.00
  -5  -2   0   77.79    5.10
   5   2   0   82.89    5.10
   5   2   0   83.19    7.50
  -6  -2   0    2.60    3.70
  -6  -2   0    5.60    2.00
   6   2   0    2.60    2.10
   6   2   0    2.20    4.20
  -7  -2   0  109.29    9.20
  -7  -2   0   93.49    6.30
   7   2   0  116.49    9.90
   7   2   0   95.69    6.40
  -8  -2   0    0.10    5.70
  -8  -2   0    4.80    2.50
   8   2   0    1.20    2.50
   8   2   0    6.20    5.50
  -9  -2   0   23.90    7.10
   9   2   0   36.80    4.40
   9   2   0   26.50    7.90
  10   2   0    1.30    3.70
  10   2   0    9.10    7.70
  11   2   0   56.69   11.40
  11   2   0   65.59    6.40
  12   2   0   -7.20    8.50
  12   2   0   -0.80    4.80
  13   2   0    3.00   10.80
  13   2   0   -2.60    5.10
  13  -3   0   -0.50    6.00
  13  -3   0    2.50   13.80
  12  -3   0   28.60    6.10
  12  -3   0   27.60   13.10
  11  -3   0   -5.00    4.70
  11  -3   0    1.70   10.90
  10  -3   0   19.50   10.60
  10  -3   0   21.60    5.00
   9  -3   0    4.80    4.00
   9  -3   0   -6.80    7.80
   8  -3   0    8.00    7.70
   8  -3   0    5.20    3.20
  -8   3   0    9.70    2.70
   7  -3   0  248.68   13.60
   7  -3   0  258.87   19.10
  -7   3   0  266.87   17.50
  -7   3   0  249.48   13.40
   6  -3   0  128.99    7.60
   6  -3   0  108.09   12.40
  -6   3   0  124.29    7.20
   5  -3   0  452.45   26.10
   5  -3   0  443.66   22.00
  -5   3   0  439.76   21.80
  -5   3   0  423.46   25.10
   4  -3   0   37.00    3.50
   4  -3   0   38.50    6.80
  -4   3   0   27.00    5.70
  -4   3   0   43.30    3.40
   3  -3   0  107.79    9.70
  -3   3   0   96.39    9.00
  -3   3   0   93.19    5.90
  -3   3   0  100.59    5.50
   2  -3   0 1059.79   52.29
   2  -3   0 1018.40   49.60
  -2   3   0 1012.90   49.60
  -2   3   0 1054.89   51.89
   0  -3   0 9999.00  475.75
  -1  -3   0 9165.38  427.26
   1   3   0 8790.02  427.26
  -2  -3   0  629.74   30.20
  -2  -3   0  624.14   31.90
   2   3   0  613.94   30.20
   2   3   0  633.44   32.00
  -3  -3   0  147.99    7.90
   3   3   0  148.29    7.90
   3   3   0  139.29    9.90
   3   3   0  155.18    9.20
  -4  -3   0    2.60    1.70
   4   3   0    3.80    1.80
   4   3   0    3.70    3.10
   4   3   0    1.50    3.50
  -5  -3   0   77.99    5.40
  -5  -3   0   81.89    5.20
  -5  -3   0   80.09    8.30
   5   3   0   83.39    5.40
   5   3   0   84.59    7.50
  -6  -3   0  319.17   17.90
  -6  -3   0  316.47   15.60
  -6  -3   0  303.27   15.70
   6   3   0  299.47   18.10
   6   3   0  311.77   15.80
  -7  -3   0  540.55   28.10
  -7  -3   0  501.35   25.60
   7   3   0  499.05   25.60
   7   3   0  534.45   28.30
  -8  -3   0   -1.60    5.80
   8   3   0    8.30    5.40
   8   3   0    2.90    2.80
  -9  -3   0   -3.80    5.70
   9   3   0   -5.40    6.40
   9   3   0    6.80    4.10
  10   3   0   54.69    5.70
  10   3   0   54.79   10.00
  11   3   0    9.10    4.50
  11   3   0    0.30    8.00
  12   3   0   23.70    5.50
  12   3   0   30.40   10.60
  13   3   0    5.10    5.30
  13   3   0   12.90   11.20
  13  -4   0   18.20    6.70
  13  -4   0   15.60   14.40
  12  -4   0   -4.00    5.80
  12  -4   0   -0.20   12.00
  11  -4   0    5.50    5.30
  11  -4   0    9.20   11.70
  10  -4   0   -0.20    4.70
  10  -4   0  -11.20    9.60
   9  -4   0    7.90    9.60
   8  -4   0    2.30   13.80
   8  -4   0    8.20    4.10
   7  -4   0  205.78   18.10
   7  -4   0  226.48   12.20
  -7   4   0  202.28   11.60
   6  -4   0   13.80    6.90
  -6   4   0   17.20    6.10
  -6   4   0   18.00    2.80
  -6   4   0   20.40    3.00
   5  -4   0   13.20    6.10
  -5   4   0    6.20    2.30
  -5   4   0   11.90    5.30
  -5   4   0    8.80    2.10
  -4   4   0  399.36   20.00
  -4   4   0  418.36   20.30
  -4   4   0  397.96   23.60
   3  -4   0   -3.50    4.30
  -3   4   0    0.20    2.00
  -3   4   0    5.40    4.60
  -3   4   0    0.70    1.60
   2  -4   0 2474.95  118.99
   2  -4   0 2562.54  122.19
  -2   4   0 2472.15  121.69
  -2   4   0 2466.35  119.09
   1  -4   0 5925.01  277.67
  -1   4   0 5827.62  279.97
  -1   4   0 5734.23  277.67
   0  -4   0 6774.52  318.37
   0  -4   0 6879.71  320.77
   0   4   0 6654.43  320.47
   0   4   0 6434.76  318.27
  -1  -4   0 1634.54   78.29
  -1  -4   0 1601.14   75.89
   1   4   0 1562.54   77.99
   1   4   0 1544.35   75.89
  -2  -4   0  341.17   16.60
  -2  -4   0  334.27   19.10
   2   4   0  327.67   16.60
   2   4   0  337.47   19.00
  -3  -4   0  443.86   21.60
   3   4   0  437.36   21.60
   3   4   0  437.06   24.00
  -4  -4   0   88.09    5.60
   4   4   0   95.29    7.80
   4   4   0   93.29    8.70
   4   4   0   85.49    5.80
  -5  -4   0   77.89    5.30
   5   4   0   81.59    7.50
   5   4   0   78.59    9.00
   5   4   0   80.99    5.40
  -6  -4   0   68.89    5.10
   6   4   0   76.59    5.30
   6   4   0   76.19    7.90
   6   4   0   61.89    8.40
  -7  -4   0   -2.00    2.20
   7   4   0   -0.70    2.40
   7   4   0    2.30    4.80
   7   4   0   -1.80    4.10
   8   4   0   22.10    6.70
   8   4   0   25.50    3.80
  -9  -4   0   34.60    7.20
  -9  -4   0   25.50    3.70
   9   4   0   38.40    8.40
   9   4   0   41.20    4.90
  10   4   0    5.80    7.30
  10   4   0    6.30    4.00
  11   4   0   12.30    8.80
  11   4   0   -1.20    4.30
  12   4   0   40.70   11.10
  12   4   0   40.30    6.10
  13   4   0    4.20    5.50
  13   4   0   12.40   10.60
  13  -5   0    7.50   15.30
 -13   5   0   -7.60    6.70
  12  -5   0   16.50   14.10
 -12   5   0   12.10    6.30
  11  -5   0   -7.00   11.20
 -11   5   0    3.30    5.50
  10  -5   0   17.70   11.70
 -10   5   0   18.40    4.80
   9  -5   0   16.40   10.60
  -9   5   0    5.00    3.90
   8  -5   0   12.30    9.40
   7  -5   0    7.10    7.70
  -7   5   0    4.80    3.00
  -7   5   0   -1.90    2.50
   6  -5   0   29.10    8.50
  -6   5   0   13.60    7.10
  -6   5   0   17.00    3.20
  -6   5   0   18.50    2.90
   5  -5   0    6.10    6.70
  -5   5   0    4.60    5.10
  -5   5   0    1.00    2.60
  -5   5   0    1.10    2.20
   4  -5   0  124.59   12.60
  -4   5   0  123.19    7.40
  -4   5   0  115.89   12.30
  -4   5   0  116.29    7.00
   3  -5   0  378.16   23.80
   3  -5   0  402.16   19.10
  -3   5   0  369.66   23.00
  -3   5   0  382.46   19.20
   2  -5   0  774.72   41.80
   2  -5   0  803.02   38.00
  -2   5   0  784.82   41.40
  -2   5   0  769.82   37.90
   1  -5   0  600.34   28.70
   1  -5   0  612.14   32.40
  -1   5   0  571.94   31.70
  -1   5   0  572.64   28.70
   0  -5   0    7.90    4.60
   0  -5   0    6.10    1.90
   0   5   0    6.00    4.30
   0   5   0    2.20    1.80
  -1  -5   0  470.55   22.40
  -1  -5   0  461.15   25.50
   1   5   0  465.65   25.30
   1   5   0  427.96   22.30
  -2  -5   0  454.95   25.30
  -2  -5   0  451.15   22.40
   2   5   0  454.75   25.30
   2   5   0  455.35   22.40
  -3  -5   0   13.70    2.60
  -3  -5   0   19.60    5.20
   3   5   0   23.60    5.70
   3   5   0   20.20    2.80
  -4  -5   0   18.60    2.60
   4   5   0   15.60    5.10
   4   5   0   14.80    2.10
   4   5   0   14.10    4.20
   4   5   0   20.00    2.60
  -5  -5   0  178.48   10.00
   5   5   0  192.68   12.30
   5   5   0  185.48   10.10
   5   5   0  186.08   13.50
  -6  -5   0   57.39    4.90
   6   5   0   73.59    9.70
   6   5   0   57.89    5.10
   6   5   0   67.89    7.80
   7   5   0    4.80    5.60
   7   5   0   11.30    3.20
   7   5   0   17.90    5.80
   8   5   0    2.20    3.40
   8   5   0   -0.40    5.80
   8   5   0   -0.30    5.30
   9   5   0    1.40    6.30
   9   5   0    0.90    6.10
   9   5   0   -7.60    3.50
  10   5   0   10.00    7.70
  10   5   0   -5.30    3.80
  11   5   0   -2.10    4.20
  11   5   0    2.40    8.10
  12   5   0   -4.80    5.00
  12   5   0   -2.40    8.70
  12  -6   0   14.50   15.60
 -12   6   0   -1.00    6.00
  11  -6   0   16.60   13.50
 -11   6   0   22.20    5.70
  10  -6   0   -4.40   11.60
 -10   6   0   -2.90    4.40
   9  -6   0   15.20   11.80
  -9   6   0    2.50    4.10
   8  -6   0    3.50    9.70
  -8   6   0   -1.10    3.60
   7  -6   0  103.59   15.50
  -7   6   0   95.59    7.10
   6  -6   0    3.30    7.40
  -6   6   0    8.80    2.90
  -6   6   0    6.30    3.10
   5  -6   0    7.70    7.00
  -5   6   0    8.90    3.00
  -5   6   0    7.90    8.30
  -5   6   0   13.60    2.80
   4  -6   0  188.78   16.40
  -4   6   0  192.48   10.30
  -4   6   0  161.78   14.70
  -4   6   0  199.48   10.80
   3  -6   0   17.20    7.20
   3  -6   0   10.50    2.10
  -3   6   0   10.80    2.50
  -3   6   0    7.10    5.50
   2  -6   0    2.80    1.90
   2  -6   0   -5.00    5.00
  -2   6   0    1.00    4.30
  -2   6   0    6.40    2.20
   1  -6   0  670.93   32.40
   1  -6   0  707.13   36.90
  -1   6   0  641.24   32.30
  -1   6   0  637.84   35.80
   0  -6   0 1664.13   82.19
   0  -6   0 1655.53   78.29
   0   6   0 1605.64   81.59
   0   6   0 1597.94   78.29
  -1  -6   0 1266.37   60.29
  -1  -6   0 1282.37   63.99
   1   6   0 1229.18   60.29
   1   6   0 1227.38   63.49
  -2  -6   0   10.60    2.20
  -2  -6   0    3.10    4.80
   2   6   0   12.70    2.40
   2   6   0    4.90    4.70
  -3  -6   0   -0.30    5.00
  -3  -6   0    5.70    2.10
   3   6   0   10.50    2.40
   3   6   0    4.00    4.60
  -4  -6   0  135.69    8.20
   4   6   0  160.38   12.20
   4   6   0  140.69    7.90
   4   6   0  146.89    8.30
   4   6   0  143.19   10.50
  -5  -6   0   44.50    4.30
   5   6   0   46.80    8.30
   5   6   0   54.19    4.70
   5   6   0   51.99    6.70
   6   6   0   67.99    8.20
   6   6   0   66.49    5.80
   6   6   0   74.09   10.20
   7   6   0   59.39   10.70
   7   6   0   53.39    5.20
   7   6   0   55.49    8.30
   8   6   0   30.70    7.20
   8   6   0   34.70    4.70
   8   6   0   26.70    8.10
   9   6   0   -4.50    6.20
   9   6   0   -0.80    3.90
  10   6   0   10.90    4.70
  10   6   0   12.50    7.80
  11   6   0   36.90    9.70
  11   6   0   22.50    5.40
  12   6   0    0.70    5.00
  12   6   0   18.70    9.40
  12  -7   0    3.80   25.10
 -12   7   0   15.40    6.40
  11  -7   0    6.30   13.90
 -11   7   0    3.90    5.60
  10  -7   0   -3.10   12.50
 -10   7   0  -14.30    4.70
   9  -7   0  -12.50   10.40
  -9   7   0    0.80    4.30
   8  -7   0  117.29   18.20
  -8   7   0  153.88    9.90
   7  -7   0   -3.20    8.90
  -7   7   0    3.00    3.50
   6  -7   0   25.60   10.20
  -6   7   0   22.60    3.80
   5  -7   0   51.79   12.80
  -5   7   0   63.99    5.50
   4  -7   0   20.00    8.00
  -4   7   0   25.40    3.80
  -4   7   0   21.90    3.20
   3  -7   0   86.99   12.10
   3  -7   0   69.99    5.00
  -3   7   0   64.59    9.70
  -3   7   0   71.19    5.40
   2  -7   0  151.38    8.40
   2  -7   0  142.29   14.20
  -2   7   0  129.79   12.90
  -2   7   0  150.58    8.50
   1  -7   0 3196.88  151.68
   1  -7   0 3210.58  146.89
  -1   7   0 3026.50  146.79
  -1   7   0 2828.02  151.98
   0  -7   0 2728.53  129.09
   0  -7   0 2706.33  133.49
   0   7   0 2664.03  129.09
   0   7   0 2685.03  132.99
  -1  -7   0    3.90    2.20
  -1  -7   0   10.20    5.70
   1   7   0    7.10    2.50
   1   7   0    8.60    5.40
  -2  -7   0   18.80    6.60
  -2  -7   0   11.90    2.80
   2   7   0   17.00    6.10
   2   7   0   16.30    3.00
  -3  -7   0  139.89    8.20
  -3  -7   0  166.18   12.90
   3   7   0  134.49    8.30
   3   7   0  136.39   12.40
  -4  -7   0   37.60    7.60
   4   7   0   36.60    3.80
   4   7   0   25.00    6.60
   5   7   0   64.79   11.60
   5   7   0   51.89    4.40
   5   7   0   58.09    4.90
   5   7   0   49.40    7.40
   6   7   0   29.10    7.70
   6   7   0   25.50    3.80
   6   7   0   17.90    5.80
   7   7   0  133.39    8.90
   7   7   0  143.79   12.30
   7   7   0  111.79   13.90
   8   7   0   14.40    4.20
   8   7   0    8.10    6.50
   8   7   0   16.40    8.00
   9   7   0    3.70    4.20
   9   7   0   13.30    7.10
  10   7   0   19.50    5.10
  10   7   0   17.90   10.60
  11   7   0   49.10    6.80
  11   7   0   40.70   10.10
  11  -8   0   -5.10   17.00
 -11   8   0   -2.10    6.10
  10  -8   0   11.30   14.40
 -10   8   0    4.80    5.50
   9  -8   0   53.99   15.80
  -9   8   0  112.19    9.00
   8  -8   0    4.30   10.60
  -8   8   0   -2.80    4.20
   7  -8   0   21.60   12.00
   6  -8   0    9.60   10.10
  -6   8   0    6.10    3.50
   5  -8   0   82.49   14.30
  -5   8   0   87.89   10.30
   4  -8   0   -2.40    7.50
  -4   8   0    4.60    2.90
   3  -8   0   50.09   10.80
  -3   8   0   45.30    4.30
   2  -8   0  634.44   38.50
  -2   8   0  675.33   32.60
   1  -8   0  466.65   28.70
  -1   8   0  464.05   23.00
  -1   8   0  432.86   27.80
   0  -8   0   61.79   10.50
   0   8   0   99.19    6.30
   0   8   0   71.39   10.80
  -1  -8   0   17.40    7.20
   1   8   0   25.00    3.40
   1   8   0   24.20    7.60
  -2  -8   0  270.17   19.00
   2   8   0  261.77   18.50
   2   8   0  251.27   13.80
  -3  -8   0   85.19   11.40
   3   8   0   67.89    5.80
   3   8   0   72.39   10.60
  -4  -8   0   33.70    8.30
   4   8   0   16.00    6.90
   4   8   0   32.30    3.90
   5   8   0    1.20    5.90
   5   8   0    7.00    5.00
   5   8   0   -0.20    2.40
   5   8   0   -0.70    2.90
   6   8   0   36.20    9.40
   6   8   0   41.70    7.80
   6   8   0   43.10    5.00
   7   8   0   18.30    9.90
   7   8   0   30.30    7.40
   7   8   0   31.90    4.80
   8   8   0   -2.10    4.00
   8   8   0    0.90    6.50
   9   8   0   20.60    5.30
   9   8   0   54.29   16.60
  10   8   0   12.20    5.10
  10   8   0   17.80    8.20
  11   8   0    8.30    5.40
  11   8   0   -2.20    7.90
  11  -9   0   11.80   17.40
 -11   9   0    5.40    6.60
  10  -9   0   -8.30   13.50
 -10   9   0   13.40    6.10
   9  -9   0   -6.80   12.00
  -9   9   0   -9.30    5.10
   8  -9   0    1.00   12.40
  -8   9   0    2.10    5.00
   7  -9   0   -4.60   10.40
  -7   9   0   -4.90    4.00
   6  -9   0    1.60   10.30
  -6   9   0   15.50    4.30
   5  -9   0   20.40   10.70
  -5   9   0   20.40    4.10
   4  -9   0    6.20    9.70
  -4   9   0   23.20    4.00
   3  -9   0  289.17   24.10
  -3   9   0  297.17   15.80
   2  -9   0   89.39   18.10
  -2   9   0  117.59    7.70
   1  -9   0  141.59   15.40
  -1   9   0  131.99    8.60
   0  -9   0  220.08   19.00
   0   9   0  239.88   12.90
  -1  -9   0  372.96   25.90
   1   9   0  400.96   20.10
  -2  -9   0  123.29   14.50
   2   9   0  110.09   15.50
   2   9   0   93.99    7.40
  -3  -9   0  311.67   21.50
   3   9   0  314.57   15.80
   3   9   0  223.28   22.20
  -4  -9   0   13.30    7.30
   4   9   0    2.20    3.40
   5   9   0   24.80    7.20
   5   9   0   33.70    4.00
   5   9   0   29.10    4.30
   6   9   0   -1.50    5.50
   6   9   0    5.90    3.80
   7   9   0   23.30    4.90
   7   9   0   34.70    8.30
   8   9   0    2.60   11.60
   8   9   0   -3.60    4.30
   9   9   0    6.80    7.60
   9   9   0   11.20    5.10
  10   9   0    1.90    4.90
  10   9   0    8.10    7.90
  10 -10   0   -0.10   15.60
 -10  10   0    0.60    6.50
   9 -10   0   -7.70   14.70
  -9  10   0    7.10    5.70
   8 -10   0  -10.60   12.00
  -8  10   0   13.70    5.40
   7 -10   0   68.59   16.90
  -7  10   0  127.99    9.30
   6 -10   0   21.60   13.40
  -6  10   0   22.70    5.00
   5 -10   0   64.49   15.20
  -5  10   0   66.29    6.40
   4 -10   0    4.20    9.90
  -4  10   0    6.70    3.70
   3 -10   0   21.00   10.80
  -3  10   0   32.60    4.70
   2 -10   0  180.68   19.30
  -2  10   0  166.78   10.60
   1 -10   0  289.27   23.80
  -1  10   0  306.27   16.30
   0 -10   0  319.57   24.10
   0  10   0  311.07   16.90
  -1 -10   0  166.28   18.00
   1  10   0  196.08   11.30
   2  10   0   56.29    5.60
   3  10   0    4.10    3.50
   4  10   0   54.39    5.60
   5  10   0    4.90    3.90
   6  10   0  205.78   12.20
   6  10   0  183.98   15.80
   7  10   0   15.20    7.30
   7  10   0   18.60    5.00
   8  10   0  -14.00    6.60
   8  10   0    1.70    4.70
   9  10   0   -3.10    7.70
   9  10   0   -3.60    4.90
   9 -11   0    2.80   14.70
  -9  11   0    0.10    5.70
   8 -11   0   25.50   21.00
  -8  11   0   11.40    5.70
   7 -11   0  -16.40   12.10
  -7  11   0   -3.50    4.80
   6 -11   0   -6.60   12.00
  -6  11   0    2.80    4.70
   5 -11   0   55.39   15.60
  -5  11   0   36.90    5.50
   4 -11   0   -5.20   10.70
  -4  11   0    6.40    4.20
   3 -11   0  139.89   20.20
  -3  11   0  148.09   10.00
   2 -11   0  190.68   21.60
  -2  11   0  210.58   12.50
   1 -11   0  137.59   18.60
  -1  11   0  132.09    9.40
   0 -11   0  160.28   20.70
   0  11   0  208.88   12.00
  -1 -11   0   35.20   10.90
   1  11   0   16.80    4.30
  -2 -11   0   55.19   12.40
   2  11   0   45.00    5.60
  -3 -11   0  153.48   18.90
   3  11   0  162.08   10.60
  -4 -11   0   26.00   10.70
   4  11   0   26.90    4.80
   5  11   0   69.19   10.60
   5  11   0   68.59    6.10
   5  11   0   61.39    6.40
   6  11   0    9.30    3.60
   6  11   0    3.20    4.50
   6  11   0    9.80    7.20
   7  11   0   -4.30    4.60
   7  11   0    5.30    7.30
   8  11   0    7.70    8.30
   8  11   0    2.80    7.80
   8 -12   0    3.00   16.20
  -8  12   0   -2.20    6.20
   7 -12   0   14.60   16.70
  -7  12   0   14.40    5.50
   6 -12   0   26.60   15.10
  -6  12   0   18.50    5.60
   5 -12   0    6.40   13.20
  -5  12   0    2.20    4.80
   4 -12   0   -0.30   12.70
  -4  12   0   22.20    5.20
   3 -12   0   63.59   16.30
  -3  12   0   95.89    8.50
   2 -12   0   -3.00   10.30
  -2  12   0   -7.10    4.00
   1 -12   0    3.90   10.50
  -1  12   0   15.20    4.60
   0 -12   0   49.60   14.00
   0  12   0   58.09    6.20
  -1 -12   0   69.89   14.90
   1  12   0   63.79    6.50
  -2 -12   0   16.40   10.90
   2  12   0   33.20    5.20
  -3 -12   0   26.20   11.40
   3  12   0   16.30    4.90
  -4 -12   0   32.60   11.50
   4  12   0   72.69    6.90
   5  12   0   38.80    5.70
   6  12   0    9.50    4.90
   6  12   0   -3.50    3.60
   6  12   0   14.90    8.40
   7  12   0  -10.50    7.70
   7  12   0    0.20    5.00
   7 -13   0   -7.60   15.70
  -7  13   0   -9.00    5.60
   6 -13   0   12.60   15.20
  -6  13   0   -4.80    8.90
  -5  13   0   -6.30    5.00
   4 -13   0   26.70   15.60
  -4  13   0   34.40    6.10
   3 -13   0   27.00   14.50
  -3  13   0    5.80    5.20
   2 -13   0    5.00   12.40
  -2  13   0    3.60    4.50
   1 -13   0   96.69   19.00
  -1  13   0  152.98   10.40
   0 -13   0  227.88   24.70
   0  13   0  227.88   14.10
  -1 -13   0   -0.30   10.40
   1  13   0    2.80    4.80
  -2 -13   0    3.70   10.60
   2  13   0    7.00    4.90
  -3 -13   0   25.60   12.40
   3  13   0   27.80    5.70
  -4 -13   0    0.60    9.90
   4  13   0    4.60    7.80
   5  13   0    2.40    4.60
   6  13   0   16.00    5.80
   6  13   0    8.30    4.50
   6  13   0   28.00    9.80
   5 -14   0  -10.40   14.70
  -5  14   0   11.30    5.90
   4 -14   0   -0.60   14.20
  -4  14   0   -2.40    5.30
   3 -14   0    8.20   24.20
  -3  14   0    6.40    5.20
   2 -14   0   56.19   17.50
  -2  14   0   77.79    9.00
   1 -14   0  114.69   20.10
  -1  14   0  105.69   12.70
   0 -14   0    7.60   12.10
   0  14   0   15.00    7.00
  -1 -14   0    5.20   11.90
   1  14   0   -2.00    5.00
  -2 -14   0   41.50   14.60
   2  14   0   40.50    6.40
  -3 -14   0    6.70   11.00
   3  14   0   15.50    5.50
  -4 -14   0    2.30   10.40
   4  14   0   -5.00    5.20
   3  14  -1    0.50    5.10
  -3 -14   1   -1.40   11.60
   2  14  -1   21.00    5.70
  -2 -14   1    9.10   12.80
   1  14  -1   14.30    5.50
  -1 -14   1   14.60   12.90
   0  14  -1    1.90    5.00
   0 -14   1   12.10   13.70
  -1  14  -1   47.30    6.60
   1 -14   1   58.19   18.20
  -2  14  -1   16.30    5.50
   2 -14   1   12.90   27.60
  -3  14  -1    8.70    5.40
   3 -14   1    9.40   14.80
  -4  14  -1    5.40    5.80
   4 -14   1   24.60   16.40
   5  13  -1   -1.10    4.10
   5  13  -1   -2.10    5.00
   5  13  -1    1.70    8.20
   4  13  -1    5.20    5.10
  -4 -13   1    6.00   10.80
   3  13  -1   17.90    5.90
  -3 -13   1   12.80   11.80
   2  13  -1   -2.70    4.50
  -2 -13   1    5.40   11.90
   1  13  -1   -3.70    4.60
  -1 -13   1    4.30   11.50
   0  13  -1  142.89   10.50
   0 -13   1  112.89   19.40
  -1  13  -1   80.29    7.60
   1 -13   1   50.79   16.30
  -2  13  -1    4.60    4.80
   2 -13   1   12.50   12.70
  -3  13  -1   19.10    5.30
   3 -13   1   18.70   14.60
  -4  13  -1   47.20    6.80
   4 -13   1   53.19   17.40
  -5  13  -1    6.10    9.40
   5 -13   1   -1.30   14.90
  -6  13  -1    7.70    5.50
   6 -13   1   -8.50   16.40
   7  12  -1    9.40    8.80
   7  12  -1   -5.80    5.00
   6  12  -1   11.10    9.40
   6  12  -1   24.20    4.90
   5  12  -1   53.29    5.90
   5  12  -1   46.30   10.80
   5  12  -1   54.49    6.60
   4  12  -1   62.99    6.70
  -4 -12   1   61.39   15.00
   3  12  -1    6.00    4.60
  -3 -12   1   -4.80    9.10
   2  12  -1    1.30    4.40
  -2 -12   1   -3.50    9.10
   1  12  -1  124.09    9.30
  -1 -12   1  111.59   18.00
   0  12  -1   30.30    5.30
   0 -12   1   30.50   12.80
  -1  12  -1   -4.00    3.80
   1 -12   1   -0.30   10.90
  -2  12  -1    1.80    4.30
   2 -12   1    5.10   11.40
  -3  12  -1   69.49    7.00
   3 -12   1   48.50   15.10
  -4  12  -1   -2.70    4.40
   4 -12   1    1.70   13.10
  -5  12  -1    1.50    4.80
   5 -12   1    0.50   14.30
  -6  12  -1    2.30    5.10
   6 -12   1    8.30   14.40
  -7  12  -1   40.70    6.80
   7 -12   1   26.10   17.30
  -8  12  -1   -5.00    6.00
   8 -12   1    6.70   17.20
   8  11  -1   -7.50    7.90
   8  11  -1    9.00    6.40
   7  11  -1   -3.80    4.70
   7  11  -1    1.20    7.50
   6  11  -1    5.10    4.80
   6  11  -1   20.50    8.80
   5  11  -1   45.20   10.40
   5  11  -1   32.90    5.10
   5  11  -1   43.80    5.90
   4  11  -1   40.70    5.40
  -4 -11   1   38.70   11.40
   3  11  -1   62.99    6.40
  -3 -11   1   57.39   13.00
   2  11  -1  105.69    8.50
  -2 -11   1  104.19   16.40
   1  11  -1   30.70    5.00
  -1 -11   1   21.70   10.50
   0  11  -1   11.00    4.00
   0 -11   1   -2.40    8.70
  -1  11  -1   -1.60    3.90
   1 -11   1    1.30    9.60
  -2  11  -1   59.99    6.00
   2 -11   1   42.10   13.50
  -3  11  -1   17.80    4.50
   3 -11   1   26.70   13.10
  -4  11  -1    2.20    4.20
   4 -11   1    0.30   12.40
  -5  11  -1   57.59    6.30
   5 -11   1   42.50   14.50
  -6  11  -1    6.40    5.10
   6 -11   1   14.40   14.20
  -7  11  -1   -9.80    4.80
   7 -11   1   -3.80   12.60
  -8  11  -1   17.90    5.90
   8 -11   1   28.30   28.50
  -9  11  -1   13.60    7.20
   9 -11   1   -9.30   14.30
   9  10  -1   -0.20    5.20
   9  10  -1    7.60    8.50
   8  10  -1   -5.50    4.40
   8  10  -1   -1.90    7.90
   7  10  -1   20.90    5.10
   7  10  -1   27.10    8.60
   6  10  -1  185.28   11.80
   6  10  -1  191.08   16.10
   5  10  -1   -9.40    5.90
   5  10  -1    3.20    3.20
   5  10  -1    0.40    3.90
   4  10  -1   97.49    7.70
  -4 -10   1   75.19   13.60
   3  10  -1   -1.60    3.60
  -3 -10   1   -0.40    8.00
   2  10  -1   41.80    5.00
  -2 -10   1   37.60   10.50
   1  10  -1   59.39    5.70
  -1 -10   1   27.50   10.60
   0  10  -1   43.80    5.00
   0 -10   1   27.90   10.70
  -1  10  -1  147.29    9.60
   1 -10   1  131.59   18.00
  -2  10  -1   27.60    4.60
   2 -10   1   19.90   10.60
  -3  10  -1   44.00    5.20
   3 -10   1   40.30   12.30
  -4  10  -1    3.20    3.80
   4 -10   1   -5.00    9.70
  -5  10  -1  112.69    8.70
   5 -10   1   83.39   16.80
  -6  10  -1   24.50    4.90
   6 -10   1    4.60   12.30
  -7  10  -1   69.99    7.00
   7 -10   1   28.80   15.00
  -8  10  -1   11.90    5.40
   8 -10   1    3.20   13.80
  -9  10  -1    9.40    5.80
   9 -10   1   -4.60   16.30
 -10  10  -1   16.40    6.70
  10 -10   1   14.90   17.00
  10   9  -1    7.00    5.20
  10   9  -1   11.90    9.00
   9   9  -1   54.49    6.50
   9   9  -1   38.30    9.90
   8   9  -1   18.00    5.00
   8   9  -1   18.80    8.40
   7   9  -1  111.59    8.80
   7   9  -1  112.79   12.80
   6   9  -1    6.40    3.70
   6   9  -1    0.60    7.80
   5   9  -1    3.30    3.40
   5   9  -1    1.50    3.00
   5   9  -1   -0.30    5.90
   4   9  -1    7.30    3.60
  -4  -9   1    2.20    7.30
   3   9  -1  291.07   15.80
  -3  -9   1  295.77   21.90
   2   9  -1   70.59    6.10
  -2  -9   1   84.19   13.00
   1   9  -1  208.08   12.30
  -1  -9   1  239.78   19.20
   0   9  -1  179.78   10.40
   0  -9   1  161.78   17.30
  -1   9  -1   54.29    5.00
   1  -9   1   36.70   13.30
  -2   9  -1  124.09    8.30
   2  -9   1  128.69   17.20
  -3   9  -1  186.58   11.00
   3  -9   1  187.88   19.40
  -4   9  -1   88.09    7.10
   4  -9   1   79.19   14.70
  -5   9  -1   12.80    4.10
   5  -9   1    8.00   10.20
  -6   9  -1   31.20    4.90
   6  -9   1   14.20   11.00
  -7   9  -1   -2.40    4.30
   7  -9   1    9.80   12.70
  -8   9  -1   -0.80    4.90
   8  -9   1    2.40   12.20
  -9   9  -1    7.60    5.70
   9  -9   1    2.10   13.40
 -10   9  -1    9.20    6.30
  10  -9   1    4.60   16.30
 -11   9  -1   17.20    6.80
  11  -9   1   -8.50   15.20
  10   8  -1    6.30    5.00
  10   8  -1    9.30    8.60
   9   8  -1   61.29    6.60
   9   8  -1   71.49   11.20
   8   8  -1   89.99   12.40
   8   8  -1   88.99    8.10
   7   8  -1   12.90    7.00
   7   8  -1    4.00    3.90
   6   8  -1   18.10    4.00
   6   8  -1   24.70    7.20
   5   8  -1    3.70    2.80
   5   8  -1    6.30    5.60
   5   8  -1    0.20    3.10
   4   8  -1  112.09   14.40
   4   8  -1  114.39    7.80
  -4  -8   1  104.49   13.40
   3   8  -1   58.59   10.60
  -3  -8   1   44.90    9.70
   2   8  -1  250.17   13.30
   2   8  -1  247.88   18.70
  -2  -8   1  240.88   18.50
   1   8  -1  219.88   12.00
   1   8  -1  214.18   17.20
  -1  -8   1  222.28   17.50
   0   8  -1   56.09    4.90
   0   8  -1   62.99   10.30
   0  -8   1   59.69   10.60
  -1   8  -1    3.00    2.50
   1  -8   1   -3.50    6.00
  -2   8  -1  117.19    7.60
   2  -8   1  120.59   15.10
  -3   8  -1   78.99    6.10
   3  -8   1   76.89   14.00
   4  -8   1   -1.20    7.20
  -5   8  -1   98.79    7.30
   5  -8   1   72.29   13.80
  -6   8  -1   -0.40    3.40
   6  -8   1    3.30   10.00
  -7   8  -1   15.60    4.40
   7  -8   1   15.80   11.40
  -8   8  -1   -3.50    4.10
   8  -8   1   19.30   12.90
  -9   8  -1  107.19    9.30
   9  -8   1   78.69   18.10
 -10   8  -1   31.40    6.40
  10  -8   1   25.60   15.60
 -11   8  -1   10.80    6.40
  11  -8   1   -3.00   16.20
  11   7  -1   13.30    8.90
  11   7  -1   17.00    5.30
  10   7  -1    7.50    4.80
  10   7  -1    6.90    8.30
   9   7  -1    1.10    7.20
   9   7  -1    1.20    4.10
   8   7  -1   -2.50    6.30
   8   7  -1    6.90    4.00
   7   7  -1  166.38   13.80
   7   7  -1  161.58   10.20
   6   7  -1    8.20    3.20
   6   7  -1    9.20    6.80
   6   7  -1    7.90    5.30
   5   7  -1   90.19   12.50
   5   7  -1   90.29    9.60
   5   7  -1   94.09    8.70
   4   7  -1  100.59   12.80
   4   7  -1  102.79    6.90
   3   7  -1   50.59   10.30
   3   7  -1   54.19    4.80
  -3  -7   1   48.60    4.70
  -3  -7   1   47.00    8.50
   2   7  -1    8.10    2.60
  -2  -7   1    2.80    5.70
  -2  -7   1    5.30    2.30
   1   7  -1  174.38   17.00
   1   7  -1  210.48   11.20
  -1  -7   1  220.28   16.30
  -1  -7   1  208.28   11.20
   0   7  -1  219.68   11.70
   0   7  -1  185.78   16.10
   0  -7   1  221.78   11.60
   0  -7   1  224.78   17.30
  -1   7  -1  487.35   29.70
  -1   7  -1  501.55   25.20
   1  -7   1  488.35   30.60
   1  -7   1  532.05   25.20
  -2   7  -1   21.20    3.00
  -2   7  -1   22.30    7.30
   2  -7   1   14.60    2.80
   2  -7   1   25.80    8.10
  -3   7  -1   12.50    2.70
  -3   7  -1    4.00    5.70
   3  -7   1    2.80    2.10
   3  -7   1    7.80    6.90
  -4   7  -1   86.59    6.30
   4  -7   1   82.89   12.50
  -5   7  -1   27.30    3.70
  -6   7  -1    2.30    6.50
   6  -7   1   -3.80    8.30
  -7   7  -1    3.40    3.60
   7  -7   1   -2.10    9.90
  -8   7  -1  163.38   10.10
   8  -7   1  101.79   16.80
  -9   7  -1   -2.60    4.50
   9  -7   1   14.00   11.80
 -10   7  -1    2.10    5.40
  10  -7   1    1.90   12.90
 -11   7  -1    0.80    5.60
  11  -7   1    8.60   14.30
 -12   7  -1   22.60    6.90
  12   6  -1    2.60    5.20
  12   6  -1    7.20    9.50
  11   6  -1    0.10    4.70
  11   6  -1   15.60    9.00
  10   6  -1    0.00    4.30
  10   6  -1    3.10    7.90
   9   6  -1   64.89    6.40
   9   6  -1   75.79   11.50
   8   6  -1  239.78   13.70
   8   6  -1  246.98   17.60
   7   6  -1   64.09    5.60
   7   6  -1   70.39   11.20
   7   6  -1   58.39    8.90
   6   6  -1  103.49   13.00
   6   6  -1  118.19    7.70
   6   6  -1  121.39   10.90
   5   6  -1   19.70    8.00
   5   6  -1   15.00    5.30
   5   6  -1   18.00    3.20
  -5  -6   1   12.50    3.20
   4   6  -1  189.08   10.40
   4   6  -1  196.58   10.20
   4   6  -1  192.58   13.00
   4   6  -1  182.08   14.60
  -4  -6   1  187.98   10.40
   3   6  -1    8.90    5.20
   3   6  -1   18.10    2.80
  -3  -6   1   22.50    2.90
  -3  -6   1   14.90    6.00
   2   6  -1   14.60    2.70
   2   6  -1   15.30    5.50
  -2  -6   1   14.50    5.90
   1   6  -1  449.95   22.40
   1   6  -1  439.76   26.20
  -1  -6   1  439.56   26.50
  -1  -6   1  469.45   22.50
   0   6  -1  227.28   17.30
   0   6  -1  274.37   13.70
   0  -6   1  264.87   18.30
   0  -6   1  277.07   13.70
  -1   6  -1   -0.30    4.80
  -1   6  -1    0.80    2.10
   1  -6   1    1.50    5.70
   1  -6   1    6.30    2.00
  -2   6  -1  127.19    7.60
  -2   6  -1  130.99   13.40
   2  -6   1  133.99    7.70
   2  -6   1  124.79   12.80
  -3   6  -1  326.27   16.20
  -3   6  -1  308.37   20.50
   3  -6   1  312.47   16.10
   3  -6   1  315.07   21.40
  -4   6  -1  188.98   10.10
  -4   6  -1  172.28   14.80
  -4   6  -1  182.28   10.60
   4  -6   1  182.48   16.40
  -5   6  -1    6.50    3.00
  -5   6  -1    9.40    2.90
   5  -6   1    7.20    7.40
  -6   6  -1    2.40    2.70
   6  -6   1   -3.20    7.40
  -7   6  -1  151.18   10.20
   7  -6   1  136.89   17.50
  -8   6  -1   -1.40    3.70
   8  -6   1    2.20   10.20
  -9   6  -1   -6.90    4.00
   9  -6   1   -6.20    9.60
 -10   6  -1   50.19    6.50
  10  -6   1   36.00   14.30
 -11   6  -1   53.99    7.20
  11  -6   1   56.49   16.10
 -12   6  -1    1.20    6.00
  12  -6   1   -5.10   13.80
  12   5  -1    5.90    9.30
  12   5  -1    8.20    5.00
  11   5  -1   -9.50    4.40
  11   5  -1   11.90    8.90
  10   5  -1   48.50   10.20
  10   5  -1   38.50    5.30
   9   5  -1  186.18   11.50
   9   5  -1  193.98   16.10
   8   5  -1   40.60    8.60
   8   5  -1   37.70    8.80
   8   5  -1   55.79    5.30
   7   5  -1   29.90    7.10
   7   5  -1   18.00    7.20
   7   5  -1   29.00    4.20
   6   5  -1   12.50    5.40
   6   5  -1   11.70    6.00
   6   5  -1   13.20    3.00
  -6  -5   1   13.90    2.60
   5   5  -1  447.56   22.80
   5   5  -1  443.46   26.70
   5   5  -1  481.15   25.20
  -5  -5   1  463.55   22.90
   4   5  -1    6.50    1.90
   4   5  -1    5.80    2.10
   4   5  -1    4.50    4.60
   4   5  -1    3.30    3.70
  -4  -5   1    3.90    2.20
   3   5  -1   12.50    5.20
   3   5  -1   13.50    2.40
  -3  -5   1   11.30    2.20
  -3  -5   1   10.10    4.80
   2   5  -1  719.53   38.20
   2   5  -1  712.43   35.00
  -2  -5   1  721.13   38.40
  -2  -5   1  726.83   35.00
   1   5  -1  995.80   49.40
   1   5  -1 1015.20   52.49
  -1  -5   1 1033.40   49.50
  -1  -5   1 1060.09   52.79
   0   5  -1  159.58    8.80
   0   5  -1  164.38   12.30
   0  -5   1  171.88   12.80
   0  -5   1  167.78    8.80
  -1   5  -1   13.10    2.30
  -1   5  -1    9.30    4.80
   1  -5   1   11.40    2.10
   1  -5   1    8.70    5.70
  -2   5  -1  384.06   19.40
  -2   5  -1  386.76   23.00
   2  -5   1  402.06   19.30
   2  -5   1  379.46   23.60
  -3   5  -1  487.75   24.40
  -3   5  -1  474.05   28.30
   3  -5   1  510.45   24.40
   3  -5   1  508.85   29.30
  -4   5  -1   22.30    3.30
  -4   5  -1   21.60    2.80
   4  -5   1   22.40    7.10
  -5   5  -1   -0.30    5.20
  -5   5  -1    1.00    2.40
  -5   5  -1    2.00    2.60
   5  -5   1   -3.20    5.90
  -6   5  -1  254.87   13.90
  -6   5  -1  237.68   19.90
  -6   5  -1  264.77   13.70
   6  -5   1  268.27   20.30
  -7   5  -1   -0.10    2.80
   7  -5   1    0.00    7.60
  -8   5  -1   21.00    7.40
   8  -5   1   12.80    9.70
  -9   5  -1    7.50    4.00
   9  -5   1   29.00   11.90
 -10   5  -1  192.48   12.10
  10  -5   1  152.28   20.80
 -11   5  -1   20.80    6.00
  11  -5   1   29.60   13.70
 -12   5  -1   -0.90    5.90
  12  -5   1    0.70   12.90
 -13   5  -1    4.00    7.20
  13  -5   1    1.30   14.20
  12   4  -1   13.40    5.10
  12   4  -1    1.40    9.40
  11   4  -1   11.40    9.00
  11   4  -1   -3.80    4.30
  10   4  -1   20.30    4.60
  10   4  -1   17.10   14.70
   9   4  -1   31.10    8.40
   9   4  -1   42.50    4.90
   8   4  -1   -3.40    5.50
   8   4  -1    3.80    3.10
   8   4  -1   -6.90    5.30
   7   4  -1    7.30    2.70
   7   4  -1    7.10    5.30
  -7  -4   1    3.90    2.60
   6   4  -1  107.69   10.80
   6   4  -1  127.09   10.30
   6   4  -1  125.29    7.30
  -6  -4   1  118.09    7.20
   5   4  -1   78.59    5.40
   5   4  -1   75.99    7.90
   5   4  -1   82.49    9.60
  -5  -4   1   74.59    5.10
   4   4  -1   11.80    2.50
   4   4  -1   21.60    5.50
   4   4  -1   15.30    4.10
  -4  -4   1   15.10    2.30
   3   4  -1  478.65   24.00
   3   4  -1  488.55   24.00
   3   4  -1  486.25   25.70
   3   4  -1  494.05   27.10
  -3  -4   1  504.95   24.10
   2   4  -1  511.75   28.40
   2   4  -1  509.45   25.70
  -2  -4   1  550.44   25.80
  -2  -4   1  534.15   28.50
   1   4  -1   36.50    6.10
   1   4  -1   41.80    3.20
  -1  -4   1   36.10    6.20
  -1  -4   1   34.70    3.10
   0   4  -1   13.80    2.10
   0   4  -1   10.10    5.00
   0  -4   1   12.70    5.20
   0  -4   1   13.10    2.20
  -1   4  -1   81.19    8.90
  -1   4  -1   79.79    5.10
   1  -4   1   80.49    5.10
   1  -4   1  113.09   10.70
  -2   4  -1  520.85   28.40
  -2   4  -1  505.65   25.20
   2  -4   1  512.55   25.20
   2  -4   1  531.55   28.80
  -3   4  -1   -0.60    1.70
  -3   4  -1   -3.20    3.90
  -3   4  -1    1.60    2.10
   3  -4   1   -3.50    4.30
  -4   4  -1   78.79    5.50
  -4   4  -1   68.89    5.00
  -4   4  -1   74.69    9.30
   4  -4   1   75.09   10.00
  -5   4  -1  162.38    8.60
  -5   4  -1  144.59   12.70
  -5   4  -1  162.38    8.80
   5  -4   1  126.39   13.60
  -6   4  -1    7.50    5.30
  -6   4  -1    8.20    2.60
  -6   4  -1    8.70    2.60
   6  -4   1    3.10    6.10
  -7   4  -1   74.09   12.70
  -7   4  -1   72.39    5.90
   7  -4   1   77.39   12.10
   7  -4   1   76.39    6.60
   8  -4   1   19.90    9.40
   8  -4   1   11.40    4.20
   9  -4   1  106.59   15.90
   9  -4   1  124.29    9.50
  10  -4   1   25.60    5.80
  10  -4   1   27.90   12.40
  11  -4   1    6.20   11.90
  11  -4   1   -3.20    5.30
  12  -4   1    4.30    5.80
  12  -4   1   -3.10   12.40
  13  -4   1   10.30    6.50
  13  -4   1   24.90   14.70
  13   3  -1    0.50   10.30
  13   3  -1  -10.90    5.00
  12   3  -1    4.30    4.90
  12   3  -1    1.20    8.50
  11   3  -1    2.00    9.00
  11   3  -1   -3.30    4.20
  10   3  -1    6.50    4.10
  10   3  -1   13.50   15.10
   9   3  -1   23.30    7.90
   8   3  -1   35.80    8.20
   8   3  -1   46.20    4.90
  -8  -3   1   53.09    4.50
  -8  -3   1   60.79    8.50
  -8  -3   1   53.79    5.30
   7   3  -1  635.14   32.30
   7   3  -1  667.23   35.40
  -7  -3   1  678.73   35.10
  -7  -3   1  650.03   32.30
  -7  -3   1  662.43   32.30
   6   3  -1  152.58    8.50
   6   3  -1  152.48   11.50
  -6  -3   1  151.58   10.80
  -6  -3   1  148.99    8.30
  -6  -3   1  153.08    8.40
   5   3  -1  231.98   14.80
   5   3  -1  244.18   12.70
  -5  -3   1  260.47   14.80
  -5  -3   1  246.18   12.60
  -5  -3   1  249.68   12.60
   4   3  -1   41.10    3.70
   4   3  -1   48.30    5.70
   4   3  -1   57.19    7.30
  -4  -3   1   46.30    3.60
   3   3  -1   59.19    4.00
   3   3  -1   61.39    5.80
   3   3  -1   73.19    7.10
  -3  -3   1   63.89    4.10
   2   3  -1  811.62   41.70
   2   3  -1  814.12   39.40
  -2  -3   1  826.62   39.50
  -2  -3   1  824.32   41.60
   1   3  -1   69.29    7.60
   1   3  -1   57.99    4.10
  -1  -3   1   66.19    4.00
  -1  -3   1   77.59    7.70
   0   3  -1  207.08   13.00
   0   3  -1  195.28   10.20
   0  -3   1  206.18   13.00
   0  -3   1  201.58   10.20
  -1   3  -1   36.60    3.10
  -1   3  -1   26.30    5.60
   1  -3   1   37.40    3.10
   1  -3   1   35.80    6.30
  -2   3  -1  118.19    6.50
  -2   3  -1  122.59    9.70
   2  -3   1  112.09    6.40
   2  -3   1  135.39   10.30
  -3   3  -1    0.30    4.20
  -3   3  -1    1.60    1.80
  -3   3  -1    2.30    1.50
   3  -3   1    5.20    4.60
  -4   3  -1   67.79    8.10
  -4   3  -1   55.09    4.40
   4  -3   1   61.19    8.60
   4  -3   1   63.99    4.80
  -5   3  -1  554.24   27.60
  -5   3  -1  561.54   30.80
   5  -3   1  554.64   27.80
   5  -3   1  580.14   31.90
  -6   3  -1  239.68   17.00
  -6   3  -1  250.67   13.10
   6  -3   1  257.47   13.40
   6  -3   1  247.08   18.00
  -7   3  -1   85.99   10.20
  -7   3  -1   74.59    5.60
   7  -3   1   77.99   11.50
   7  -3   1   86.59    6.20
   8  -3   1   23.60    3.90
   8  -3   1   31.90    9.10
  10  -3   1  102.59    8.60
  10  -3   1   79.39   14.40
  11  -3   1    2.80    5.10
  11  -3   1   -1.10   10.80
  12  -3   1   31.90    6.50
  12  -3   1   26.80   12.50
  13  -3   1   10.10   13.80
  13  -3   1   -3.10    5.80
  13   2  -1   16.00   11.10
  13   2  -1   -0.80    5.40
  12   2  -1   -2.70    9.80
  12   2  -1  -10.70    4.40
  11   2  -1   12.20    4.30
  11   2  -1   27.00    9.80
  10   2  -1  188.78   25.30
  10   2  -1  181.68   11.20
   9   2  -1   38.30    8.80
   9   2  -1   42.90    4.70
   8   2  -1  378.36   22.20
   8   2  -1  356.36   18.00
  -8  -2   1  336.07   21.10
  -8  -2   1  340.27   17.90
   7   2  -1  106.99    6.90
   7   2  -1  115.19   10.60
  -7  -2   1  119.99   10.00
   6   2  -1   66.79    7.80
   6   2  -1   66.29    4.70
  -6  -2   1   68.69    7.20
  -6  -2   1   57.79    4.50
   5   2  -1   31.60    3.10
   5   2  -1   31.20    5.70
  -5  -2   1   36.90    5.60
  -5  -2   1   39.40    3.20
   4   2  -1  275.87   15.80
   4   2  -1  270.47   14.00
  -4  -2   1  297.27   15.80
  -4  -2   1  280.97   14.00
   3   2  -1    5.70    3.40
   3   2  -1    8.60    1.80
  -3  -2   1   11.20    1.80
  -3  -2   1    9.20    1.70
  -3  -2   1    8.60    3.30
   2   2  -1 3655.43  177.18
   2   2  -1 3640.24  176.38
   2   2  -1 3762.32  175.48
  -2  -2   1 3668.53  175.38
   1   2  -1   18.50    1.80
   1   2  -1   15.80    3.80
  -1  -2   1   17.90    2.00
  -1  -2   1   20.30    3.90
   0   2  -1  598.64   30.10
   0   2  -1  580.74   28.50
   0  -2   1  585.54   28.50
   0  -2   1  609.54   30.20
  -1   2  -1    7.40    1.30
   1  -2   1    6.30    3.30
  -2   2  -1  628.84   32.20
  -2   2  -1  598.44   30.70
  -2   2  -1  648.04   30.30
  -3   2  -1 2581.84  128.19
  -3   2  -1 2674.53  126.39
   3  -2   1 2705.33  128.69
   3  -2   1 2622.14  126.39
  -4   2  -1  132.49    9.50
  -4   2  -1  114.69    6.60
   4  -2   1  118.49   10.20
   4  -2   1  115.99    6.80
  -5   2  -1  169.88    8.90
  -5   2  -1  157.08   11.90
   5  -2   1  163.98   12.90
   5  -2   1  163.08    9.10
  -6   2  -1  150.88    8.30
  -6   2  -1  148.49   11.80
   6  -2   1  149.59    8.70
   6  -2   1  148.89   13.20
  -7   2  -1   37.50    3.60
  -7   2  -1   36.70   11.20
   7  -2   1   54.59    9.20
   7  -2   1   40.70    4.20
  -8   2  -1   34.90    7.50
  -8   2  -1   29.10    3.50
   8  -2   1   33.50    8.80
   8  -2   1   34.90    4.30
   9  -2   1  252.37   14.60
   9  -2   1  266.37   21.00
  10  -2   1   16.40    9.90
  10  -2   1   22.50    5.20
  11  -2   1   32.70    5.80
  11  -2   1   37.80   11.70
  12  -2   1  -11.40   10.10
  12  -2   1   -2.70    5.30
  13  -2   1   20.90   12.80
  13  -2   1    5.50    6.00
  13   1  -1   -0.60    5.20
  13   1  -1   -7.70   10.50
  12   1  -1   19.80    5.30
  12   1  -1   17.50   11.40
  11   1  -1   25.70   10.40
  11   1  -1   33.70    5.40
  10   1  -1  144.99   21.50
  10   1  -1  117.79    8.70
   9   1  -1  243.68   13.70
   9   1  -1  261.17   18.80
   8   1  -1    2.20    6.10
   8   1  -1   -3.50    2.40
  -8  -1   1   -2.70    2.30
  -8  -1   1   -4.60    4.80
   7   1  -1   -2.20    4.60
   7   1  -1    6.20    2.20
  -7  -1   1    4.70    2.10
  -7  -1   1    1.30    4.40
   6   1  -1   19.80    2.50
   6   1  -1   11.00    4.80
  -6  -1   1   20.10    2.50
  -6  -1   1   22.20    4.90
   5   1  -1   55.99    4.10
   5   1  -1   63.19    7.00
  -5  -1   1   61.09    4.10
  -5  -1   1   68.09    6.70
   4   1  -1   17.10    2.00
   4   1  -1   15.50    4.00
  -4  -1   1   16.50    3.90
  -4  -1   1   22.00    2.10
   3   1  -1 1217.98   56.29
   3   1  -1 1069.29   54.19
  -3  -1   1 1110.89   54.09
  -3  -1   1 1131.79   55.29
   2   1  -1  651.13   32.00
   2   1  -1  638.34   31.00
  -2  -1   1  655.53   32.00
  -2  -1   1  637.74   31.00
   1   1  -1  361.46   17.50
   1   1  -1  366.66   17.50
   1   1  -1  352.96   18.20
   1   1  -1  374.26   18.80
  -1  -1   1  365.16   17.50
   0   1  -1   70.69    3.50
   0   1  -1   61.29    4.60
   0  -1   1   72.49    4.80
  -1   1  -1  124.39    6.30
  -1   1  -1  128.09    7.40
   1  -1   1  118.79    7.50
  -2   1  -1  303.87   16.50
  -2   1  -1  318.17   15.10
   2  -1   1  309.77   16.70
   2  -1   1  300.57   15.10
  -3   1  -1  668.83   32.30
  -3   1  -1  649.14   33.90
   3  -1   1  667.63   32.40
   3  -1   1  695.53   35.00
  -4   1  -1  424.76   23.10
  -4   1  -1  430.26   21.10
   4  -1   1  427.56   23.50
   4  -1   1  436.16   21.20
  -5   1  -1   28.90    2.80
  -5   1  -1   25.80    5.40
   5  -1   1   22.80    5.70
   5  -1   1   29.70    3.00
  -6   1  -1   24.40    5.70
  -6   1  -1   27.40    2.80
   6  -1   1   23.50    3.00
   6  -1   1   31.70    6.40
  -7   1  -1    0.40    4.20
   7  -1   1   -3.20    4.80
   7  -1   1   -2.30    2.20
  -8   1  -1  142.09   12.80
  -8   1  -1  159.38    9.20
   8  -1   1  168.48    9.60
   8  -1   1  170.48   14.40
  -9   1  -1  426.16   28.30
   9  -1   1  538.05   30.00
  10  -1   1   67.59    6.80
  10  -1   1   71.09   14.00
  11  -1   1    9.40    4.80
  11  -1   1    9.50   10.00
  12  -1   1   24.20   11.90
  12  -1   1   30.50    5.90
  13  -1   1    8.10    6.00
  13  -1   1   -6.90   11.80
  13   0  -1   17.80    5.90
  13   0  -1   47.80   14.00
  12   0  -1   32.60    5.80
  12   0  -1   30.40   11.60
  11   0  -1   35.00    5.60
  11   0  -1   43.70   11.60
  10   0  -1   27.10    9.10
   9   0  -1   -3.20    3.20
   9   0  -1   -3.10    6.80
  -9   0   1   -4.80    2.90
   8   0  -1   98.59    6.60
   8   0  -1  103.59   11.60
  -8   0   1   91.29   10.20
  -8   0   1   89.99    6.10
   7   0  -1   18.10    2.80
   7   0  -1   22.30    6.50
  -7   0   1   20.10    2.70
  -7   0   1   23.20    6.00
   6   0  -1  179.58   13.20
   6   0  -1  191.68    9.80
  -6   0   1  176.58   12.50
  -6   0   1  184.98    9.70
   5   0  -1   88.99    5.30
   5   0  -1   92.69    8.50
  -5   0   1   86.19    8.00
  -5   0   1   88.49    5.20
   4   0  -1  116.49    8.80
   4   0  -1  113.89    6.30
  -4   0   1  120.49    8.50
  -4   0   1  116.19    6.20
   3   0  -1   30.90    2.40
   3   0  -1   33.60    5.30
  -3   0   1   29.80    4.50
  -3   0   1   31.70    2.30
   2   0  -1 1278.27   62.19
   2   0  -1 1332.47   63.29
  -2   0   1 1294.87   62.19
  -2   0   1 1314.47   63.19
   1   0  -1  106.59    5.70
  -1   0   1  101.79    4.80
  -1   0   1   87.09    5.50
   1   0   1    3.40    0.70
   1   0   1    4.70    1.20
  -2   0  -1 1185.18   56.69
  -2   0  -1 1170.58   56.09
   2   0   1 1186.88   56.79
   2   0   1 1151.38   56.09
  -3   0  -1   45.30    3.40
   3   0   1   64.59    5.80
  -4   0  -1   38.10    3.20
  -4   0  -1   36.30    5.20
   4   0   1   44.20    3.40
   4   0   1   38.00    5.50
  -5   0  -1   19.80    4.20
  -5   0  -1   10.50    2.00
   5   0   1   13.60    4.20
   5   0   1   11.90    2.30
  -6   0  -1   55.39    6.60
  -6   0  -1   42.60    3.70
   6   0   1   51.69    4.10
   6   0   1   45.40    6.80
  -7   0  -1   40.30    6.70
   7   0   1   46.30    7.60
   7   0   1   50.49    4.50
  -8   0  -1   59.69    5.00
  -8   0  -1   63.89   10.80
   8   0   1   59.79    9.00
   8   0   1   63.89    5.50
  -9   0  -1   -6.10    5.50
   9   0   1    0.60    3.30
   9   0   1    3.70    6.90
  10   0   1  101.09   13.50
  10   0   1   93.89    8.30
  11   0   1   90.89   13.50
  11   0   1   67.59    6.80
  12   0   1   21.10    5.40
  12   0   1   12.10   10.90
  13   0   1   -4.60    5.50
  13   0   1    3.40   11.40
  13  -1  -1    9.50   12.20
  13  -1  -1  -11.40    5.30
  12  -1  -1   13.40    5.20
  12  -1  -1    8.80   10.60
  11  -1  -1    6.30    4.60
  11  -1  -1  -10.90    9.00
  10  -1  -1    8.90    8.80
  10  -1  -1    2.30    7.40
   9  -1  -1  602.44   33.70
  -9   1   1  527.65   27.60
   8  -1  -1  114.69   11.90
   8  -1  -1   95.49    6.60
  -8   1   1   83.69    6.00
  -8   1   1   88.49   10.40
   7  -1  -1   27.80    3.30
   7  -1  -1   23.40    7.10
  -7   1   1   24.00    2.80
  -7   1   1   25.00    6.80
   6  -1  -1   46.40    4.00
   6  -1  -1   51.59    7.90
  -6   1   1   49.20    3.70
  -6   1   1   36.90    6.60
   5  -1  -1  245.48   15.20
   5  -1  -1  238.88   12.10
  -5   1   1  219.68   14.50
  -5   1   1  236.18   11.90
   4  -1  -1   87.59    8.20
   4  -1  -1   91.69    5.20
  -4   1   1   89.19    5.10
  -4   1   1   91.59    7.60
   3  -1  -1  740.23   37.50
   3  -1  -1  719.83   35.60
  -3   1   1  723.03   37.30
  -3   1   1  780.22   35.80
   2  -1  -1    4.70    3.00
   2  -1  -1    0.80    1.10
  -2   1   1    1.30    1.10
  -2   1   1    0.10    3.40
   1  -1  -1 1010.80   49.60
  -1   1   1 1042.40   49.60
  -1   1   1  961.50   48.70
  -1   1   1 1074.29   48.80
  -1  -1  -1    0.80    0.50
   1   1   1    0.00    0.60
  -2  -1  -1 2220.08  105.69
  -2  -1  -1 2219.78  105.99
   2   1   1 2223.58  105.69
   2   1   1 2204.28  105.99
  -3  -1  -1  812.22   39.10
  -3  -1  -1  786.22   38.40
   3   1   1  798.32   38.40
  -4  -1  -1   35.20    3.20
  -4  -1  -1   50.59    5.00
   4   1   1   44.50    5.10
   4   1   1   40.30    3.20
  -5  -1  -1    3.60    3.50
  -5  -1  -1    2.40    1.70
   5   1   1    3.20    3.50
   5   1   1    1.60    1.80
  -6  -1  -1  179.78   11.50
  -6  -1  -1  169.98    9.30
   6   1   1  176.28   12.10
   6   1   1  174.98    9.50
  -7  -1  -1   11.50    4.40
   7   1   1   16.00    5.50
   7   1   1   10.80    2.60
  -8  -1  -1    5.00    2.40
  -8  -1  -1   -2.10    4.40
   8   1   1   -2.90    4.70
   8   1   1    2.40    2.70
  -9  -1  -1   18.60    6.40
   9   1   1   28.70    4.20
   9   1   1   43.30    8.20
  10   1   1  377.16   24.00
  10   1   1  338.67   18.90
  11   1   1   56.19   18.90
  11   1   1   29.50    5.50
  12   1   1   18.20    5.30
  12   1   1   11.40    9.60
  13   1   1    5.80    5.60
  13   1   1   17.90   11.40
  13  -2  -1   -3.20    5.70
  13  -2  -1   28.70   13.90
  12  -2  -1   10.30    5.20
  12  -2  -1   -4.30   11.00
  11  -2  -1   -5.50    4.60
  11  -2  -1   -3.00    9.80
  10  -2  -1   90.69   14.40
   9  -2  -1  120.09    8.40
  -9   2   1  105.89    7.70
   8  -2  -1   70.69   10.80
   8  -2  -1   62.29    5.40
  -8   2   1   63.59    5.00
   7  -2  -1   28.90    3.50
   7  -2  -1   29.00    7.50
  -7   2   1   20.00    6.00
  -7   2   1   28.40    2.90
   6  -2  -1  135.99   11.80
   6  -2  -1  134.09    7.60
  -6   2   1  124.89    7.20
  -6   2   1  123.19   10.80
   5  -2  -1   97.19    5.90
   5  -2  -1   96.39    9.80
  -5   2   1   90.49    9.00
  -5   2   1   95.69    5.60
   4  -2  -1   25.80    2.50
   4  -2  -1   25.60    5.70
  -4   2   1   32.10    5.70
  -4   2   1   24.70    2.30
   3  -2  -1  569.34   27.10
  -3   2   1  532.75   26.80
  -3   2   1  566.64   29.00
  -2   2   1 2579.54  124.69
  -2   2   1 2443.36  122.99
  -2   2   1 2723.23  123.09
   1  -2  -1  139.39    6.80
  -1   2   1  136.09    8.60
  -1   2   1  133.49    6.80
   0  -2  -1   61.19    4.80
   0  -2  -1   52.99    3.10
   0   2   1   59.39    4.60
   0   2   1   55.29    3.10
  -1  -2  -1   43.10    3.80
  -1  -2  -1   42.40    2.70
   1   2   1   43.40    2.70
   1   2   1   41.60    3.80
  -2  -2  -1 1360.86   64.19
   2   2   1 1310.57   64.59
   2   2   1 1345.17   64.99
   2   2   1 1357.66   64.29
  -3  -2  -1  449.76   21.70
  -3  -2  -1  447.16   22.40
   3   2   1  443.56   22.40
   3   2   1  446.86   21.80
  -4  -2  -1  341.97   17.20
  -4  -2  -1  361.36   18.70
   4   2   1  339.87   17.20
   4   2   1  355.46   18.50
  -5  -2  -1   87.89    5.40
  -5  -2  -1   98.59    7.20
   5   2   1   87.69    7.30
   5   2   1   87.39    5.50
  -6  -2  -1  145.19    9.60
  -6  -2  -1  130.19    7.50
   6   2   1  134.39   10.00
   6   2   1  130.19    7.60
  -7  -2  -1   94.69    6.40
  -7  -2  -1  103.09    8.90
   7   2   1  109.69    6.60
   7   2   1  108.79    9.50
  -8  -2  -1  152.18    8.70
  -8  -2  -1  147.09   11.50
   8   2   1  141.69    8.80
   8   2   1  146.19   12.10
  -9  -2  -1  195.88   15.00
   9   2   1  237.88   16.20
   9   2   1  208.58   12.70
 -10  -2  -1  261.97   19.10
  10   2   1  279.37   20.00
  10   2   1  288.67   15.50
  11   2   1    5.90    8.60
  11   2   1   -1.30    4.30
  12   2   1   -0.40    9.10
  12   2   1   -3.70    4.60
  13   2   1    4.00    5.60
  13   2   1   15.10   11.00
  13  -3  -1  -23.80   11.20
  13  -3  -1    1.40    5.90
  12  -3  -1   10.00   12.70
  12  -3  -1   12.90    5.60
  11  -3  -1    2.50    4.70
  11  -3  -1   -1.60    9.60
  10  -3  -1   37.50   11.80
   9  -3  -1    1.80    3.90
   9  -3  -1   -3.40    8.20
   8  -3  -1    0.90    3.10
   8  -3  -1   -0.50    6.90
  -8   3   1   -0.50    2.40
   7  -3  -1  250.37   13.10
   7  -3  -1  244.68   18.50
  -7   3   1  241.98   12.80
  -7   3   1  241.28   17.30
   6  -3  -1  269.07   13.90
   6  -3  -1  276.37   18.70
  -6   3   1  260.47   13.60
  -6   3   1  258.37   18.40
   5  -3  -1  146.09   12.70
   5  -3  -1  149.39    8.40
  -5   3   1  135.99   11.80
  -5   3   1  149.09    8.00
   4  -3  -1   81.99    9.60
  -4   3   1   76.89    4.90
  -4   3   1   82.59    8.80
   3  -3  -1  194.68   13.50
  -3   3   1  189.88   10.00
  -3   3   1  202.88   10.30
  -3   3   1  208.08   13.10
   2  -3  -1    0.50    4.10
   2  -3  -1    4.10    1.30
  -2   3   1   -2.40    3.60
   1  -3  -1  577.34   27.30
  -1   3   1  537.95   27.30
  -1   3   1  584.34   29.30
   0  -3  -1  271.17   15.10
   0  -3  -1  267.47   13.10
   0   3   1  263.57   13.10
   0   3   1  259.47   15.00
  -1  -3  -1  949.31   45.70
  -1  -3  -1  960.40   47.00
   1   3   1  951.50   45.70
   1   3   1  949.40   46.90
  -2  -3  -1  373.86   17.90
  -2  -3  -1  367.06   19.20
   2   3   1  365.56   19.20
   2   3   1  357.16   17.90
  -3  -3  -1   82.69    4.90
   3   3   1   77.09    6.70
   3   3   1   77.59    5.80
   3   3   1   79.89    4.90
  -4  -3  -1    0.40    1.50
   4   3   1    1.00    1.70
   4   3   1    2.50    3.00
  -5  -3  -1  639.84   32.40
  -5  -3  -1  636.14   31.00
  -5  -3  -1  644.94   31.20
   5   3   1  644.14   31.30
   5   3   1  635.94   32.60
  -6  -3  -1  119.59    7.00
  -6  -3  -1  111.09    8.50
   6   3   1  116.29    7.00
   6   3   1  117.69    9.00
  -7  -3  -1  293.57   16.00
  -7  -3  -1  322.57   18.10
   7   3   1  322.57   18.50
   7   3   1  318.37   16.20
  -8  -3  -1  192.38   13.50
   8   3   1  198.58   11.00
   8   3   1  196.68   14.10
  -9  -3  -1   67.69   10.10
   9   3   1   81.59    6.70
   9   3   1   82.29   10.10
 -10  -3  -1    4.10    6.20
  10   3   1    1.00    3.70
  10   3   1    6.90    7.00
  11   3   1    0.40    4.10
  11   3   1    0.30    7.60
  12   3   1   36.30   10.40
  12   3   1    9.20    5.00
  13   3   1    5.10    5.30
  13   3   1   -0.80   10.20
  13  -4  -1   -1.60   13.10
  13  -4  -1    6.10    6.20
  12  -4  -1   -2.90   12.00
  12  -4  -1    5.20    5.70
  11  -4  -1    8.30    5.20
  11  -4  -1    1.10   11.00
  10  -4  -1   37.30   12.60
  10  -4  -1   27.30    5.70
   9  -4  -1    5.80    9.80
   9  -4  -1    1.70    4.10
   8  -4  -1   94.79   16.80
   8  -4  -1   82.49    6.70
  -8   4   1   68.59    6.10
   7  -4  -1  186.58   16.90
   7  -4  -1  185.98   10.40
  -7   4   1  163.28    9.80
   6  -4  -1   11.30    6.80
  -6   4   1    7.70    2.40
  -6   4   1   12.40    2.60
  -6   4   1   10.50    5.70
   5  -4  -1   32.30    7.60
  -5   4   1   24.30    2.60
  -5   4   1   16.00    7.00
  -5   4   1   29.60    3.10
  -4   4   1  785.32   39.00
  -4   4   1  814.82   39.30
  -4   4   1  830.12   42.50
   3  -4  -1   55.99    7.90
  -3   4   1   50.29    4.10
  -3   4   1   64.89    7.70
  -3   4   1   48.40    3.70
   2  -4  -1  437.86   25.00
   2  -4  -1  444.16   21.50
  -2   4   1  435.26   21.50
  -2   4   1  447.16   24.50
   1  -4  -1   59.39    7.30
   1  -4  -1   50.99    3.70
  -1   4   1   47.50    3.60
  -1   4   1   61.79    7.10
   0  -4  -1   22.50    2.40
   0  -4  -1   27.70    5.30
   0   4   1   16.40    2.30
   0   4   1   23.60    5.10
  -1  -4  -1   65.99    7.60
  -1  -4  -1   39.90    3.50
   1   4   1   65.69    6.40
   1   4   1   37.70    3.50
  -2  -4  -1  597.44   28.90
   2   4   1  608.24   30.80
   2   4   1  580.64   28.90
  -3  -4  -1  358.16   17.60
  -3  -4  -1  355.86   20.30
   3   4   1  353.76   19.60
   3   4   1  352.06   17.60
  -4  -4  -1  470.95   21.90
   4   4   1  423.46   23.90
   4   4   1  453.65   21.90
   4   4   1  421.46   22.90
  -5  -4  -1  271.57   13.80
   5   4   1  275.97   15.30
   5   4   1  258.27   16.10
   5   4   1  269.07   13.80
  -6  -4  -1   67.99    5.00
   6   4   1   77.99    7.40
   6   4   1   73.59    8.40
   6   4   1   70.29    5.30
  -7  -4  -1    7.70    2.60
   7   4   1   10.20    4.80
   7   4   1    5.60    2.80
  -8  -4  -1   18.80    5.90
  -8  -4  -1   11.10    2.80
   8   4   1   26.00    4.00
   8   4   1   16.00    6.00
  -9  -4  -1  105.39   11.90
  -9  -4  -1  100.79    7.60
   9   4   1  124.29    8.20
   9   4   1  108.09   11.80
 -10  -4  -1    8.00    6.20
 -10  -4  -1    3.00    2.90
  10   4   1   12.70    7.40
  10   4   1    4.10    3.90
  11   4   1   11.00    4.70
  11   4   1    7.00    7.50
  12   4   1   26.90    5.80
  12   4   1   33.10   10.50
  13   4   1   34.40    6.20
  13   4   1   42.60   12.20
 -13   5   1    5.10    6.60
  12  -5  -1   -1.30   13.00
 -12   5   1   -0.80    5.80
  11  -5  -1   -8.00   12.10
 -11   5   1   12.50    5.50
  10  -5  -1   99.69   16.40
 -10   5   1  100.59    8.70
   9  -5  -1    5.30   10.00
  -9   5   1   12.40    7.30
   8  -5  -1  130.29   17.00
  -8   5   1  174.08    9.90
   7  -5  -1   11.50    8.60
  -7   5   1    4.60    2.70
  -7   5   1    3.80    2.60
   6  -5  -1    4.20    6.50
  -6   5   1    1.90    6.20
  -6   5   1    5.40    2.30
  -6   5   1   10.10    4.50
   5  -5  -1   77.99   11.00
  -5   5   1   83.59    5.40
  -5   5   1   73.49    5.60
  -5   5   1   77.49    9.90
   4  -5  -1   41.80    8.20
  -4   5   1   54.09    4.40
  -4   5   1   55.39    4.20
  -4   5   1   56.69    8.90
   3  -5  -1  644.34   30.50
  -3   5   1  613.64   34.00
  -3   5   1  620.54   30.60
   2  -5  -1  544.45   29.90
   2  -5  -1  547.65   26.10
  -2   5   1  532.35   29.40
  -2   5   1  515.35   26.10
   1  -5  -1  385.66   23.40
   1  -5  -1  426.46   20.10
  -1   5   1  418.16   23.30
  -1   5   1  397.36   20.10
   0  -5  -1   11.40    2.00
   0  -5  -1   17.00    5.20
   0   5   1   10.40    2.10
   0   5   1   11.00    4.60
  -1  -5  -1  557.64   26.80
  -1  -5  -1  568.44   29.60
   1   5   1  528.85   26.80
   1   5   1  547.95   29.30
  -2  -5  -1  528.65   28.50
  -2  -5  -1  546.85   26.00
   2   5   1  525.45   28.30
   2   5   1  519.05   25.90
  -3  -5  -1  150.98   11.30
  -3  -5  -1  172.88    8.90
   3   5   1  157.48   11.40
   3   5   1  167.08    8.90
  -4  -5  -1   26.10    2.90
   4   5   1   29.80    4.60
   4   5   1   30.50    3.00
   4   5   1   28.40    2.70
   4   5   1   26.20    5.50
  -5  -5  -1  482.85   23.50
   5   5   1  447.66   26.10
   5   5   1  482.95   25.00
   5   5   1  473.95   23.60
  -6  -5  -1   16.80    2.90
   6   5   1   21.80    5.80
   6   5   1   22.40    3.20
   6   5   1   28.10    5.20
   7   5   1   11.50    5.20
   7   5   1    9.60    3.00
   7   5   1    7.60    5.30
   8   5   1  160.18   14.10
   8   5   1  169.08   13.50
   8   5   1  203.48   10.80
   9   5   1  102.79    7.90
   9   5   1  111.99   11.40
   9   5   1   80.39   11.20
  10   5   1   27.10    8.30
  10   5   1   66.99    9.50
  10   5   1   60.49    6.10
  11   5   1   19.00    5.10
  11   5   1   10.60    7.90
  12   5   1   13.40    5.30
  12   5   1   14.70    8.80
  12  -6  -1   16.60   15.30
 -12   6   1   -4.00    5.90
  11  -6  -1   -0.30   13.20
 -11   6   1   28.60    6.00
  10  -6  -1   36.50   13.40
 -10   6   1   36.20    5.60
   9  -6  -1   14.80   11.80
  -9   6   1   15.50    4.20
   8  -6  -1    3.40    9.90
  -8   6   1    3.60    3.80
   7  -6  -1   42.30   11.00
  -7   6   1   43.20    4.60
   6  -6  -1    7.60    7.90
  -6   6   1   21.10    3.20
  -6   6   1   16.00    3.40
   5  -6  -1   57.09   11.00
  -5   6   1   33.10    3.50
  -5   6   1   28.30    3.70
  -5   6   1   33.20    9.00
   4  -6  -1  227.58   17.80
  -4   6   1  227.28   12.10
  -4   6   1  221.98   11.70
  -4   6   1  204.18   16.10
   3  -6  -1   50.79    9.00
   3  -6  -1   51.29    4.00
  -3   6   1   58.39    4.40
   2  -6  -1  172.98   14.10
   2  -6  -1  170.68    8.80
  -2   6   1  144.19   12.80
  -2   6   1  157.88    8.80
   1  -6  -1  130.49    7.50
   1  -6  -1  134.19   12.10
  -1   6   1  133.89    7.50
  -1   6   1  129.09   11.30
   0  -6  -1  232.78   15.70
   0  -6  -1  225.68   11.60
   0   6   1  214.88   11.60
   0   6   1  223.48   15.10
  -1  -6  -1  557.74   30.30
  -1  -6  -1  559.74   26.90
   1   6   1  538.25   29.90
   1   6   1  532.85   26.90
  -2  -6  -1  152.28   11.80
  -2  -6  -1  145.79    8.30
   2   6   1  141.49   11.30
   2   6   1  152.98    8.30
  -3  -6  -1   18.10    5.40
   3   6   1   29.10    3.10
   3   6   1   18.60    5.30
  -4  -6  -1  176.98    9.80
   4   6   1  181.68    9.90
   4   6   1  177.68   12.90
  -5  -6  -1    2.20    2.20
   5   6   1   -2.60    3.90
   5   6   1    5.90    2.40
   5   6   1   -0.60    3.40
   6   6   1   -0.90    4.60
   6   6   1    3.30    4.30
   6   6   1   -2.60    2.60
   7   6   1  179.88   14.90
   7   6   1  204.48   11.50
   7   6   1  205.38   13.90
   8   6   1  159.68   10.50
   8   6   1  187.88   13.70
   9   6   1   95.59   12.70
   9   6   1  117.49   11.70
   9   6   1  111.39    8.40
  10   6   1   21.70    4.80
  10   6   1    5.90    7.10
  10   6   1   13.10    9.60
  11   6   1   21.80    8.60
  11   6   1    7.70    4.90
  12   6   1    7.50    5.30
  12   6   1    7.60    8.60
  12  -7  -1  -14.30   15.70
 -12   7   1    1.20    6.30
  11  -7  -1  -12.40   12.30
 -11   7   1    3.30    5.60
  10  -7  -1  -12.90   12.00
 -10   7   1   -2.70    5.00
   9  -7  -1   13.80   11.80
  -9   7   1    9.30    4.60
   8  -7  -1   78.19   14.80
  -8   7   1  102.79    7.80
   7  -7  -1   16.00   11.70
  -7   7   1    9.70    3.60
   6  -7  -1   31.30   10.70
  -6   7   1   39.40    4.20
   5  -7  -1   89.49   13.60
  -5   7   1  118.49    8.30
  -5   7   1  142.99    7.90
   4  -7  -1    4.10    6.80
  -4   7   1   17.50    2.80
   3  -7  -1   -0.50    5.90
   3  -7  -1    0.30    1.90
  -3   7   1    4.80    2.40
  -3   7   1   -7.50    4.70
   2  -7  -1   36.60    3.50
   2  -7  -1   29.60    8.30
  -2   7   1   33.80    7.30
  -2   7   1   35.30    3.50
   1  -7  -1  745.03   34.90
   1  -7  -1  693.63   39.20
  -1   7   1  701.43   38.70
  -1   7   1  676.73   34.40
   0  -7  -1  640.94   31.20
   0  -7  -1  653.73   35.60
   0   7   1  650.93   35.00
   0   7   1  594.84   31.00
  -1  -7  -1  155.28    9.20
  -1  -7  -1  213.08   14.20
   1   7   1  151.78    9.30
   1   7   1  163.58   12.80
  -2  -7  -1   20.80    3.00
  -2  -7  -1   34.80    7.20
   2   7   1   25.60    3.30
   2   7   1   25.90    6.30
  -3  -7  -1  188.48   14.20
  -3  -7  -1  186.78   10.40
   3   7   1  186.48   13.90
   3   7   1  193.08   10.40
  -4  -7  -1   23.10    6.20
   4   7   1   20.40    6.40
   4   7   1   21.30    3.10
   5   7   1    1.20    2.00
   5   7   1    3.70    4.80
   5   7   1    5.20    2.70
   5   7   1    2.30    4.00
   6   7   1   87.99    9.00
   6   7   1   83.19   10.80
   6   7   1   78.69    6.80
   7   7   1  201.98   11.50
   7   7   1  158.18   17.30
   7   7   1  202.58   14.10
   8   7   1    7.90    5.50
   8   7   1   -1.00    3.50
   8   7   1    0.80    6.10
   9   7   1   -1.80    4.00
   9   7   1   -0.70    6.10
   9   7   1   -4.00    6.70
  10   7   1   12.90    5.00
  10   7   1   19.30    7.30
  11   7   1   25.10    5.60
  11   7   1   39.10   16.80
  12   7   1   -0.60    6.10
  12   7   1    4.20    8.10
  11  -8  -1   -1.10   24.40
 -11   8   1   -4.40    5.90
  10  -8  -1   14.70   14.00
 -10   8   1   21.50    5.90
   9  -8  -1  130.79   21.20
  -9   8   1  175.48   11.30
   8  -8  -1   21.50   12.20
   7  -8  -1   16.00   11.30
  -7   8   1   11.90    4.10
   6  -8  -1   19.70   10.50
  -6   8   1   10.40    4.00
   5  -8  -1   76.89   14.20
  -5   8   1  102.59    7.20
  -4   8   1    4.40    2.70
   3  -8  -1    3.90    7.00
   3  -8  -1   11.10    2.80
  -3   8   1   10.30    2.80
   2  -8  -1  507.05   30.90
   2  -8  -1  518.35   24.80
  -2   8   1  489.65   24.80
  -2   8   1  467.95   29.50
   1  -8  -1  181.48   10.20
   1  -8  -1  208.18   16.60
  -1   8   1  185.08   10.30
  -1   8   1  162.28   14.90
   0  -8  -1    5.20    2.60
   0  -8  -1   10.40    6.30
   0   8   1    8.00    5.80
   0   8   1    2.80    2.70
  -1  -8  -1   96.09   11.80
  -1  -8  -1   88.29    6.40
   1   8   1  106.89   13.80
   1   8   1   78.89    6.20
  -2  -8  -1  382.46   22.60
   2   8   1  336.97   23.60
   2   8   1  330.67   17.70
  -3  -8  -1   39.10    8.40
   3   8   1   38.50    8.20
   3   8   1   45.70    4.60
  -4  -8  -1    7.00    5.50
   4   8   1    8.60    6.30
   4   8   1    2.40    4.70
   5   8   1   23.50    4.00
   5   8   1   18.50    3.00
   5   8   1    9.50    5.20
   6   8   1   83.99    9.40
   6   8   1   62.59   10.50
   6   8   1   88.79    6.90
   7   8   1    2.40    6.50
   7   8   1    3.30    5.20
   7   8   1    2.70    3.70
   8   8   1    3.00    4.10
   8   8   1   -3.00    6.90
   8   8   1   -2.80    5.40
   9   8   1  114.79   12.50
   9   8   1  112.69    9.10
  10   8   1   52.59   10.00
  10   8   1   49.50    6.60
  11   8   1    9.50    5.40
  11   8   1    9.70    8.20
  11  -9  -1   12.20   15.80
 -11   9   1   17.50    6.60
  10  -9  -1   10.80   14.70
 -10   9   1   24.90    6.40
   9  -9  -1   -6.30   11.80
  -9   9   1   -1.30    5.00
   8  -9  -1   -2.20   11.50
  -8   9   1   -6.80    4.40
   7  -9  -1    3.20   11.40
  -7   9   1    3.30    4.40
   6  -9  -1   -2.40   10.00
  -6   9   1   10.00    4.00
   5  -9  -1   17.10   11.00
  -5   9   1   33.20    4.50
   4  -9  -1    0.90    8.60
  -4   9   1    1.00    3.10
   3  -9  -1  337.87   25.30
   2  -9  -1  172.58   17.60
  -2   9   1  181.78   10.90
   1  -9  -1   52.89   10.90
  -1   9   1   61.09    5.30
   0  -9  -1   96.19   13.20
   0   9   1  102.09   14.40
   0   9   1   78.79    7.00
  -1  -9  -1  454.95   28.20
   1   9   1  434.26   27.30
  -2  -9  -1  114.69   12.90
   2   9   1  133.69   14.30
   2   9   1  116.99    7.90
  -3  -9  -1  153.98   14.70
   3   9   1  154.48    9.50
   3   9   1  146.79   14.60
  -4  -9  -1   49.20   10.00
   4   9   1   64.29   10.70
   4   9   1   53.89    5.30
   5   9   1   14.60    3.20
   5   9   1    8.40    7.30
   5   9   1   16.60    4.10
   5   9   1   12.70    6.20
   6   9   1    0.80    3.70
   6   9   1    7.60    5.80
   6   9   1    0.00    6.90
   7   9   1   29.40    4.90
   7   9   1   30.20    7.50
   7   9   1   20.50   10.00
   8   9   1   36.30    5.40
   8   9   1   42.90    8.60
   9   9   1  125.49    9.90
   9   9   1  128.29   13.20
  10   9   1   -2.40    4.90
  10   9   1    1.60    8.70
  10 -10  -1  -28.30   13.20
 -10  10   1    2.90    6.00
   9 -10  -1  -10.40   13.40
  -9  10   1    2.90    5.40
   8 -10  -1    9.80   13.40
  -8  10   1   11.60    5.30
   7 -10  -1   88.59   18.00
  -7  10   1  117.89    9.20
   6 -10  -1   14.50   12.30
  -6  10   1    3.80    4.10
   5 -10  -1   37.60   13.50
  -5  10   1   58.49    5.70
   4 -10  -1   -2.70    9.00
  -4  10   1    2.30    3.50
   3 -10  -1   72.89   14.80
  -3  10   1   82.99    6.90
   2 -10  -1   72.09   14.30
  -2  10   1   91.49    7.10
   1 -10  -1   54.49   11.80
  -1  10   1   67.99    5.90
   0  10   1  179.38   10.80
  -1 -10  -1   76.69   12.50
   1  10   1   85.09    6.80
  -2 -10  -1   87.29   13.50
   2  10   1   81.59    7.00
  -3 -10  -1   -3.60    6.80
   3  10   1   -2.60    3.40
  -4 -10  -1   63.49   11.50
   4  10   1   50.19    5.50
   5  10   1   33.20    4.80
   6  10   1  162.58   13.80
   6  10   1  167.28   10.80
   7  10   1   50.49    6.10
   7  10   1   49.70    9.00
   8  10   1   24.70    5.40
   9  10   1   -0.30    7.30
   9  10   1   -2.20    4.70
  10  10   1    6.50    5.40
  10  10   1    3.50    7.50
   9 -11  -1   -6.00   14.20
  -9  11   1   -6.90    5.70
   8 -11  -1   13.20   15.30
  -8  11   1   24.90    5.90
   7 -11  -1    1.30   13.70
  -7  11   1   -9.30    4.60
   6 -11  -1    4.10   12.80
  -6  11   1    2.00    4.40
   5 -11  -1   36.60   14.50
  -5  11   1   56.49    6.10
   4 -11  -1   18.50   12.50
  -4  11   1   35.70    5.00
   3 -11  -1  151.08   20.50
  -3  11   1  147.59   10.00
   2 -11  -1   77.09   14.50
  -2  11   1   82.39    7.40
   1 -11  -1   38.10   11.80
  -1  11   1   53.19    5.70
   0 -11  -1   48.80   12.70
   0  11   1   53.69    5.80
  -1 -11  -1   70.09   13.30
   1  11   1   59.09    6.20
  -2 -11  -1   23.10    9.70
   2  11   1   19.70    4.30
  -3 -11  -1  227.88   19.70
   3  11   1  204.88   12.60
  -4 -11  -1   19.30    8.50
   4  11   1   12.20    4.40
  -5 -11  -1   72.19   12.70
   5  11   1   87.29    7.80
   6  11   1   13.60    3.60
   6  11   1   14.20    7.70
   6  11   1   24.00    5.30
   7  11   1    7.70    4.80
   7  11   1   10.60    7.50
   8  11   1    9.70    7.70
   8  11   1    9.20    5.30
   9  11   1   24.30    9.30
   9  11   1   37.00    6.60
   8 -12  -1   -9.30   13.50
  -8  12   1    6.00    5.90
   7 -12  -1   -6.10   28.10
  -7  12   1   10.30    5.60
   6 -12  -1    8.60   13.60
  -6  12   1   22.00    5.60
   5 -12  -1  -14.10   12.30
  -5  12   1   -0.50    4.50
   4 -12  -1   31.70   14.70
  -4  12   1   40.60    5.70
   3 -12  -1   79.89   16.50
  -3  12   1   74.79    7.20
   2 -12  -1    2.30   10.70
  -2  12   1    0.60    4.20
   1 -12  -1    1.10   10.40
  -1  12   1   24.50    4.90
   0 -12  -1   62.59   14.20
   0  12   1   60.39    6.50
  -1 -12  -1   29.70   11.20
   1  12   1   10.80    4.20
  -2 -12  -1   83.29   15.10
   2  12   1   80.19    7.20
  -3 -12  -1   16.20    9.50
   3  12   1   25.70    4.90
  -4 -12  -1   51.19   12.70
   4  12   1   61.69    6.60
  -5 -12  -1   39.60   11.20
   5  12   1   50.49    6.10
   6  12   1    1.70    6.90
   6  12   1    6.30    4.50
   6  12   1   -0.30    3.80
   7  12   1   -6.60    7.50
   7  12   1    1.10    5.90
   8  12   1   83.29    8.00
   8  12   1   63.09   10.90
   7 -13  -1    9.30   16.30
   6 -13  -1   21.90   15.90
  -6  13   1    2.90    5.40
   5 -13  -1    4.30   14.10
  -5  13   1    1.80    5.10
   4 -13  -1   34.30   14.70
  -4  13   1   23.50    5.70
   3 -13  -1   15.80   13.80
  -3  13   1    6.70    4.80
   2 -13  -1   14.60   13.10
  -2  13   1   24.80    5.30
   1 -13  -1   99.49   18.60
  -1  13   1  132.69    9.80
   0 -13  -1  149.69   21.00
   0  13   1  165.98   11.30
  -1 -13  -1  -15.30    9.60
   1  13   1   -3.00    4.70
  -2 -13  -1   -2.10    8.90
   2  13   1   -8.00    4.20
  -3 -13  -1   29.50   11.10
   3  13   1   27.10    5.50
  -4 -13  -1    4.80    9.70
   4  13   1    1.10    4.70
  -5 -13  -1   -2.80    9.20
   5  13   1   -8.10    7.70
   6  13   1   13.00    4.30
   6  13   1    8.50    8.10
   6  13   1   18.60    5.40
   5 -14  -1   15.10   16.10
  -5  14   1    8.60    6.00
   4 -14  -1    8.80   15.00
  -4  14   1   -5.90    8.60
   3 -14  -1    0.60   13.70
  -3  14   1    4.30    6.60
   2 -14  -1   29.50   14.90
  -2  14   1   66.19    7.80
   1 -14  -1   89.09   18.70
  -1  14   1   66.09    7.50
   0 -14  -1    6.90   11.60
   0  14   1   -3.80    5.00
  -1 -14  -1   10.30   11.60
  -2 -14  -1   43.10   13.90
   2  14   1   64.89    7.80
  -3 -14  -1   11.60   12.80
   3  14   1   -1.30    4.80
  -4 -14  -1   15.70   12.20
   4  14   1    6.00    5.20
  -2  15   1   46.50    6.90
   1 -15  -1   29.90   19.50
   0 -15  -1   12.80   15.00
   0  15   1    6.80    5.40
  -1 -15  -1   23.20   13.50
   1  15   1   30.00    6.20
   2  14  -2   -1.50    5.40
  -2 -14   2   -9.60   13.10
   1  14  -2   33.60    6.30
  -1 -14   2    9.30   21.90
   0  14  -2   -2.50    4.90
  -1  14  -2   22.10    5.80
   1 -14   2    2.70   14.70
  -2  14  -2    0.50    5.00
   2 -14   2    7.70   14.40
  -3  14  -2   15.30    5.50
   3 -14   2    5.40   14.80
   5  13  -2   -9.90    4.00
   5  13  -2   -8.40    8.00
   4  13  -2   11.50    5.20
  -4 -13   2   15.40   12.70
   3  13  -2    6.60    5.50
  -3 -13   2   23.90   12.40
   2  13  -2   36.80    7.90
  -2 -13   2    4.00   11.80
   1  13  -2    8.40    4.90
  -1 -13   2   -0.80   10.70
   0  13  -2   63.79    7.20
   0 -13   2   66.69   17.20
  -1  13  -2   39.80    6.00
   1 -13   2   16.80   13.70
  -2  13  -2    8.10    5.10
   2 -13   2   10.20   13.50
  -3  13  -2   26.30    6.10
   3 -13   2   25.30   15.20
  -4  13  -2   47.90   11.80
   4 -13   2   29.70   26.30
  -5  13  -2   -1.70    5.00
   5 -13   2  -12.60   13.30
  -6  13  -2   -6.90    5.40
   6 -13   2   -8.70   15.30
   6  12  -2    2.10    5.20
   6  12  -2    4.90    8.60
   5  12  -2   51.79   11.50
   5  12  -2   72.29    7.40
   5  12  -2   64.89    6.80
   4  12  -2   74.49    7.30
  -4 -12   2   59.19   14.40
   3  12  -2   -0.80    4.20
  -3 -12   2   -2.80    9.60
   2  12  -2    6.90    4.70
  -2 -12   2   -2.70   10.30
   1  12  -2   96.59    8.40
  -1 -12   2   55.29   15.20
   0  12  -2    3.70    4.30
   0 -12   2   17.30   11.70
  -1  12  -2    4.20    4.20
   1 -12   2   -3.60   10.60
  -2  12  -2   -6.40    4.30
   2 -12   2   -3.60   11.50
  -3  12  -2   48.20    6.20
   3 -12   2   34.20   15.10
  -4  12  -2  -11.60    4.30
   4 -12   2   -5.90   12.20
  -5  12  -2   14.10    5.40
   5 -12   2   14.40   14.10
  -6  12  -2   15.70    5.50
  -7  12  -2   40.60   10.50
   7 -12   2   73.89   21.10
   8  11  -2   13.70    5.40
   8  11  -2    7.30    9.20
   7  11  -2   -2.30    8.10
   7  11  -2    9.30    5.20
   6  11  -2   26.40    5.20
   6  11  -2    4.20    8.00
   5  11  -2   40.20   10.10
   5  11  -2   42.50    5.50
   5  11  -2   35.80    5.60
   4  11  -2   60.29    6.50
  -4 -11   2   57.59   13.00
   3  11  -2   20.30    4.70
  -3 -11   2   22.00   11.00
   2  11  -2  145.69   10.00
  -2 -11   2  132.69   18.90
   1  11  -2    2.40    4.00
  -1 -11   2    4.40    9.70
   0  11  -2   -3.40    3.60
   0 -11   2   -5.90    9.70
  -1  11  -2   -4.70    3.70
   1 -11   2   -4.10    9.40
  -2  11  -2   35.80    5.20
   2 -11   2   30.30   12.90
  -3  11  -2    8.10    4.00
   3 -11   2    2.90   11.80
  -4  11  -2    5.70    4.40
   4 -11   2   11.80   12.80
  -5  11  -2   62.29    6.70
   5 -11   2   66.69   17.30
  -6  11  -2   23.50    5.60
   6 -11   2   22.90   13.90
  -7  11  -2   -2.30    5.10
   7 -11   2   -9.90   13.20
  -8  11  -2   -2.20    5.60
   8 -11   2   20.60   17.20
  -9  11  -2   10.50    6.60
   9 -11   2    2.20   15.70
   9  10  -2   -7.90    8.60
   8  10  -2   10.90    5.00
   8  10  -2   -3.40    8.10
   7  10  -2   13.30    4.90
   7  10  -2   14.80    8.90
   6  10  -2  120.39    9.30
   6  10  -2  115.89   13.80
   5  10  -2   10.90    3.80
   5  10  -2   10.50    4.20
   5  10  -2    8.60    7.50
   4  10  -2  102.69    8.10
  -4 -10   2   89.99   14.40
   3  10  -2   58.69    6.00
  -3 -10   2   57.89   12.90
   2  10  -2   23.10    4.50
  -2 -10   2   25.30   10.60
   1  10  -2    5.30    3.60
  -1 -10   2   -9.30    7.30
   0  10  -2    0.30    3.60
   0 -10   2    2.80    8.60
  -1  10  -2   79.19    7.20
   1 -10   2   84.59   15.10
  -2  10  -2   -0.90    3.40
   2 -10   2   -3.30    9.30
  -3  10  -2   10.30    4.10
   3 -10   2   16.40   10.60
  -4  10  -2    8.70    4.00
   4 -10   2    2.00   10.60
  -5  10  -2   94.09    8.10
   5 -10   2   66.39   16.00
  -6  10  -2   27.50    5.30
   6 -10   2    4.20   12.90
  -7  10  -2   41.70    6.10
   7 -10   2   42.70   16.70
  -8  10  -2   21.00    6.00
   8 -10   2   38.30   17.20
  -9  10  -2   17.20    6.20
 -10  10  -2   -0.50   13.30
  10 -10   2    5.40   16.50
   9   9  -2    4.40    8.40
   9   9  -2    4.90    5.10
   8   9  -2    6.80    4.70
   8   9  -2   -2.30    7.70
   7   9  -2   42.10    9.70
   7   9  -2   44.10    5.60
   6   9  -2    7.50    7.50
   6   9  -2   15.30    4.30
   5   9  -2   10.30    6.90
   5   9  -2    2.40    3.30
   5   9  -2    0.10    3.70
   4   9  -2   60.29    5.60
  -4  -9   2   49.80   11.40
   3   9  -2  244.78   13.50
  -3  -9   2  223.48   19.90
   2   9  -2   14.70    3.70
  -2  -9   2   12.90    8.60
   1   9  -2   63.69    5.70
  -1  -9   2   67.39   13.00
   0   9  -2  161.08    9.80
   0  -9   2  152.68   17.10
  -1   9  -2   32.30    4.40
   1  -9   2   35.40   10.20
  -2   9  -2   57.79    5.40
   2  -9   2   43.20   11.40
  -3   9  -2   54.99    5.30
   3  -9   2   56.99   12.70
  -4   9  -2  112.19    8.20
   4  -9   2   91.29   15.70
  -5   9  -2    8.10    4.00
   5  -9   2   -3.10   10.00
  -6   9  -2   31.00    5.10
   6  -9   2   21.80   12.10
  -7   9  -2   19.00    5.00
   7  -9   2    4.90   11.60
  -8   9  -2   32.90    5.90
   8  -9   2   30.20   14.00
  -9   9  -2    9.80    5.70
   9  -9   2   -6.80   12.70
 -10   9  -2    4.50    6.10
  10  -9   2  -20.50   15.90
  10   8  -2    8.10    4.90
  10   8  -2    9.70    8.90
   9   8  -2   38.20    9.90
   9   8  -2   50.99    6.30
   8   8  -2  141.89   14.70
   8   8  -2  126.39    9.60
   7   8  -2    6.70    7.10
   7   8  -2   10.50    4.10
   6   8  -2   45.30    5.10
   6   8  -2   46.90   16.10
   5   8  -2   27.20    4.00
   5   8  -2   42.50    8.50
   5   8  -2   36.20    4.60
   4   8  -2  111.09    7.80
  -4  -8   2  118.59   14.30
   3   8  -2   18.80    3.50
  -3  -8   2   21.00    8.50
  -2  -8   2  118.09   15.00
   1   8  -2  198.88   11.00
  -1  -8   2  182.48   16.50
   0   8  -2    2.40    2.60
   0  -8   2   -3.50    5.90
  -1   8  -2    0.50    2.50
   1  -8   2   -7.90    5.90
  -2   8  -2   24.40    3.90
   2  -8   2   32.60    9.50
  -3   8  -2  100.99    8.00
   3  -8   2  116.29   15.90
  -4   8  -2    5.20    3.20
   4  -8   2   -1.70    8.40
  -5   8  -2  103.39    7.60
   5  -8   2   95.29   15.80
  -6   8  -2    1.80    4.00
   6  -8   2   15.40   10.60
  -7   8  -2   49.90    5.80
   7  -8   2   52.49   14.10
  -8   8  -2   -7.90    4.40
   8  -8   2    4.60   12.20
  -9   8  -2   19.20    5.60
   9  -8   2   18.20   15.10
  10  -8   2   42.30   16.60
 -11   8  -2    7.00    6.80
  11  -8   2   14.10   17.70
  11   7  -2   10.40    5.10
  11   7  -2    3.90    9.40
  10   7  -2    9.20    4.90
  10   7  -2   11.90    8.80
   9   7  -2   37.20   10.10
   9   7  -2   40.00    5.70
   8   7  -2    1.20    7.00
   8   7  -2   11.10    4.30
   7   7  -2  159.28   14.40
   7   7  -2  155.78   10.00
   6   7  -2   25.00    7.20
   6   7  -2   29.00    4.30
   5   7  -2  104.89    8.50
   5   7  -2  109.69   10.90
   5   7  -2   78.99   14.40
   4   7  -2   89.69   12.50
   4   7  -2   95.29    6.30
   4   7  -2   95.39   10.00
   4   7  -2   91.59    6.60
   3   7  -2   43.80    9.50
   3   7  -2   58.99    5.20
  -3  -7   2   74.29   10.70
   2   7  -2   58.19    4.80
   2   7  -2   63.19    9.90
  -2  -7   2   42.50    9.40
  -2  -7   2   58.49    4.80
   1   7  -2  118.09   12.30
   1   7  -2  120.19    7.20
  -1  -7   2  124.89   13.90
  -1  -7   2  103.89    6.90
   0   7  -2   76.39   10.90
   0   7  -2   64.89    5.20
   0  -7   2   75.79   11.30
   0  -7   2   65.39    5.00
  -1   7  -2  247.18   18.70
  -1   7  -2  262.07   13.90
   1  -7   2  274.27   19.80
   1  -7   2  268.57   13.80
  -2   7  -2    0.00    2.20
  -2   7  -2    1.00    5.20
   2  -7   2    3.10    2.10
   2  -7   2    3.30    6.20
  -3   7  -2    9.80    2.80
   3  -7   2   14.70    7.90
  -4   7  -2  108.89    7.30
   4  -7   2  107.09   14.80
  -5   7  -2    1.20    4.50
   5  -7   2   10.80    8.20
  -6   7  -2   36.10    4.60
   6  -7   2   34.90   11.30
  -7   7  -2   -1.60    3.80
   7  -7   2   -5.20   10.10
  -8   7  -2  153.78   10.00
   8  -7   2  102.09   18.80
  -9   7  -2   10.70    4.80
   9  -7   2   -1.40   11.80
 -10   7  -2    0.10    5.40
  10  -7   2    4.70   12.50
 -11   7  -2   -0.40    5.80
  11  -7   2    6.20   14.10
 -12   7  -2   40.30    7.80
  11   6  -2    7.10    9.40
  11   6  -2    6.90    5.00
  10   6  -2   40.90    5.70
  10   6  -2   41.90   10.70
   9   6  -2    1.70    3.90
   9   6  -2    3.60    7.40
   8   6  -2   85.29   13.00
   8   6  -2  102.09    7.80
   7   6  -2    6.20    3.70
   7   6  -2   -4.30    6.10
   6   6  -2   39.40    9.20
   6   6  -2   43.20    4.50
   6   6  -2   54.39    8.30
   5   6  -2  136.89   11.10
   5   6  -2  130.59    7.90
   5   6  -2  115.39   12.70
   4   6  -2  180.08    9.50
   4   6  -2  161.98   14.10
   4   6  -2  180.98    9.70
   4   6  -2  163.68   12.40
  -4  -6   2  165.88    9.60
   3   6  -2   11.30    2.60
  -3  -6   2   17.90    6.30
  -3  -6   2   19.50    2.70
   2   6  -2   91.99    6.00
   2   6  -2  104.59   11.80
  -2  -6   2  116.49   12.60
  -2  -6   2   80.29    5.70
   1   6  -2   96.59   11.10
   1   6  -2  126.79    7.10
  -1  -6   2  116.59   11.80
  -1  -6   2  113.59    8.50
   0   6  -2   88.49    5.90
   0   6  -2  103.39   11.40
   0  -6   2   99.19   12.00
  -1   6  -2    2.90    2.10
   1  -6   2    9.10    5.90
   1  -6   2    4.50    3.40
  -2   6  -2   50.79    8.50
  -2   6  -2   56.29    4.40
   2  -6   2   53.39    9.70
   2  -6   2   45.10    4.00
  -3   6  -2  210.78   16.40
  -3   6  -2  223.88   11.80
   3  -6   2  218.98   11.70
   3  -6   2  227.68   17.70
  -4   6  -2   64.89    5.10
  -4   6  -2   67.89    5.70
  -4   6  -2   64.19    9.80
   4  -6   2   52.39   10.30
  -5   6  -2    0.50    2.60
   5  -6   2    2.00    6.90
  -6   6  -2    4.40    3.00
   6  -6   2   -5.10   11.90
  -7   6  -2  221.08   12.60
   7  -6   2  217.08   21.00
  -8   6  -2   13.00    4.10
   8  -6   2   -3.50    9.10
  -9   6  -2   28.20    5.00
   9  -6   2   34.10   12.40
 -10   6  -2   35.30    6.00
  10  -6   2   26.50   13.70
 -11   6  -2   48.70    7.00
  11  -6   2   28.90   14.60
 -12   6  -2   -2.80    6.20
  12  -6   2    9.00   14.30
  12   5  -2   -5.20    4.70
  12   5  -2   12.10   10.00
  11   5  -2    0.60    8.60
  11   5  -2   15.70    4.80
  10   5  -2    0.60    7.90
  10   5  -2    6.70    4.40
   9   5  -2  112.19    8.60
   9   5  -2  138.79   14.30
   8   5  -2   -8.90    3.10
   8   5  -2   -2.90    6.00
   7   5  -2   16.60    6.60
   7   5  -2   20.90    7.80
   7   5  -2   15.80    3.50
   6   5  -2   22.30    6.30
   6   5  -2   13.20    6.60
   6   5  -2   21.60    3.40
  -6  -5   2   19.60    3.10
   5   5  -2  478.55   24.20
   5   5  -2  491.25   26.90
  -5  -5   2  494.95   24.30
   4   5  -2   10.10    4.50
   4   5  -2    7.30    2.20
   4   5  -2   12.40    2.60
   4   5  -2   13.90    5.60
   3   5  -2   85.49   10.30
   3   5  -2   79.69    5.50
  -3  -5   2   91.19    9.50
  -3  -5   2   84.69    5.40
   2   5  -2  371.66   18.60
   2   5  -2  364.56   22.30
  -2  -5   2  376.26   22.50
  -2  -5   2  372.46   18.60
   1   5  -2  677.73   33.80
   1   5  -2  695.83   37.50
  -1  -5   2  700.43   37.60
  -1  -5   2  704.13   33.80
   0   5  -2  152.08   12.50
   0   5  -2  158.88    8.70
   0  -5   2  163.78   12.90
   0  -5   2  167.48    8.70
  -1   5  -2    2.70    1.90
  -1   5  -2    6.90    5.10
   1  -5   2    2.60    4.90
   1  -5   2    1.40    1.90
  -2   5  -2  236.08   12.50
  -2   5  -2  235.08   16.40
   2  -5   2  230.38   16.90
   2  -5   2  250.27   12.40
  -3   5  -2  132.49   11.80
  -3   5  -2  131.69    7.50
  -3   5  -2  127.89    7.90
   3  -5   2  132.49   12.60
  -4   5  -2   59.39    4.80
  -4   5  -2   54.39    5.40
  -4   5  -2   81.09   10.10
   4  -5   2   63.89   10.10
  -5   5  -2    1.30    2.60
  -5   5  -2   -1.50    2.20
  -5   5  -2    4.20    5.10
   5  -5   2    5.30    7.00
  -6   5  -2  395.76   19.70
  -6   5  -2  371.36   20.20
   6  -5   2  397.26   26.40
  -7   5  -2   22.40    3.80
   7  -5   2   23.30    9.50
  -8   5  -2    2.40    3.50
   8  -5   2  -10.80    8.10
  -9   5  -2    0.00    4.00
   9  -5   2   -4.10    9.40
 -10   5  -2  110.89    9.20
  10  -5   2   71.89   16.00
 -11   5  -2   -4.70    5.70
  11  -5   2   16.50   13.10
 -12   5  -2   -0.50    6.20
  12  -5   2   26.10   14.00
 -13   5  -2   14.40    7.30
  13  -5   2   11.80   14.60
  12   4  -2   -5.60   10.00
  12   4  -2    5.40    4.90
  11   4  -2   -6.90    8.90
  11   4  -2   -6.10    4.20
  10   4  -2   27.50    4.70
  10   4  -2   31.80    9.80
   9   4  -2   -0.40    8.10
   9   4  -2   19.90    4.00
   8   4  -2    1.10    6.80
   8   4  -2    7.70    3.30
   7   4  -2    5.00    5.50
   7   4  -2   -1.50    5.30
   7   4  -2    0.60    2.70
  -7  -4   2    0.20    2.40
   6   4  -2  240.98   12.50
   6   4  -2  234.18   15.70
  -6  -4   2  230.48   12.40
   5   4  -2   58.09    8.80
   5   4  -2   53.89    4.40
   5   4  -2   59.39    7.40
  -5  -4   2   46.20    4.20
   4   4  -2   93.59    5.80
   4   4  -2   95.29    8.30
   4   4  -2   93.49    9.60
  -4  -4   2   91.99    5.70
   3   4  -2  434.66   21.40
   3   4  -2  438.56   23.60
   3   4  -2  423.36   21.40
   3   4  -2  432.26   25.00
  -3  -4   2  439.16   21.40
   2   4  -2  419.46   21.20
   2   4  -2  442.26   24.60
  -2  -4   2  429.56   21.20
  -2  -4   2  442.16   24.50
   1   4  -2   39.70    6.60
   1   4  -2   37.70    3.10
  -1  -4   2   54.09    7.80
  -1  -4   2   33.90    3.20
   0   4  -2    3.20    4.40
   0   4  -2    5.60    1.70
   0  -4   2    6.70    1.80
   0  -4   2    5.10    4.50
  -1   4  -2  321.97   16.70
  -1   4  -2  327.17   19.80
   1  -4   2  351.96   20.40
   1  -4   2  350.16   16.80
  -2   4  -2  315.07   16.10
  -2   4  -2  301.37   19.20
   2  -4   2  328.17   20.00
   2  -4   2  338.97   16.10
  -3   4  -2   -2.60    2.00
  -3   4  -2    1.20    1.80
  -3   4  -2   -1.60    4.20
   3  -4   2    1.10    4.70
  -4   4  -2   12.10    5.60
  -4   4  -2   17.60    3.00
  -4   4  -2   17.80    2.60
   4  -4   2   14.00    6.30
  -5   4  -2  315.57   26.70
  -5   4  -2  351.16   17.10
   5  -4   2  321.17   22.00
  -6   4  -2    1.40    2.40
  -6   4  -2    5.60    2.50
  -6   4  -2    2.20    5.20
   6  -4   2    0.00    6.10
  -7   4  -2   13.00    7.60
   7  -4   2    6.20    7.50
   7  -4   2    1.80    3.40
   8  -4   2    8.50    8.30
   8  -4   2   -0.20    4.40
   9  -4   2   62.99   13.30
   9  -4   2   58.79    6.60
  10  -4   2   -2.50   10.90
  10  -4   2   -2.40    4.60
  11  -4   2    2.40    5.30
  11  -4   2   13.60   12.00
  12  -4   2    4.90   12.30
  12  -4   2   10.30    6.30
  13  -4   2   -0.50   13.50
  13  -4   2   11.60    6.70
  12   3  -2    3.00    4.60
  12   3  -2   -7.40    9.10
  11   3  -2   13.00    9.80
  11   3  -2   13.40    4.50
  10   3  -2    0.40    3.60
  10   3  -2   -2.80    8.20
   9   3  -2   31.50    8.90
   9   3  -2   25.40    4.70
   8   3  -2    8.20    3.10
   8   3  -2   12.90    6.40
  -8  -3   2    9.10    2.80
  -8  -3   2    6.20    5.60
  -8  -3   2    7.90    2.90
   7   3  -2  375.06   19.60
   7   3  -2  410.06   23.30
  -7  -3   2  376.66   19.50
  -7  -3   2  400.26   22.80
  -7  -3   2  389.76   19.60
   6   3  -2   42.40    6.80
   6   3  -2   50.89    4.30
  -6  -3   2   46.50    4.00
  -6  -3   2   47.60    3.90
  -6  -3   2   56.19    7.20
   5   3  -2  180.58   12.30
   5   3  -2  182.28    9.50
  -5  -3   2  173.68    9.50
   4   3  -2  266.67   16.10
   4   3  -2  266.27   13.60
   4   3  -2  260.17   17.10
  -4  -3   2  272.97   13.60
   3   3  -2  112.59    8.30
   3   3  -2  114.59    6.30
   3   3  -2  113.29    9.70
  -3  -3   2  115.99    6.40
   2   3  -2  142.09   10.80
   2   3  -2  148.79    7.90
  -2  -3   2  154.98    7.90
  -2  -3   2  157.58   11.00
   1   3  -2   36.60    5.80
   1   3  -2   28.60    2.50
  -1  -3   2   25.20    2.40
  -1  -3   2   28.50    5.80
   0   3  -2    3.50    3.80
   0   3  -2   -0.50    1.50
   0  -3   2    3.80    4.30
   0  -3   2    2.10    1.60
  -1   3  -2    1.20    1.60
  -1   3  -2    1.20    3.80
   1  -3   2    3.60    1.50
   1  -3   2   -2.20    3.70
  -2   3  -2  438.56   21.10
  -2   3  -2  432.66   23.70
  -2   3  -2  405.16   20.80
   2  -3   2  431.86   24.00
  -3   3  -2    8.60    2.20
  -3   3  -2    6.00    4.20
  -3   3  -2    1.40    1.50
   3  -3   2    1.60    4.50
  -4   3  -2  299.77   15.20
  -4   3  -2  294.37   18.30
   4  -3   2  281.67   18.80
   4  -3   2  308.37   15.40
  -5   3  -2  412.76   23.60
  -5   3  -2  402.76   20.10
   5  -3   2  386.06   20.30
   5  -3   2  403.76   24.40
  -6   3  -2   80.29    9.80
  -6   3  -2   62.39    5.70
   6  -3   2   86.89   11.10
   6  -3   2   68.69    5.70
  -7   3  -2  146.69   13.00
  -7   3  -2  144.39    8.70
   7  -3   2  155.38    9.20
   7  -3   2  143.39   14.80
   8  -3   2  134.79   16.00
   8  -3   2  162.78    9.80
   9  -3   2  -10.60    9.00
   9  -3   2   -1.30    3.90
  10  -3   2   94.59   15.20
  10  -3   2   67.59    7.10
  11  -3   2   -1.70    4.90
  11  -3   2   -7.90    9.40
  12  -3   2   57.89    7.70
  12  -3   2   44.60   14.40
  13  -3   2  -10.00    5.90
  13  -3   2   -7.00   12.50
  13   2  -2   -0.60    5.10
  13   2  -2   -2.30   10.90
  12   2  -2    3.60   10.20
  12   2  -2    6.60    4.80
  11   2  -2   11.70    4.50
  11   2  -2   12.00    9.80
  10   2  -2    9.10    3.70
  10   2  -2    9.80    8.30
   9   2  -2    7.30    7.80
   9   2  -2    3.10    3.40
   8   2  -2  181.38   10.50
   8   2  -2  194.88   15.70
  -8  -2   2  194.38   14.60
  -8  -2   2  176.38   10.30
   7   2  -2    5.10    2.60
   7   2  -2   -4.70    5.40
  -7  -2   2    6.90    2.40
  -7  -2   2   16.10    5.50
   6   2  -2  182.98   13.50
   6   2  -2  184.88   10.00
  -6  -2   2  189.48   12.90
  -6  -2   2  188.88    9.90
   5   2  -2  122.79    9.90
   5   2  -2  122.09    7.00
  -5  -2   2  130.49    7.00
  -5  -2   2  127.09    9.50
   4   2  -2  641.04   33.50
   4   2  -2  637.04   31.50
  -4  -2   2  665.83   31.70
  -4  -2   2  667.53   33.60
  -4  -2   2  648.54   31.60
   3   2  -2    6.90    1.70
   3   2  -2    6.70    3.40
  -3  -2   2    6.70    3.20
  -3  -2   2   13.00    1.70
  -3  -2   2    9.80    1.70
   2   2  -2 1124.49   54.79
   2   2  -2 1110.89   53.39
   2   2  -2 1116.79   55.69
  -2  -2   2 1105.69   53.39
   1   2  -2   84.29    4.80
   1   2  -2   81.69    7.70
  -1  -2   2  100.49    8.10
  -1  -2   2   84.99    4.70
   0   2  -2 1623.14   81.29
   0   2  -2 1709.03   83.19
   0  -2   2 1778.32   81.49
  -1   2  -2  540.05   27.90
   1  -2   2  529.75   25.80
  -2   2  -2    6.60    4.10
  -2   2  -2    5.30    1.60
  -2   2  -2    5.30    1.90
   2  -2   2    3.20    3.90
  -3   2  -2 1101.89   55.99
  -3   2  -2 1128.79   53.99
   3  -2   2 1125.69   56.39
   3  -2   2 1127.09   53.99
  -4   2  -2   45.20    3.80
  -4   2  -2   50.89    6.70
   4  -2   2   50.79    4.00
   4  -2   2   50.69    7.30
  -5   2  -2  289.77   17.80
  -5   2  -2  296.97   14.90
   5  -2   2  288.37   15.10
   5  -2   2  294.67   18.70
  -6   2  -2  105.09   10.50
  -6   2  -2  116.79    7.10
   6  -2   2  128.49    7.60
   6  -2   2  132.29   12.10
  -7   2  -2  346.27   22.60
  -7   2  -2  324.87   16.80
   7  -2   2  323.47   21.70
   7  -2   2  325.87   17.10
  -8   2  -2   10.10    6.00
   8  -2   2   18.40    8.10
   8  -2   2   12.70    3.50
   9  -2   2  196.08   18.60
  10  -2   2   12.20   10.60
  10  -2   2   -3.10    4.20
  11  -2   2   35.70   12.10
  11  -2   2   28.70    5.90
  12  -2   2   -0.90    5.30
  12  -2   2   20.30   11.80
  13  -2   2   13.50    6.30
  13  -2   2   18.80   12.60
  13   1  -2    0.50   11.30
  13   1  -2    9.00    5.60
  12   1  -2   21.70   12.00
  12   1  -2   25.00    5.50
  11   1  -2    5.20    4.10
  11   1  -2   14.50    9.70
  10   1  -2   14.20    9.60
  10   1  -2    4.60    7.00
   9   1  -2  284.87   14.60
   9   1  -2  322.27   20.90
  -9  -1   2  232.98   14.30
   8   1  -2   -8.10    2.50
   8   1  -2   -5.40    6.00
  -8  -1   2   -3.90    5.30
  -8  -1   2   -7.20    2.50
   7   1  -2   99.79    6.20
   7   1  -2   99.59   10.40
  -7  -1   2   94.99    6.10
  -7  -1   2  100.99    9.50
   6   1  -2   56.39    4.20
   6   1  -2   58.29    7.70
  -6  -1   2   62.29    7.30
  -6  -1   2   54.99    4.10
   5   1  -2   88.09    8.90
   5   1  -2   82.59    5.50
  -5  -1   2   94.99    5.40
  -5  -1   2   93.49    8.50
   4   1  -2   77.49    4.40
   4   1  -2   69.09    7.20
  -4  -1   2   76.89    4.40
  -4  -1   2   69.59    6.90
   3   1  -2  209.78   10.40
   3   1  -2  203.58   12.50
  -3  -1   2  204.38   12.20
  -3  -1   2  215.58   10.40
   2   1  -2 2216.08  106.89
  -2  -1   2 2245.28  108.19
  -2  -1   2 2250.77  106.99
  -2  -1   2 2259.57  106.89
   1   1  -2   34.10    3.70
   1   1  -2   31.60    2.30
   1   1  -2   33.90    2.30
   1   1  -2   43.80    5.60
  -1  -1   2   34.30    2.20
   0   1  -2  105.59    6.80
   0   1  -2   92.79    4.90
   0  -1   2   97.19    6.70
   0  -1   2   91.79    4.90
  -1   1  -2   42.00    4.50
  -1   1  -2   31.00    2.60
   1  -1   2   34.10    4.40
  -2   1  -2  996.80   50.09
  -2   1  -2 1027.30   48.80
   2  -1   2 1027.50   48.90
   2  -1   2 1016.40   50.29
  -3   1  -2  191.08   12.50
  -3   1  -2  221.08   10.60
   3  -1   2  205.78   10.70
  -4   1  -2  361.46   20.40
  -4   1  -2  378.86   18.50
   4  -1   2  370.06   18.60
   4  -1   2  388.06   21.10
  -5   1  -2   61.09    4.40
  -5   1  -2   74.19    7.70
   5  -1   2   82.29    8.80
   5  -1   2   59.09    4.70
  -6   1  -2  140.39   11.50
  -6   1  -2  162.38    8.70
   6  -1   2  161.28    9.00
   6  -1   2  164.18   12.80
  -7   1  -2   84.19    9.30
  -7   1  -2   87.19    5.80
   7  -1   2  104.29   10.70
   7  -1   2   89.09    6.30
  -8   1  -2   36.40    3.80
  -8   1  -2   29.70    7.50
   8  -1   2   33.20    8.50
   8  -1   2   40.70    4.30
  -9   1  -2  132.19   13.60
   9  -1   2  183.88   16.20
   9  -1   2  156.48   10.80
  10  -1   2    0.90    8.60
  10  -1   2    0.90    4.10
  11  -1   2    2.60    9.70
  11  -1   2   11.70    4.70
  12  -1   2   44.20    6.70
  12  -1   2   64.89   14.80
  13  -1   2   -6.30    5.50
  13  -1   2    3.80   11.40
  13   0  -2   27.40    6.20
  13   0  -2   30.20   13.40
  12   0  -2   13.30   11.20
  12   0  -2   21.40    5.50
  11   0  -2    3.20    9.60
  11   0  -2   15.20    4.50
  10   0  -2    5.60    8.90
  10   0  -2   -3.70    3.70
   9   0  -2    5.10    8.50
   9   0  -2    7.10    3.60
  -9   0   2   -3.70    3.00
   8   0  -2   16.10    3.00
   8   0  -2   12.80    6.60
  -8   0   2   18.30    6.30
   7   0  -2   93.69   10.20
   7   0  -2   73.99    5.20
  -7   0   2   76.59    8.70
  -7   0   2   68.09    4.90
   6   0  -2   49.40    4.10
   6   0  -2   57.19    8.10
  -6   0   2   65.09    7.60
  -6   0   2   55.19    4.00
   5   0  -2   55.29    7.10
   5   0  -2   44.40    3.60
  -5   0   2   43.30    3.40
  -5   0   2   37.20    6.10
   4   0  -2   16.30    1.90
   4   0  -2   17.70    4.50
  -4   0   2   20.30    4.40
  -4   0   2   19.10    1.90
   3   0  -2    5.40    3.50
   3   0  -2    1.00    1.20
  -3   0   2    2.70    1.20
  -3   0   2    3.30    3.30
   2   0  -2 2829.82  136.49
   2   0  -2 2956.80  137.89
  -2   0   2 2868.31  136.49
  -2   0   2 2813.62  137.69
   1   0  -2  540.35   26.10
   1   0  -2  563.54   27.20
  -1   0   2  561.84   27.20
  -1   0   2  529.75   26.10
   0   0  -2 2666.53  125.19
   0   0  -2 2591.74  124.39
   0   0  -2 2578.64  124.89
  -1   0  -2  719.73   33.80
  -1   0  -2  689.53   34.40
   1   0   2  702.83   33.80
   1   0   2  708.33   34.50
  -2   0  -2 1716.93   77.99
  -2   0  -2 1621.74   78.59
   2   0   2 1589.54   78.59
   2   0   2 1591.14   77.79
  -3   0  -2 1223.58   59.79
  -3   0  -2 1237.78   60.79
   3   0   2 1288.87   61.09
   3   0   2 1247.68   59.89
  -4   0  -2   11.20    2.00
  -4   0  -2   15.30    4.20
   4   0   2   10.40    2.20
   4   0   2   17.50    4.60
  -5   0  -2   13.90    2.00
  -5   0  -2   12.90    4.10
   5   0   2   10.20    2.30
   5   0   2   11.10    4.40
  -6   0  -2    2.10    3.80
  -6   0  -2   -0.60    1.80
   6   0   2    2.30    2.20
   6   0   2    2.00    4.30
  -7   0  -2   59.39    7.70
  -7   0  -2   55.99    4.50
   7   0   2   57.69    5.10
   7   0   2   68.69    8.80
  -8   0  -2   43.20    7.20
  -8   0  -2   37.40    3.80
   8   0   2   35.00    4.10
   8   0   2   44.40    8.10
  -9   0  -2   14.20    6.40
   9   0   2    6.60    3.70
   9   0   2    6.10    6.90
  10   0   2    3.80    4.30
  10   0   2    5.50    8.30
  11   0   2  145.09   10.50
  12   0   2   20.00    5.70
  12   0   2   10.60   10.60
  13   0   2    3.20   10.40
  13   0   2    9.90    6.00
  13  -1  -2   -6.40    5.50
  13  -1  -2    1.70   12.80
  12  -1  -2   -4.30    5.00
  12  -1  -2   -4.00   10.80
  11  -1  -2    3.10    4.30
  11  -1  -2    2.70    9.80
  10  -1  -2   79.29   13.30
  10  -1  -2   86.19    7.60
   9  -1  -2  432.26   35.40
  -9   1   2  325.87   17.60
   8  -1  -2    8.20    6.80
   8  -1  -2    3.30    2.80
   7  -1  -2   -2.50    5.70
   7  -1  -2   -1.90    2.10
  -7   1   2   -1.30    4.40
  -7   1   2    0.20    1.90
   6  -1  -2   34.40    7.10
   6  -1  -2   35.40    3.20
  -6   1   2   19.80    5.70
  -6   1   2   31.20    2.80
   5  -1  -2  507.95   28.20
   5  -1  -2  513.15   25.10
  -5   1   2  518.25   27.80
  -5   1   2  516.65   25.00
   4  -1  -2   22.10    5.10
  -4   1   2   20.30    4.70
  -4   1   2   19.40    1.90
   3  -1  -2   17.10    1.80
   3  -1  -2   18.60    4.50
  -3   1   2   16.90    1.60
  -3   1   2   15.30    4.00
   2  -1  -2  276.97   13.60
   2  -1  -2  288.07   16.20
  -2   1   2  286.47   15.50
  -2   1   2  279.87   13.60
   1  -1  -2 3432.86  161.18
  -1   1   2 3456.75  161.18
  -1   1   2 3217.38  160.18
   0  -1  -2    2.80    1.60
   0   1   2    3.50    1.30
   0   1   2    3.30    0.50
  -1  -1  -2  102.89    5.30
  -1  -1  -2  113.49    5.40
   1   1   2  101.69    5.30
  -2  -1  -2 3539.35  174.48
  -2  -1  -2 3837.22  174.48
   2   1   2 3720.03  174.58
   2   1   2 3549.34  174.38
  -3  -1  -2  239.38   12.10
  -3  -1  -2  242.18   12.70
   3   1   2  250.17   12.90
   3   1   2  235.78   12.10
  -4  -1  -2    4.40    2.80
  -4  -1  -2   -0.40    1.50
   4   1   2    1.80    2.80
   4   1   2   -1.00    1.60
  -5  -1  -2   12.50    3.50
  -5  -1  -2    9.50    1.90
   5   1   2    6.20    3.60
   5   1   2    6.70    2.00
  -6  -1  -2  329.77   17.10
  -6  -1  -2  344.27   19.00
   6   1   2  344.37   17.30
   6   1   2  349.27   19.40
  -7  -1  -2  130.39    7.90
  -7  -1  -2  148.99   10.50
   7   1   2  148.79   11.20
   7   1   2  133.99    8.10
  -8  -1  -2   50.59    4.60
  -8  -1  -2   52.69    7.20
   8   1   2   46.30    4.60
   8   1   2   67.19    8.60
  -9  -1  -2   12.20    9.10
   9   1   2   -1.60    6.00
   9   1   2    0.00    3.70
 -10  -1  -2  292.17   21.60
  10   1   2  355.86   18.50
  10   1   2  383.86   23.70
  11   1   2   -2.80    8.30
  11   1   2   -0.50    4.30
  12   1   2   -8.30    4.70
  12   1   2   -3.40    8.90
  13   1   2   13.40   10.90
  13   1   2   17.30    6.10
  13  -2  -2   12.10   13.50
  13  -2  -2    0.50    5.80
  12  -2  -2   -7.50   11.20
  12  -2  -2  -14.10    4.90
  11  -2  -2   -5.90    9.80
  11  -2  -2    5.70    4.70
  10  -2  -2   37.40    5.10
  10  -2  -2   38.40   11.10
   9  -2  -2   27.70    9.70
   9  -2  -2   47.00    5.10
  -9   2   2   38.00    4.20
   8  -2  -2    6.50    7.10
   8  -2  -2   14.90    3.30
   7  -2  -2    0.10    2.40
   7  -2  -2   -3.00    5.10
  -7   2   2   -3.60    4.40
  -7   2   2    0.50    2.00
   6  -2  -2  238.98   16.40
   6  -2  -2  223.88   11.90
  -6   2   2  232.08   11.70
  -6   2   2  204.38   20.60
   5  -2  -2  147.09   12.60
   5  -2  -2  155.58    8.50
  -5   2   2  152.88   11.90
  -5   2   2  156.18    8.20
   4  -2  -2    3.50    4.40
   4  -2  -2    8.00    1.90
  -4   2   2    6.20    1.50
  -4   2   2   10.30    4.20
   3  -2  -2   57.19    3.90
   3  -2  -2   78.49    7.90
  -3   2   2   68.49    7.20
  -3   2   2   58.39    3.70
   2  -2  -2 3194.18  150.68
  -2   2   2 3153.58  150.48
  -2   2   2 2979.20  148.79
  -2   2   2 3180.88  148.89
   1  -2  -2  100.59    7.50
   1  -2  -2  111.49    5.50
  -1   2   2  107.09    7.50
  -1   2   2  110.49    5.50
   0  -2  -2   50.69    2.90
   0  -2  -2   51.29    4.40
   0   2   2   49.99    4.30
   0   2   2   51.39    2.90
  -1  -2  -2  180.88    9.50
  -1  -2  -2  186.88    9.10
   1   2   2  181.28    9.50
   1   2   2  184.18    9.10
  -2  -2  -2 1946.51   92.79
   2   2   2 1942.21   92.79
   2   2   2 1945.01   92.99
  -3  -2  -2    8.70    1.80
  -3  -2  -2    6.50    1.90
   3   2   2    7.30    2.10
   3   2   2    7.10    1.70
  -4  -2  -2   67.79    4.40
  -4  -2  -2   77.59    5.30
   4   2   2   70.49    4.50
   4   2   2   64.89    5.40
  -5  -2  -2  460.95   23.00
  -5  -2  -2  428.86   21.90
   5   2   2  450.55   22.10
  -6  -2  -2  190.78   11.50
  -6  -2  -2  183.38    9.80
   6   2   2  180.98    9.90
   6   2   2  179.48   11.80
  -7  -2  -2   11.80    2.40
  -7  -2  -2    9.50    4.10
   7   2   2   11.00    4.50
   7   2   2    9.90    2.50
  -8  -2  -2    1.40    4.10
   8   2   2   -0.50    4.50
   8   2   2    0.60    2.80
  -9  -2  -2  129.39   11.50
   9   2   2  149.69   12.60
   9   2   2  116.89    9.90
 -10  -2  -2   60.09    9.30
  10   2   2   62.39   10.00
  10   2   2   58.29    5.90
  11   2   2   24.10    5.20
  11   2   2   36.60    9.80
  12   2   2   -4.00    8.30
  12   2   2   -0.10    4.70
  13   2   2   -0.10    9.50
  13   2   2   13.10    6.00
  13  -3  -2    8.60   13.70
  13  -3  -2   -4.40    5.80
  12  -3  -2    1.20    5.50
  12  -3  -2    0.20   12.40
  11  -3  -2    9.00    4.80
  11  -3  -2    6.10   10.40
  10  -3  -2   -6.20    9.30
  10  -3  -2   12.50    4.50
   9  -3  -2    1.00    3.80
   9  -3  -2    8.00    9.50
  -9   3   2    6.30    3.30
   8  -3  -2   -1.10    2.90
   8  -3  -2   -2.20    7.30
  -8   3   2    2.90    2.50
   7  -3  -2  358.16   24.20
   7  -3  -2  381.76   19.10
  -7   3   2  385.76   18.80
  -7   3   2  358.46   23.20
   6  -3  -2  259.87   18.80
   6  -3  -2  277.17   14.20
  -6   3   2  281.47   14.00
  -6   3   2  269.97   18.10
   5  -3  -2   40.10    3.50
   5  -3  -2   37.00    6.80
  -5   3   2   41.30    7.00
  -5   3   2   35.30    3.30
   4  -3  -2   39.60    6.80
  -4   3   2   38.00    2.80
  -4   3   2   37.40    6.30
  -4   3   2   34.60    3.10
   3  -3  -2  311.27   19.00
  -3   3   2  330.87   16.00
  -3   3   2  315.27   18.60
  -3   3   2  328.67   16.00
   2  -3  -2   70.89    7.80
  -2   3   2   80.29    7.90
  -2   3   2   73.39    4.20
   1  -3  -2   27.20    2.20
  -1   3   2   28.70    5.00
  -1   3   2   24.50    2.10
   0  -3  -2    1.90    3.30
   0   3   2    5.80    1.40
   0   3   2    5.70    3.40
  -1  -3  -2  378.16   19.00
  -1  -3  -2  404.56   20.20
   1   3   2  390.66   20.10
  -2  -3  -2   20.60    3.20
  -2  -3  -2   17.50    2.10
   2   3   2   22.20    3.40
   2   3   2   17.00    2.10
  -3  -3  -2   14.50    2.20
   3   3   2   16.80    3.30
   3   3   2   14.20    2.40
   3   3   2   12.60    2.60
  -4  -3  -2    0.40    1.80
   4   3   2    3.10    2.40
   4   3   2    2.30    2.60
   4   3   2   -0.80    1.70
  -5  -3  -2  996.30   49.20
  -5  -3  -2  989.60   48.00
  -5  -3  -2 1005.90   48.30
   5   3   2  987.40   51.29
   5   3   2 1020.90   48.40
  -6  -3  -2    9.30    3.40
   6   3   2    5.10    2.20
   6   3   2    8.80    3.70
  -7  -3  -2   89.19    7.70
  -7  -3  -2   72.69    5.60
   7   3   2   90.99    8.30
   7   3   2   91.49    6.00
  -8  -3  -2  145.89   11.40
   8   3   2  170.48    9.50
   8   3   2  163.18   12.20
  -9  -3  -2   -5.10    4.80
   9   3   2   -3.90    5.50
   9   3   2   -1.50    3.20
 -10  -3  -2   32.40    7.80
  10   3   2   40.60    8.50
  10   3   2   36.20    5.00
 -11  -3  -2    7.60    8.90
  11   3   2   15.10    4.70
  11   3   2   19.50    8.30
  12   3   2   28.10   17.10
  12   3   2   26.40    5.60
  13   3   2   -4.10    5.20
  13   3   2   11.80   10.10
  13  -4  -2   -8.90   13.70
  12  -4  -2   16.50   13.40
  12  -4  -2    9.90    5.40
  11  -4  -2   -0.20    5.00
  11  -4  -2  -10.10   11.20
  10  -4  -2    3.00    5.10
  10  -4  -2   -8.70    9.70
   9  -4  -2   -7.10    9.00
   9  -4  -2   -2.50    3.70
   8  -4  -2  107.59    7.70
   8  -4  -2   80.29   13.10
  -8   4   2   93.99    6.70
   7  -4  -2   52.09   10.50
  -7   4   2   55.69    4.70
   6  -4  -2   62.49    9.90
  -6   4   2   58.69    4.60
  -6   4   2   63.09    9.40
  -6   4   2   64.09    4.70
   5  -4  -2   -1.10    5.40
  -5   4   2    3.50    1.70
  -5   4   2    4.70    2.00
   4  -4  -2  970.30   51.49
  -4   4   2 1021.20   47.80
  -4   4   2  986.20   47.60
  -4   4   2  972.90   50.89
   3  -4  -2    4.50    4.70
  -3   4   2    1.30    1.40
  -3   4   2    6.10    2.00
  -3   4   2    1.50    4.10
   2  -4  -2   20.80    2.10
   2  -4  -2   16.50    5.20
  -2   4   2   23.60    5.30
  -2   4   2   23.40    2.20
   1  -4  -2   43.80    6.10
   1  -4  -2   40.70    3.10
  -1   4   2   33.90    2.90
  -1   4   2   55.29    6.30
   0  -4  -2   63.49    4.00
   0  -4  -2   67.59    7.00
   0   4   2   69.99    6.90
   0   4   2   61.59    4.10
  -1  -4  -2  174.88    8.90
  -1  -4  -2  174.98   11.00
   1   4   2  164.58    8.80
  -2  -4  -2  475.45   24.30
  -2  -4  -2  483.75   22.80
   2   4   2  464.65   24.10
   2   4   2  437.66   22.70
  -3  -4  -2  275.17   13.80
  -3  -4  -2  277.57   15.10
   3   4   2  270.87   13.80
   3   4   2  271.57   15.20
  -4  -4  -2  550.24   26.90
   4   4   2  534.25   28.80
   4   4   2  561.54   26.90
   4   4   2  551.34   27.60
  -5  -4  -2  346.17   17.00
   5   4   2  332.37   18.00
   5   4   2  333.27   17.00
   5   4   2  333.07   18.70
  -6  -4  -2   27.40    3.20
   6   4   2   28.90    3.30
   6   4   2   30.70    5.40
   6   4   2   23.00    4.70
  -7  -4  -2  195.08   11.20
   7   4   2  201.88   11.00
  -8  -4  -2   33.40    3.20
  -8  -4  -2   31.20    5.60
   8   4   2   31.10    4.80
   8   4   2   33.70    6.70
  -9  -4  -2  110.69    7.20
  -9  -4  -2  124.79   10.80
   9   4   2  115.79   11.60
   9   4   2  128.49    8.40
 -10  -4  -2   -1.40    2.60
 -10  -4  -2    6.20    5.60
  10   4   2    2.00    5.90
  10   4   2    8.70    4.10
 -11  -4  -2   12.50    6.90
 -11  -4  -2   16.50    3.60
  11   4   2   22.80    8.20
  11   4   2   15.10    4.60
  12   4   2   12.80    5.20
  12   4   2    8.90    8.80
  13   4   2   23.30    9.90
  13   4   2    8.20    5.90
  12  -5  -2    2.60   14.00
 -12   5   2   10.10    6.10
  11  -5  -2    0.30   11.50
 -11   5   2    6.60    5.00
  10  -5  -2    3.80   11.50
 -10   5   2   11.10    4.50
   9  -5  -2   10.90   10.10
  -9   5   2   15.60    4.10
   8  -5  -2   60.89   12.80
  -8   5   2   74.19    6.30
  -8   5   2   87.99    6.50
  -7   5   2  106.29    6.80
  -7   5   2   97.59    6.80
   6  -5  -2    0.90    6.30
  -6   5   2    1.30    2.20
  -6   5   2    2.70    2.30
  -5   5   2  352.46   17.40
  -5   5   2  331.87   21.70
  -5   5   2  350.96   17.70
   4  -5  -2   25.10    6.90
  -4   5   2   19.80    7.40
  -4   5   2   27.50    2.70
  -4   5   2   23.90    2.90
   3  -5  -2  360.96   22.20
   3  -5  -2  348.87   17.60
  -3   5   2  358.56   21.40
  -3   5   2  358.36   17.70
   2  -5  -2  244.58   12.00
   2  -5  -2  253.77   16.30
  -2   5   2  231.18   12.00
  -2   5   2  216.38   15.20
   1  -5  -2  609.44   32.10
   1  -5  -2  609.74   28.90
  -1   5   2  588.74   31.60
  -1   5   2  572.24   28.80
   0  -5  -2    7.50    4.40
   0  -5  -2    6.50    1.80
   0   5   2    6.40    4.10
   0   5   2    6.80    1.90
  -1  -5  -2  586.64   27.90
  -1  -5  -2  596.04   30.30
   1   5   2  548.95   27.80
   1   5   2  557.44   29.80
  -2  -5  -2  245.48   12.10
  -2  -5  -2  221.18   14.20
   2   5   2  233.18   12.00
   2   5   2  237.38   14.10
  -3  -5  -2  490.15   26.70
  -3  -5  -2  531.05   24.90
   3   5   2  504.65   24.80
   3   5   2  493.15   26.70
  -4  -5  -2  218.68   10.80
   4   5   2  194.58   12.70
   4   5   2  199.68   10.30
   4   5   2  203.38   11.70
   4   5   2  203.68   10.80
  -5  -5  -2  464.45   23.30
   5   5   2  477.95   24.30
   5   5   2  458.75   23.30
   5   5   2  473.15   25.40
  -6  -5  -2   36.30    3.90
   6   5   2   57.79    6.20
   6   5   2   37.40    3.90
   6   5   2   37.70    6.40
   7   5   2  170.48   12.60
   7   5   2  171.58   11.60
   7   5   2  160.68    9.70
   8   5   2  107.29    9.90
   8   5   2   98.49   10.50
   8   5   2  116.09    7.70
   9   5   2   41.90    7.90
   9   5   2   31.80    7.50
   9   5   2   36.80    4.80
  10   5   2   19.90    7.10
  10   5   2    7.50    6.50
  10   5   2    6.10    4.20
  11   5   2    7.80    7.10
  11   5   2   11.60    7.60
  11   5   2    5.40    4.90
  12   5   2    8.70    5.10
  12   5   2   15.70    8.30
  13   5   2   20.20    6.80
  13   5   2   20.00    9.80
  12  -6  -2   14.00   14.80
 -12   6   2    1.90    6.00
  11  -6  -2   19.10   13.30
 -11   6   2   11.00    5.20
  10  -6  -2   19.30   12.40
 -10   6   2   34.60    5.10
   9  -6  -2    0.30   10.40
  -9   6   2   16.10    4.80
   8  -6  -2   12.30   10.40
  -8   6   2   23.90    4.20
   7  -6  -2   75.99   13.40
  -7   6   2   73.79    5.90
  -7   6   2   52.69    5.40
   6  -6  -2   98.29   14.00
  -6   6   2  144.69    7.70
  -6   6   2  113.39    7.90
   5  -6  -2   21.60    8.00
  -5   6   2   30.80    3.70
  -5   6   2   35.50    9.60
  -5   6   2   38.70    3.50
   4  -6  -2  146.89   13.90
  -4   6   2  143.19    8.50
  -4   6   2  126.99   12.30
  -4   6   2  155.58    8.20
   3  -6  -2   47.50    3.60
   3  -6  -2   41.60    8.40
  -3   6   2   47.40   10.20
  -3   6   2   43.30    3.90
   2  -6  -2  347.27   16.50
   2  -6  -2  328.87   21.10
  -2   6   2  312.17   16.50
  -2   6   2  320.57   20.20
   1  -6  -2   93.19   10.40
   1  -6  -2  100.39    5.90
  -1   6   2   97.19    6.00
  -1   6   2   97.09   10.40
   0  -6  -2   27.00    2.80
   0  -6  -2   24.40    6.10
   0   6   2   28.40    3.00
   0   6   2   26.80    5.70
  -1  -6  -2  283.47   17.30
  -1  -6  -2  281.27   14.00
   1   6   2  278.57   16.80
   1   6   2  259.07   13.90
  -2  -6  -2  268.57   13.20
  -2  -6  -2  233.38   16.00
   2   6   2  261.67   13.20
   2   6   2  239.08   15.70
  -3  -6  -2    4.00    3.80
  -3  -6  -2    2.60    2.50
   3   6   2    2.30    2.10
   3   6   2    8.40    4.00
  -4  -6  -2  295.37   15.20
   4   6   2  290.97   15.30
   4   6   2  307.97   17.80
  -5  -6  -2   27.20    3.30
   5   6   2   26.00    5.80
   5   6   2   26.10    4.60
   5   6   2   30.00    3.40
   6   6   2  153.28    9.10
   6   6   2  152.38   12.00
   6   6   2  156.88   10.70
   7   6   2   97.99    7.20
   7   6   2   99.69    9.30
   7   6   2   88.39   10.00
   8   6   2   50.79    5.40
   8   6   2   46.70    7.30
   8   6   2   38.60    7.90
   9   6   2   35.10    8.20
   9   6   2   54.99    8.00
   9   6   2   36.50    5.10
  10   6   2    0.80    4.40
  10   6   2   -0.50    6.00
  10   6   2   -6.80    6.20
  11   6   2   39.80    6.00
  11   6   2   23.40    9.40
  11   6   2   36.50    8.60
  12   6   2   18.40    8.10
  12   6   2    3.80    5.50
  12  -7  -2   21.50   16.40
 -12   7   2    2.10    6.00
  11  -7  -2   -2.70   12.80
 -11   7   2    3.50    5.40
  10  -7  -2    5.60   13.60
 -10   7   2   -5.20    5.00
   9  -7  -2   14.30   12.30
  -9   7   2    5.40    4.40
   8  -7  -2   35.50   12.70
  -8   7   2   38.90    8.00
   7  -7  -2   26.10   11.10
  -7   7   2   37.70    4.50
   6  -7  -2   32.00   10.70
  -6   7   2   25.20    3.60
  -6   7   2   18.30    3.80
   5  -7  -2  227.78   19.40
  -5   7   2  240.08   12.40
  -5   7   2  222.48   12.80
   4  -7  -2    7.00    2.20
   4  -7  -2   -0.50    7.10
  -4   7   2    4.60    2.40
   3  -7  -2   70.19   10.60
  -3   7   2   57.69    9.00
  -3   7   2   59.59    4.90
   2  -7  -2  121.09    7.00
   2  -7  -2  110.79   12.70
  -2   7   2  116.69    7.00
  -2   7   2  120.19   13.40
   1  -7  -2  124.19    7.20
   1  -7  -2  128.19   12.20
  -1   7   2  114.09   11.30
  -1   7   2  123.19    7.30
   0  -7  -2  275.07   13.50
   0  -7  -2  261.67   17.60
   0   7   2  241.98   13.00
   0   7   2  220.38   16.40
  -1  -7  -2   77.09    6.00
  -1  -7  -2  103.29   10.90
   1   7   2   69.99    5.60
   1   7   2   93.99    9.20
  -2  -7  -2  151.88   11.40
  -2  -7  -2  126.29    7.50
   2   7   2  117.69    7.60
   2   7   2  121.99   10.60
  -3  -7  -2  189.48   10.40
  -3  -7  -2  195.58   13.70
   3   7   2  187.68   13.50
   3   7   2  188.88   10.40
  -4  -7  -2   19.20    3.20
  -4  -7  -2   19.60    5.30
   4   7   2   15.60    3.00
   4   7   2   22.00    5.70
   5   7   2  132.59    7.30
   5   7   2  127.39   11.30
   5   7   2  133.49    8.20
   5   7   2  129.69    9.70
   6   7   2  123.99    9.70
   6   7   2  117.59    7.80
   6   7   2  107.49   10.90
   7   7   2  180.48   14.60
   7   7   2  182.48   13.10
   7   7   2  199.58   11.30
   8   7   2    6.20    5.70
   8   7   2    3.70    6.10
   8   7   2   -0.30    3.60
   9   7   2   -1.50   10.70
   9   7   2    0.10    3.80
   9   7   2    3.00    6.00
  10   7   2   49.99    6.30
  10   7   2   37.40    9.40
  10   7   2   53.29    9.40
  11   7   2   39.50    6.20
  11   7   2   41.70    8.50
  12   7   2   -6.70    6.40
  12   7   2    8.70    7.80
 -11   8   2    7.20    6.00
  10  -8  -2   32.10   14.70
 -10   8   2   17.00    5.70
   9  -8  -2   90.09   17.70
  -9   8   2  130.89    9.50
   8  -8  -2    5.60   11.40
  -8   8   2   -0.90    4.10
   7  -8  -2   -1.30    9.90
  -7   8   2   -0.60    3.60
   6  -8  -2   54.19   12.80
  -6   8   2   77.09    6.40
   5  -8  -2   45.90   11.30
  -5   8   2   75.79    6.00
   4  -8  -2    6.30    8.90
   4  -8  -2    0.00    2.10
  -4   8   2   -2.40    2.50
   3  -8  -2   -4.50    6.50
   3  -8  -2    2.90    2.20
  -3   8   2    1.90    2.40
   2  -8  -2  198.68   16.70
   2  -8  -2  195.48   10.60
  -2   8   2  181.48   15.30
  -2   8   2  196.28   10.60
   1  -8  -2   63.69    5.00
   1  -8  -2   70.29   10.70
  -1   8   2   68.69    5.40
  -1   8   2   79.79   10.00
   0  -8  -2    3.90    5.80
   0  -8  -2    0.00    2.10
   0   8   2    2.70    2.50
  -1  -8  -2   79.09   10.60
  -1  -8  -2   52.09    5.00
   1   8   2   81.19   10.10
   1   8   2   64.49    5.30
  -2  -8  -2  342.77   20.90
  -2  -8  -2  317.57   18.20
   2   8   2  311.97   20.00
   2   8   2  310.47   16.40
  -3  -8  -2    0.40    4.80
   3   8   2   -0.90    2.40
   3   8   2   -3.10    4.40
  -4  -8  -2   13.80    5.70
   4   8   2   12.30    4.80
   4   8   2    8.30    5.50
   5   8   2   90.99   11.50
   5   8   2   98.49    6.00
   5   8   2   87.69    8.90
   5   8   2   86.69    7.00
   6   8   2  239.38   15.00
   6   8   2  224.58   13.00
   7   8   2    5.70    6.50
   7   8   2    5.80    3.50
   7   8   2    1.70    5.00
   8   8   2   -6.70    5.20
   8   8   2    6.40    4.20
   8   8   2    3.90    7.40
   9   8   2  132.19    9.30
   9   8   2  104.59   13.50
   9   8   2  124.99   12.10
  10   8   2   62.59    7.10
  10   8   2   49.20   11.20
  10   8   2   64.39    9.40
  11   8   2   -0.10    5.10
  11   8   2   18.10    7.50
  11  -9  -2  -14.50   13.50
 -11   9   2    6.50    6.40
  10  -9  -2   17.00   15.30
 -10   9   2   26.60    6.30
   9  -9  -2    1.90   13.40
  -9   9   2  -10.70    4.70
   8  -9  -2   -6.80   10.70
  -8   9   2   -0.20    4.40
   7  -9  -2   34.00   12.90
  -7   9   2   28.80    4.80
   6  -9  -2    8.30   10.20
  -6   9   2   11.00    4.00
   5  -9  -2   40.70   12.50
  -5   9   2   46.80    5.10
   4  -9  -2   10.30    9.50
  -4   9   2   20.30    4.30
   3  -9  -2  392.76   29.80
  -3   9   2  403.26   20.50
   2  -9  -2  134.39   15.20
  -2   9   2  156.78    9.10
   1  -9  -2   -5.30    7.00
  -1   9   2    7.30    2.90
   0   9   2   40.50    9.00
   0   9   2   59.19    5.00
  -1  -9  -2  483.15   29.40
   1   9   2  489.55   24.20
   1   9   2  458.75   28.60
  -2  -9  -2   90.89   12.20
   2   9   2   82.59    8.40
   2   9   2   58.39   10.10
  -3  -9  -2   51.79    9.40
   3   9   2   41.90    8.70
   3   9   2   50.59    4.90
  -4  -9  -2  185.18   15.60
   4   9   2  196.98   11.10
   4   9   2  176.58   17.30
   5   9   2    2.20    7.20
   5   9   2   12.30    3.60
   6   9   2   -5.70    5.90
   6   9   2    2.60    3.40
   6   9   2    0.40    4.70
   7   9   2    9.00    4.20
   7   9   2    5.30    5.40
   7   9   2   11.40    7.50
   8   9   2   26.60    5.10
   8   9   2   22.10    6.90
   8   9   2   16.80    8.30
   9   9   2  113.79    9.20
   9   9   2   91.19   13.70
   9   9   2  108.49   12.00
  10   9   2   21.50    7.70
  10   9   2    1.60    5.00
  11   9   2   11.10    5.50
  11   9   2   12.70    7.80
  10 -10  -2    8.50   15.10
 -10  10   2    2.50    6.10
   9 -10  -2   -3.50   14.10
  -9  10   2    0.00    5.20
   8 -10  -2   21.90   14.30
  -8  10   2   20.00    5.40
   7 -10  -2   86.49   18.80
  -7  10   2  142.09    9.90
   6 -10  -2    4.30   12.20
  -6  10   2   -0.10    4.20
   5 -10  -2   50.19   14.50
  -5  10   2   78.19    6.90
   4 -10  -2    3.80   10.10
  -4  10   2    5.00    3.70
   3 -10  -2   63.69   13.60
  -3  10   2   99.39    7.30
   2 -10  -2   12.00    9.30
  -2  10   2   21.00    4.00
   1 -10  -2  -16.00   11.60
  -1  10   2    7.30    3.30
   0 -10  -2   95.69   13.80
   0  10   2  100.29    7.50
  -1 -10  -2   18.20    8.40
   1  10   2   27.30    4.20
  -2 -10  -2   64.19   11.10
   2  10   2   54.89    5.50
   2  10   2   43.90   10.80
  -3 -10  -2    5.70    6.60
   3  10   2    4.80    7.00
   3  10   2   12.70    3.70
  -4 -10  -2  108.29   13.90
   4  10   2   99.79    7.90
   4  10   2  104.39   13.70
  -5 -10  -2   92.39   12.60
   5  10   2   84.69   12.30
   5  10   2   90.69    7.50
   6  10   2   61.89    8.80
   6  10   2   58.59    6.00
   6  10   2   62.09   11.60
   7  10   2   49.90   12.20
   7  10   2   64.79    6.70
   7  10   2   71.19    9.30
   8  10   2   35.50    5.80
   8  10   2   31.50    7.80
   9  10   2    7.60    7.40
   9  10   2    7.80    5.10
  10  10   2    5.40    5.40
  10  10   2    9.20    8.10
   9 -11  -2  -13.80   14.80
  -9  11   2   14.40    6.10
   8 -11  -2   21.10   15.90
  -8  11   2   52.69    6.80
   7 -11  -2  -21.30   11.40
  -7  11   2    7.40    5.00
   6 -11  -2   11.40   12.70
  -6  11   2   -3.70    4.30
   5 -11  -2   25.40   12.90
  -5  11   2   59.39    6.00
   4 -11  -2   50.79   14.30
  -4  11   2   89.09    7.40
   3 -11  -2   47.10   13.50
  -3  11   2   59.79    6.00
   2 -11  -2    8.00   10.20
  -2  11   2    3.50    3.90
   1 -11  -2   12.90    9.10
  -1  11   2    9.10    4.00
   0 -11  -2    6.20    8.70
   0  11   2    9.30    3.90
  -1 -11  -2   39.40   10.80
   1  11   2   27.50    4.70
  -2 -11  -2   22.50   16.70
   2  11   2   12.90    4.30
  -3 -11  -2  251.17   22.50
   3  11   2  225.08   13.40
  -4 -11  -2    1.90    7.30
   4  11   2   13.90    4.20
  -5 -11  -2   60.29   11.70
   5  11   2   69.99    6.50
   6  11   2   42.80    4.50
   6  11   2   35.00    5.50
   6  11   2   39.70    8.40
   7  11   2   33.00    5.60
   7  11   2   34.10    8.30
   8  11   2   10.90    5.00
   8  11   2   17.20   11.40
   9  11   2    5.80    9.30
   9  11   2   19.80    5.70
   8 -12  -2   29.30   17.10
  -8  12   2    2.40    5.70
   7 -12  -2    0.40   17.30
  -7  12   2    6.70    5.30
   6 -12  -2   27.00   14.80
  -6  12   2   37.20    5.80
   5 -12  -2   15.40   13.60
  -5  12   2   12.80    4.90
   4 -12  -2   21.20   12.70
  -4  12   2   54.79    6.00
   3 -12  -2   29.00   13.60
  -3  12   2   44.20    5.80
   2 -12  -2    9.30   10.50
  -2  12   2    4.10    4.10
   1 -12  -2    4.40   10.00
  -1  12   2   -1.70    3.90
   0 -12  -2   35.00   11.40
   0  12   2   37.90    5.30
  -1 -12  -2    3.20    9.20
   1  12   2    3.10    4.00
  -2 -12  -2  111.99   16.60
   2  12   2  118.29    8.90
  -3 -12  -2   18.60    9.40
   3  12   2   14.10    4.40
  -4 -12  -2   86.99   13.90
   4  12   2   70.99    7.00
  -5 -12  -2   86.69   13.80
   5  12   2  103.19    8.70
   6  12   2   13.70    5.30
   6  12   2    7.00    3.70
   6  12   2    3.40    6.60
   7  12   2    1.40    7.00
   8  12   2  102.69    9.10
   8  12   2   95.39   12.50
   7 -13  -2   -7.40   15.60
  -7  13   2    6.20    5.60
   6 -13  -2   11.60   16.50
  -6  13   2    6.80    5.40
   5 -13  -2   -1.70   12.60
  -5  13   2    7.90    5.20
   4 -13  -2   10.70   13.30
  -4  13   2   18.30    5.40
   3 -13  -2   10.80   12.00
  -3  13   2    5.00    4.60
   2 -13  -2   38.10   15.10
  -2  13   2   50.89    6.30
   1 -13  -2   66.19   15.60
  -1  13   2   75.39    7.20
   0 -13  -2   70.49   16.10
   0  13   2   87.19    7.80
  -1 -13  -2    2.90    9.80
   1  13   2    3.60    4.60
  -2 -13  -2    9.40   10.10
   2  13   2    3.60    4.70
  -3 -13  -2   57.59   13.50
   3  13   2   32.00    5.70
  -4 -13  -2   16.10   10.80
   4  13   2   30.50    5.80
  -5 -13  -2   28.40   11.40
   5  13   2   12.90    6.00
   6  13   2   18.50    8.30
   6  13   2    1.80    5.00
   6  13   2   12.30    4.00
   7  13   2   43.40   10.10
   7  13   2   47.00    6.60
   5 -14  -2   34.80   16.70
   4 -14  -2    6.70   26.10
  -4  14   2   -2.60    4.90
   3 -14  -2   27.40   14.80
  -3  14   2   17.60    5.60
   2 -14  -2   37.20   14.60
  -2  14   2   33.70    5.90
   1 -14  -2   28.90   13.60
  -1  14   2   39.60    6.30
   0 -14  -2    5.20   11.80
   0  14   2   -2.30    4.80
  -1 -14  -2    8.00   11.50
   1  14   2   -3.90    4.70
  -2 -14  -2   47.90   14.30
   2  14   2   76.09    9.40
  -3 -14  -2    8.60   10.30
   3  14   2    0.90    4.90
  -4 -14  -2    4.90   10.10
   4  14   2   -2.30    5.00
  -5 -14  -2    6.60   10.90
   5  14   2    0.50    5.00
   2 -15  -2   29.60   20.80
  -2  15   2   18.30    5.90
   1 -15  -2   17.00   14.50
  -1  15   2    2.10    5.40
   0 -15  -2    9.30   13.10
   0  15   2   -0.40    5.40
  -1 -15  -2   34.30   14.70
   1  15   2   43.30    6.80
  -2 -15  -2   22.00   12.30
   2  15   2    6.00    5.40
  -1  14  -3    4.20    5.50
   1 -14   3   17.10   15.10
   4  13  -3   -1.50    5.10
  -4 -13   3    7.10   12.00
   3  13  -3    5.60    5.00
  -3 -13   3    1.10   11.50
   2  13  -3   16.50    5.40
  -2 -13   3   -0.10   11.70
   1  13  -3    8.60    9.10
  -1 -13   3   -6.80   11.70
   0 -13   3    6.60   12.60
   1 -13   3   28.30   15.30
  -2  13  -3   10.60    8.30
   2 -13   3   41.40   16.60
  -3  13  -3   16.40    5.70
   3 -13   3    8.60   18.50
  -4  13  -3    5.20    5.50
   4 -13   3    1.70   14.00
  -5  13  -3    6.40    5.20
   5 -13   3   19.60   16.60
   6  12  -3    8.60    5.40
   6  12  -3   11.10    9.50
   5  12  -3   61.69   12.70
   5  12  -3   54.09    6.50
   4  12  -3   45.90    6.20
  -4 -12   3   29.30   12.90
   3  12  -3   -2.70    4.50
  -3 -12   3    9.10   10.90
   2  12  -3   -2.90    4.50
  -2 -12   3    4.50   11.20
   1  12  -3   62.29    6.60
  -1 -12   3   37.10   14.30
   0  12  -3   -2.90    4.00
   0 -12   3    6.00   11.50
  -1  12  -3    1.60    4.20
   1 -12   3    9.00   12.10
  -2  12  -3   -2.20    4.50
   2 -12   3    8.40   12.70
  -3  12  -3   34.00    5.80
   3 -12   3   26.00   15.00
  -4  12  -3   -6.20    4.30
   4 -12   3   -8.80   12.40
  -5  12  -3   13.70    5.40
   5 -12   3   15.20   15.10
  -6  12  -3   15.30   10.20
   6 -12   3  -16.60   13.70
  -7  12  -3   36.90    6.90
   7 -12   3   45.50   19.80
   7  11  -3   -0.30    8.20
   6  11  -3   34.80    5.90
   6  11  -3   21.70   10.40
   5  11  -3   32.50    5.40
   5  11  -3   24.60    5.10
   5  11  -3   32.40   10.10
   4  11  -3   66.29    6.70
  -4 -11   3   70.09   14.80
   3  11  -3    4.10    4.30
  -3 -11   3  -11.10    8.90
   2  11  -3  174.08   11.20
  -2 -11   3  153.38   20.60
   1  11  -3    6.80    4.30
  -1 -11   3    7.60   10.50
   0  11  -3   -7.80    3.70
   0 -11   3   -8.20    9.10
  -1  11  -3    4.30    4.10
   1 -11   3  -12.10    8.90
  -2  11  -3   29.30    5.00
   2 -11   3    7.60   11.40
  -3  11  -3    4.50    3.90
   3 -11   3   -8.30   10.90
  -4  11  -3   25.90    5.10
   4 -11   3   34.60   14.40
  -5  11  -3   61.29    6.70
   5 -11   3   40.70   16.10
  -6  11  -3   23.00    5.80
   6 -11   3   12.60   14.10
  -7  11  -3   -9.20    4.90
   7 -11   3  -18.20   14.70
  -8  11  -3   -3.20   11.70
   8 -11   3   12.20   15.80
   8  10  -3   10.70    9.20
   8  10  -3   12.10    5.20
   7  10  -3   17.10    9.40
   7  10  -3   31.00    5.60
   6  10  -3   85.99   12.50
   6  10  -3   62.09    6.90
   5  10  -3   45.70    5.60
   5  10  -3   51.19    5.60
   5  10  -3   34.40    9.80
   4  10  -3   55.69    6.00
  -4 -10   3   50.89   12.30
   3  10  -3   80.89    7.30
  -3 -10   3   78.89   14.20
   2  10  -3   -8.90    3.50
  -2 -10   3   -1.60    8.90
   1  10  -3    7.20    3.90
  -1 -10   3    1.70    8.30
   0  10  -3   -0.10    3.70
   0 -10   3    3.60    8.70
  -1  10  -3   67.09    6.30
   1 -10   3   81.69   14.80
  -2  10  -3    0.50    3.50
   2 -10   3    3.90   10.30
  -3  10  -3   -6.20    3.50
   3 -10   3   -9.40    9.40
  -4  10  -3    2.20    3.90
   4 -10   3    7.30   10.90
  -5  10  -3   59.49    6.50
   5 -10   3   58.49   16.50
  -6  10  -3   41.50    6.00
   6 -10   3   59.39   16.20
  -7  10  -3   20.60    5.70
   7 -10   3   -8.70   12.60
  -8  10  -3   16.80    5.90
   8 -10   3   23.00   15.60
  -9  10  -3   16.60    6.40
   9 -10   3   35.00   18.10
 -10  10  -3    3.60    6.80
   9   9  -3    5.20    9.00
   9   9  -3   -0.30    4.90
   8   9  -3    3.80    8.50
   8   9  -3   -2.50    4.40
   7   9  -3   50.79    5.90
   7   9  -3   48.30   10.90
   6   9  -3    3.00    7.50
   6   9  -3   -3.40    3.70
   5   9  -3    3.90    3.40
   5   9  -3    5.20    3.80
   5   9  -3    9.30    7.20
   4   9  -3   97.79    7.80
   3   9  -3  115.39    8.40
  -3  -9   3  133.39   17.80
   2   9  -3   -2.10    3.50
  -2  -9   3    1.80    8.80
   1   9  -3    3.70    3.40
  -1  -9   3   10.80    9.10
   0   9  -3  115.29    8.00
   0  -9   3  106.89   15.50
  -1   9  -3   17.70    3.70
   1  -9   3   13.30    9.10
  -2   9  -3   12.20    3.70
   2  -9   3   16.90    9.60
  -3   9  -3   18.30    4.00
   3  -9   3    9.10    9.50
  -4   9  -3  101.39    7.80
   4  -9   3   69.39   14.40
  -5   9  -3    2.90    3.90
   5  -9   3   -6.70   10.20
  -6   9  -3    5.70    4.20
   6  -9   3   13.60   12.10
  -7   9  -3   14.00    5.00
   7  -9   3   22.10   13.20
  -8   9  -3   30.80    6.10
   8  -9   3   17.40   13.60
  -9   9  -3   16.60    6.10
   9  -9   3   -9.80   14.10
 -10   9  -3   -2.00    5.90
  10   8  -3    5.50    5.00
  10   8  -3    4.20    9.20
   9   8  -3   35.30   10.90
   9   8  -3   64.29    6.60
   8   8  -3  116.99   14.50
   8   8  -3  147.19    9.90
   7   8  -3    1.80    3.80
   7   8  -3   10.40    7.50
   6   8  -3   44.60    8.90
   6   8  -3   42.80    5.10
   5   8  -3   72.89   10.50
   5   8  -3   66.59    6.10
   5   8  -3   68.29    6.00
   4   8  -3   44.70    5.40
   4   8  -3   47.10    5.10
   4   8  -3   51.19   10.90
   3   8  -3    5.20    3.10
   2   8  -3   32.50    4.20
  -2  -8   3   31.70    9.80
   1   8  -3  153.48    9.80
  -1  -8   3  131.79   16.10
   0   8  -3   65.29    7.80
   0  -8   3   40.10   10.30
  -1   8  -3   -1.00    3.00
  -2   8  -3    7.30    3.00
   2  -8   3   -2.80    6.80
  -3   8  -3  203.48   11.40
   3  -8   3  178.38   18.70
  -4   8  -3   -1.60    3.20
   4  -8   3  -12.80    7.60
  -5   8  -3   70.19    6.20
   5  -8   3   62.69   14.00
  -6   8  -3   -1.40    3.70
   6  -8   3    3.40    9.80
  -7   8  -3   71.99    6.80
   7  -8   3   83.99   17.20
  -8   8  -3    2.20    4.60
   8  -8   3  -12.00   11.10
  -9   8  -3    5.10    5.20
   9  -8   3   -1.90   13.10
 -10   8  -3   41.10    7.00
  10  -8   3   28.70   15.80
 -11   8  -3    5.00    6.80
  11  -8   3   31.20   25.30
  10   7  -3   31.90   10.90
  10   7  -3   35.70    5.80
   9   7  -3   91.69    8.10
   9   7  -3   71.09   11.70
   8   7  -3    9.10    8.10
   8   7  -3    8.10    4.30
   7   7  -3   97.29   12.40
   7   7  -3   95.69    7.80
   6   7  -3  173.48   16.60
   6   7  -3  147.39    9.60
   5   7  -3  120.29    8.00
   5   7  -3  120.59   12.00
   4   7  -3   58.29    9.20
   4   7  -3   53.69    5.10
   4   7  -3   58.99    5.30
   3   7  -3    7.50    2.80
  -3  -7   3   20.50    7.80
   2   7  -3   89.39    6.30
   2   7  -3   76.09   11.80
  -2  -7   3   97.09   12.80
   1   7  -3    3.90    6.40
   1   7  -3    7.40    2.70
  -1  -7   3    7.00    6.10
  -1  -7   3   11.00    4.10
   0   7  -3    7.20    6.30
   0   7  -3   12.10    2.80
   0  -7   3    4.50    6.50
   0  -7   3   10.30    2.70
  -1   7  -3  116.69   14.80
  -1   7  -3  102.79    6.90
   1  -7   3  121.79   14.30
  -2   7  -3   19.10    3.00
   2  -7   3   17.30    7.50
  -3   7  -3   17.40    3.40
   3  -7   3    7.30    7.20
  -4   7  -3   79.39    7.10
  -5   7  -3    7.10    3.40
   5  -7   3   10.20    9.20
  -6   7  -3   91.69    7.60
   6  -7   3  132.99   17.90
  -7   7  -3   -2.00    3.80
   7  -7   3   -7.60    8.80
  -8   7  -3   53.79    6.10
   8  -7   3   62.49   15.30
  -9   7  -3   21.40    5.30
   9  -7   3    8.40   12.20
 -10   7  -3   -2.90    5.30
  10  -7   3    7.30   13.00
 -11   7  -3    7.30    5.90
  11  -7   3   17.20   15.00
 -12   7  -3   37.00    8.70
  11   6  -3   46.30    6.10
  11   6  -3   29.40   11.40
  10   6  -3   75.19    7.10
  10   6  -3   68.29   11.90
   9   6  -3    9.70    4.20
   9   6  -3   10.00    8.50
   8   6  -3   85.39   11.60
   8   6  -3   89.09    7.50
   7   6  -3   29.00    4.20
   6   6  -3   64.69    9.40
   6   6  -3   71.19    6.20
   5   6  -3  158.88    9.30
   5   6  -3  160.88   13.00
   5   6  -3  159.48   19.00
   4   6  -3  114.59    7.00
   4   6  -3  116.69   10.50
   4   6  -3  121.89   14.50
   4   6  -3  110.89    7.10
  -4  -6   3  102.89    7.00
   3   6  -3   94.49    6.10
   3   6  -3  105.19   12.50
  -3  -6   3   92.59   11.60
  -3  -6   3   78.19    5.80
   2   6  -3   28.00    7.50
   2   6  -3   28.10    3.20
  -2  -6   3   18.10    7.00
  -2  -6   3   28.60    3.20
   1   6  -3   11.60    2.50
   1   6  -3    3.40    5.00
  -1  -6   3    6.30    6.60
  -1  -6   3   11.30    2.50
   0   6  -3   36.10    3.50
   0   6  -3   42.70    8.30
   0  -6   3   34.40    3.40
   0  -6   3   36.00    8.20
  -1   6  -3   57.59    9.00
  -1   6  -3   50.99    4.40
   1  -6   3   58.39   10.00
   1  -6   3   45.00    4.10
  -2   6  -3    3.70    5.80
  -2   6  -3    4.20    2.40
   2  -6   3    6.50    2.10
   2  -6   3    6.80    5.80
  -3   6  -3   65.09    9.90
  -3   6  -3   55.39    4.70
   3  -6   3   49.30    4.30
   3  -6   3   51.59   10.30
  -4   6  -3    1.30    3.30
  -4   6  -3    2.40    2.50
  -4   6  -3    7.20    6.90
   4  -6   3    9.20    7.20
  -5   6  -3   40.50    4.40
   5  -6   3   42.40   10.40
  -6   6  -3    2.70    3.70
   6  -6   3  -10.10    8.30
  -7   6  -3  131.19    8.90
   7  -6   3  126.99   17.20
  -8   6  -3   24.10    4.60
   8  -6   3   36.00   12.00
  -9   6  -3   38.80    5.80
   9  -6   3   35.80   13.90
 -10   6  -3   69.99    7.30
  10  -6   3   47.50   15.80
 -11   6  -3   16.60    6.00
  11  -6   3   17.90   14.00
 -12   6  -3   -8.10    6.20
  12  -6   3    1.90   13.80
  11   5  -3   37.60   11.60
  11   5  -3   46.60    5.80
  10   5  -3    4.30    4.20
  10   5  -3    6.70    8.90
   9   5  -3  146.29   15.90
   9   5  -3  151.38    9.90
   8   5  -3   13.40    3.80
   8   5  -3   19.90    8.50
   7   5  -3   40.80    8.70
   7   5  -3   35.90    4.30
   6   5  -3   57.59    4.80
   6   5  -3   54.39    8.70
   6   5  -3   44.50    9.90
  -6  -5   3   52.69    4.60
   5   5  -3  344.07   20.70
   5   5  -3  339.47   17.60
   5   5  -3  339.47   22.70
  -5  -5   3  353.96   17.60
   4   5  -3   21.40    2.90
   4   5  -3   20.20    6.90
   4   5  -3   23.50    5.80
  -4  -5   3   25.40    3.10
   3   5  -3   62.39    4.80
   3   5  -3   76.09    8.50
   3   5  -3   72.09    4.90
   3   5  -3   66.29    9.90
  -3  -5   3   58.29    4.70
   2   5  -3  194.98   14.60
   2   5  -3  193.78   10.10
  -2  -5   3  180.98   10.00
  -2  -5   3  191.18   14.40
   1   5  -3   50.29    8.20
   1   5  -3   48.40    3.90
  -1  -5   3   43.30    7.90
  -1  -5   3   44.90    3.80
   0   5  -3   59.09    8.70
   0   5  -3   51.39    4.30
   0  -5   3   61.89    9.10
   0  -5   3   48.70    4.10
  -1   5  -3   -1.30    2.00
  -1   5  -3    2.00    4.70
   1  -5   3   -1.80    1.80
   1  -5   3   -3.10    5.00
  -2   5  -3  101.49    6.40
  -2   5  -3  100.49   10.70
   2  -5   3  113.39    6.30
   2  -5   3  104.29   11.30
  -3   5  -3   33.80    3.50
  -3   5  -3   32.90    5.80
   3  -5   3   42.20    8.60
  -4   5  -3    9.50    2.90
  -4   5  -3   11.90    2.60
  -4   5  -3    8.30    5.60
   4  -5   3   10.90    6.40
  -5   5  -3    1.00    2.20
  -5   5  -3   -0.90    2.50
  -5   5  -3    1.00    5.40
   5  -5   3    2.80    5.90
  -6   5  -3  377.46   19.70
   6  -5   3  399.66   26.60
  -7   5  -3    9.30    6.60
   7  -5   3    8.40    9.40
  -8   5  -3   15.10    4.00
   8  -5   3    2.80    8.80
  -9   5  -3   14.10    4.50
   9  -5   3    2.60   10.40
 -10   5  -3  125.39    9.70
  10  -5   3   79.69   16.90
 -11   5  -3   -5.50    5.30
  11  -5   3   -6.90   11.50
 -12   5  -3    6.20    6.40
  12  -5   3   -0.50   13.30
 -13   5  -3   29.70    8.30
  13  -5   3   16.00   15.40
  12   4  -3   -2.40    4.70
  12   4  -3   -5.10    9.70
  11   4  -3   -3.10    9.50
  11   4  -3    6.60    4.50
  10   4  -3  114.19   14.70
  10   4  -3  113.29    8.40
   9   4  -3   38.30    9.50
   9   4  -3   41.90    4.90
   8   4  -3   17.90    3.80
   8   4  -3   15.50    7.60
   7   4  -3   38.50    4.00
   7   4  -3   38.50    7.90
  -7  -4   3   32.60    3.80
   6   4  -3  381.56   19.10
   6   4  -3  361.46   23.80
   6   4  -3  406.36   22.80
  -6  -4   3  365.36   19.00
   5   4  -3  134.09   10.70
   5   4  -3  122.79   12.70
   5   4  -3  129.49    7.40
  -5  -4   3  117.89    7.20
   4   4  -3  149.79    8.30
   4   4  -3  143.09   11.10
   4   4  -3  151.88   12.70
  -4  -4   3  153.78    8.30
   3   4  -3  260.37   16.00
   3   4  -3  273.67   13.70
   3   4  -3  269.17   13.60
   3   4  -3  265.97   17.70
  -3  -4   3  264.07   13.60
   2   4  -3   57.29    8.20
   2   4  -3   51.79    4.10
  -2  -4   3   60.69    8.40
  -2  -4   3   48.00    3.80
   1   4  -3  135.89    7.60
   1   4  -3  134.29   11.20
  -1  -4   3  136.09   11.50
  -1  -4   3  143.19    7.50
   0   4  -3    2.50    1.70
   0   4  -3    1.50    4.00
   0  -4   3    1.10    4.30
   0  -4   3    2.20    1.70
  -1   4  -3  240.68   12.50
  -1   4  -3  248.78   16.10
   1  -4   3  230.98   16.30
   1  -4   3  255.37   12.50
  -2   4  -3  194.88   13.40
  -2   4  -3  176.58    9.50
   2  -4   3  173.18    9.40
   2  -4   3  184.48   13.80
  -3   4  -3   58.59    4.60
  -3   4  -3   75.79    9.10
  -3   4  -3   57.09    5.00
   3  -4   3   73.29    9.90
  -4   4  -3   -2.00    4.50
  -4   4  -3   -1.70    2.10
  -4   4  -3   -1.80    1.80
   4  -4   3   -0.50    5.10
  -5   4  -3  376.96   18.70
  -5   4  -3  387.36   18.50
  -5   4  -3  306.67   23.20
   5  -4   3  355.66   23.70
  -6   4  -3   -1.30    5.00
  -6   4  -3    4.50    2.70
  -6   4  -3   10.90    2.70
   6  -4   3    7.20    6.90
   7  -4   3   -3.00    6.80
   7  -4   3    4.30    3.50
   8  -4   3    6.70    8.20
   8  -4   3    7.50    4.20
   9  -4   3   65.39   12.40
   9  -4   3   64.59    6.80
  10  -4   3   -2.40    4.90
  10  -4   3   -8.40    9.70
  11  -4   3    5.50    5.60
  11  -4   3   -5.50   11.10
  12  -4   3   48.10   15.20
  12  -4   3   31.30    7.00
  13  -4   3    5.10    6.70
  13  -4   3   25.00   14.90
  12   3  -3    6.80   10.90
  12   3  -3    7.90    5.00
  11   3  -3   96.59    8.20
  11   3  -3   88.49   14.00
  10   3  -3   11.30    9.10
  10   3  -3   22.10    4.40
   9   3  -3   83.09    6.70
   9   3  -3   85.39   12.00
   8   3  -3    6.00    7.20
   8   3  -3    6.80    3.20
  -8  -3   3    3.60    2.80
   7   3  -3  339.07   20.30
   7   3  -3  328.57   16.00
  -7  -3   3  289.57   15.80
  -7  -3   3  299.87   16.00
  -7  -3   3  297.37   19.50
   6   3  -3  140.19   11.60
   6   3  -3  131.49    7.60
  -6  -3   3  128.59    7.40
  -6  -3   3  125.29    7.50
  -6  -3   3  129.99   10.70
   5   3  -3   15.50    5.80
   5   3  -3   24.30    5.80
   5   3  -3   23.90    2.90
  -5  -3   3   20.80    2.70
   4   3  -3  952.30   48.00
   4   3  -3  934.11   49.30
   4   3  -3  929.51   45.50
  -4  -3   3  957.80   45.50
   3   3  -3   59.79    8.10
   3   3  -3   55.09    3.80
   3   3  -3   59.89    6.60
  -3  -3   3   50.09    3.80
   2   3  -3  140.99    7.80
   2   3  -3  148.09    9.90
   2   3  -3  151.78   11.40
   2   3  -3  144.89    7.70
  -2  -3   3  148.69    7.70
   1   3  -3   45.00    3.30
   1   3  -3   47.40    6.70
  -1  -3   3   44.20    3.30
  -1  -3   3   49.00    7.00
   0   3  -3   32.70    2.90
   0   3  -3   40.20    6.70
   0  -3   3   26.80    5.80
   0  -3   3   34.40    2.80
  -1   3  -3   38.20    3.60
  -1   3  -3   67.69    8.00
   1  -3   3   54.49    7.80
   1  -3   3   48.60    3.50
  -2   3  -3   30.80    3.20
  -2   3  -3   36.70    6.30
  -2   3  -3   34.10    2.90
   2  -3   3   39.10    6.60
  -3   3  -3  182.98    9.50
  -3   3  -3  172.48   12.60
  -3   3  -3  163.98    9.10
   3  -3   3  182.78   13.10
  -4   3  -3  295.17   15.00
  -4   3  -3  285.17   18.20
   4  -3   3  289.57   18.90
  -5   3  -3  378.56   18.80
  -5   3  -3  353.76   22.00
   5  -3   3  357.56   23.10
   5  -3   3  381.86   19.00
  -6   3  -3    2.20    2.40
  -6   3  -3    2.00    6.40
   6  -3   3   -0.40    6.20
   6  -3   3    7.00    3.10
  -7   3  -3  249.28   17.50
  -7   3  -3  240.18   13.70
   7  -3   3  267.07   14.00
   7  -3   3  252.47   19.40
  -8   3  -3  256.07   21.20
   8  -3   3  250.07   14.70
   8  -3   3  292.67   21.30
   9  -3   3   -4.80    4.10
   9  -3   3  -10.30    8.10
  10  -3   3   44.90    6.30
  10  -3   3   48.70   12.30
  11  -3   3   23.10   12.30
  11  -3   3   23.10    5.80
  12  -3   3   65.29   15.40
  12  -3   3   45.10    7.40
  13  -3   3    2.60    6.50
  13  -3   3   -4.60   12.20
  12   2  -3   52.09    6.30
  12   2  -3   59.79   13.70
  11   2  -3    8.00    4.20
  11   2  -3   14.00   10.00
  10   2  -3  -15.00    7.80
  10   2  -3    0.50    4.00
   9   2  -3   -8.30    6.80
   9   2  -3   -4.20    3.00
   8   2  -3  188.48   10.20
   8   2  -3  194.98   15.40
  -8  -2   3  168.28   10.00
   7   2  -3   31.10    7.30
   7   2  -3   29.80    3.40
  -7  -2   3   26.90    3.20
  -7  -2   3   21.90    6.50
   6   2  -3   93.99    5.80
   6   2  -3   98.39   10.00
  -6  -2   3   94.19   10.60
  -6  -2   3   89.39    5.70
   5   2  -3  360.66   21.50
   5   2  -3  381.86   18.60
  -5  -2   3  376.36   18.60
  -5  -2   3  374.96   21.40
  -5  -2   3  376.96   18.80
   4   2  -3  943.81   46.70
   4   2  -3  968.40   49.10
  -4  -2   3  971.60   46.70
  -4  -2   3  974.90   46.90
  -4  -2   3 1002.40   49.10
   3   2  -3   48.30    6.90
   3   2  -3   57.69    6.40
   3   2  -3   50.49    3.50
  -3  -2   3   47.00    3.40
   2   2  -3  497.55   25.80
   2   2  -3  494.65   27.00
   2   2  -3  501.15   24.00
   2   2  -3  492.55   24.10
  -2  -2   3  489.25   24.00
   1   2  -3   -0.30    3.60
  -1  -2   3    0.30    3.50
  -1  -2   3    5.80    1.40
   0   2  -3  285.07   14.20
   0   2  -3  286.27   16.70
   0  -2   3  293.57   16.70
   0  -2   3  274.37   14.00
  -1   2  -3   61.19    4.10
  -1   2  -3   66.19    7.30
   1  -2   3   72.39    4.00
   1  -2   3   71.79    7.40
  -2   2  -3 2075.09  100.59
  -2   2  -3 2097.29  102.89
  -2   2  -3 2172.38  100.79
   2  -2   3 2079.49  102.99
  -3   2  -3   39.20    6.30
  -3   2  -3   37.90    3.40
   3  -2   3   50.59    7.00
   3  -2   3   44.60    3.80
  -4   2  -3   77.99    5.00
  -4   2  -3   70.89    8.00
   4  -2   3   74.49    5.20
   4  -2   3   80.29    9.00
  -5   2  -3  159.08    8.80
  -5   2  -3  156.28   12.00
   5  -2   3  154.18   12.90
   5  -2   3  157.58    9.20
  -6   2  -3  214.68   15.10
  -6   2  -3  225.68   12.60
   6  -2   3  231.98   12.30
   6  -2   3  223.38   16.60
  -7   2  -3  513.35   26.00
  -7   2  -3  504.95   29.70
   7  -2   3  529.55   30.80
   7  -2   3  535.25   26.30
  -8   2  -3   17.30    6.20
   8  -2   3    0.70    6.80
   8  -2   3    9.10    3.60
   9  -2   3  183.78   11.60
   9  -2   3  181.88   18.10
  10  -2   3    0.00    4.50
  11  -2   3   53.89   13.30
  11  -2   3   53.99    7.00
  12  -2   3  -10.40   10.20
  12  -2   3   -8.70    5.10
  13  -2   3   17.40    6.80
  13  -2   3   22.60   12.70
  13   1  -3   27.60   13.10
  13   1  -3   12.10    5.50
  12   1  -3   27.30    5.50
  12   1  -3   37.80   12.60
  11   1  -3    8.00    4.40
  11   1  -3   12.80   10.30
  10   1  -3   17.20    9.30
  10   1  -3   18.40    4.10
   9   1  -3  434.96   27.30
   9   1  -3  426.66   21.20
  -9  -1   3  391.96   21.00
   8   1  -3    1.70    7.40
   8   1  -3   -1.30    3.00
  -8  -1   3   -2.50    2.90
   7   1  -3  132.89    7.40
   7   1  -3  117.39   12.00
  -7  -1   3  122.99    7.30
  -7  -1   3  127.19   11.30
   6   1  -3  393.16   23.10
   6   1  -3  387.96   19.40
  -6  -1   3  393.16   19.30
   5   1  -3  286.77   14.30
   5   1  -3  280.27   17.50
  -5  -1   3  282.67   14.30
  -5  -1   3  304.77   17.20
   4   1  -3   62.39    3.80
   4   1  -3   66.29    7.20
  -4  -1   3   58.39    6.60
  -4  -1   3   60.59    3.90
   3   1  -3   88.89    4.90
   3   1  -3   88.69    7.60
  -3  -1   3   88.29    7.30
  -3  -1   3   96.19    5.00
   2   1  -3  203.88   12.20
   2   1  -3  207.68   10.20
  -2  -1   3  202.38   10.20
  -2  -1   3  216.58   10.50
  -2  -1   3  201.38   12.10
   1   1  -3  831.72   40.60
   1   1  -3  876.61   42.90
   1   1  -3  861.91   40.80
   1   1  -3  843.92   42.00
  -1  -1   3  832.62   40.60
   0   1  -3 1866.81   88.79
   0   1  -3 1772.82   86.89
   0  -1   3 1781.02   86.89
   0  -1   3 1874.61   88.79
  -1   1  -3 2146.59  102.29
   1  -1   3 2142.59  103.99
  -2   1  -3 2124.59  104.39
  -2   1  -3 2195.08  102.79
   2  -1   3 2107.79  104.39
   2  -1   3 2175.68  102.79
  -3   1  -3 1508.75   71.39
  -3   1  -3 1464.65   73.09
   3  -1   3 1535.45   73.49
   3  -1   3 1450.85   71.39
  -4   1  -3  120.59    6.80
  -4   1  -3  122.39    9.00
   4  -1   3  123.09    9.70
   4  -1   3  118.29    6.90
  -5   1  -3   86.99    5.70
  -5   1  -3   98.19    8.30
   5  -1   3   93.59    6.00
   5  -1   3  101.69    9.60
  -6   1  -3  256.77   13.40
  -6   1  -3  238.08   16.10
   6  -1   3  270.17   13.70
   6  -1   3  270.57   17.30
  -7   1  -3   49.00    7.30
  -7   1  -3   38.60    3.90
   7  -1   3   48.00    4.50
   7  -1   3   40.00    8.20
   8  -1   3   84.69    6.50
   8  -1   3   70.29   10.60
  -9   1  -3   90.09   11.30
   9  -1   3  116.69    8.40
   9  -1   3  123.59   14.00
  10  -1   3   86.29   13.40
  10  -1   3   62.29    6.60
  11  -1   3   63.89   12.80
  11  -1   3   74.29    7.40
  12  -1   3   60.99    7.50
  12  -1   3   66.09   14.10
  13  -1   3    3.70   11.20
  13  -1   3    2.60    5.90
  13   0  -3   17.10    5.70
  13   0  -3   25.40   13.70
  12   0  -3   17.20    5.30
  12   0  -3   18.90   12.10
  11   0  -3   62.19    6.30
  11   0  -3   72.89   14.20
  10   0  -3  116.79   15.40
  10   0  -3  118.79    8.50
   9   0  -3  -15.30    7.90
   9   0  -3   -2.90    3.40
  -9   0   3   -8.70    3.10
   8   0  -3   -0.60    2.80
   8   0  -3    0.30    6.60
  -8   0   3    6.80    2.50
   7   0  -3  127.69   12.20
   7   0  -3  119.59    7.00
  -7   0   3  114.59    6.80
  -7   0   3  112.79   10.70
   6   0  -3  353.46   21.70
   6   0  -3  356.76   17.70
  -6   0   3  355.56   17.60
   5   0  -3    3.50    1.60
   5   0  -3    3.10    4.40
  -5   0   3    4.50    1.60
  -5   0   3    4.70    4.30
   4   0  -3   56.69    4.70
   4   0  -3   59.39    7.10
  -4   0   3   61.39    6.70
  -4   0   3   60.69    3.60
   3   0  -3    7.80    4.40
   3   0  -3   11.30    1.50
  -3   0   3   17.30    1.60
  -3   0   3   14.80    4.40
   2   0  -3  168.18   10.80
   2   0  -3  179.88    8.50
  -2   0   3  169.78   10.70
  -2   0   3  174.58    8.50
   1   0  -3  944.11   45.90
   1   0  -3  957.40   47.20
  -1   0   3  993.50   47.20
  -1   0   3  957.30   45.90
   0   0  -3 1374.86   64.49
   0   0  -3 1346.37   64.59
   0   0  -3 1307.17   65.29
   0   0  -3 1382.46   65.89
  -1   0  -3   33.80    2.30
  -1   0  -3   30.90    3.90
   1   0   3   30.30    4.00
   1   0   3   31.40    2.30
  -2   0  -3  411.46   20.40
  -2   0  -3  426.06   21.50
   2   0   3  416.36   21.50
   2   0   3  419.56   20.40
  -3   0  -3 1472.35   70.99
  -3   0  -3 1447.56   69.89
   3   0   3 1458.85   71.19
  -4   0  -3   62.59    6.00
  -4   0  -3   70.89    4.40
   4   0   3   70.49    7.00
   4   0   3   68.09    4.60
  -5   0  -3   65.79    6.80
  -5   0  -3   66.79    4.50
   5   0   3   67.99    4.80
   5   0   3   71.09    7.50
  -6   0  -3   12.60    2.40
  -6   0  -3   21.60    5.00
   6   0   3   22.00    3.10
   6   0   3   15.70    5.30
  -7   0  -3  243.28   15.40
  -7   0  -3  240.08   12.70
   7   0   3  250.87   16.50
   7   0   3  239.68   13.00
  -8   0  -3  122.39   10.70
   8   0   3  117.89   12.10
   8   0   3  120.19    7.90
  -9   0  -3   -6.10    5.10
   9   0   3   -5.20    3.70
   9   0   3    1.70    6.60
 -10   0  -3   -9.70    6.00
  10   0   3   -1.50    7.90
  10   0   3   -7.00    3.90
  11   0   3  185.38   18.20
  11   0   3  170.18   11.80
  12   0   3   49.60    6.80
  12   0   3   41.30   11.70
  13   0   3   25.10   12.50
  13   0   3   23.40    6.40
  13  -1  -3    7.20   12.80
  13  -1  -3    6.00    5.40
  12  -1  -3   15.40    5.50
  12  -1  -3   32.00   13.20
  11  -1  -3   94.49    8.30
  11  -1  -3   85.89   14.40
  10  -1  -3   57.59    5.60
  10  -1  -3   34.60   11.10
   9  -1  -3  131.79    8.10
   9  -1  -3   93.89   13.60
  -9   1   3  110.89    7.60
   8  -1  -3   64.29    5.50
   8  -1  -3   66.59   10.60
  -8   1   3   60.09    4.90
   7  -1  -3    4.80    6.00
   7  -1  -3    6.20    2.30
  -7   1   3   -3.50    4.60
  -7   1   3    4.30    2.00
   6  -1  -3   26.20    6.50
   6  -1  -3   23.70    2.60
  -6   1   3    9.50    7.50
  -6   1   3   25.30    2.50
   5  -1  -3  502.25   28.40
   5  -1  -3  522.35   25.00
  -5   1   3  518.35   24.90
  -5   1   3  503.45   27.90
   4  -1  -3  255.87   16.00
   4  -1  -3  253.77   13.00
  -4   1   3  269.07   15.70
  -4   1   3  276.77   13.50
   3  -1  -3   29.30    5.40
   3  -1  -3   28.80    2.10
  -3   1   3   27.40    5.10
  -3   1   3   28.70    2.00
   2  -1  -3  218.98   12.90
   2  -1  -3  218.18   10.50
  -2   1   3  220.28   10.50
  -2   1   3  210.98   12.70
   1  -1  -3  692.53   34.40
   0  -1  -3    4.80    2.10
   0  -1  -3    6.70    0.80
   0   1   3    5.70    2.10
   0   1   3    6.30    0.80
  -1  -1  -3  693.23   32.90
  -1  -1  -3  670.63   32.20
  -1  -1  -3  657.53   32.50
   1   1   3  670.43   32.20
  -2  -1  -3   28.70    3.10
  -2  -1  -3   31.40    2.50
   2   1   3   28.70    2.40
   2   1   3   28.30    3.00
  -3  -1  -3  742.63   35.60
  -3  -1  -3  719.43   35.20
   3   1   3  724.83   35.80
   3   1   3  728.43   35.20
  -4  -1  -3  110.29    6.00
  -4  -1  -3  102.79    7.10
   4   1   3  105.29    7.60
   4   1   3  109.19    6.20
  -5  -1  -3    8.00    2.00
  -5  -1  -3    8.50    3.30
   5   1   3    9.70    4.60
   5   1   3    9.40    2.30
  -6  -1  -3  546.55   27.20
  -6  -1  -3  563.54   28.70
   6   1   3  546.45   27.30
   6   1   3  556.14   29.20
  -7  -1  -3  277.47   14.60
  -7  -1  -3  291.07   16.70
   7   1   3  280.47   14.80
   7   1   3  286.37   17.40
  -8  -1  -3  180.68   13.00
   8   1   3  212.38   14.30
   8   1   3  175.08   10.70
  -9  -1  -3   -5.00    5.10
   9   1   3    2.80    3.60
   9   1   3    5.60    6.50
 -10  -1  -3  306.97   21.70
  10   1   3  375.66   23.50
  10   1   3  362.46   18.80
  11   1   3   27.70    9.30
  11   1   3   21.90    5.30
  12   1   3    5.80   10.70
  12   1   3    0.30    5.00
  13   1   3   35.90   12.10
  13   1   3   28.60    6.40
  13  -2  -3   17.40   13.40
  13  -2  -3    5.80    5.60
  12  -2  -3   -7.80   11.30
  12  -2  -3    2.50    5.10
  11  -2  -3   17.00   11.90
  11  -2  -3   32.60    5.40
  10  -2  -3  110.19   15.20
  10  -2  -3  105.99    8.50
   9  -2  -3   23.20    9.50
   9  -2  -3   17.50    4.00
  -9   2   3   16.20    3.50
   8  -2  -3   45.90    4.50
   8  -2  -3   40.10    9.90
  -8   2   3   37.50    3.70
   7  -2  -3   32.20    3.50
   7  -2  -3   36.60    8.20
  -7   2   3   32.40    3.00
  -7   2   3   26.10    6.70
   6  -2  -3  498.25   29.10
   6  -2  -3  512.95   24.70
  -6   2   3  503.95   24.50
  -6   2   3  488.55   28.20
   5  -2  -3  215.68   15.40
   5  -2  -3  232.28   11.50
  -5   2   3  218.68   14.70
  -5   2   3  221.78   11.30
   4  -2  -3  503.85   27.20
   4  -2  -3  493.05   24.10
  -4   2   3  489.35   24.00
  -4   2   3  500.05   26.80
   3  -2  -3  740.03   38.60
   3  -2  -3  764.62   36.10
  -3   2   3  736.13   38.40
  -3   2   3  762.52   36.10
   2  -2  -3  292.57   16.50
  -2   2   3  298.77   16.30
  -2   2   3  283.47   14.00
  -2   2   3  291.17   14.10
   1  -2  -3  733.83   35.90
   1  -2  -3  762.92   37.50
  -1   2   3  792.92   38.00
  -1   2   3  725.83   35.90
   0  -2  -3   39.10    3.90
   0  -2  -3   29.70    2.10
   0   2   3   29.20    2.10
   0   2   3   34.50    3.70
  -1  -2  -3  112.49    5.60
  -1  -2  -3  107.09    6.10
   1   2   3  103.79    5.60
   1   2   3  102.59    5.90
  -2  -2  -3   57.29    3.60
   2   2   3   50.49    3.80
  -3  -2  -3  178.88    8.80
  -3  -2  -3  171.28    9.00
   3   2   3  173.38    9.00
   3   2   3  174.58    9.00
  -4  -2  -3   84.19    5.50
  -4  -2  -3   83.89    5.10
   4   2   3   91.19    5.30
   4   2   3   85.69    5.90
  -5  -2  -3 1166.28   56.79
  -5  -2  -3 1161.78   55.99
   5   2   3 1167.58   56.09
   5   2   3 1159.78   56.99
  -6  -2  -3  128.19    8.60
  -6  -2  -3  127.69    7.20
   6   2   3  126.19    7.50
   6   2   3  122.49    9.10
  -7  -2  -3   21.70    2.90
  -7  -2  -3   22.90    4.70
   7   2   3   18.00    3.00
   7   2   3   20.20    4.90
  -8  -2  -3   15.40    4.80
   8   2   3   17.40    5.40
   8   2   3   18.00    3.30
  -9  -2  -3  258.47   17.20
   9   2   3  278.17   18.30
   9   2   3  283.77   15.00
 -10  -2  -3   28.50    7.90
  10   2   3   35.60    4.90
  10   2   3   32.70    8.20
 -11  -2  -3   10.70    7.30
  11   2   3   11.20    4.60
  11   2   3    9.80    7.90
  12   2   3   30.30    9.70
  12   2   3   25.90    5.70
  13   2   3   32.10    6.50
  13   2   3   18.00   10.50
  13  -3  -3    6.90   13.90
  13  -3  -3   12.30    6.30
  12  -3  -3   -4.10   12.10
  12  -3  -3   -7.60    5.20
  11  -3  -3   28.00    5.70
  11  -3  -3   56.59   14.30
  10  -3  -3   52.29    5.70
  10  -3  -3   46.70   12.10
   9  -3  -3   31.50   10.50
   9  -3  -3   12.50    3.90
  -9   3   3   15.20    3.30
   8  -3  -3    9.00    9.20
   8  -3  -3    7.70    3.20
  -8   3   3   10.70    3.10
   7  -3  -3  543.25   26.90
   7  -3  -3  538.05   32.20
  -7   3   3  546.35   26.70
   6  -3  -3  568.24   27.30
   6  -3  -3  546.75   31.80
  -6   3   3  556.24   27.10
  -6   3   3  541.45   30.90
   5  -3  -3    9.90    2.20
   5  -3  -3    7.90    5.00
  -5   3   3    7.70    1.80
  -5   3   3    2.60    4.40
   4  -3  -3   73.19    8.50
  -4   3   3   67.59    4.10
  -4   3   3   69.89    8.10
  -4   3   3   61.39    3.90
   3  -3  -3   72.99    8.30
  -3   3   3   79.79    8.00
  -3   3   3   87.49    4.70
  -3   3   3   90.19    5.10
   2  -3  -3  477.15   22.80
  -2   3   3  469.25   25.10
  -2   3   3  470.85   22.80
   1  -3  -3   33.40    2.60
   1  -3  -3   44.80    5.80
  -1   3   3   33.90    2.60
  -1   3   3   43.40    5.60
   0  -3  -3  152.98    7.50
   0  -3  -3  156.08    9.50
   0   3   3  142.79    7.50
   0   3   3  133.49    9.10
  -1  -3  -3    8.40    2.90
  -1  -3  -3   10.30    1.70
   1   3   3    7.00    2.70
  -2  -3  -3  114.99    6.70
  -2  -3  -3  118.29    6.20
   2   3   3  112.69    6.60
   2   3   3  117.29    6.30
  -3  -3  -3   46.60    3.70
   3   3   3   51.49    3.50
   3   3   3   46.70    3.90
   3   3   3   49.60    3.80
  -4  -3  -3   30.50    2.70
   4   3   3   29.40    3.50
   4   3   3   27.70    3.10
   4   3   3   29.30    2.70
  -5  -3  -3 1359.86   65.59
  -5  -3  -3 1403.96   66.09
   5   3   3 1352.66   65.69
   5   3   3 1338.87   66.19
  -6  -3  -3   38.00    3.60
  -6  -3  -3   45.30    4.90
   6   3   3   61.69    9.40
   6   3   3   43.10    3.90
  -7  -3  -3  123.49    7.70
  -7  -3  -3  135.99    9.20
   7   3   3  130.29    7.90
   7   3   3  140.39    9.70
  -8  -3  -3  293.27   17.30
   8   3   3  303.47   17.90
  -9  -3  -3   -0.50    4.50
   9   3   3    1.10    3.20
   9   3   3   13.50    5.90
 -10  -3  -3   36.00    7.80
  10   3   3   41.30    8.20
  10   3   3   40.10    5.20
 -11  -3  -3   51.69    9.20
  11   3   3   66.09    6.80
  11   3   3   97.69   11.70
  12   3   3  106.49   14.00
  12   3   3  123.19   10.00
  13   3   3    9.70    5.60
  13   3   3    0.70    9.10
  12  -4  -3   31.80   13.90
  11  -4  -3   -3.90   10.30
  11  -4  -3   16.20    5.40
  10  -4  -3    1.40    4.30
  10  -4  -3    8.50   10.80
   9  -4  -3   -5.00    9.00
   9  -4  -3    8.50    4.00
  -9   4   3   10.60    3.20
   8  -4  -3   94.49   13.90
  -8   4   3  108.19    6.90
   7  -4  -3   85.59   12.20
  -7   4   3   75.79    5.40
   6  -4  -3   12.60    6.40
  -6   4   3   15.20    6.10
  -6   4   3   10.90    2.20
  -6   4   3    2.40    2.00
   5  -4  -3   12.10    6.00
  -5   4   3    6.00    1.80
  -5   4   3    8.10    5.20
  -5   4   3    2.80    1.90
   4  -4  -3  882.51   46.20
  -4   4   3  848.12   45.50
  -4   4   3  871.91   42.10
  -4   4   3  883.61   42.00
   3  -4  -3    4.20    4.80
  -3   4   3   -0.20    1.70
  -3   4   3    5.50    1.50
  -3   4   3    4.30    4.10
   2  -4  -3   44.70    3.20
   2  -4  -3   44.30    6.80
  -2   4   3   54.99    6.80
  -2   4   3   48.40    3.20
   1  -4  -3   34.90    5.90
   1  -4  -3   31.10    2.50
  -1   4   3   35.60    5.50
  -1   4   3   27.50    2.50
   0  -4  -3   10.70    6.30
   0  -4  -3    5.40    1.60
   0   4   3    9.80    3.70
   0   4   3    7.80    1.60
  -1  -4  -3   20.40    4.00
  -1  -4  -3   20.40    2.20
   1   4   3   22.40    4.00
   1   4   3   20.70    2.20
  -2  -4  -3   40.30    3.20
  -2  -4  -3   46.50    4.80
   2   4   3   43.30    4.70
   2   4   3   35.60    3.20
  -3  -4  -3   93.49    5.40
  -3  -4  -3   95.39    6.30
   3   4   3   96.39    5.50
   3   4   3   80.69    6.30
  -4  -4  -3  579.84   28.20
   4   4   3  575.64   28.20
   4   4   3  541.85   29.00
   4   4   3  605.74   28.50
  -5  -4  -3  253.17   13.00
   5   4   3  260.57   13.10
   5   4   3  247.58   14.70
   5   4   3  250.67   13.70
  -6  -4  -3   86.39    6.10
   6   4   3  129.39   11.10
   6   4   3   99.89    6.50
   6   4   3   95.69    7.70
   7   4   3  678.73   34.50
   7   4   3  671.13   33.30
  -8  -4  -3   45.70    6.00
  -8  -4  -3   43.40    3.60
   8   4   3   37.60    6.40
  -9  -4  -3   75.29    8.10
  -9  -4  -3   60.59    4.80
   9   4   3   68.79    8.60
   9   4   3   66.49    6.10
 -10  -4  -3   31.40    3.50
 -10  -4  -3   29.80    6.60
  10   4   3   31.30    7.40
  10   4   3   26.00    4.80
 -11  -4  -3   70.99    6.10
 -11  -4  -3   67.39    9.40
  11   4   3   88.59    7.60
  11   4   3   88.39   11.30
 -12  -4  -3    6.90    6.00
  12   4   3    9.50    5.00
  12   4   3   16.80    8.90
  13   4   3   12.30    5.80
  12  -5  -3   13.20   14.70
 -12   5   3   18.60    6.30
  11  -5  -3   -5.40   11.40
 -11   5   3   -4.60    4.80
  10  -5  -3   10.70   11.60
 -10   5   3   -4.30    7.20
   9  -5  -3   41.20   12.60
  -9   5   3   42.40    4.70
   8  -5  -3   38.30   11.60
  -8   5   3   42.10    4.30
  -8   5   3   43.80    4.30
   7  -5  -3   92.69   13.60
  -7   5   3  108.09    6.70
  -7   5   3   99.99    7.40
   6  -5  -3   20.70    7.90
  -6   5   3   20.00    2.70
  -6   5   3   15.10    2.70
   5  -5  -3  682.73   38.30
  -5   5   3  662.43   37.20
  -5   5   3  696.93   33.20
  -5   5   3  667.93   33.00
   4  -5  -3    5.50    6.10
  -4   5   3    5.70    2.00
  -4   5   3   11.80    2.40
   3  -5  -3  112.59    6.20
   3  -5  -3  104.99   11.40
  -3   5   3  118.79    6.50
  -3   5   3  101.69   10.50
   2  -5  -3  168.58    8.40
   2  -5  -3  161.78   12.60
  -2   5   3  161.98   11.80
  -2   5   3  151.78    8.40
   1  -5  -3   77.19    8.50
   1  -5  -3   75.69    4.50
  -1   5   3   71.39    4.60
  -1   5   3   69.29    7.70
   0  -5  -3    2.90    1.50
   0  -5  -3    2.10    3.90
   0   5   3    3.40    1.70
   0   5   3    3.50    3.80
  -1  -5  -3    1.60    3.40
  -1  -5  -3    3.40    1.70
   1   5   3    1.40    1.60
   1   5   3   -0.10    3.30
  -2  -5  -3   39.90    3.50
  -2  -5  -3   52.19    6.20
   2   5   3   39.30    3.70
   2   5   3   56.69    5.90
  -3  -5  -3  520.15   24.80
  -3  -5  -3  495.85   26.10
   3   5   3  494.65   24.70
  -4  -5  -3  255.57   13.00
   4   5   3  242.98   13.40
   4   5   3  245.48   13.00
   4   5   3  269.17   17.40
  -5  -5  -3  333.07   16.70
   5   5   3  323.07   17.90
   5   5   3  329.87   18.30
   5   5   3  332.67   16.80
  -6  -5  -3  226.38   12.70
   6   5   3  244.78   12.90
   6   5   3  257.87   13.90
   6   5   3  244.88   14.70
   7   5   3  238.58   14.00
   7   5   3  243.88   12.80
   7   5   3  221.48   14.80
   8   5   3   82.29    9.50
   8   5   3   82.29    8.60
   8   5   3   86.89    6.80
   9   5   3   31.10    7.00
   9   5   3   40.10    6.90
   9   5   3   56.79    5.50
  10   5   3   29.20    7.70
  10   5   3   48.90    8.00
  10   5   3   50.29    5.80
  11   5   3   16.30    5.00
  11   5   3    3.40    6.80
  11   5   3   15.30    7.20
  12   5   3   13.30    5.40
  12   5   3   -1.70    7.40
  12   5   3   16.10    8.40
  13   5   3   57.09   11.30
  13   5   3   59.19   11.10
  12  -6  -3  -14.60   23.20
 -12   6   3   -8.10    5.60
  11  -6  -3   -4.70   13.00
 -11   6   3    5.40    5.20
  10  -6  -3   58.89   14.70
 -10   6   3   54.49    6.00
   9  -6  -3   31.80   13.50
  -9   6   3   79.59    6.80
   8  -6  -3   58.59   13.20
  -8   6   3   73.09    6.00
  -8   6   3   43.50    5.00
   7  -6  -3   31.50   10.70
  -7   6   3   44.60    4.60
  -7   6   3   68.69    5.40
   6  -6  -3  342.07   32.30
  -6   6   3  365.76   18.30
   5  -6  -3   29.40    8.10
  -5   6   3   44.10    3.80
  -5   6   3   40.30    3.90
   4  -6  -3   78.69   11.10
  -4   6   3   75.99    5.70
  -4   6   3   84.79    5.40
  -4   6   3   71.99   10.00
   3  -6  -3    8.00    1.90
   3  -6  -3   11.50    6.10
  -3   6   3    6.40    2.00
  -3   6   3    6.40    9.40
   2  -6  -3  101.49   11.10
   2  -6  -3   95.79    5.70
  -2   6   3   88.79    9.70
  -2   6   3   95.39    5.80
   1  -6  -3  376.96   18.60
   1  -6  -3  382.76   22.60
  -1   6   3  378.56   21.90
  -1   6   3  366.56   18.60
   0  -6  -3   11.60    2.10
   0  -6  -3    3.70    4.80
   0   6   3   16.10    2.40
   0   6   3   11.00    4.70
  -1  -6  -3   26.60    5.80
  -1  -6  -3   25.40    2.80
   1   6   3   28.10    2.90
   1   6   3   30.90    5.70
  -2  -6  -3  637.04   33.30
  -2  -6  -3  654.53   31.00
   2   6   3  610.44   30.90
   2   6   3  628.34   33.00
  -3  -6  -3    4.40    3.60
  -3  -6  -3    2.20    1.90
   3   6   3    5.10    2.20
   3   6   3    5.10    3.60
  -4  -6  -3  226.48   13.60
  -4  -6  -3  228.18   11.70
   4   6   3  213.68   13.70
   4   6   3  218.38   11.80
  -5  -6  -3  140.59    8.10
   5   6   3  146.29    8.20
   5   6   3  147.89    9.10
   5   6   3  119.99   10.00
   6   6   3  272.17   17.00
   6   6   3  295.47   15.90
   6   6   3  277.57   14.90
   7   6   3  120.89    9.20
   7   6   3  116.79    7.70
   7   6   3  105.49   10.00
   8   6   3   29.40    4.40
   8   6   3   24.10    5.60
   8   6   3   22.90    6.30
   9   6   3   70.09    9.90
   9   6   3   78.79    9.20
   9   6   3  102.89    7.70
  10   6   3    4.90    6.10
  10   6   3   17.30    6.50
  10   6   3   10.40    4.70
  11   6   3  118.59   12.30
  11   6   3  121.59    9.80
  12   6   3   40.60    9.10
  12   6   3   31.60    6.30
  12   6   3   13.40    8.50
  12  -7  -3   -9.60   14.20
 -12   7   3    2.70    6.50
  11  -7  -3   37.00   15.90
 -11   7   3   38.20    6.30
  10  -7  -3   17.80   14.20
 -10   7   3   16.40    5.10
   9  -7  -3    2.40   11.10
  -9   7   3   12.60    4.40
   8  -7  -3   16.10   11.60
  -8   7   3   27.10    4.30
   7  -7  -3  118.59   16.80
  -7   7   3  143.89    8.60
  -7   7   3  118.69    9.80
   6  -7  -3   12.10    9.40
  -6   7   3   31.50    3.90
  -6   7   3   28.60    4.10
   5  -7  -3  235.88   20.60
  -5   7   3  268.17   13.30
  -5   7   3  241.98   13.70
   4  -7  -3    0.60    1.90
   4  -7  -3   -1.50    6.40
  -4   7   3    0.60    2.20
   3  -7  -3   54.99    4.40
   3  -7  -3   66.29   10.60
  -3   7   3   66.19    4.80
  -3   7   3   57.09    8.90
   2  -7  -3    6.00    5.80
   2  -7  -3    5.70    2.00
  -2   7   3    5.30    2.10
   1  -7  -3   47.20    3.90
   1  -7  -3   35.40    7.50
  -1   7   3   52.99    8.00
  -1   7   3   47.30    3.90
   0  -7  -3  204.48   15.10
   0  -7  -3  218.78   11.10
   0   7   3  210.98   14.50
   0   7   3  203.58   11.10
  -1  -7  -3    4.80    2.20
  -1  -7  -3   -0.40    4.80
   1   7   3    7.30    2.30
   1   7   3    3.20    4.30
  -2  -7  -3   51.49    4.40
  -2  -7  -3   68.99    8.40
   2   7   3   51.49    4.40
   2   7   3   64.29    8.00
  -3  -7  -3  138.29    8.20
  -3  -7  -3  159.68   11.40
   3   7   3  146.39   11.00
   3   7   3  133.59    8.30
  -4  -7  -3   14.00    2.70
  -4  -7  -3   13.10    4.60
   4   7   3   22.10    5.40
   4   7   3   24.90    3.10
   5   7   3  216.58   12.20
   5   7   3  215.88   14.80
   5   7   3  238.58   13.40
   6   7   3  168.28    9.80
   6   7   3  161.58   12.40
   6   7   3  161.08   10.90
   7   7   3  262.57   17.30
   7   7   3  260.87   14.40
   7   7   3  265.67   15.80
   8   7   3    2.10    3.40
   8   7   3    2.60    5.00
   8   7   3    0.20    5.10
   9   7   3   -1.30    5.00
   9   7   3   -1.90    5.60
   9   7   3   -5.60    3.70
  10   7   3  102.99    8.70
  10   7   3   95.29   10.50
  10   7   3   72.79   10.90
  11   7   3   71.19    9.40
  11   7   3   46.20   10.40
  11   7   3   67.19    7.20
  12   7   3   12.30    7.30
  12   7   3    7.20    9.00
  12   7   3   -2.50    8.30
  11  -8  -3   32.60   20.50
 -11   8   3   37.60    6.80
  10  -8  -3   13.30   13.90
 -10   8   3    4.60    5.30
   9  -8  -3   45.50   15.00
  -9   8   3   66.89    6.50
   8  -8  -3    1.20   10.60
  -8   8   3    4.50    4.10
   7  -8  -3   -5.50    9.60
  -7   8   3    3.80    3.60
   6  -8  -3   78.69   15.30
  -6   8   3  104.19    7.30
   5  -8  -3   42.60   11.60
  -5   8   3   57.69    4.80
  -5   8   3   44.00    5.10
   4  -8  -3    4.40    2.20
   4  -8  -3   -4.20    7.20
  -4   8   3    0.70    2.50
   3  -8  -3   -4.50    5.90
   3  -8  -3    6.80    2.30
  -3   8   3    6.20    2.40
   2  -8  -3   61.59   10.40
   2  -8  -3   71.09    5.20
  -2   8   3   76.09   10.20
  -2   8   3   84.89    5.60
   1  -8  -3   23.10    3.00
   1  -8  -3   18.70    7.00
  -1   8   3   21.20    6.50
  -1   8   3   31.90    3.40
   0  -8  -3   49.30    4.50
   0  -8  -3   51.99    9.20
   0   8   3   57.19    4.80
   0   8   3   57.29    8.60
  -1  -8  -3   41.00    3.90
  -1  -8  -3   43.40    8.10
   1   8   3   37.50    3.80
   1   8   3   37.50    7.20
  -2  -8  -3   90.09    6.10
  -2  -8  -3  101.19   10.30
   2   8   3   86.59    6.30
   2   8   3   89.69    9.70
  -3  -8  -3   44.30    7.80
   3   8   3   33.20    6.90
   3   8   3   37.30    3.90
  -4  -8  -3   61.79    8.80
   4   8   3   69.59    8.90
   4   8   3   65.99    5.50
   5   8   3  147.59    8.20
   5   8   3  154.58   10.80
   5   8   3  140.69    9.10
   5   8   3  159.18   12.50
   6   8   3  350.86   22.00
   6   8   3  353.16   18.70
   6   8   3  368.26   20.20
   7   8   3   20.30    6.70
   7   8   3   26.00    4.40
   7   8   3   22.60    5.40
   8   8   3   16.70    7.10
   8   8   3   14.10    5.80
   8   8   3   17.40    4.50
   9   8   3  186.28   13.60
   9   8   3  197.18   11.70
   9   8   3  143.99   14.70
  10   8   3  118.29   11.70
  10   8   3  114.79    9.60
  11   8   3   -1.00    7.40
  11   8   3    6.10    5.40
  11   8   3    5.40    6.50
  11  -9  -3   13.60   15.50
 -11   9   3    9.40    6.50
  10  -9  -3   12.20   19.00
 -10   9   3   19.60    5.90
   9  -9  -3    9.60   13.40
  -9   9   3   -4.70    4.90
   8  -9  -3   -9.70   11.10
  -8   9   3   -0.30    4.30
   7  -9  -3   60.79   14.70
  -7   9   3   64.39    6.20
   6  -9  -3   -0.90    9.90
  -6   9   3    0.30    3.70
   5  -9  -3   68.49   13.80
  -5   9   3  117.79    7.80
   4  -9  -3   63.19   12.60
  -4   9   3   49.10    4.90
  -3   9   3  350.36   18.10
   2  -9  -3   77.19   12.00
  -2   9   3   61.99    5.30
   1  -9  -3    8.70    7.00
  -1   9   3   14.10    3.20
  -1   9   3   10.10    6.40
   0  -9  -3   30.00    8.30
   0   9   3   28.20    8.00
   0   9   3   34.00    3.90
  -1  -9  -3  330.97   21.20
   1   9   3  306.37   15.70
   1   9   3  261.77   19.90
  -2  -9  -3    9.10    5.80
   2   9   3   -5.30    2.80
   2   9   3    1.00    6.10
  -3  -9  -3    3.00    5.60
   3   9   3    4.40    2.80
   3   9   3    0.40    4.80
  -4  -9  -3  350.56   21.80
   4   9   3  303.37   21.10
   4   9   3  337.27   17.40
   5   9   3   53.99    9.30
   5   9   3   54.49    5.40
   6   9   3   -0.30    3.50
   6   9   3    4.90    6.50
   6   9   3   -3.00    4.60
   7   9   3   50.59    7.30
   7   9   3   63.39    6.10
   7   9   3   50.39    9.90
   8   9   3   41.60    7.20
   8   9   3   32.40    5.30
   8   9   3   14.80    8.70
   9   9   3   99.49   16.40
   9   9   3  109.59   11.50
   9   9   3  136.19    9.60
  10   9   3    0.00    4.80
  10   9   3    7.60    6.10
  10   9   3    9.10    8.30
  11   9   3    8.20    5.50
  11   9   3   18.80    7.30
  10 -10  -3   -4.30   14.30
 -10  10   3    5.90    6.10
   9 -10  -3    2.10   15.20
  -9  10   3    6.80    5.50
   8 -10  -3   45.60   15.20
  -8  10   3   43.50    6.20
   7 -10  -3   82.39   17.00
  -7  10   3  136.29    9.40
   6 -10  -3  -11.30    9.60
  -6  10   3    9.30    4.10
   5 -10  -3   52.89   13.80
  -5  10   3   60.99    5.90
   4 -10  -3   15.00   10.40
  -4  10   3   20.50    4.10
   3 -10  -3    7.20    8.70
  -3  10   3   31.40    4.20
   2 -10  -3    6.70    8.50
  -2  10   3    5.80    3.40
   1 -10  -3   -0.30    7.50
  -1  10   3    4.80    3.30
   0 -10  -3  121.09   15.00
   0  10   3  125.79    8.40
  -1 -10  -3    4.70    7.50
   1  10   3    2.40    7.10
   1  10   3    4.30    3.40
  -2 -10  -3    3.40    7.00
   2  10   3    0.30    3.30
   2  10   3    7.00    6.60
  -3 -10  -3   31.10    8.90
   3  10   3   33.80    4.60
   3  10   3   33.70    8.40
  -4 -10  -3   86.79   12.00
   4  10   3   64.29   10.90
   4  10   3   85.99    7.00
  -5 -10  -3  136.39   13.50
   5  10   3  133.99    9.20
   5  10   3  136.59   14.90
   6  10   3   14.80    5.80
   6  10   3   20.20    8.10
   6  10   3   10.00    4.10
   7  10   3   74.39   12.40
   7  10   3  101.19   10.40
   7  10   3   99.59    8.20
   8  10   3   49.80   11.00
   8  10   3   57.59    6.40
   8  10   3   47.00    8.20
   9  10   3   17.10    6.90
   9  10   3   11.60    9.00
   9  10   3   16.10    5.30
  10  10   3   14.60    5.70
  10  10   3   13.80    9.70
  10  10   3   16.50    7.20
   9 -11  -3   -3.00   15.10
  -9  11   3    4.00    5.90
   8 -11  -3   38.00   16.80
  -8  11   3   40.60    6.50
   7 -11  -3    2.50   14.10
  -7  11   3    4.90    4.90
   6 -11  -3   15.70   13.60
  -6  11   3    6.50    4.60
   5 -11  -3   40.20   13.80
  -5  11   3   43.90    5.50
   4 -11  -3   77.99   15.50
  -4  11   3  105.89    8.10
   3 -11  -3   50.09   12.70
  -3  11   3   54.69    5.70
   2 -11  -3    1.40    8.70
  -2  11   3    9.10    3.80
   1 -11  -3   17.20   10.30
  -1  11   3   27.10    4.40
   0 -11  -3    2.10    7.80
   0  11   3   -5.30    3.50
   1  11   3   -1.40    3.60
  -2 -11  -3   -3.30    7.30
   2  11   3   -2.70    3.50
  -3 -11  -3  205.38   18.40
   3  11   3  203.98   12.20
  -4 -11  -3    3.40    7.30
   4  11   3   17.50    4.10
  -5 -11  -3   33.90    9.10
   5  11   3   36.40   11.60
   5  11   3   39.60    5.30
   6  11   3   74.29    9.60
   6  11   3   55.29   13.30
   6  11   3   62.99    6.40
   6  11   3   65.59    5.60
   7  11   3   65.09   18.00
   7  11   3  116.59    8.80
   7  11   3   67.99    9.70
   8  11   3   56.29    6.90
   8  11   3   52.09    8.90
   9  11   3   24.40    5.90
   9  11   3   26.40    7.90
   8 -12  -3   -3.10   15.10
  -8  12   3   10.60    5.80
   7 -12  -3   10.40   16.60
  -7  12   3    4.30    5.40
   6 -12  -3   47.50   17.10
  -6  12   3   64.79    6.70
   5 -12  -3   34.50   14.20
  -5  12   3   28.70    5.60
   4 -12  -3   41.20   14.00
  -4  12   3   49.30    6.00
   3 -12  -3   60.49   14.80
  -3  12   3   35.30    5.40
   2 -12  -3   10.10   11.00
  -2  12   3    7.40    4.10
   1 -12  -3   -3.70    9.10
  -1  12   3   -3.80    3.70
   0 -12  -3    5.80    8.70
   0  12   3    2.30    4.10
  -1 -12  -3   23.80   10.10
   1  12   3   12.00    4.30
  -2 -12  -3  143.89   18.20
   2  12   3  152.18   10.20
  -3 -12  -3    5.40    8.30
   3  12   3    2.50    4.10
  -4 -12  -3   50.59   11.70
   4  12   3   46.30    5.60
  -5 -12  -3   87.69   16.20
   5  12   3  121.49    9.20
   6  12   3   42.90    5.60
   6  12   3   54.39    6.40
   6  12   3   50.99   10.50
   7  12   3   -2.30    6.70
   7  12   3   -3.40    4.80
   8  12   3   92.19    8.20
   8  12   3   65.99   11.70
   7 -13  -3   34.20   17.30
  -7  13   3   16.40    5.90
   6 -13  -3   -3.80   23.20
  -6  13   3   23.60    6.00
   5 -13  -3   -6.80   13.00
  -5  13   3   -5.30    4.80
   4 -13  -3   16.20   12.60
  -4  13   3   11.50    4.90
   3 -13  -3    4.30   12.40
  -3  13   3   11.10    4.80
   2 -13  -3   35.00   13.40
  -2  13   3   29.10    5.50
   1 -13  -3   46.40   13.70
  -1  13   3   31.70    5.50
   0 -13  -3   70.59   14.60
   0  13   3   50.59    6.30
  -1 -13  -3   19.60   11.40
   1  13   3   23.30    5.00
  -2 -13  -3    3.00    9.50
   2  13   3    7.20    4.60
  -3 -13  -3   36.10   11.30
   3  13   3   36.70    5.90
  -4 -13  -3   22.70   10.50
   4  13   3   33.70    5.60
  -5 -13  -3   20.50   10.30
   5  13   3   28.90    5.50
   6  13   3   18.60    7.50
   6  13   3    8.40    3.60
   6  13   3    7.30    5.10
   7  13   3   38.30    6.50
   7  13   3   41.20    9.60
   5 -14  -3    0.50   13.90
  -5  14   3   15.70    5.80
   4 -14  -3    3.50   14.80
  -4  14   3    2.20    5.10
   3 -14  -3   12.60   12.90
  -3  14   3   21.30    5.60
   2 -14  -3    0.80   12.20
  -2  14   3   17.60    5.50
   1 -14  -3   28.70   13.20
  -1  14   3   14.70    5.40
   0 -14  -3   -5.60   11.20
   0  14   3    4.50    5.20
  -1 -14  -3    5.60   11.40
   1  14   3   -2.00    4.70
  -2 -14  -3   90.89   16.50
   2  14   3   83.39    8.10
  -3 -14  -3    1.60    9.30
  -4 -14  -3    1.20    9.50
   4  14   3   -1.60    4.90
  -5 -14  -3    6.10    9.90
   5  14   3    6.20    5.10
   3 -15  -3    8.90   14.40
  -3  15   3   12.40    5.80
   2 -15  -3    8.00   17.40
  -2  15   3   15.90    5.70
   1 -15  -3   -0.10   12.40
  -1  15   3    1.60    5.50
   0 -15  -3   12.40   13.00
   0  15   3   -8.50    4.90
  -1 -15  -3   52.89   15.20
   1  15   3   28.60    6.20
  -2 -15  -3   26.80   13.40
   2  15   3    7.60    5.40
  -3 -15  -3   10.70   11.90
   3  15   3   -0.30    5.10
   3  13  -4   -4.10    5.00
   2  13  -4   17.80    5.70
  -2 -13   4   15.80   16.80
   1  13  -4    5.60    5.10
  -1 -13   4  -10.70   14.00
   0  13  -4    0.00    5.00
  -1  13  -4   19.70    5.70
   1 -13   4   23.00   27.70
  -2  13  -4   24.80    5.70
   2 -13   4   16.70   16.10
  -3  13  -4   21.70    5.90
   3 -13   4   28.40   16.40
  -4  13  -4   17.20    5.90
   4 -13   4    5.00   15.50
   5  12  -4   24.00   10.30
   5  12  -4    7.40    4.90
   5  12  -4   23.20    5.80
   4  12  -4   26.10    5.30
   4  12  -4   40.20   11.20
   3  12  -4    9.20    4.90
  -3 -12   4   -1.70   10.70
   2  12  -4    2.10    4.60
  -2 -12   4    3.50   12.00
   1  12  -4   36.50    5.70
  -1 -12   4    9.10   12.30
   0  12  -4    1.50    4.50
   0 -12   4  -12.70   10.40
  -1  12  -4    6.80    4.80
   1 -12   4   10.90   12.60
  -2  12  -4    4.40    4.80
   2 -12   4   -7.90   12.10
  -3  12  -4   11.80    5.10
   3 -12   4   19.50   14.00
  -4  12  -4    3.20    5.20
   4 -12   4   -5.90   12.90
  -5  12  -4    5.70    8.80
   5 -12   4   -2.70   17.00
  -6  12  -4    1.60    5.30
   6 -12   4  -13.70   14.90
  -7  12  -4   10.60    6.20
   7 -12   4   -1.90   17.10
   6  11  -4   19.00    5.60
   6  11  -4   25.30   10.40
   5  11  -4   27.80   10.50
   5  11  -4   13.80    4.80
   5  11  -4   -1.00    4.60
   4  11  -4   49.20    6.20
   4  11  -4   53.09    6.30
   4  11  -4   63.39   12.30
   3  11  -4    3.10    4.30
  -3 -11   4   -1.60   10.60
   2  11  -4  173.98   11.60
  -2 -11   4  174.08   22.20
   1  11  -4    8.50    4.40
  -1 -11   4    4.80   10.80
   0  11  -4    1.60    3.90
   0 -11   4  -12.60    8.70
  -1  11  -4    0.10    4.10
   1 -11   4    7.10   10.30
  -2  11  -4    9.00    4.40
   2 -11   4   12.00   11.40
  -3  11  -4   10.50    4.40
   3 -11   4   11.70   11.90
  -4  11  -4   27.70    5.70
   4 -11   4   41.60   15.30
  -5  11  -4   41.40    6.10
   5 -11   4   57.79   17.30
  -6  11  -4   15.60    5.40
   6 -11   4   22.40   15.10
  -7  11  -4    5.20    8.20
   7 -11   4   -5.70   16.70
  -8  11  -4   -7.50    5.90
   8 -11   4   -5.00   16.30
   8  10  -4    7.60    5.30
   8  10  -4   -3.50    9.00
   7  10  -4   31.40   11.50
   7  10  -4   36.90    5.90
   6  10  -4   43.30    5.70
   6  10  -4   28.50    9.80
   5  10  -4   84.69    7.80
   5  10  -4   83.89    7.40
   5  10  -4  102.69   14.30
   4  10  -4   37.70   10.30
   4  10  -4   36.30    5.20
   4  10  -4   23.10    4.90
   3  10  -4  134.29    9.50
  -3 -10   4  129.79   18.40
   2  10  -4    1.30    3.70
  -2 -10   4   -7.70    8.60
   1  10  -4    5.50    3.90
  -1 -10   4   16.70   10.10
   0  10  -4   -0.50    3.70
   0 -10   4   -0.80    9.30
  -1  10  -4   49.40    5.50
   1 -10   4   55.79   14.40
  -2  10  -4    2.30    3.60
   2 -10   4   -9.50    9.10
  -3  10  -4   -4.70    3.70
   3 -10   4    2.30   10.70
  -4  10  -4   -1.00    3.80
   4 -10   4   -6.70   10.80
  -5  10  -4   46.40    6.00
   5 -10   4   44.80   15.10
  -6  10  -4   51.49    6.40
   6 -10   4   46.10   16.00
  -7  10  -4    2.20    5.30
   7 -10   4    0.10   14.10
  -8  10  -4   37.50    6.50
   8 -10   4    7.90   15.30
  -9  10  -4   15.40    6.90
   9 -10   4    8.50   15.90
   9   9  -4   -3.00    5.00
   9   9  -4   -3.30    9.00
   8   9  -4   26.30   10.50
   8   9  -4   23.00    5.20
   7   9  -4   40.00    5.70
   7   9  -4   46.40   11.10
   6   9  -4   22.10    4.80
   6   9  -4   20.60    9.70
   5   9  -4    3.40    3.90
   5   9  -4    1.70    3.80
   5   9  -4    8.50    7.70
   4   9  -4   67.89    6.30
   4   9  -4   71.59    6.50
   4   9  -4   73.19   11.40
   3   9  -4   44.70    5.20
  -3  -9   4   51.49   12.10
   2   9  -4    6.90    3.50
  -2  -9   4    7.30    8.70
   1   9  -4    0.60    3.40
  -1  -9   4   -2.80    8.00
   0   9  -4  120.19    8.60
   0  -9   4  122.79   17.90
  -1   9  -4   27.00    4.30
   1  -9   4   29.10   10.90
  -2   9  -4    7.30    3.70
   2  -9   4   18.40   10.20
  -3   9  -4   13.70    3.80
   3  -9   4    8.70   10.00
  -4   9  -4   86.59    7.60
   4  -9   4   83.39   16.50
  -5   9  -4   -1.50    3.90
   5  -9   4   -2.60   10.00
  -6   9  -4    0.50    4.20
   6  -9   4   -1.90   11.90
  -7   9  -4   26.10    5.50
   7  -9   4    8.00   12.70
  -8   9  -4    1.10    5.10
   8  -9   4   17.40   14.90
  -9   9  -4   11.80    6.00
   9  -9   4   26.50   15.80
 -10   9  -4    3.00   12.30
  10  -9   4   -4.50   18.80
   9   8  -4   50.49    6.50
   9   8  -4   40.70   11.50
   8   8  -4   58.99   12.10
   8   8  -4   61.49    6.40
   7   8  -4   -1.60    4.10
   7   8  -4    4.90    7.90
   6   8  -4    2.20    7.00
   6   8  -4    6.20    3.90
   5   8  -4   63.09   10.70
   5   8  -4   68.79    6.00
   4   8  -4   -4.20    3.20
   4   8  -4   -3.30    6.40
   4   8  -4   -2.40    3.20
   3   8  -4    2.90    3.20
  -3  -8   4    8.00    7.80
   2   8  -4   44.20    4.80
  -2  -8   4   50.49   11.50
   1   8  -4  227.88   13.10
  -1  -8   4  258.37   20.40
   0   8  -4   43.90    4.70
   0  -8   4   36.00   10.50
  -1   8  -4   -1.20    2.70
   1  -8   4   -0.90    7.40
  -2   8  -4    1.10    3.00
   2  -8   4    1.80    8.20
  -3   8  -4  195.48   11.30
   3  -8   4  187.68   19.30
  -4   8  -4   -4.80    3.20
   4  -8   4   -3.80    8.80
  -5   8  -4   19.40    4.50
   5  -8   4   20.60   11.60
  -6   8  -4    5.80    4.10
   6  -8   4   16.40   11.50
  -7   8  -4   62.69    6.60
   7  -8   4   76.19   16.20
  -8   8  -4    2.30    4.90
   8  -8   4   14.40   13.60
  -9   8  -4    0.50    5.00
   9  -8   4   -0.20   13.40
 -10   8  -4   34.20    6.70
  10  -8   4   37.10   17.40
 -11   8  -4    4.50   10.80
  10   7  -4   29.10   10.40
  10   7  -4   27.80    5.60
   9   7  -4   33.20    5.50
   9   7  -4   33.80   10.70
   8   7  -4    4.70    8.30
   8   7  -4    2.40    4.10
   7   7  -4   47.90    5.40
   7   7  -4   39.20    9.90
   6   7  -4  181.58   10.90
   6   7  -4  176.18   15.70
   5   7  -4   57.69    5.40
   5   7  -4   58.89    9.90
   3   7  -4   18.00    3.50
  -3  -7   4   23.30    8.50
   2   7  -4  214.88   11.70
  -2  -7   4  209.78   17.80
   1   7  -4   10.50    3.00
  -1  -7   4   11.60    6.80
   0   7  -4    2.20    2.70
   0  -7   4   -0.40    6.00
  -1   7  -4   63.19    5.30
   1  -7   4   71.69   12.00
  -2   7  -4   52.99    4.70
   2  -7   4   43.40   10.30
  -3   7  -4  -10.40    4.60
  -4   7  -4  107.19    7.40
   4  -7   4  104.29   15.40
  -5   7  -4   23.40    4.10
   5  -7   4   17.10    9.60
  -6   7  -4  160.88   10.10
   6  -7   4  128.39   18.20
  -7   7  -4   -0.10    4.00
   7  -7   4    2.00   10.50
  -8   7  -4   22.10    5.10
   8  -7   4   20.00   12.40
  -9   7  -4   39.10    5.90
   9  -7   4   25.30   13.80
 -10   7  -4   -2.30    5.20
  10  -7   4   -3.10   12.50
 -11   7  -4   18.40    6.30
  11  -7   4   33.20   16.30
 -12   7  -4    8.80    6.80
  11   6  -4   25.00    5.40
  11   6  -4   27.20   10.80
  10   6  -4   38.30    5.50
  10   6  -4   28.50   10.50
   9   6  -4   10.60    9.00
   9   6  -4    4.20    4.10
   8   6  -4   90.39   12.30
   8   6  -4   76.19    6.70
   7   6  -4  119.99    8.30
   7   6  -4  113.19   13.20
   6   6  -4   96.29   12.10
   5   6  -4   65.59    5.70
   5   6  -4   67.59   10.00
   4   6  -4   25.10    6.70
   4   6  -4   27.70    3.50
   4   6  -4   23.60    3.40
  -4  -6   4   21.20    3.50
   3   6  -4  243.38   19.00
   3   6  -4  240.98   12.80
  -3  -6   4  233.08   12.80
  -3  -6   4  258.17   18.50
   2   6  -4   24.40    3.20
   2   6  -4   26.20    7.80
  -2  -6   4   24.40    3.10
  -2  -6   4   23.90    7.30
   1   6  -4    1.70    5.30
   1   6  -4    5.60    2.40
  -1  -6   4   -7.10    5.30
  -1  -6   4    2.40    2.10
   0   6  -4   75.39   11.10
   0   6  -4   78.49    5.50
   0  -6   4   76.59    5.30
   0  -6   4   78.59   11.00
  -1   6  -4   98.99   12.20
  -1   6  -4  108.89    6.70
   1  -6   4  101.89   13.00
   1  -6   4  100.69    6.40
  -2   6  -4   -0.30    5.10
  -2   6  -4   -2.30    2.20
   2  -6   4    2.20    6.00
   2  -6   4    0.90    1.80
  -3   6  -4   76.39    6.80
  -3   6  -4   84.79    6.00
  -3   6  -4   90.59   13.20
   3  -6   4   99.59   13.10
  -4   6  -4   18.80    3.30
   4  -6   4   35.80    9.70
  -5   6  -4  171.88   13.20
   5  -6   4  181.98   17.90
  -6   6  -4   -3.70    3.20
   6  -6   4    6.70    8.70
  -7   6  -4   17.70    4.10
   7  -6   4   13.80    9.90
  -8   6  -4   17.60    4.50
   8  -6   4   16.60   11.10
  -9   6  -4   36.70    5.60
   9  -6   4   13.90   12.00
 -10   6  -4   54.39    6.60
  10  -6   4   20.60   13.90
 -11   6  -4    6.60    5.70
  11  -6   4    4.10   13.70
 -12   6  -4   -1.40    6.40
  12  -6   4   -6.70   13.20
  11   5  -4   29.90   11.50
  11   5  -4   44.50    5.70
  10   5  -4   -4.40    4.10
  10   5  -4    0.70    9.60
   9   5  -4   68.79   12.30
   9   5  -4   66.09    6.00
   8   5  -4   30.60    9.20
   8   5  -4   43.60    4.80
   7   5  -4   88.79   11.50
   7   5  -4   82.39    6.60
   6   5  -4   10.00    3.10
   6   5  -4    5.10    6.20
  -6  -5   4    8.30    3.20
   5   5  -4   18.40    6.00
   5   5  -4   21.50    3.10
  -5  -5   4   10.50    2.80
   4   5  -4    0.50    4.70
   4   5  -4    5.20    2.40
   4   5  -4    0.90    5.50
  -4  -5   4   -1.90    2.00
   3   5  -4    9.40    5.80
   3   5  -4   -4.10    4.10
   3   5  -4    3.50    2.10
   3   5  -4    2.20    2.10
   2   5  -4  121.49    7.10
   2   5  -4  113.69   11.70
  -2  -5   4  117.79    7.00
  -2  -5   4  135.49   12.20
   1   5  -4   25.50    3.00
  -1  -5   4   31.90    3.10
  -1  -5   4   31.60    7.50
   0   5  -4  133.69    7.60
   0  -5   4  126.69   12.20
   0  -5   4  133.89    7.50
  -1   5  -4    1.10    2.00
   1  -5   4    2.40    1.70
   1  -5   4   -3.40    4.60
  -2   5  -4  233.18   17.00
  -2   5  -4  236.28   12.60
   2  -5   4  243.58   12.80
   2  -5   4  249.97   17.70
  -3   5  -4   49.20    4.50
  -3   5  -4   47.90    4.10
  -3   5  -4   50.89    8.80
   3  -5   4   38.70    8.80
  -4   5  -4   19.30    3.00
  -4   5  -4   13.10    3.20
  -4   5  -4    8.40    6.10
   4  -5   4   17.40    7.50
  -5   5  -4    6.30    2.60
  -5   5  -4    1.40    5.80
   5  -5   4    1.40    6.60
  -6   5  -4  140.49    8.60
   6  -5   4  131.49   16.20
  -7   5  -4   -6.30    3.00
  -8   5  -4   17.40    4.30
   8  -5   4   10.30    9.80
  -9   5  -4   40.70    5.60
   9  -5   4   28.40   12.10
 -10   5  -4   62.39    7.00
  10  -5   4   46.60   14.40
 -11   5  -4    6.50    5.80
  11  -5   4   -9.00   11.70
 -12   5  -4    4.20    6.40
  12  -5   4  -22.30   12.50
  12   4  -4   14.30   11.70
  12   4  -4   16.90    5.10
  11   4  -4   -4.80    9.70
  11   4  -4   -3.00    4.20
  10   4  -4   46.50    5.30
  10   4  -4   60.09   11.80
   9   4  -4   19.70    4.20
   9   4  -4    9.70    8.70
   8   4  -4    7.80    3.40
   8   4  -4   -0.90    7.10
   7   4  -4   49.30    4.40
   7   4  -4   34.30    8.30
  -7  -4   4   38.40    4.10
   6   4  -4  116.59    6.90
   6   4  -4  117.79   11.50
  -6  -4   4   97.19    6.70
   5   4  -4   18.50    6.00
   5   4  -4   17.80    2.80
   5   4  -4   23.20    7.10
  -5  -4   4   14.10    2.70
   4   4  -4   21.40    2.60
   4   4  -4   16.90    5.30
   4   4  -4    8.90    5.70
  -4  -4   4    8.30    2.30
   3   4  -4  444.66   24.60
   3   4  -4  450.05   26.70
   3   4  -4  452.45   22.10
   3   4  -4  433.16   21.90
  -3  -4   4  438.66   21.90
   2   4  -4  288.37   14.60
   2   4  -4  284.07   18.80
  -2  -4   4  311.27   19.00
  -2  -4   4  281.47   14.60
   1   4  -4   34.30    7.30
   1   4  -4   31.30    3.10
  -1  -4   4   38.20    3.20
  -1  -4   4   35.20    7.60
   0   4  -4   -0.90    1.70
   0   4  -4    2.40    4.50
   0  -4   4   -1.00    1.60
   0  -4   4   -4.00    4.00
  -1   4  -4  465.05   26.70
  -1   4  -4  461.35   22.80
   1  -4   4  463.45   26.90
   1  -4   4  461.05   22.70
  -2   4  -4   26.90    3.00
  -2   4  -4   36.00    7.00
   2  -4   4   32.40    2.90
   2  -4   4   21.60    6.60
  -3   4  -4    6.70    2.60
  -3   4  -4    8.60    2.20
  -3   4  -4    6.80    4.80
   3  -4   4   -0.70    5.20
  -4   4  -4   94.69    6.10
  -4   4  -4  108.99   12.00
  -4   4  -4   91.19    6.50
   4  -4   4  110.99   12.00
  -5   4  -4  410.66   20.90
  -5   4  -4  413.86   20.60
  -5   4  -4  395.86   24.80
   5  -4   4  405.66   26.10
  -6   4  -4    3.90    5.50
  -6   4  -4    9.90    2.80
   6  -4   4    6.20    6.80
   7  -4   4   -7.70    3.70
   7  -4   4    3.50    7.70
   8  -4   4   37.40    5.50
   8  -4   4   22.30   10.10
   9  -4   4   58.19    6.80
   9  -4   4   59.09   12.90
  10  -4   4   27.40   11.20
  10  -4   4   -0.50    5.10
  11  -4   4   -0.50   11.80
  11  -4   4   20.10    6.00
  12  -4   4   40.20    7.30
  12  -4   4   20.90   14.00
  13  -4   4   -7.00   13.70
  13  -4   4   -4.30    7.20
  12   3  -4   14.30   11.20
  12   3  -4    6.00    4.60
  11   3  -4   44.20   11.80
  11   3  -4   28.30    5.00
  10   3  -4   -2.60    9.40
  10   3  -4    2.20    3.60
   9   3  -4   56.79   11.20
   9   3  -4   83.19    6.40
   8   3  -4   50.39   10.10
   8   3  -4   52.59    4.80
  -8  -3   4   48.50    4.60
   7   3  -4  339.17   21.50
   7   3  -4  333.47   16.60
  -7  -3   4  299.47   16.40
   6   3  -4  192.78   14.20
   6   3  -4  167.68   14.60
   6   3  -4  171.38    9.70
  -6  -3   4  177.68    9.60
   5   3  -4    5.60    4.80
   5   3  -4   -3.90    4.60
   5   3  -4    1.40    2.10
  -5  -3   4    0.20    1.80
   4   3  -4 1254.47   62.99
   4   3  -4 1257.77   64.59
   4   3  -4 1254.47   60.19
  -4  -3   4 1246.08   60.19
   3   3  -4  222.58   10.90
   3   3  -4  211.68   15.10
   3   3  -4  196.28   13.50
  -3  -3   4  209.28   10.80
   2   3  -4    7.70    3.90
   2   3  -4    6.80    4.50
   2   3  -4    7.50    2.00
   2   3  -4    8.80    1.80
  -2  -3   4    9.10    1.80
   1   3  -4   85.79    9.00
   1   3  -4   83.69    4.90
  -1  -3   4   84.89    8.70
  -1  -3   4   83.59    5.00
   0   3  -4  119.39    6.50
   0   3  -4  122.09   10.20
   0  -3   4  118.39   10.20
   0  -3   4  115.59    6.40
  -1   3  -4    3.20    1.70
  -1   3  -4   10.60    4.50
   1  -3   4    4.50    1.50
   1  -3   4    4.60    4.40
  -2   3  -4   21.70    2.70
  -2   3  -4   13.50    2.20
  -2   3  -4    7.20    4.50
   2  -3   4   13.50    5.10
  -3   3  -4   41.40    3.70
  -3   3  -4   38.10    3.30
  -3   3  -4   32.50    6.70
   3  -3   4   33.10    7.00
  -4   3  -4  315.17   15.70
  -4   3  -4  286.37   19.20
  -4   3  -4  314.27   16.00
   4  -3   4  312.47   20.10
  -5   3  -4  684.43   38.30
   5  -3   4  729.53   39.30
   5  -3   4  720.53   35.20
  -6   3  -4  224.08   12.70
   6  -3   4  250.87   18.00
   6  -3   4  241.28   13.10
  -7   3  -4   74.99   10.50
   7  -3   4   78.09   11.80
   7  -3   4   64.79    6.10
  -8   3  -4  178.88   20.00
   8  -3   4  197.78   18.20
   8  -3   4  198.38   12.00
   9  -3   4    5.70    4.60
   9  -3   4    6.20    8.90
  10  -3   4    1.60    9.10
  10  -3   4    0.90    4.80
  11  -3   4   -6.90    4.90
  11  -3   4   -5.60   10.40
  12  -3   4    4.60   12.00
  12  -3   4   10.70    6.20
  13  -3   4  -10.30   11.20
  13  -3   4   -3.50    6.10
  12   2  -4   30.50    5.40
  12   2  -4   22.30   12.50
  11   2  -4   19.70   10.60
  11   2  -4   -0.50    4.20
  10   2  -4    9.00    9.00
   9   2  -4    3.80    7.80
   9   2  -4    0.00    3.20
  -9  -2   4    2.80    3.70
   8   2  -4  228.88   11.70
  -8  -2   4  197.58   11.60
   7   2  -4  237.48   17.00
   7   2  -4  224.68   11.90
  -7  -2   4  219.68   11.90
   6   2  -4    7.80    5.40
   6   2  -4    7.40    2.20
  -6  -2   4    5.70    2.00
  -6  -2   4   11.30    5.10
  -6  -2   4    5.10    2.30
   5   2  -4   40.20    3.40
   5   2  -4   41.40    7.10
  -5  -2   4   37.70    3.50
   4   2  -4  231.18   14.90
   4   2  -4  231.28   11.70
  -4  -2   4  232.58   14.60
  -4  -2   4  239.78   12.00
  -4  -2   4  223.58   11.70
   3   2  -4   49.60    3.50
   3   2  -4   64.29    8.10
   3   2  -4   57.89    6.80
  -3  -2   4   51.19    3.50
   2   2  -4  109.09    6.10
   2   2  -4  100.99    8.20
   2   2  -4  117.29    9.80
   2   2  -4  108.59    5.90
  -2  -2   4  112.09    5.90
   1   2  -4   25.00    2.20
   1   2  -4   19.80    5.50
  -1  -2   4   28.80    5.50
  -1  -2   4   32.50    2.40
   0   2  -4  196.88   10.00
   0   2  -4  193.18   13.10
   0  -2   4  205.88   13.40
   0  -2   4  196.18   10.00
  -1   2  -4   49.50    6.60
  -1   2  -4   37.90    3.50
  -1   2  -4   33.90    3.00
   1  -2   4   47.00    6.50
  -2   2  -4   18.10    2.20
  -2   2  -4   19.50    2.50
  -2   2  -4   19.60    5.20
   2  -2   4   26.30    5.80
  -3   2  -4   79.89    8.20
  -3   2  -4   88.19    5.50
   3  -2   4   89.49    5.70
   3  -2   4   81.39    8.90
  -4   2  -4  305.47   15.20
  -4   2  -4  283.87   17.90
   4  -2   4  296.87   15.30
   4  -2   4  299.47   18.50
  -5   2  -4   56.39    7.70
  -5   2  -4   46.70    4.00
   5  -2   4   46.00    4.40
   5  -2   4   44.40    7.40
  -6   2  -4   40.00    7.20
  -6   2  -4   41.40    3.90
   6  -2   4   48.10    4.60
   6  -2   4   34.70    8.30
  -7   2  -4  199.68   15.00
  -7   2  -4  187.78   10.90
   7  -2   4  200.68   16.40
   7  -2   4  205.78   11.40
  -8   2  -4   -2.10    5.20
   8  -2   4    3.40    7.10
   8  -2   4   -1.10    3.60
  -9   2  -4  128.19   19.00
   9  -2   4  162.68   17.80
   9  -2   4  173.48   10.90
  10  -2   4    2.90    4.50
  10  -2   4    5.40   10.80
  11  -2   4   14.60    5.50
  11  -2   4   21.30   11.10
  12  -2   4   -2.60    5.70
  12  -2   4   -4.10   10.60
  13  -2   4   -4.90   11.60
  13  -2   4    6.30    6.40
  12   1  -4   15.60   11.50
  12   1  -4   22.50    5.30
  11   1  -4   -4.80    9.60
  11   1  -4    6.70    4.10
  10   1  -4    5.50    3.70
  10   1  -4    6.00    8.80
   9   1  -4  399.66   25.80
   9   1  -4  399.26   19.40
  -9  -1   4  341.27   19.10
   8   1  -4   -3.20    2.70
   8   1  -4  -16.50   11.20
  -8  -1   4   -4.30    2.80
   7   1  -4   18.60    2.70
   7   1  -4   17.20    6.80
  -7  -1   4   13.10    2.50
  -7  -1   4   14.50   10.10
   6   1  -4  146.89   12.50
   6   1  -4  150.08    7.90
  -6  -1   4  133.99   11.30
  -6  -1   4  140.79    7.80
   5   1  -4   11.90    1.90
   5   1  -4   12.10    5.30
  -5  -1   4   11.20    2.00
  -5  -1   4    9.10    4.60
   4   1  -4  190.18   13.50
   4   1  -4  195.78   10.10
  -4  -1   4  202.38   13.10
  -4  -1   4  199.78   10.00
   3   1  -4  129.89    6.70
   3   1  -4  124.89    9.50
  -3  -1   4  129.69    6.70
  -3  -1   4  130.89    7.10
  -3  -1   4  132.39    9.40
   2   1  -4  400.76   19.10
   2   1  -4  378.06   21.10
  -2  -1   4  405.96   19.40
  -2  -1   4  386.36   21.20
  -2  -1   4  391.46   19.10
   1   1  -4   41.50    5.10
   1   1  -4   30.70    2.70
   1   1  -4   23.50    2.20
   1   1  -4   34.90    5.60
  -1  -1   4   28.80    2.30
   0   1  -4 3603.94  176.08
   0   1  -4 3754.22  178.48
   0  -1   4 3737.33  178.38
  -1   1  -4 4240.98  199.18
  -1   1  -4 4155.28  201.18
   1  -1   4 4141.39  201.18
  -2   1  -4 1570.54   73.49
  -2   1  -4 1490.35   75.39
   2  -1   4 1541.35   73.59
   2  -1   4 1532.05   75.49
  -3   1  -4   66.29    6.90
  -3   1  -4   68.59    4.70
   3  -1   4   83.29    8.40
   3  -1   4   67.99    4.90
  -4   1  -4   82.29    7.80
  -4   1  -4   88.19    5.50
   4  -1   4   94.69    8.60
   4  -1   4   94.39    5.80
  -5   1  -4   -0.70    3.90
  -5   1  -4   -1.20    1.90
   5  -1   4   -0.50    2.30
   5  -1   4    3.50    4.90
  -6   1  -4   91.69    5.90
  -6   1  -4   82.39    8.80
   6  -1   4   94.79    6.30
   6  -1   4   93.89   10.10
  -7   1  -4    6.40    2.30
  -7   1  -4    6.00    4.80
   7  -1   4    4.40    5.40
   7  -1   4   -0.30    2.60
  -8   1  -4  120.89   11.60
   8  -1   4  133.79   13.70
   8  -1   4  133.79    8.60
  -9   1  -4  102.19   11.50
   9  -1   4  117.29    8.70
   9  -1   4  129.59   14.60
  10  -1   4  205.98   12.90
  10  -1   4  203.68   19.10
  11  -1   4  103.89    9.40
  11  -1   4   78.99   24.10
  12  -1   4    3.70    5.70
  12  -1   4    4.40   10.90
  13  -1   4    2.60   11.70
  13  -1   4    1.20    6.20
  12   0  -4    1.00    4.80
  12   0  -4   16.00   12.10
  11   0  -4   24.70    4.90
  11   0  -4    5.30   10.90
  10   0  -4  124.99   16.00
  10   0  -4  141.29    9.20
   9   0  -4   -3.00    3.40
   9   0  -4   15.20    9.50
  -9   0   4   -0.40    3.00
   8   0  -4    6.20    2.80
   8   0  -4    8.40   12.10
  -8   0   4   13.20    2.70
   7   0  -4  205.78   10.90
   7   0  -4  205.78   16.10
  -7   0   4  205.78   17.10
  -7   0   4  205.98   10.80
   6   0  -4  108.59    6.20
   6   0  -4  105.79   11.00
  -6   0   4  113.29    6.20
  -6   0   4   97.19    9.70
   5   0  -4  207.08   14.20
   5   0  -4  197.08   10.30
  -5   0   4  207.08   13.70
  -5   0   4  203.18   10.20
   4   0  -4  236.08   11.80
   4   0  -4  240.88   15.10
  -4   0   4  240.28   11.90
  -4   0   4  238.08   14.70
   3   0  -4  130.59    6.60
   3   0  -4  130.09    9.70
  -3   0   4  132.79    6.60
  -3   0   4  133.59    9.40
   2   0  -4 3060.59  145.59
   2   0  -4 3070.29  147.59
  -2   0   4 3029.20  145.69
  -2   0   4 3080.19  147.49
   1   0  -4  170.78   10.80
   1   0  -4  176.58    8.70
  -1   0   4  184.18   10.80
  -1   0   4  182.18    9.10
  -1   0   4  177.48    8.70
   0   0  -4 1796.42   87.59
   0   0  -4 1853.11   85.89
   0   0  -4 1725.13   85.59
   0   0  -4 1803.82   85.69
   0   0  -4 1808.12   86.99
  -1   0  -4 2227.78  103.89
  -1   0  -4 2226.38  105.49
   1   0   4 2116.79  103.89
   1   0   4 2138.29  105.29
  -2   0  -4    2.60    3.10
  -2   0  -4    4.80    1.70
   2   0   4    3.20    3.30
   2   0   4    3.70    1.80
  -3   0  -4 2426.56  118.39
   3   0   4 2549.04  119.79
   3   0   4 2461.95  118.39
  -4   0  -4  514.95   25.00
  -4   0  -4  499.45   26.40
   4   0   4  517.25   25.10
  -5   0  -4  430.56   22.90
  -5   0  -4  411.16   21.10
   5   0   4  438.46   23.50
   5   0   4  428.26   21.30
  -6   0  -4  255.07   15.60
   6   0   4  257.77   13.70
   6   0   4  277.27   16.80
  -7   0  -4   22.70    5.40
  -7   0  -4   20.20    2.90
   7   0   4   25.90    6.60
   7   0   4   23.20    3.40
  -8   0  -4  169.98   13.00
   8   0   4  178.08   14.60
   8   0   4  170.38   10.30
  -9   0  -4   34.80   14.20
   9   0   4   15.60    4.20
   9   0   4   26.60    8.00
 -10   0  -4    3.60    7.10
  10   0   4    2.40    4.20
  10   0   4    8.60    8.90
  11   0   4   33.50   10.80
  11   0   4   26.70    5.50
  12   0   4    6.40   10.10
  12   0   4    4.70    5.50
  13   0   4   18.30   11.50
  13   0   4   17.20    6.30
  12  -1  -4   -5.30    4.70
  12  -1  -4   -6.60   10.70
  11  -1  -4   72.49   14.70
  11  -1  -4   91.49   10.90
  10  -1  -4   30.10   10.70
  10  -1  -4   27.20    4.30
 -10   1   4    5.80    3.70
   9  -1  -4   45.00    4.70
   9  -1  -4   47.00   11.00
  -9   1   4   40.50    4.20
   8  -1  -4  345.97   32.20
   8  -1  -4  295.27   15.30
  -8   1   4  283.57   15.10
   7  -1  -4  118.09    7.00
   7  -1  -4  127.29   12.70
  -7   1   4  115.29    6.70
   6  -1  -4   -0.90    1.70
   6  -1  -4   -4.70    4.80
  -6   1   4    1.50    4.40
  -6   1   4   -1.50    1.60
   5  -1  -4  120.29    6.30
   5  -1  -4  114.39   10.60
  -5   1   4  110.09    9.80
  -5   1   4  113.49    6.20
   4  -1  -4   94.39    5.20
   4  -1  -4   78.59    8.70
  -4   1   4  104.49    5.10
  -4   1   4   92.09    8.50
   3  -1  -4   75.29    7.40
   3  -1  -4   68.29    3.80
  -3   1   4   67.79    6.90
  -3   1   4   73.09    3.70
   2  -1  -4   13.30    4.00
  -2   1   4   13.10    3.90
   1  -1  -4   26.00    4.70
  -1   1   4   33.30    4.40
   0  -1  -4  683.43   33.70
   0  -1  -4  676.53   32.50
   0   1   4  674.03   32.50
   0   1   4  682.83   33.60
  -1  -1  -4  189.98   10.70
  -1  -1  -4  201.18    9.90
  -1  -1  -4  207.38   11.30
   1   1   4  200.08    9.90
  -2  -1  -4  597.44   30.10
  -2  -1  -4  592.84   29.30
   2   1   4  602.94   30.10
   2   1   4  635.94   29.50
  -3  -1  -4  154.18    8.60
  -3  -1  -4  141.69    7.60
   3   1   4  135.69    7.70
   3   1   4  146.69    8.60
  -4  -1  -4  296.87   15.60
  -4  -1  -4  292.47   14.70
   4   1   4  285.87   14.80
   4   1   4  301.67   16.00
  -5  -1  -4  289.87   14.30
  -5  -1  -4  274.17   15.50
   5   1   4  277.97   16.10
  -6  -1  -4   -2.20    3.20
  -6  -1  -4    1.50    2.00
   6   1   4   -3.70    3.60
   6   1   4    4.90    2.20
  -7  -1  -4   10.60    2.40
  -7  -1  -4   18.40    4.70
   7   1   4   17.50    3.20
   7   1   4   14.70    5.00
  -8  -1  -4  134.29   11.00
   8   1   4  144.69    8.90
   8   1   4  148.49   12.40
  -9  -1  -4    6.00    5.20
   9   1   4    0.60    6.30
   9   1   4   -6.40    3.30
 -10  -1  -4  196.68   16.40
  10   1   4  241.48   18.00
  10   1   4  229.88   13.20
 -11  -1  -4    1.00    6.60
  11   1   4   -0.80    7.70
  11   1   4    2.70    4.50
  12   1   4    9.60    5.50
  12   1   4   15.60   10.00
  13   1   4   35.90   12.20
  13   1   4   36.40    6.90
  12  -2  -4   -1.70   11.60
  12  -2  -4    2.90    4.90
  11  -2  -4   41.90   13.40
  11  -2  -4   27.10    6.30
  10  -2  -4   36.60   11.20
  10  -2  -4   45.80    5.20
 -10   2   4   23.10    4.10
   9  -2  -4   28.30   10.50
   9  -2  -4   30.80    4.50
  -9   2   4   42.50    4.10
   8  -2  -4  182.28   16.90
   8  -2  -4  168.38    9.80
  -8   2   4  160.38    9.30
   7  -2  -4   15.50    2.80
   7  -2  -4   -0.70    6.30
  -7   2   4    9.50    2.30
   6  -2  -4   18.70    6.60
   6  -2  -4   24.80    2.70
  -6   2   4   21.40    6.10
  -6   2   4   21.80    2.30
   5  -2  -4   31.70    7.00
   5  -2  -4   29.60    2.70
  -5   2   4   27.50    2.30
  -5   2   4   37.60    6.60
   4  -2  -4   47.90    3.30
   4  -2  -4   63.49    8.10
  -4   2   4   48.70    3.10
  -4   2   4   49.00    6.80
   3  -2  -4  751.62   38.60
  -3   2   4  733.93   38.20
  -3   2   4  753.72   35.70
   2  -2  -4   51.89    6.20
  -2   2   4   51.89    5.80
  -2   2   4   38.00    2.20
  -2   2   4   38.60    2.20
   1  -2  -4   23.00    4.30
   1  -2  -4   18.90    1.50
  -1   2   4   20.50    1.50
  -1   2   4   32.50    4.50
   0  -2  -4  662.13   31.50
   0  -2  -4  663.83   32.70
   0   2   4  645.24   31.50
   0   2   4  658.83   32.60
  -1  -2  -4  990.70   46.80
  -1  -2  -4  938.81   46.20
   1   2   4  971.80   46.70
   1   2   4  960.40   46.20
  -2  -2  -4    8.50    1.80
  -2  -2  -4    7.80    1.70
  -2  -2  -4    7.20    1.60
   2   2   4    3.40    1.60
  -3  -2  -4   95.89    5.30
   3   2   4   88.79    5.40
  -4  -2  -4  340.87   17.30
  -4  -2  -4  342.47   17.20
   4   2   4  343.37   17.30
   4   2   4  364.46   17.60
  -5  -2  -4  212.18   11.60
  -5  -2  -4  202.38   11.00
   5   2   4  215.48   12.10
   5   2   4  216.78   11.20
  -6  -2  -4   61.99    5.90
   6   2   4   73.89    7.60
   6   2   4   62.89    4.90
  -7  -2  -4   -2.90    3.10
  -7  -2  -4    0.50    2.00
   7   2   4   -0.10    2.50
   7   2   4    2.20    3.90
  -8  -2  -4    4.70    4.30
   8   2   4   -0.10    2.80
   8   2   4    2.80    5.10
  -9  -2  -4  347.57   20.20
   9   2   4  326.87   21.10
   9   2   4  346.17   18.10
 -10  -2  -4   33.90    7.20
  10   2   4   32.10    4.90
  10   2   4   39.50    8.50
 -11  -2  -4    1.70    6.20
  11   2   4    9.00    4.70
  11   2   4    0.10    7.50
  12   2   4   17.40    5.30
  12   2   4   39.70   10.30
  13   2   4    8.30    5.90
  13   2   4   28.20   12.40
  12  -3  -4    9.80   12.70
  12  -3  -4   -1.10    5.10
  11  -3  -4   23.60   12.20
  10  -3  -4   33.60   11.10
  10  -3  -4   29.30    4.90
 -10   3   4   32.00    4.40
   9  -3  -4   11.10    3.80
   9  -3  -4   18.70   10.10
  -9   3   4   23.50    3.50
   8  -3  -4   -1.90    7.40
   8  -3  -4   -0.20    2.90
  -8   3   4   -3.00    2.50
   7  -3  -4  322.07   22.90
   7  -3  -4  341.87   17.20
  -7   3   4  341.77   16.90
   6  -3  -4  102.19   11.70
   6  -3  -4   86.99    5.90
  -6   3   4   87.19   10.50
  -6   3   4   98.39    5.50
   5  -3  -4   70.09    9.50
  -5   3   4   77.89    9.00
  -5   3   4   77.99    4.60
   4  -3  -4 1112.29   54.89
  -4   3   4 1082.09   54.29
  -4   3   4 1031.30   51.09
  -4   3   4 1056.49   51.09
   3  -3  -4  350.16   20.40
  -3   3   4  335.67   17.00
  -3   3   4  364.16   20.00
  -3   3   4  359.86   17.10
   2  -3  -4   69.99    3.90
   2  -3  -4   96.19    8.60
  -2   3   4   70.59    3.90
  -2   3   4   70.79    7.50
   1  -3  -4   11.30    1.30
   1  -3  -4   10.80    4.10
  -1   3   4   12.50    1.40
  -1   3   4   12.20    3.80
   0  -3  -4  329.97   17.20
   0  -3  -4  321.07   15.50
   0   3   4  306.77   15.50
  -1  -3  -4  185.38    9.40
  -1  -3  -4  187.88   10.40
   1   3   4  187.78   10.30
  -2  -3  -4  106.69    5.50
  -2  -3  -4   90.49    5.70
   2   3   4   97.89    5.40
   2   3   4  102.99    5.60
  -3  -3  -4   53.59    3.70
   3   3   4   51.99    3.80
  -4  -3  -4  324.97   16.10
   4   3   4  322.37   16.20
  -5  -3  -4  880.61   44.20
  -5  -3  -4  929.11   44.30
   5   3   4  914.71   44.30
   5   3   4  927.61   44.50
  -6  -3  -4  176.98   10.20
  -6  -3  -4  205.08   11.10
   6   3   4  193.68   10.40
   6   3   4  190.28   11.30
  -7  -3  -4   75.89    5.70
  -7  -3  -4   84.79    7.00
   7   3   4   91.19    6.10
   7   3   4   94.39    7.70
  -8  -3  -4  588.34   30.30
   8   3   4  573.04   30.70
  -9  -3  -4   31.90    6.20
   9   3   4   51.29    7.70
   9   3   4   27.70    4.60
 -10  -3  -4   -5.30    5.50
  10   3   4    3.70    3.90
  10   3   4    3.80    6.10
 -11  -3  -4   40.30   10.20
  11   3   4   54.49    9.70
  11   3   4   48.80    6.10
 -12  -3  -4   19.90    8.40
  12   3   4   45.40    6.20
  12   3   4   39.40   10.30
  13   3   4   11.90    9.20
  13   3   4   -2.30    5.60
  12  -4  -4    6.60   13.80
  11  -4  -4   18.60   12.40
  10  -4  -4    9.70   11.40
   9  -4  -4   -1.50    9.00
  -9   4   4    1.80    2.90
   8  -4  -4  205.98   18.40
  -8   4   4  177.18   10.10
  -7   4   4  130.39    8.10
  -7   4   4  160.78    8.20
   6  -4  -4    3.20    6.40
  -6   4   4    1.60    1.90
  -6   4   4    3.30    1.90
   5  -4  -4   87.09   10.50
  -5   4   4   83.69    5.20
  -5   4   4   91.29    9.60
  -5   4   4   86.69    5.10
   4  -4  -4  740.23   41.30
  -4   4   4  804.42   37.40
  -4   4   4  766.32   37.30
  -4   4   4  781.52   40.90
   3  -4  -4   88.39    9.30
  -3   4   4   89.09    5.10
  -3   4   4   86.89    5.90
  -3   4   4   78.79    8.60
   2  -4  -4   52.39    7.20
   2  -4  -4   50.49    3.30
  -2   4   4   50.29    4.50
  -2   4   4   66.99    7.30
   1  -4  -4  210.38   13.50
   1  -4  -4  218.58   10.60
  -1   4   4  210.78   10.80
  -1   4   4  205.38   13.30
   0  -4  -4  150.88    7.60
   0  -4  -4  152.58   10.10
   0   4   4  143.59    9.80
   0   4   4  139.49    7.60
  -1  -4  -4  142.19    8.90
  -1  -4  -4  136.19    7.10
   1   4   4  125.79    8.60
   1   4   4  126.19    7.10
  -2  -4  -4   15.40    2.10
  -2  -4  -4   17.50    3.10
   2   4   4   13.50    2.00
   2   4   4   12.90    2.70
  -3  -4  -4  329.97   16.10
  -3  -4  -4  314.77   15.90
   3   4   4  316.97   16.00
   3   4   4  315.07   15.90
  -4  -4  -4  902.41   43.30
   4   4   4  861.81   43.10
   4   4   4  902.11   43.30
   4   4   4  916.51   43.30
  -5  -4  -4   22.80    3.20
   5   4   4   32.70    3.30
   5   4   4   29.90    3.20
   5   4   4   29.00    3.70
  -6  -4  -4   65.09    4.90
   6   4   4   68.79    5.80
   6   4   4   55.99    5.60
   6   4   4   65.19    5.20
   7   4   4  599.34   29.80
  -8  -4  -4   29.00    4.70
  -8  -4  -4   34.80    3.10
   8   4   4   45.20    6.10
   8   4   4   32.10    4.20
  -9  -4  -4    5.20    4.20
  -9  -4  -4    4.50    2.10
   9   4   4    8.50    3.60
   9   4   4    5.00    4.90
 -10  -4  -4   15.00    5.80
 -10  -4  -4    8.80    2.50
  10   4   4    7.70    4.10
  10   4   4   12.50    6.20
 -11  -4  -4   32.60    7.10
 -11  -4  -4   20.50    3.40
  11   4   4   45.30    8.40
  11   4   4   27.50    5.50
 -12  -4  -4    3.80    3.20
 -12  -4  -4   13.10    6.70
  12   4   4   -0.40    7.40
  12   4   4    2.20    5.00
  13   4   4    2.60    8.40
  13   4   4   -0.40    5.50
  12  -5  -4   16.10   15.20
 -12   5   4    6.40    5.60
  11  -5  -4   11.70   12.50
 -11   5   4   -2.40    4.50
  10  -5  -4    2.70   11.10
 -10   5   4   -2.30    3.80
   9  -5  -4   78.59   14.80
  -9   5   4   78.29    6.60
  -9   5   4   84.69    6.70
   8  -5  -4  106.99   15.20
  -8   5   4   90.59    7.10
  -8   5   4  116.49    7.20
   7  -5  -4   -3.90    7.40
  -7   5   4    5.60    2.60
  -7   5   4    2.80    2.40
   6  -5  -4    4.00    7.50
  -6   5   4    5.70    2.30
  -6   5   4    2.70    2.20
   5  -5  -4  242.08   18.70
  -5   5   4  262.97   13.30
  -5   5   4  268.07   13.10
  -5   5   4  236.58   17.60
   4  -5  -4   -5.50    5.20
  -4   5   4   -0.40    4.50
  -4   5   4    1.90    1.70
  -4   5   4    1.70    1.90
   3  -5  -4    0.70    5.30
   3  -5  -4   -1.20    1.40
  -3   5   4   -0.20    5.20
  -3   5   4   -1.70    1.70
   2  -5  -4  230.58   11.40
   2  -5  -4  222.58   15.50
  -2   5   4  228.88   14.80
  -2   5   4  219.28   11.30
   1  -5  -4   52.39    7.30
   1  -5  -4   45.20    3.40
  -1   5   4   59.19    7.00
  -1   5   4   42.40    3.40
   0  -5  -4   15.50    4.60
   0  -5  -4   16.80    2.10
   0   5   4   15.20    2.00
   0   5   4   16.10    4.20
  -1  -5  -4   21.80    2.30
  -1  -5  -4   13.30    4.50
   1   5   4   17.60    2.20
   1   5   4   19.00    4.10
  -2  -5  -4    3.30    1.60
  -2  -5  -4   -2.10    3.10
   2   5   4    2.00    3.20
   2   5   4    4.60    1.90
  -3  -5  -4  813.62   40.40
  -3  -5  -4  825.62   39.50
   3   5   4  833.02   40.30
   3   5   4  789.52   39.50
  -4  -5  -4    3.30    1.90
   4   5   4    3.80    2.50
   4   5   4    5.50    2.30
   4   5   4    7.50    2.10
  -5  -5  -4   31.60    3.30
   5   5   4   48.30    4.10
   5   5   4   32.00    3.50
   5   5   4   30.50    4.40
   6   5   4   68.59    9.60
   7   5   4   22.10    3.70
   7   5   4   27.40    4.90
   7   5   4   34.10    7.70
   8   5   4   61.69    5.80
   8   5   4   59.79    7.60
   8   5   4   69.89    7.10
   9   5   4   45.30    7.40
   9   5   4   52.49    5.50
   9   5   4   57.99    7.50
  10   5   4   20.10    6.50
  10   5   4   47.00    5.50
  10   5   4   40.30    7.00
  11   5   4    3.30    6.40
  11   5   4    1.00    5.80
  11   5   4    1.70    4.70
  12   5   4    3.30    6.90
  12   5   4   -4.60    5.10
  12   5   4    1.80    7.10
  13   5   4    8.20   11.60
  13   5   4   20.80    8.70
  12  -6  -4   -8.20   14.40
 -12   6   4    0.80    5.60
  11  -6  -4   -5.30   12.10
 -11   6   4    1.10    4.80
  10  -6  -4   47.70   14.50
   9  -6  -4   49.80   14.10
  -9   6   4  112.29    7.60
   8  -6  -4   19.70   11.00
  -8   6   4   16.20    3.60
  -8   6   4   22.10    3.80
   7  -6  -4    4.30    8.40
  -7   6   4    6.00    3.40
  -7   6   4   10.50    2.90
   6  -6  -4  193.78   20.10
  -6   6   4  168.48   10.00
  -6   6   4  183.68    9.80
   5  -6  -4   42.40    9.30
  -5   6   4   58.19    4.50
  -5   6   4   48.00    4.30
   4  -6  -4  134.79   13.70
  -4   6   4  129.39    8.00
  -4   6   4  147.89    7.70
  -4   6   4  124.09   12.30
   3  -6  -4  110.89    6.10
   3  -6  -4  103.79   11.60
  -3   6   4  102.49    6.20
   2  -6  -4  130.19   11.90
   2  -6  -4  127.99    6.70
  -2   6   4  105.09   10.50
  -2   6   4  115.09    6.80
   1  -6  -4  390.96   19.20
  -1   6   4  387.86   22.30
  -1   6   4  384.46   19.20
   0  -6  -4   16.60    2.40
   0  -6  -4   17.50    5.40
   0   6   4   20.80    5.10
   0   6   4   17.50    2.40
  -1  -6  -4  106.69    6.20
  -1  -6  -4  111.69    9.30
   1   6   4  100.19    8.70
   1   6   4  102.39    6.20
  -2  -6  -4  477.05   25.70
  -2  -6  -4  485.85   23.50
   2   6   4  449.16   23.50
   2   6   4  494.05   25.30
  -3  -6  -4   42.80    3.80
   3   6   4   52.09    5.90
   3   6   4   43.60    3.70
  -4  -6  -4  115.99    8.50
  -4  -6  -4  122.69    7.20
   4   6   4  126.59    8.80
   4   6   4  127.89    7.40
  -5  -6  -4  163.98    9.00
   5   6   4  155.28   10.60
   5   6   4  155.78    9.40
   5   6   4  163.68    9.10
   6   6   4   95.99    6.80
   6   6   4  102.39    8.20
   7   6   4  179.68   11.00
   7   6   4  175.18   11.80
   7   6   4  174.68   10.30
   8   6   4   82.29    8.80
   8   6   4   74.39    7.50
   8   6   4   67.39    6.10
   9   6   4  227.48   14.10
   9   6   4  237.88   13.10
   9   6   4  193.18   14.90
  10   6   4   17.20    6.30
  10   6   4   16.20    6.40
  10   6   4   12.00    4.80
  11   6   4   54.99    9.20
  11   6   4   69.59    7.10
  11   6   4   61.69    9.10
  12   6   4    7.20    7.10
  12   6   4   -5.40    5.10
  11  -7  -4   24.70   16.20
 -11   7   4   47.20    6.50
  10  -7  -4    4.60   12.50
 -10   7   4   15.40    4.90
   9  -7  -4   -1.10   11.50
  -9   7   4   19.70    4.50
   8  -7  -4   -3.00    9.70
  -8   7   4   11.10    3.70
   7  -7  -4  188.78   20.50
  -7   7   4  203.98   12.30
  -7   7   4  231.58   12.00
   6  -7  -4  -11.50    7.80
  -6   7   4   -2.70    3.10
  -6   7   4   -0.50    2.80
   5  -7  -4  348.97   28.70
  -5   7   4  345.77   17.40
  -5   7   4  333.27   18.30
   4  -7  -4   50.59    9.80
   4  -7  -4   48.60    4.00
  -4   7   4   55.89    4.50
   3  -7  -4  261.97   13.40
   3  -7  -4  279.07   19.50
  -3   7   4  257.67   13.40
  -3   7   4  253.77   17.90
   2  -7  -4   16.70    2.40
   2  -7  -4   12.50    6.50
  -2   7   4   20.20    2.70
   1  -7  -4   40.10    3.70
   1  -7  -4   38.60    7.50
  -1   7   4   48.40    3.90
  -1   7   4   51.69    7.80
   0  -7  -4  286.77   18.00
   0  -7  -4  278.67   14.00
   0   7   4  264.87   14.00
   0   7   4  268.97   17.10
  -1  -7  -4  104.39   10.00
  -1  -7  -4  109.79    6.40
   1   7   4   98.99    9.20
   1   7   4  107.49    6.50
  -2  -7  -4  161.78   12.30
  -2  -7  -4  179.98    9.50
   2   7   4  167.28    9.40
   2   7   4  176.48   12.00
  -3  -7  -4  235.28   14.70
  -3  -7  -4  237.98   12.30
   3   7   4  224.18   14.40
   3   7   4  230.08   12.30
  -4  -7  -4   98.29    6.70
  -4  -7  -4  110.89    8.90
   4   7   4  121.89    9.10
   4   7   4  109.89    6.90
   5   7   4  346.47   19.30
   5   7   4  337.17   18.10
   5   7   4  331.97   17.40
   6   7   4   86.89    6.60
   6   7   4   73.49    8.30
   6   7   4   96.39    7.40
   7   7   4  217.48   15.10
   7   7   4  247.48   13.20
   7   7   4  235.18   13.90
   8   7   4   73.59    7.80
   8   7   4   76.29    6.90
   8   7   4   72.49    9.30
   9   7   4    1.40    5.30
   9   7   4   -0.40    3.90
   9   7   4    3.70    4.80
  10   7   4   25.00    6.10
  10   7   4   22.10    7.20
  10   7   4   28.30    5.50
  11   7   4   11.20    7.00
  11   7   4   16.60    5.70
  11   7   4   25.40    7.10
  12   7   4    1.60   12.40
  12   7   4   17.10    7.10
  11  -8  -4   26.70   15.80
 -11   8   4   28.10    6.60
  10  -8  -4    5.20   13.00
 -10   8   4   30.00    6.10
   9  -8  -4   60.99   16.00
  -9   8   4   61.39    6.30
   8  -8  -4   29.10   12.60
  -8   8   4   61.89    9.00
   7  -8  -4   -2.20    9.90
  -7   8   4   10.60    3.70
   6  -8  -4   57.69   12.50
  -6   8   4   66.19    5.60
  -6   8   4   37.30    5.10
   5  -8  -4   51.69   11.60
  -5   8   4   79.69    5.90
  -5   8   4   59.69    5.90
   4  -8  -4   12.60    2.50
   4  -8  -4   14.00    9.10
  -4   8   4   13.00    2.80
   3  -8  -4    4.20    6.80
   3  -8  -4   -1.60    1.90
  -3   8   4    2.90    2.40
   2  -8  -4   32.70    8.20
   2  -8  -4   36.10    3.50
  -2   8   4   26.00    7.00
  -2   8   4   36.90    3.60
   1  -8  -4   69.79    5.20
   1  -8  -4   79.09   10.80
  -1   8   4   80.19    5.50
  -1   8   4   73.29    9.70
   0  -8  -4  195.58   10.40
   0  -8  -4  194.28   14.80
   0   8   4  195.08   10.50
   0   8   4  175.98   14.10
  -1  -8  -4   70.89    9.60
  -1  -8  -4   64.09    5.10
   1   8   4   86.29    9.60
   1   8   4   72.39    5.30
  -2  -8  -4  130.59   11.20
  -2  -8  -4  114.19    7.30
   2   8   4  122.69    7.40
   2   8   4  120.49   10.50
  -3  -8  -4    1.20    4.20
   3   8   4    5.30    4.70
   3   8   4    1.00    2.30
  -4  -8  -4  267.57   17.00
   4   8   4  262.77   14.30
   4   8   4  276.97   16.90
   5   8   4    0.70    2.80
   5   8   4    6.00    1.90
   5   8   4   -3.40    4.40
   6   8   4  172.88   13.40
   6   8   4  183.68   11.60
   6   8   4  184.78   10.80
   7   8   4   29.80    4.60
   7   8   4   19.70    6.50
   7   8   4   29.50    5.60
   8   8   4   27.30    4.60
   8   8   4   16.50    5.20
   8   8   4   13.30    6.30
   9   8   4  127.79    9.30
   9   8   4  121.59   10.30
   9   8   4  105.29   11.90
  10   8   4   34.30    8.60
  10   8   4   54.19    6.50
  10   8   4   59.09    7.70
  11   8   4   -4.80    6.90
  11   8   4   11.10    5.90
  11   8   4    4.20    5.00
  12   8   4    2.10    5.50
  12   8   4   14.30    6.70
  11  -9  -4   -8.70   14.00
 -11   9   4   16.80    6.50
  10  -9  -4   33.00   30.40
 -10   9   4   28.00    6.20
   9  -9  -4   13.40   13.80
  -9   9   4   10.90    5.10
   8  -9  -4    0.50   12.30
  -8   9   4   -6.70    4.10
   7  -9  -4   22.80   12.80
  -7   9   4   49.20    5.40
   6  -9  -4   11.50   10.60
  -6   9   4   12.40    3.90
   5  -9  -4   82.39   14.70
  -5   9   4   95.99    7.10
   4  -9  -4   37.50   11.10
  -4   9   4   33.00    4.00
   3  -9  -4  250.07   14.40
  -3   9   4  281.07   14.20
   2  -9  -4   10.70    2.80
   2  -9  -4   10.80    7.30
  -2   9   4   13.50    3.20
   1  -9  -4   77.19    6.40
   1  -9  -4   96.19   12.30
  -1   9   4   89.59    6.40
  -1   9   4   89.79   11.40
   0  -9  -4   54.99    9.80
   0   9   4   37.90    4.20
   0   9   4   38.10    8.20
  -1  -9  -4  285.87   20.10
   1   9   4  292.77   15.20
  -2  -9  -4   -2.60    5.00
   2   9   4    2.40    5.40
   2   9   4    1.10    2.60
  -3  -9  -4   37.20    7.80
   3   9   4   26.60    6.80
   3   9   4   38.90    4.40
  -4  -9  -4  326.07   20.90
   4   9   4  317.17   20.50
   4   9   4  325.37   17.10
  -5  -9  -4   20.90    6.30
   5   9   4   16.10    6.50
   5   9   4   21.50    3.90
   6   9   4   69.99    9.70
   6   9   4   60.79    5.90
   6   9   4   67.09    7.50
   7   9   4   34.20    7.90
   7   9   4   37.00    5.00
   7   9   4   34.00    6.30
   8   9   4   53.79    7.20
   8   9   4   41.40    5.70
   8   9   4   42.60    9.00
   9   9   4  135.79    9.30
   9   9   4  102.09   10.40
   9   9   4   91.59   11.90
  10   9   4   -1.70    4.80
  10   9   4   -4.50    6.90
  10   9   4   11.20    5.80
  11   9   4    3.00    5.70
  11   9   4   11.70    5.60
  11   9   4    2.00    7.70
  10 -10  -4    3.50   15.10
 -10  10   4    0.50    5.90
   9 -10  -4    0.50   16.60
  -9  10   4    4.30    5.20
   8 -10  -4   32.00   14.30
  -8  10   4   48.70    6.30
   7 -10  -4   40.50   14.30
  -7  10   4   65.89    6.40
   6 -10  -4   13.10   12.00
  -6  10   4    7.60    4.00
   5 -10  -4   95.19   15.70
  -5  10   4   88.29    7.20
   4 -10  -4   58.89   13.80
  -4  10   4  116.79    7.70
   3 -10  -4    4.10    9.20
  -3  10   4   19.50    6.00
   2 -10  -4   30.60   10.60
   1 -10  -4   -2.30    7.20
   0 -10  -4  172.18   16.10
   0  10   4  146.19    9.50
  -1 -10  -4    3.90    7.40
   1  10   4    9.30    7.00
   1  10   4   -0.90    3.30
  -2 -10  -4   -0.30    6.00
   2  10   4   -4.40    5.60
   2  10   4   -0.10    3.00
  -3 -10  -4   90.89   12.40
   3  10   4  107.89    7.50
   3  10   4   97.29   12.10
  -4 -10  -4   44.20    9.00
   4  10   4   50.39    5.10
   4  10   4   35.50    9.80
  -5 -10  -4   90.69   11.20
   5  10   4  104.09   12.40
   5  10   4  105.59    7.80
   6  10   4   16.50    5.40
   6  10   4    6.80    6.50
   6  10   4   12.50    4.30
   7  10   4  132.89   11.40
   7  10   4  155.38    9.90
   7  10   4  121.59   14.00
   8  10   4  112.19    9.10
   8  10   4   97.09   10.30
   8  10   4  106.19   13.10
   9  10   4   -6.70    5.10
   9  10   4    3.30    5.00
   9  10   4    1.90    7.50
  10  10   4    5.90    9.20
  10  10   4    6.60    5.80
  10  10   4   -9.60    5.30
   9 -11  -4    3.10   14.80
  -9  11   4   14.40    6.00
   8 -11  -4   48.20   17.10
  -8  11   4   24.30    5.80
   7 -11  -4   20.90   13.80
  -7  11   4   15.70    5.10
   6 -11  -4    1.20   11.40
  -6  11   4   11.60    4.30
   5 -11  -4   36.40   12.70
  -5  11   4   41.60    5.20
   4 -11  -4   71.79   14.60
  -4  11   4   84.79    7.40
   3 -11  -4    2.40    9.20
  -3  11   4    9.40    3.90
   2 -11  -4    3.70    8.80
  -2  11   4    6.30    3.70
   1 -11  -4   99.09   15.20
  -1  11   4  109.29    8.20
   0 -11  -4   12.00   16.40
   0  11   4    5.10    3.70
  -1 -11  -4   19.40    9.20
   1  11   4   20.90    4.40
  -2 -11  -4   28.30    9.50
   2  11   4   15.70    4.10
  -3 -11  -4  255.07   19.40
   3  11   4  215.48   18.60
   3  11   4  244.38   13.70
  -4 -11  -4   -1.50    6.40
   4  11   4    2.70    3.60
   4  11   4    3.70    7.00
  -5 -11  -4   -3.20    6.00
   5  11   4    4.10    3.90
   5  11   4    4.10    7.10
   6  11   4   81.49    7.10
   6  11   4   80.69    6.00
   6  11   4   82.69    9.60
   6  11   4   80.59   12.20
   7  11   4  142.09    9.80
   7  11   4  108.69   11.20
   7  11   4  122.99   14.40
   8  11   4   31.10    9.80
   8  11   4   35.30    6.00
   8  11   4   36.50    7.30
   9  11   4    5.80    8.60
   9  11   4    4.90    5.40
   9  11   4    6.30    6.20
   8 -12  -4    5.70   14.90
  -8  12   4   -4.70    5.40
   7 -12  -4    1.20   15.00
  -7  12   4   -1.70    4.90
   6 -12  -4   73.89   17.40
  -6  12   4   62.39    6.80
   5 -12  -4   35.00   14.70
  -5  12   4   29.70    5.30
   4 -12  -4   31.90   13.20
  -4  12   4   11.10    4.50
   3 -12  -4   20.30   11.80
  -3  12   4   12.20    4.30
   2 -12  -4   31.20   11.90
  -2  12   4   40.10    5.20
   1 -12  -4   10.80    9.90
  -1  12   4   18.30    4.50
   0 -12  -4   -3.70    7.80
   0  12   4   -2.30    3.80
  -1 -12  -4   23.30    9.50
   1  12   4   11.90    4.30
  -2 -12  -4  174.68   18.20
   2  12   4  188.98   11.60
   3  12   4   23.30    4.60
  -4 -12  -4    7.40    8.20
   4  12   4   10.40    4.50
  -5 -12  -4   69.29   11.90
   5  12   4  100.09    8.20
   6  12   4   57.59    6.50
   6  12   4   53.79    8.60
   6  12   4   51.69    4.90
   7  12   4    0.60    6.30
   7  12   4    8.10    4.80
   8  12   4   42.60    6.30
   8  12   4   34.90    8.00
   7 -13  -4   28.40   17.40
  -7  13   4   13.40    6.10
  -6  13   4   14.90    5.60
   5 -13  -4   20.80   14.60
  -5  13   4   -0.90    5.00
   4 -13  -4   18.90   13.40
  -4  13   4   16.60    5.00
   3 -13  -4   39.20   14.00
  -3  13   4   25.70    5.30
   2 -13  -4   10.10   11.60
  -2  13   4   16.00    4.70
   1 -13  -4    3.60   10.60
  -1  13   4   10.10    4.50
   0 -13  -4   36.80   12.40
   0  13   4   27.50    5.30
  -1 -13  -4   24.40   11.50
   1  13   4   31.00    5.50
  -2 -13  -4    6.20    9.00
   2  13   4    8.80    4.60
  -3 -13  -4    9.10    9.70
   3  13   4    5.90    4.80
  -4 -13  -4   35.20   10.20
   4  13   4   46.20    6.10
  -5 -13  -4   41.00   11.00
   5  13   4   40.60    6.20
   6  13   4   24.60    9.90
   6  13   4   11.30    8.60
   6  13   4   15.20    6.10
   7  13   4   43.20    7.60
   7  13   4   31.20   12.90
   6 -14  -4   -8.40   14.10
  -6  14   4    2.50    5.90
   5 -14  -4   -0.60   14.30
  -5  14   4    0.80    5.00
   4 -14  -4   17.90   14.30
  -4  14   4    9.20    5.30
   3 -14  -4    8.90   12.60
  -3  14   4   19.90    5.30
   2 -14  -4   12.30   12.40
  -2  14   4   10.00    5.10
   1 -14  -4   12.20   13.00
  -1  14   4   17.40    5.40
   0 -14  -4   23.60   12.90
   0  14   4   28.90    5.80
  -1 -14  -4    1.30   10.20
   1  14   4   -2.30    4.90
  -2 -14  -4   54.89   13.50
   2  14   4   78.79    7.50
  -3 -14  -4   -4.90    9.20
   3  14   4    6.90    5.00
  -4 -14  -4    2.70    9.60
   4  14   4   16.70    6.00
  -5 -14  -4    7.80   10.00
   5  14   4   -4.30    5.00
   6  14   4   35.20    6.50
   6  14   4   48.00    5.30
   6  14   4   50.79    9.80
   3 -15  -4   -4.60   18.20
  -3  15   4   14.20    6.40
   2 -15  -4   16.90   13.90
  -2  15   4    1.90    7.00
   1 -15  -4   15.60   13.70
  -1  15   4    1.60    7.10
   0 -15  -4   -2.60   11.80
   0  15   4    0.00    5.40
  -1 -15  -4   37.00   14.10
   1  15   4   39.10    6.60
  -2 -15  -4   -5.20   10.40
   2  15   4    0.00    5.30
  -3 -15  -4   14.40   11.60
   3  15   4   -0.60    5.20
   1  13  -5    1.80    4.90
  -1 -13   5   -3.90   12.20
   0  13  -5   -5.90    4.70
   0 -13   5  -12.80   12.30
  -1  13  -5   33.50    6.30
   1 -13   5   36.30   16.80
  -2  13  -5   11.70    5.60
   2 -13   5   15.20   16.60
  -3  13  -5   16.20    5.70
   3 -13   5   10.00   15.60
   4  12  -5   48.70    6.60
   4  12  -5   31.60   11.70
   4  12  -5   55.19    6.90
  -3 -12   5   13.20   12.10
   2  12  -5   -1.50    5.00
  -2 -12   5   -2.60   12.40
   1  12  -5    5.40    4.70
  -1 -12   5   15.00   13.00
   0  12  -5    7.10    4.70
   0 -12   5    6.10   13.80
  -1  12  -5   15.90    5.30
   1 -12   5   30.10   14.20
  -2  12  -5   -1.60    4.90
   2 -12   5   22.40   14.20
  -3  12  -5    4.80    7.60
   3 -12   5   27.50   18.50
  -4  12  -5    4.20    5.70
   4 -12   5   12.70   16.90
  -5  12  -5   -1.50    5.10
   5 -12   5    0.90   15.00
  -6  12  -5    5.80    5.50
   6 -12   5    5.20   15.70
   6  11  -5   23.30   10.80
   5  11  -5    8.30    4.80
   5  11  -5   13.70    4.70
   5  11  -5    2.50    9.10
   4  11  -5   53.59   12.60
   4  11  -5   47.70    6.50
   4  11  -5   64.89    6.80
   3  11  -5   23.70    5.10
  -3 -11   5   13.10   13.00
   2  11  -5   83.59    7.40
  -2 -11   5   45.50   14.20
   1  11  -5   15.10    4.80
  -1 -11   5    9.10   11.80
   0  11  -5    5.50    4.60
   0 -11   5   -0.80   11.20
  -1  11  -5    1.60    4.30
   1 -11   5   11.50   12.40
  -2  11  -5   -4.80    4.40
   2 -11   5   10.40   13.00
  -3  11  -5   15.90    4.70
   3 -11   5    3.10   11.80
  -4  11  -5   31.20    5.50
   4 -11   5    8.60   12.70
  -5  11  -5   35.40    6.10
   5 -11   5   45.70   17.00
  -6  11  -5   21.00    6.60
   6 -11   5    4.90   24.10
  -7  11  -5    5.50    5.40
   7 -11   5   -0.10   15.70
  -8  11  -5    4.40    6.20
   8 -11   5  -18.60   15.10
   7  10  -5   14.60    5.20
   7  10  -5   19.20   10.70
   6  10  -5   11.50    4.90
   6  10  -5   15.80   10.10
   5  10  -5   60.39   12.30
   5  10  -5   68.69    7.00
   5  10  -5   67.79    6.70
   4  10  -5   22.00    9.60
   4  10  -5    9.70    4.50
   4  10  -5    9.60    4.30
   3  10  -5  150.48   10.10
  -3 -10   5  118.39   18.40
   2  10  -5    1.60    4.00
  -2 -10   5    0.50    9.50
   1  10  -5   23.60    4.80
  -1 -10   5   32.40   12.20
   0  10  -5    4.40    4.00
   0 -10   5   -1.10    9.50
  -1  10  -5   54.19    6.00
   1 -10   5   30.60   11.90
  -2  10  -5    2.00    3.70
   2 -10   5    3.30   11.40
  -3  10  -5   -5.80    3.80
   3 -10   5   -6.60   10.20
  -4  10  -5    3.10    4.20
   4 -10   5    8.90   12.50
  -5  10  -5   23.60    5.30
   5 -10   5   17.20   13.50
  -6  10  -5   46.20    6.40
   6 -10   5   42.10   16.60
  -7  10  -5    1.80    5.10
   7 -10   5    2.70   14.70
  -8  10  -5   41.00   11.60
  -9  10  -5    7.10    6.40
   9 -10   5   20.90   17.40
   8   9  -5    4.00    9.50
   8   9  -5    9.80    5.00
   7   9  -5   -4.90    8.70
   7   9  -5    9.60    4.70
   6   9  -5    6.30    8.80
   6   9  -5    9.40    4.40
   5   9  -5    0.50    7.70
   5   9  -5   -2.80    3.70
   4   9  -5  126.49    9.10
   4   9  -5  113.69   14.80
   4   9  -5  122.49    9.00
   3   9  -5   81.79    6.90
  -3  -9   5   70.49   14.20
   2   9  -5   35.40    4.90
  -2  -9   5   28.50   10.80
   1   9  -5   -1.40    3.30
  -1  -9   5   -8.90    8.50
   0   9  -5   81.09    6.80
   0  -9   5   77.39   14.50
  -1   9  -5   54.79    5.50
   1  -9   5   46.90   12.80
  -2   9  -5    9.50    4.00
   2  -9   5    8.30   10.40
  -3   9  -5   34.50    4.80
   3  -9   5   50.59   13.90
  -4   9  -5   47.10    5.70
   4  -9   5   56.99   14.50
  -5   9  -5    1.70    4.00
   5  -9   5    8.60   12.20
  -6   9  -5    8.90    4.70
   6  -9   5    1.50   11.60
  -7   9  -5   54.59    6.60
   7  -9   5   74.99   18.00
  -8   9  -5    7.00    5.30
   8  -9   5   19.90   16.20
  -9   9  -5    3.00    5.80
   9  -9   5    8.80   15.20
 -10   9  -5    9.80    6.40
  10  -9   5    6.00   16.00
   9   8  -5   28.70    5.60
   9   8  -5   15.20   10.60
   8   8  -5   26.80   10.60
   8   8  -5   28.30    5.20
   7   8  -5    2.90    7.80
   7   8  -5   -9.00    3.80
   6   8  -5    4.10    7.60
   6   8  -5   11.50    4.10
   5   8  -5  167.08   10.50
   5   8  -5  175.38   16.10
   4   8  -5   54.89    5.50
   4   8  -5   44.90    5.10
   4   8  -5   40.20    9.70
   3   8  -5   64.89    6.00
  -3  -8   5   83.49   13.70
   2   8  -5    7.20    3.50
  -2  -8   5    4.20    8.10
   1   8  -5  186.88   11.00
  -1  -8   5  195.18   18.90
   0   8  -5    8.10    3.40
   0  -8   5    3.50    7.50
  -1   8  -5   10.60    3.30
   1  -8   5    3.00    8.50
  -2   8  -5    3.00    3.10
   2  -8   5    4.40    8.40
  -3   8  -5  189.08   11.10
   3  -8   5  172.88   19.30
  -4   8  -5    3.00    3.70
   4  -8   5   16.10   10.70
  -5   8  -5    9.70    4.10
   5  -8   5   16.20   10.60
  -6   8  -5   36.80    5.40
   6  -8   5   60.99   15.00
  -7   8  -5   49.30    6.00
   7  -8   5   34.30   14.70
  -8   8  -5   -4.70    4.90
   8  -8   5   13.70   13.90
  -9   8  -5   -6.00    5.50
   9  -8   5  -14.80   13.90
 -10   8  -5   31.40    7.10
  10  -8   5   30.00   16.20
 -11   8  -5    3.20    6.70
  11  -8   5   12.50   18.50
  10   7  -5   -2.50    4.70
  10   7  -5   12.00   10.20
   9   7  -5    8.90    9.80
   9   7  -5   10.00    4.70
   8   7  -5    2.30    4.10
   8   7  -5    1.30    8.60
   7   7  -5    1.60    3.80
   7   7  -5   17.40    8.20
   6   7  -5  159.38   15.70
   6   7  -5  166.68   10.20
   5   7  -5   29.90    4.20
   5   7  -5   22.30    8.20
   4   7  -5    3.00    6.70
   4   7  -5   11.30    3.60
   4   7  -5    7.20    3.50
  -3  -7   5  -11.30    5.70
   2   7  -5  196.68   11.40
  -2  -7   5  206.28   18.20
   1   7  -5   17.70    3.40
   0   7  -5   -1.10    2.60
  -1   7  -5   43.20    4.90
  -2   7  -5   67.19    8.10
   2  -7   5   56.29   11.60
  -3   7  -5    0.90    2.90
   3  -7   5   -3.50    7.10
  -4   7  -5   68.29    6.10
   4  -7   5   75.99   13.50
  -5   7  -5   20.10    3.90
   5  -7   5   34.20   11.80
  -6   7  -5  132.89    9.30
   6  -7   5  124.19   18.40
  -7   7  -5   -2.00    4.00
   7  -7   5   -4.20   10.10
  -8   7  -5   -2.50    4.30
   8  -7   5   -9.20   11.50
  -9   7  -5   32.80    6.10
   9  -7   5   42.20   15.40
 -10   7  -5   -4.70    5.30
  10  -7   5    5.10   13.50
 -11   7  -5   -3.60    6.20
  11  -7   5    1.10   14.60
  10   6  -5    9.00    4.80
  10   6  -5    6.80   10.70
   9   6  -5   -7.00    8.90
   9   6  -5   -8.30    3.90
   8   6  -5   31.80    4.80
   8   6  -5   31.40    9.90
   7   6  -5  115.59   13.80
   7   6  -5  112.79    8.30
   6   6  -5   12.10    7.00
   6   6  -5   20.10    4.20
   5   6  -5   51.19    9.50
   5   6  -5   86.89    6.30
   4   6  -5   21.20    3.60
   4   6  -5   42.10   14.10
   3   6  -5  426.16   25.00
   3   6  -5  420.16   21.30
   3   6  -5  418.56   21.10
  -3  -6   5  409.26   21.20
   2   6  -5   52.59    4.60
  -2  -6   5   51.39   10.20
  -2  -6   5   51.69    4.50
   1   6  -5    3.00    2.60
  -1  -6   5    1.20    5.90
  -1  -6   5    6.50    2.20
   0   6  -5   61.59    4.90
   0  -6   5   50.99    4.60
   0  -6   5   90.29   12.20
  -1   6  -5  129.39    8.20
   1  -6   5  145.89   14.10
   1  -6   5  143.49    8.00
  -2   6  -5   -0.30    2.40
   2  -6   5   -0.40    6.00
  -3   6  -5  136.79    8.30
   3  -6   5  137.69   15.10
  -4   6  -5   31.50    4.30
   4  -6   5   26.00    9.20
  -5   6  -5   45.60    4.80
   5  -6   5   55.09   13.10
  -6   6  -5   83.39    7.20
   6  -6   5   97.89   14.90
  -7   6  -5    6.10    4.00
   7  -6   5   28.60   11.50
  -8   6  -5   52.39    5.90
   8  -6   5   64.79   14.70
  -9   6  -5   38.20    6.00
   9  -6   5   24.70   12.80
 -10   6  -5   15.20    5.60
  10  -6   5   14.00   13.50
 -11   6  -5    6.40    5.90
  11  -6   5   11.70   13.80
 -12   6  -5    6.00   12.60
  12  -6   5   13.00   16.20
  11   5  -5   34.70   11.90
  11   5  -5   32.10    5.30
  10   5  -5    4.50    4.10
  10   5  -5    5.40    9.90
   9   5  -5   32.40   10.50
   9   5  -5   23.10    4.50
   8   5  -5   29.80    9.50
   8   5  -5   40.20    4.80
   7   5  -5   26.30    8.40
   7   5  -5   32.20    4.20
   6   5  -5   52.39    9.40
   6   5  -5   52.29    4.80
   5   5  -5   67.59    5.50
   5   5  -5   66.39    9.80
  -5  -5   5   59.49    5.20
   4   5  -5  339.87   17.10
   4   5  -5  333.87   20.80
  -4  -5   5  333.67   17.10
   3   5  -5  139.19   11.70
   3   5  -5  139.59   13.50
   3   5  -5  125.29    7.80
   3   5  -5  141.79    8.10
  -3  -5   5  132.89    7.80
   2   5  -5   -1.70    2.00
   2   5  -5   -0.70    5.00
  -2  -5   5    3.40    5.50
   1   5  -5   52.49    9.00
   1   5  -5   52.09    4.50
  -1  -5   5   56.59    9.70
   0   5  -5  359.56   17.90
   0   5  -5  342.87   22.80
   0  -5   5  354.16   22.90
  -1   5  -5   -0.30    2.00
  -1   5  -5    5.30    5.10
   1  -5   5    2.30    1.90
   1  -5   5    0.90    5.00
  -2   5  -5  259.27   13.60
  -2   5  -5  254.87   18.30
   2  -5   5  258.77   18.80
   2  -5   5  262.67   13.40
  -3   5  -5  104.09    6.60
  -3   5  -5   99.09    7.10
  -3   5  -5  104.49   12.30
   3  -5   5  116.29   12.70
  -4   5  -5   25.10    3.40
  -4   5  -5   15.80    5.60
  -4   5  -5   22.80    7.00
   4  -5   5   22.30    7.70
  -5   5  -5   61.59    5.10
   5  -5   5   40.50   10.90
  -6   5  -5  128.19    8.40
   6  -5   5  145.19   17.00
  -7   5  -5   41.90    4.90
   7  -5   5   55.69   12.10
  -8   5  -5   48.40    5.50
   8  -5   5   46.00   12.40
  -9   5  -5   11.30    4.80
   9  -5   5   13.50   11.10
 -10   5  -5   21.50    5.60
  10  -5   5    3.60   11.80
 -11   5  -5   12.00    5.90
  11  -5   5   12.80   13.70
 -12   5  -5   -4.20    6.40
  12  -5   5   -5.90   13.60
  11   4  -5   -2.00    4.20
  11   4  -5  -10.80   10.40
  10   4  -5    5.30    9.50
  10   4  -5   14.50    4.10
   9   4  -5    3.80    8.30
   9   4  -5   12.60    3.90
   8   4  -5    8.20    8.20
   8   4  -5    2.30    3.20
   7   4  -5   38.90    9.10
   7   4  -5   25.10    3.90
  -7  -4   5   19.50    3.40
   6   4  -5   38.30    8.20
   6   4  -5   36.80    3.90
  -6  -4   5   30.10    3.60
   5   4  -5  207.78   11.10
   5   4  -5  206.98   15.20
   4   4  -5  354.56   18.40
   4   4  -5  377.06   22.10
   4   4  -5  367.56   24.10
  -4  -4   5  378.66   18.50
   3   4  -5    8.90    2.40
   3   4  -5   10.90    2.30
   3   4  -5    5.10    4.60
   3   4  -5    1.30    5.00
  -3  -4   5    5.60    2.20
   2   4  -5  114.39   11.30
   2   4  -5  113.59    6.60
   2   4  -5  106.59    6.40
  -2  -4   5  103.59    6.30
   1   4  -5  235.18   18.10
   1   4  -5  250.47   12.50
  -1  -4   5  241.98   12.40
  -1  -4   5  237.58   16.90
   0   4  -5   37.90    3.40
   0   4  -5   24.30    6.30
   0  -4   5   41.50    3.40
   0  -4   5   36.70    7.50
  -1   4  -5  115.99    6.80
  -1   4  -5   99.49   10.90
   1  -4   5  110.79   11.10
   1  -4   5  124.39    6.60
  -2   4  -5   26.20    3.40
  -2   4  -5   26.00    2.90
  -2   4  -5   27.00    7.00
   2  -4   5   28.50    7.20
  -3   4  -5   88.79   11.80
  -3   4  -5   76.19    5.20
  -3   4  -5   71.39    6.20
   3  -4   5   68.59   10.10
  -4   4  -5  132.89    8.30
  -4   4  -5  147.59   12.70
  -4   4  -5  137.69    8.00
   4  -4   5  131.29   13.30
  -5   4  -5  461.85   29.00
  -5   4  -5  510.15   24.70
  -5   4  -5  495.05   25.00
   5  -4   5  497.95   30.30
  -6   4  -5    1.70    2.60
  -6   4  -5    2.40    5.40
   6  -4   5    5.40    6.80
   7  -4   5   24.40    9.30
   8  -4   5   12.50    4.40
   9  -4   5    4.40    4.70
   9  -4   5   -8.50    8.60
  10  -4   5   25.10   12.40
  10  -4   5    2.10    5.00
  11  -4   5   22.20    6.60
  11  -4   5   24.60   12.80
  12  -4   5   28.70   15.30
  12  -4   5   37.90    7.50
  13  -4   5   15.20   14.60
  13  -4   5    9.40    7.60
  12   3  -5    8.10    4.70
  12   3  -5   20.80   12.40
  11   3  -5   23.40    4.80
  11   3  -5   29.40   11.60
  10   3  -5    2.00    9.20
  10   3  -5    5.20    3.90
   9   3  -5   17.20    9.50
   9   3  -5   10.40    3.60
   8   3  -5   38.20    4.10
   8   3  -5   32.30    9.40
  -8  -3   5   29.90    3.90
   7   3  -5   50.29    4.40
   7   3  -5   56.59   10.90
  -7  -3   5   44.40    4.20
   6   3  -5  130.29    7.40
   6   3  -5  124.19   12.30
  -6  -3   5  118.69    7.30
   5   3  -5   19.50    6.80
   5   3  -5   26.10    6.50
   5   3  -5   20.40    2.70
  -5  -3   5   14.60    2.50
   4   3  -5  823.52   43.10
   4   3  -5  819.22   39.80
   4   3  -5  807.62   44.70
  -4  -3   5  838.02   39.90
   3   3  -5  305.07   15.20
   3   3  -5  305.87   18.30
   3   3  -5  293.57   23.00
  -3  -3   5  307.77   15.20
   2   3  -5   13.00    4.50
   2   3  -5    1.30    4.60
   2   3  -5   10.70    2.00
   2   3  -5    7.80    2.20
  -2  -3   5    9.80    1.90
   1   3  -5   95.69   10.70
   1   3  -5   76.39    4.70
  -1  -3   5   73.89    4.70
  -1  -3   5   79.39    9.90
   0   3  -5  119.09    6.70
   0   3  -5  127.39   10.80
   0  -3   5  122.99   11.00
   0  -3   5  118.39    6.60
  -1   3  -5   32.80    7.10
  -1   3  -5   34.40    2.90
   1  -3   5   30.60    2.80
   1  -3   5   36.70    7.30
  -2   3  -5   14.40    2.60
  -2   3  -5    9.70    5.00
  -2   3  -5    9.50    2.10
   2  -3   5   22.30    6.30
  -3   3  -5   11.20    2.80
  -3   3  -5   13.30    5.80
  -3   3  -5   10.20    2.40
   3  -3   5   16.30    6.00
  -4   3  -5   65.99    5.50
  -4   3  -5   68.99    9.20
  -4   3  -5   54.99    4.40
   4  -3   5   55.09    8.90
  -5   3  -5  108.89    6.90
  -5   3  -5   95.39   10.80
   5  -3   5  105.09    7.30
   5  -3   5  111.99   12.30
  -6   3  -5   12.70    6.00
  -6   3  -5    6.10    3.00
   6  -3   5   -0.30    6.10
   6  -3   5   14.20    3.60
  -7   3  -5  151.58   14.20
   7  -3   5  171.98   10.40
   7  -3   5  163.88   16.00
   8  -3   5  100.99    8.30
   8  -3   5   97.29   14.50
   9  -3   5   -4.90    8.80
   9  -3   5   -3.00    4.00
  10  -3   5   -4.10    4.60
  10  -3   5    1.10    9.50
  11  -3   5    8.90    5.50
  11  -3   5   -1.30   10.00
  12  -3   5   -2.80    6.00
  12  -3   5  -13.40   11.70
  13  -3   5    2.80    8.00
  13  -3   5    2.60   12.80
  12   2  -5   36.70    5.60
  12   2  -5   62.29   15.00
  11   2  -5  -17.80    9.50
  11   2  -5    0.40    4.10
  10   2  -5    0.60    3.70
  10   2  -5    2.20    8.60
   9   2  -5   20.00    9.00
   9   2  -5   11.00    3.40
  -9  -2   5   14.80    3.40
   8   2  -5   46.10    4.20
   8   2  -5   45.80   10.00
  -8  -2   5   35.90    4.00
   7   2  -5  130.09   15.50
   7   2  -5  137.09    7.70
  -7  -2   5  116.69    7.50
   6   2  -5   16.00    2.60
   6   2  -5   15.70    6.70
  -6  -2   5   14.10    2.40
   5   2  -5  375.06   21.60
   5   2  -5  348.47   17.50
  -5  -2   5  337.57   17.50
  -5  -2   5  362.76   18.00
  -5  -2   5  353.56   21.00
   4   2  -5  837.22   39.20
   4   2  -5  786.82   42.30
  -4  -2   5  807.12   39.20
   3   2  -5  132.59   10.70
   3   2  -5  124.29   11.60
   3   2  -5  149.99    7.50
  -3  -2   5  143.19    7.50
   2   2  -5   55.19    8.00
   2   2  -5   45.70    3.30
   2   2  -5   55.69    6.70
  -2  -2   5   47.30    3.30
   1   2  -5   73.49    4.80
   1   2  -5   72.19    7.00
   1   2  -5   82.99    8.50
   1   2  -5   82.49    4.50
  -1  -2   5   76.29    4.50
   0   2  -5  117.09    6.40
   0   2  -5  125.49   10.20
   0  -2   5  114.49    9.90
   0  -2   5  120.79    6.30
  -1   2  -5    6.60    4.00
  -1   2  -5    4.30    1.60
  -1   2  -5    1.90    1.70
   1  -2   5   -0.90    3.50
  -2   2  -5  262.87   16.50
  -2   2  -5  279.87   13.60
  -2   2  -5  258.77   13.30
   2  -2   5  253.67   16.70
  -3   2  -5  173.48    9.20
  -3   2  -5  161.98   12.00
   3  -2   5  166.78    9.30
   3  -2   5  168.78   12.60
  -4   2  -5   79.79    9.10
  -4   2  -5   73.19    5.30
   4  -2   5   76.19    5.80
   4  -2   5   67.19    9.30
  -5   2  -5    6.90    2.80
  -5   2  -5    7.70    5.10
   5  -2   5    8.50    2.70
   5  -2   5   32.90    7.10
  -6   2  -5  692.83   37.40
  -6   2  -5  710.43   34.30
   6  -2   5  675.03   34.40
   6  -2   5  704.13   38.40
   7  -2   5  400.36   20.70
   7  -2   5  397.46   25.30
  -8   2  -5   17.60    6.30
   8  -2   5    0.10    3.40
   8  -2   5   -2.70    6.90
  -9   2  -5   37.40   10.20
   9  -2   5   41.30    5.40
   9  -2   5   47.60   11.20
  10  -2   5   -1.20    4.70
  10  -2   5   -1.60    9.60
  11  -2   5    4.50    5.30
  11  -2   5   17.20   10.40
  12  -2   5   -0.70   10.90
  12  -2   5   -9.20    5.70
  13  -2   5    6.70   12.70
  13  -2   5   -5.00    6.40
  12   1  -5    6.00    4.90
  12   1  -5    5.10   11.50
  11   1  -5   14.00   10.90
  11   1  -5   14.50    4.50
  10   1  -5    3.00    3.60
  10   1  -5    6.80    9.60
   9   1  -5  120.99   15.20
   9   1  -5  135.79    7.80
  -9  -1   5   96.29    7.50
   8   1  -5   -8.70    7.10
   8   1  -5   -3.20    2.70
  -8  -1   5    0.30    2.60
   7   1  -5   -3.10    2.20
   7   1  -5  -10.40    6.20
  -7  -1   5   -3.20    2.00
   6   1  -5  206.78   15.00
   6   1  -5  192.28    9.90
  -6  -1   5  189.48    9.90
  -6  -1   5  169.08   13.60
   5   1  -5  492.25   28.30
   5   1  -5  498.25   24.50
  -5  -1   5  505.55   27.90
  -5  -1   5  511.85   24.50
   4   1  -5  520.15   25.20
   4   1  -5  511.65   28.40
  -4  -1   5  517.45   25.20
  -4  -1   5  526.35   25.70
  -4  -1   5  525.65   28.20
   3   1  -5  327.87   19.90
   3   1  -5  368.66   17.60
  -3  -1   5  352.36   19.80
  -3  -1   5  342.77   17.00
  -3  -1   5  353.56   17.50
   2   1  -5  717.83   38.00
   2   1  -5  747.03   35.80
  -2  -1   5  748.13   36.10
  -2  -1   5  768.02   38.20
   1   1  -5  305.07   18.00
   1   1  -5  294.47   14.60
   1   1  -5  288.97   16.70
   1   1  -5  304.17   14.90
   0   1  -5 1270.27   59.49
   0   1  -5 1237.98   62.29
   0  -1   5 1210.78   62.09
  -1   1  -5 2512.05  118.39
  -1   1  -5 2463.55  118.29
  -1   1  -5 2527.65  120.99
   1  -1   5 2411.16  120.79
  -2   1  -5  630.74   29.90
  -2   1  -5  602.24   32.20
   2  -1   5  605.74   32.20
   2  -1   5  611.04   29.90
  -3   1  -5  166.38    8.60
  -3   1  -5  159.48   11.00
   3  -1   5  147.39    8.60
   3  -1   5  163.48   11.40
  -4   1  -5   69.99    4.80
  -4   1  -5   69.79    7.40
   4  -1   5   75.89    8.20
   4  -1   5   71.49    5.20
  -5   1  -5  480.65   26.80
  -5   1  -5  488.35   24.40
   5  -1   5  492.95   24.60
   5  -1   5  508.55   27.50
  -6   1  -5  418.96   23.70
  -6   1  -5  413.96   21.10
   6  -1   5  408.96   21.30
   6  -1   5  441.96   24.80
  -7   1  -5   35.80    6.50
  -7   1  -5   19.90    3.80
   7  -1   5   43.40    8.10
   7  -1   5   23.00    3.60
  -8   1  -5   -0.30    5.00
   8  -1   5    7.40    6.80
  -9   1  -5   21.60    6.90
   9  -1   5   31.20    9.10
   9  -1   5   19.30    4.50
  10  -1   5  202.88   12.50
  10  -1   5  175.48   18.20
  11  -1   5   26.40   12.30
  11  -1   5   60.79    7.00
  12  -1   5   -5.70    5.30
  12  -1   5   -8.00    9.70
  13  -1   5    7.40   11.80
  13  -1   5    2.20    6.30
  12   0  -5   -4.70   11.60
  12   0  -5    0.80    4.60
  11   0  -5   13.40    5.10
  11   0  -5    3.70   10.90
  10   0  -5   43.40    4.70
  10   0  -5   38.00   11.30
 -10   0   5   32.50    4.40
   9   0  -5   93.49    6.80
   9   0  -5   94.79   14.00
  -9   0   5   74.59    6.60
   8   0  -5    5.20    2.70
   8   0  -5   10.00    8.00
  -8   0   5    6.10    2.70
   7   0  -5   58.79    4.40
   7   0  -5   37.30    8.70
  -7   0   5   61.59    4.30
   6   0  -5  120.39   11.90
   6   0  -5  123.99    6.80
  -6   0   5  123.39    6.80
  -6   0   5  121.49   10.90
   5   0  -5   -0.40    1.40
   5   0  -5   -3.30    4.60
  -5   0   5   -4.20    3.80
  -5   0   5    2.20    1.50
   4   0  -5   18.70    5.40
   4   0  -5   22.50    2.00
  -4   0   5   27.80    5.50
   3   0  -5  103.39    9.20
   3   0  -5  114.99    5.80
  -3   0   5  115.59    8.90
  -3   0   5  115.19    5.80
   2   0  -5 1826.62   90.89
   2   0  -5 1896.91   88.69
  -2   0   5 1871.91   90.89
  -2   0   5 1847.22   88.69
   1   0  -5    2.30    3.20
   1   0  -5    9.90    1.20
  -1   0   5    2.70    3.00
  -1   0   5    6.80    1.60
   0   0  -5   13.70    3.50
   0   0  -5   14.20    1.40
   0   0  -5   11.50    1.70
   0   0  -5   13.80    1.80
   0   0  -5    9.00    4.00
  -1   0  -5 1254.27   62.89
  -1   0  -5 1245.48   60.89
   1   0   5 1308.77   62.99
   1   0   5 1284.27   60.99
  -2   0  -5    3.60    3.50
  -2   0  -5   -0.80    1.50
   2   0   5    4.40    3.50
   2   0   5    2.10    1.70
  -3   0  -5  560.24   27.80
  -3   0  -5  589.34   29.60
   3   0   5  564.34   27.90
  -4   0  -5  431.96   21.00
  -4   0  -5  428.46   22.80
   4   0   5  422.86   21.10
   4   0   5  415.46   23.10
  -5   0  -5   66.59    7.20
  -5   0  -5   68.29    5.10
   5   0   5   69.09    5.40
   5   0   5   89.79    8.70
  -6   0  -5    3.80    3.70
  -6   0  -5    3.50    2.00
   6   0   5   -1.10    2.50
   6   0   5    4.30    4.50
  -7   0  -5   18.30    2.90
  -7   0  -5   31.70    5.90
   7   0   5   19.60    6.10
   7   0   5   15.00    3.20
  -8   0  -5   19.60    5.80
   8   0   5    4.90    3.40
   8   0   5   27.60    7.20
  -9   0  -5   14.70    6.30
   9   0   5   -2.10    6.30
   9   0   5    5.40    3.80
 -10   0  -5    2.60    6.40
  10   0   5   -1.80    4.00
  10   0   5   -0.10    8.00
  11   0   5    3.40    8.60
  11   0   5    4.60    4.90
  12   0   5    8.90    5.60
  12   0   5   38.70   20.10
  13   0   5   34.10   12.30
  13   0   5   17.20    6.40
  12  -1  -5   12.00    4.90
  12  -1  -5   -9.00   11.60
  11  -1  -5   75.19   14.80
  11  -1  -5   56.19    5.90
  10  -1  -5    3.50    3.70
  10  -1  -5  -13.50    9.10
 -10   1   5   -3.10    3.40
   9  -1  -5   36.50    4.20
   9  -1  -5   43.20   11.10
  -9   1   5   31.80    4.30
   8  -1  -5  156.38    8.60
   8  -1  -5  118.99   14.50
  -8   1   5  144.49    8.30
   7  -1  -5   70.29   10.40
   7  -1  -5   68.29    5.00
  -7   1   5   74.79    4.80
   6  -1  -5    6.50    5.80
   6  -1  -5   16.50    2.10
  -6   1   5    9.70    5.20
  -6   1   5   13.30    2.00
   5  -1  -5  155.28    8.40
   5  -1  -5  137.09   12.00
  -5   1   5  144.19    7.30
  -5   1   5  123.49   10.90
   4  -1  -5  253.57   13.10
   4  -1  -5  258.97   17.10
  -4   1   5  278.77   13.00
  -4   1   5  274.87   16.60
   3  -1  -5  272.97   16.20
   3  -1  -5  263.07   12.80
  -3   1   5  259.67   12.80
  -3   1   5  274.57   15.80
   2  -1  -5   16.30    4.50
  -2   1   5   16.90    4.10
   1  -1  -5    1.30    0.70
   1  -1  -5    1.70    0.70
   1  -1  -5    2.40    3.20
  -1   1   5    3.80    2.90
   0  -1  -5  466.05   23.30
   0  -1  -5  445.56   21.70
   0   1   5  444.56   21.70
   0   1   5  448.86   21.90
   0   1   5  452.95   23.20
  -1  -1  -5   49.20    6.00
  -1  -1  -5   40.40    4.30
  -1  -1  -5   36.90    2.90
   1   1   5   32.90    2.70
  -2  -1  -5  910.91   44.60
  -2  -1  -5  932.91   45.90
   2   1   5  928.01   45.80
   2   1   5  941.11   44.60
  -3  -1  -5  188.38   10.80
  -3  -1  -5  179.38    9.50
   3   1   5  184.08    9.60
   3   1   5  182.78   10.80
  -4  -1  -5    9.50    3.20
  -4  -1  -5   10.40    2.00
   4   1   5   12.20    2.20
   4   1   5   11.80    3.30
  -5  -1  -5  148.29   10.00
  -5  -1  -5  154.58    8.70
   5   1   5  159.68    8.90
   5   1   5  169.08   10.60
  -6  -1  -5  585.74   29.80
  -6  -1  -5  594.34   31.10
   6   1   5  596.84   30.00
   6   1   5  655.73   31.90
  -7  -1  -5  102.69    6.40
  -7  -1  -5  100.39    8.50
   7   1   5  108.39    9.80
   7   1   5  106.09    7.00
  -8  -1  -5   95.29    8.90
   8   1   5   86.19    6.90
   8   1   5  102.29   10.90
  -9  -1  -5   -9.00    4.80
   9   1   5   -9.00    5.50
   9   1   5    1.70    3.40
 -10  -1  -5   39.00   13.40
  10   1   5   50.99   10.20
  10   1   5   60.79    6.10
 -11  -1  -5    6.70    6.70
  11   1   5    2.50    8.50
  11   1   5    0.70    4.50
  12   1   5   26.20   10.60
  12   1   5   22.20    6.10
  13   1   5   16.70   11.10
  13   1   5   21.20    6.30
  12  -2  -5    1.60   12.50
  12  -2  -5   12.20    5.00
  11  -2  -5    7.40   11.10
  11  -2  -5    5.50    4.50
  10  -2  -5    9.40   10.50
  10  -2  -5   10.00    3.80
 -10   2   5    0.60    3.50
   9  -2  -5   45.30    4.60
   9  -2  -5   48.60   11.80
  -9   2   5   36.10    4.20
   8  -2  -5  106.69    6.80
   8  -2  -5   93.19   13.00
  -8   2   5   93.59    6.30
   7  -2  -5   10.30    2.60
   7  -2  -5    6.00    6.60
  -7   2   5   10.70    2.20
   6  -2  -5   72.89   10.10
   6  -2  -5   76.99    4.80
  -6   2   5   65.49    8.70
  -6   2   5   74.09    4.50
   5  -2  -5  408.86   20.10
   5  -2  -5  411.76   24.40
  -5   2   5  398.46   23.60
  -5   2   5  418.76   20.00
   4  -2  -5 1451.15   69.29
   4  -2  -5 1411.76   72.69
  -4   2   5 1495.35   69.19
  -4   2   5 1433.46   72.29
   3  -2  -5    1.60    4.00
  -3   2   5    1.50    3.70
  -3   2   5    5.40    0.80
  -3   2   5    4.80    0.80
   2  -2  -5  171.48   11.60
  -2   2   5  187.98   11.50
   1  -2  -5   14.60    4.00
   1  -2  -5   15.50    1.10
  -1   2   5   13.30    3.80
  -1   2   5   14.30    1.10
   0  -2  -5  535.45   29.70
   0  -2  -5  560.84   26.60
   0   2   5  568.54   28.00
   0   2   5  549.95   26.60
  -1  -2  -5  878.61   42.70
   1   2   5  878.81   42.60
   1   2   5  859.81   41.80
  -2  -2  -5   69.99    5.00
  -2  -2  -5   63.79    3.90
  -2  -2  -5   63.49    4.50
   2   2   5   61.89    4.00
  -3  -2  -5  238.98   12.30
  -3  -2  -5  249.68   12.60
   3   2   5  240.38   12.30
  -4  -2  -5    9.90    1.90
  -4  -2  -5    3.10    1.90
   4   2   5    9.10    2.30
   4   2   5    6.50    2.00
  -5  -2  -5 1808.32   86.69
  -5  -2  -5 1779.72   86.29
   5   2   5 1833.92   86.99
   5   2   5 1774.62   86.39
  -6  -2  -5  154.48    8.70
   6   2   5  145.19    8.90
   6   2   5  173.88   10.40
  -7  -2  -5   69.79    6.70
  -7  -2  -5   64.49    5.00
   7   2   5   78.49    5.60
   7   2   5   72.69    7.60
  -8  -2  -5    7.60    4.20
   8   2   5   -1.10    4.60
   8   2   5   -2.80    2.80
  -9  -2  -5   91.59    9.30
   9   2   5  112.99   11.50
   9   2   5   88.99    7.40
 -10  -2  -5   29.10    6.90
  10   2   5   40.10    8.30
  10   2   5   45.10    5.40
 -11  -2  -5    7.60    7.20
  11   2   5   13.80    8.20
  11   2   5   22.40    5.10
 -12  -2  -5   19.10    8.20
  12   2   5   43.00   10.60
  12   2   5   32.20    5.90
  13   2   5    8.00    9.60
  13   2   5    7.50    5.90
  12  -3  -5   -9.70   12.80
  12  -3  -5    7.10    5.10
  11  -3  -5   -1.70    4.60
  11  -3  -5    7.50   11.40
  10  -3  -5    3.10    4.00
  10  -3  -5    6.10   10.60
 -10   3   5    2.70    3.40
   9  -3  -5   -3.30    8.90
   9  -3  -5    8.40    3.70
  -9   3   5   10.50    3.30
   8  -3  -5   -3.30    8.10
   8  -3  -5   -3.20    2.90
  -8   3   5    3.40    2.60
   7  -3  -5   67.69    5.20
  -7   3   5   63.69    4.60
   6  -3  -5  195.38   16.20
  -6   3   5  207.78   10.40
   5  -3  -5  447.46   26.30
  -5   3   5  449.36   21.70
  -5   3   5  439.66   25.50
   4  -3  -5  274.67   18.20
  -4   3   5  279.57   13.70
  -4   3   5  287.07   13.70
  -4   3   5  272.87   17.40
   3  -3  -5   25.80    5.90
  -3   3   5   23.20    1.90
  -3   3   5   23.90    1.90
  -3   3   5   22.20    5.30
   2  -3  -5  232.08   11.40
   2  -3  -5  243.88   14.70
  -2   3   5  233.18   11.40
  -2   3   5  235.88   14.20
   1  -3  -5  261.67   12.70
   1  -3  -5  264.07   15.50
  -1   3   5  263.97   12.70
  -1   3   5  249.97   15.10
   0  -3  -5   20.50    1.80
   0   3   5   19.70    3.70
   0   3   5   19.50    1.80
  -1  -3  -5    5.00    1.40
  -1  -3  -5    6.60    2.80
   1   3   5    3.90    2.40
  -2  -3  -5    1.40    1.80
  -2  -3  -5   -4.00    2.10
   2   3   5    1.90    1.80
   2   3   5    4.80    1.80
  -3  -3  -5    4.50    1.70
   3   3   5    4.70    1.80
  -4  -3  -5  659.13   32.60
   4   3   5  681.33   32.60
  -5  -3  -5  375.96   18.90
   5   3   5  382.16   19.00
  -6  -3  -5  392.76   19.30
  -6  -3  -5  358.76   19.20
   6   3   5  403.16   19.90
   6   3   5  371.86   19.30
  -7  -3  -5   56.09    5.60
   7   3   5   38.80    4.30
   7   3   5   47.40    5.90
  -8  -3  -5  148.29   10.10
   8   3   5  142.09   10.90
  -9  -3  -5   -0.60    4.50
   9   3   5    1.40    3.50
   9   3   5   -5.80    4.60
 -10  -3  -5   40.60    7.50
  10   3   5   70.19    9.20
  10   3   5   48.90    5.80
 -11  -3  -5    0.90    6.30
  11   3   5    6.60    4.50
  11   3   5    4.90    7.40
 -12  -3  -5   19.00    8.10
  12   3   5   31.10    6.00
  12   3   5   50.39    9.90
  13   3   5   -2.40    5.40
  13   3   5   -6.20    8.20
  12  -4  -5   25.30   14.20
 -12   4   5   32.90    5.90
  11  -4  -5    4.30   12.40
 -11   4   5   -3.10    4.20
  10  -4  -5   -9.60   10.30
 -10   4   5   -7.30    3.30
 -10   4   5    7.50    3.50
   9  -4  -5    3.30    9.20
  -9   4   5   12.10    5.60
  -9   4   5   -2.40    3.00
   8  -4  -5   85.99   14.00
  -8   4   5  110.09    7.10
  -8   4   5  122.19    7.20
   7  -4  -5   -1.30    6.90
  -7   4   5   11.30    2.30
  -7   4   5   13.60    2.40
   6  -4  -5   96.19   12.30
  -6   4   5   93.19    5.60
  -6   4   5   94.39    5.50
   5  -4  -5   48.10    9.00
  -5   4   5   58.49    3.90
  -5   4   5   48.60    8.10
  -5   4   5   54.29    3.80
   4  -4  -5  481.95   28.20
  -4   4   5  496.55   23.80
   3  -4  -5   40.10    7.20
  -3   4   5   36.00    2.70
  -3   4   5   37.20    6.30
   2  -4  -5  114.19   10.30
   2  -4  -5  131.19    6.60
  -2   4   5  121.49    6.40
  -2   4   5  123.89    9.70
   1  -4  -5  385.16   21.40
   1  -4  -5  382.26   18.80
  -1   4   5  385.66   21.00
  -1   4   5  383.66   18.70
   0  -4  -5   54.19    5.80
   0  -4  -5   41.50    3.20
   0   4   5   55.09    5.90
   0   4   5   46.80    3.50
  -1  -4  -5    1.80    1.40
  -1  -4  -5   -2.60    2.80
   1   4   5    2.20    1.50
   1   4   5    0.90    3.10
  -2  -4  -5   29.40    3.60
  -2  -4  -5   25.20    2.50
   2   4   5   28.80    3.10
   2   4   5   29.10    2.60
  -3  -4  -5  285.97   14.20
   3   4   5  279.17   14.20
  -4  -4  -5   88.69    5.50
   4   4   5   89.69    5.70
   5   4   5  143.19    8.10
  -6  -4  -5   54.19    4.40
   6   4   5   51.79    4.30
   6   4   5   49.00    4.40
   6   4   5   47.40    4.40
   7   4   5  607.94   31.10
   7   4   5  648.54   31.60
  -8  -4  -5    8.90    1.70
   8   4   5    7.00    7.30
   8   4   5    3.30    3.00
  -9  -4  -5    2.00    4.10
   9   4   5   -3.50    3.40
   9   4   5   -0.60    4.60
 -10  -4  -5    0.20    4.90
  10   4   5   -2.70    3.80
  10   4   5   -1.00    5.30
 -11  -4  -5   10.70    6.10
 -11  -4  -5   12.30    2.90
  11   4   5   21.20    7.10
  11   4   5   12.50    4.80
 -12  -4  -5   -3.90    3.60
 -12  -4  -5    6.20    7.50
  12   4   5    1.40    6.90
  12   4   5   -3.50    4.80
 -13  -4  -5    0.70    3.50
 -13  -4  -5    8.90    7.20
  13   4   5   -0.60    8.10
  13   4   5    5.00    6.30
  12  -5  -5    5.80   21.10
 -12   5   5   21.30    5.60
  11  -5  -5  -14.60   11.60
 -11   5   5    4.80    5.10
  10  -5  -5   -1.10   11.20
 -10   5   5    8.80    3.80
 -10   5   5   10.60    4.80
   9  -5  -5   27.60   12.50
  -9   5   5   67.29    5.60
  -9   5   5   48.00    4.70
   8  -5  -5   38.20   11.20
  -8   5   5   44.10    4.40
  -8   5   5   66.89    5.20
   7  -5  -5   -8.70    7.60
  -7   5   5    0.30    2.50
  -7   5   5    0.70    2.40
   6  -5  -5   20.60    8.30
  -6   5   5   23.50    2.80
  -6   5   5   23.60    2.70
   5  -5  -5  533.75   32.30
  -5   5   5  528.85   31.80
  -5   5   5  566.74   27.00
  -5   5   5  571.94   27.10
   4  -5  -5  180.98   15.10
  -4   5   5  198.08   10.20
  -4   5   5  204.38   10.10
  -4   5   5  189.98   14.30
   3  -5  -5  119.69   11.40
   3  -5  -5  126.79    6.50
  -3   5   5  115.39   10.70
  -3   5   5  122.29    6.60
   2  -5  -5  364.66   17.50
  -2   5   5  354.96   20.70
  -2   5   5  348.37   17.50
   1  -5  -5   53.69    7.10
   1  -5  -5   35.30    2.90
  -1   5   5   42.80    6.20
  -1   5   5   32.70    3.00
   0  -5  -5   81.19    8.00
   0  -5  -5   67.49    4.40
   0   5   5   70.19    4.40
   0   5   5   75.69    7.00
  -1  -5  -5  207.38   13.20
  -1  -5  -5  200.78   10.30
   1   5   5  197.58   11.90
   1   5   5  194.88   10.20
  -2  -5  -5  210.48   12.20
  -2  -5  -5  216.98   10.80
   2   5   5  206.08   11.80
   2   5   5  203.68   10.80
  -3  -5  -5  561.84   27.10
  -3  -5  -5  563.84   27.70
   3   5   5  539.15   27.10
   3   5   5  551.14   27.40
  -4  -5  -5  134.99    7.70
   4   5   5  141.39    7.90
  -5  -5  -5  355.46   17.70
   5   5   5  341.97   17.70
  -6  -5  -5  702.23   35.60
   6   5   5  720.13   35.30
   6   5   5  738.83   35.00
   6   5   5  706.63   35.20
   7   5   5   11.10    3.50
   7   5   5    7.60    3.40
   7   5   5   15.20    3.20
   8   5   5    7.30    4.00
   8   5   5    9.30    4.50
   8   5   5    8.70    3.60
   9   5   5   31.90    4.70
   9   5   5   30.40    5.70
   9   5   5   19.00    5.20
  10   5   5   12.50    5.40
  10   5   5   25.30    6.10
  10   5   5   19.00    4.60
  11   5   5    1.80    5.20
  11   5   5    2.90    4.80
  11   5   5    7.70    6.00
  12   5   5    3.10    6.80
  12   5   5    3.40    6.20
  12   5   5  -10.10    4.80
  13   5   5   16.30    8.30
  13   5   5   20.20    6.60
  12  -6  -5   16.10   15.20
 -12   6   5    1.40    5.50
  11  -6  -5   -9.60   12.50
 -11   6   5   -0.70    4.70
  10  -6  -5   18.20   12.80
 -10   6   5   29.60    4.80
   9  -6  -5   37.70   12.40
  -9   6   5   31.50    4.40
  -9   6   5   41.00    4.60
   8  -6  -5  -13.30    8.30
  -8   6   5    2.90    3.10
  -8   6   5    6.80    3.10
   7  -6  -5   23.80    9.50
  -7   6   5   20.50    3.30
  -7   6   5   26.40    3.50
   6  -6  -5  247.58   21.00
  -6   6   5  261.77   14.10
  -6   6   5  287.57   14.00
   5  -6  -5   26.30    8.60
  -5   6   5   29.60    3.00
  -5   6   5   32.50    3.40
   4  -6  -5   68.09   10.50
  -4   6   5   72.29    9.80
  -4   6   5   74.59    4.80
  -4   6   5   70.29    5.20
   3  -6  -5  194.58    9.90
   3  -6  -5  179.78   15.20
  -3   6   5  200.18   14.60
  -3   6   5  193.68   10.00
   2  -6  -5  255.57   12.50
  -2   6   5  236.58   12.50
  -2   6   5  248.68   16.10
   1  -6  -5   99.89    5.60
   1  -6  -5   93.89   10.00
  -1   6   5   80.79    9.20
  -1   6   5   92.09    5.60
   0  -6  -5   35.40    6.50
   0  -6  -5   31.90    3.10
   0   6   5   44.60    6.60
   0   6   5   39.50    3.40
  -1  -6  -5   67.19    7.50
  -1  -6  -5   57.59    4.40
   1   6   5   57.89    4.60
   1   6   5   64.59    7.10
  -2  -6  -5  343.47   18.20
  -2  -6  -5  323.97   16.00
   2   6   5  306.47   16.00
   2   6   5  299.77   17.50
  -3  -6  -5   55.49    5.80
  -3  -6  -5   47.70    3.90
   3   6   5   45.60    4.10
  -4  -6  -5  315.37   16.30
  -4  -6  -5  301.47   15.60
   4   6   5  302.87   15.60
   4   6   5  302.57   16.20
  -5  -6  -5  838.32   40.80
   5   6   5  836.12   40.60
   5   6   5  839.82   41.10
   5   6   5  830.32   40.80
   6   6   5   91.69    6.80
   6   6   5  101.49    6.70
   6   6   5   91.89    6.10
   7   6   5    3.20    2.90
   7   6   5    7.70    3.50
   7   6   5   10.70    3.10
   8   6   5   16.20    5.00
   8   6   5    9.60    4.20
   8   6   5    3.70    3.50
   9   6   5  213.48   14.80
   9   6   5  239.78   14.50
   9   6   5  261.97   13.90
  10   6   5    5.30    4.40
  10   6   5    7.50    5.00
  10   6   5   -0.70    4.90
  11   6   5    8.20    5.80
  11   6   5    3.60    4.90
  11   6   5   13.00    5.90
  12   6   5    0.70    5.00
  12   6   5    6.50    6.50
  12   6   5    8.90    6.50
 -11   7   5   35.90    6.00
  10  -7  -5   -2.60   12.60
 -10   7   5    2.00    8.10
   9  -7  -5    6.10   11.50
  -9   7   5   19.20    4.30
   8  -7  -5    0.10    9.80
  -8   7   5   -2.70    3.40
  -8   7   5    0.00    3.30
   7  -7  -5  205.68   21.30
  -7   7   5  209.18   12.50
  -7   7   5  242.08   12.30
   6  -7  -5   -2.90    7.60
  -6   7   5    1.80    3.30
  -6   7   5    2.40    2.60
   5  -7  -5   19.30   13.00
  -5   7   5   41.30    3.70
  -5   7   5   37.80    4.00
   4  -7  -5   16.90    7.60
  -4   7   5   14.20    2.50
   3  -7  -5  306.97   15.20
  -3   7   5  304.47   15.30
  -3   7   5  286.97   19.70
   2  -7  -5    1.90    5.10
   2  -7  -5   -1.60    1.80
  -2   7   5    2.90    2.00
   1  -7  -5   -0.60    1.70
   1  -7  -5    4.40    5.40
  -1   7   5    3.30    4.20
  -1   7   5    2.90    2.00
   0  -7  -5  113.79   10.90
   0  -7  -5  117.09    6.80
   0   7   5  121.39   10.00
   0   7   5  113.79    6.80
  -1  -7  -5  110.69    6.70
  -1  -7  -5  119.99   10.30
   1   7   5  107.69    6.70
   1   7   5  120.59    9.60
  -2  -7  -5  147.19   11.20
   2   7   5  146.19   10.60
   2   7   5  151.38    8.30
  -3  -7  -5   82.69    7.80
  -3  -7  -5   80.09    5.50
   3   7   5   83.89    5.70
   3   7   5   83.99    7.60
  -4  -7  -5   94.79    6.10
  -4  -7  -5   86.59    8.60
   4   7   5   91.49    7.70
   4   7   5   97.69    6.30
   5   7   5   63.39    7.00
   5   7   5   71.69    5.70
   5   7   5   77.69    5.70
   6   7   5  102.69    7.00
   6   7   5  117.99   12.70
   6   7   5   89.09    6.90
   7   7   5   70.49    7.70
   7   7   5   70.99    6.40
   7   7   5   74.19    6.50
   8   7   5  147.59    9.20
   8   7   5  118.29   10.10
   9   7   5    0.40    3.90
   9   7   5    1.90    4.40
   9   7   5    4.60    4.10
  10   7   5   -2.00    4.50
  10   7   5   -3.80    4.80
  10   7   5    0.90    4.30
  11   7   5    1.80    5.70
  11   7   5   -5.80    4.70
  11   7   5    2.30    5.10
  12   7   5    8.10    5.90
  12   7   5    3.40    6.30
  11  -8  -5   32.90   16.60
 -11   8   5    9.30    5.90
  10  -8  -5    9.20   13.80
 -10   8   5   13.90    5.30
   9  -8  -5   28.10   14.00
  -9   8   5   42.20    6.40
   8  -8  -5   40.90   13.50
  -8   8   5   50.89    5.20
   7  -8  -5    2.30   10.20
  -7   8   5    0.40    3.30
  -7   8   5    2.50    4.00
   6  -8  -5   33.50   11.00
  -6   8   5   32.60    4.60
  -6   8   5   39.60    4.20
   5  -8  -5  103.99   15.20
  -5   8   5  118.49    8.50
  -5   8   5  143.09    8.00
   4  -8  -5   61.49    5.20
  -4   8   5   72.79    5.30
   3  -8  -5   -1.80    6.40
  -3   8   5    3.70    2.60
   2  -8  -5    7.30    6.40
  -2   8   5    8.60    5.40
  -2   8   5    6.10    2.40
   1  -8  -5  134.09   13.00
  -1   8   5  132.99    7.90
  -1   8   5  151.18   13.30
   0  -8  -5  240.58   17.40
   0  -8  -5  254.37   13.30
   0   8   5  264.87   16.80
   0   8   5  256.77   13.30
  -1  -8  -5  119.69    7.10
  -1  -8  -5  110.99   10.80
   1   8   5  116.09    7.10
   1   8   5  111.99   10.20
  -2  -8  -5  156.58   12.30
  -2  -8  -5  153.08    8.80
   2   8   5  162.98    8.90
   2   8   5  150.88   11.80
  -3  -8  -5    2.80    4.50
   3   8   5   -0.90    4.10
   3   8   5    9.50    2.60
  -4  -8  -5   23.70    5.40
   4   8   5   11.60    4.90
   4   8   5   24.70    3.50
   5   8   5   59.69    7.30
   5   8   5   59.69    5.30
   6   8   5  278.57   15.20
   6   8   5  278.77   16.70
   6   8   5  287.47   15.60
   7   8   5   79.99    8.60
   7   8   5   85.59    7.20
   7   8   5   75.89    7.30
   8   8   5   13.40    5.50
   8   8   5   12.50    4.20
   8   8   5    6.00    4.00
   9   8   5   54.79    6.40
   9   8   5   50.69    7.60
   9   8   5   64.89    6.40
  10   8   5   19.20    5.10
  10   8   5   21.40    6.40
  10   8   5   17.30    5.10
  11   8   5   16.00    5.60
  11   8   5    7.80    6.20
  11   8   5   16.20    5.40
  12   8   5   12.70    5.80
  12   8   5    9.80    5.70
  12   8   5    6.20    8.80
  10  -9  -5    3.20   14.40
 -10   9   5   15.30    5.80
   9  -9  -5   31.20   16.00
  -9   9   5   30.80    5.50
   8  -9  -5  -10.90   11.10
  -8   9   5   -0.50    4.10
   7  -9  -5   27.60   13.00
  -7   9   5   34.50    5.00
   6  -9  -5    0.00   10.10
  -6   9   5   -0.50    3.40
   5  -9  -5  125.19   17.40
  -5   9   5  167.28    9.60
   4  -9  -5  124.49   16.10
   4  -9  -5  109.19    7.30
  -4   9   5  127.09    7.80
   3  -9  -5  129.39   26.40
   3  -9  -5  141.19    8.60
  -3   9   5  155.98    8.90
   2  -9  -5   30.70    8.60
   2  -9  -5   24.90    3.50
  -2   9   5   38.90    3.80
   1  -9  -5  228.18   12.50
   1  -9  -5  228.48   17.90
  -1   9   5  213.78   16.90
  -1   9   5  251.27   12.60
   0  -9  -5   74.39    5.70
   0  -9  -5   74.89   10.70
   0   9   5   81.79   10.50
   0   9   5   81.99    6.00
  -1  -9  -5  386.06   23.70
   1   9   5  361.26   22.70
   1   9   5  378.26   19.20
  -2  -9  -5   12.10    6.00
   2   9   5    5.30    5.50
   2   9   5   18.40    3.20
  -3  -9  -5    8.20    5.60
   3   9   5   13.90    5.60
  -4  -9  -5  678.53   36.00
   4   9   5  660.33   35.60
   4   9   5  654.33   33.00
  -5  -9  -5  134.39   11.60
   5   9   5  171.28    9.50
   5   9   5  139.59   11.90
   6   9   5    9.50    4.30
   6   9   5   10.90    3.90
   6   9   5   11.20    5.60
   7   9   5   67.99    8.60
   7   9   5   45.60    6.30
   7   9   5   62.49    6.00
   8   9   5   18.10    6.40
   8   9   5    6.30    4.40
   8   9   5   17.20    4.90
   9   9   5   44.70    8.10
   9   9   5   65.89    6.70
   9   9   5   50.49    6.70
  10   9   5   26.70    5.90
  10   9   5   27.20    5.50
  10   9   5   14.10    6.60
  11   9   5   -0.60    5.00
  11   9   5   13.10    5.00
  11   9   5   10.00    6.60
  10 -10  -5   20.10   15.80
 -10  10   5    5.20    6.00
   9 -10  -5    6.30   27.60
  -9  10   5   -2.40    5.30
   8 -10  -5    4.60   13.00
  -8  10   5   33.90    5.60
   7 -10  -5   18.80   12.40
  -7  10   5   16.90    4.40
   6 -10  -5   29.10   13.10
  -6  10   5   45.50    5.20
   5 -10  -5    3.70    9.60
  -5  10   5   24.60    5.00
   4 -10  -5   45.50   12.50
  -4  10   5   63.99    6.20
   3 -10  -5   -5.30    7.40
  -3  10   5    3.70    3.50
   2 -10  -5  140.89   18.90
  -2  10   5  144.19    9.00
   1 -10  -5    6.10    7.80
  -1  10   5    0.80    3.30
   0 -10  -5   91.59   12.80
   0  10   5  104.79   13.00
  -1 -10  -5   -5.10    6.30
   1  10   5   -3.70    5.70
   1  10   5   -0.70    3.20
  -2 -10  -5    0.40    5.80
   2  10   5    0.50    5.70
   2  10   5   -0.30    3.10
  -3 -10  -5  146.09   14.10
   3  10   5  142.89   13.60
   3  10   5  176.98    9.80
  -4 -10  -5   29.60    7.50
   4  10   5   47.40    5.00
   4  10   5   36.30    8.10
  -5 -10  -5  109.39   11.40
   5  10   5  104.89   11.70
   5  10   5  116.99    8.20
   6  10   5    1.50    5.70
   6  10   5    0.40    3.60
   6  10   5    7.30    4.60
   7  10   5  102.09    9.30
   7  10   5  109.09   11.60
   7  10   5  119.99    8.80
   8  10   5   65.69    7.70
   8  10   5   78.39   10.40
   8  10   5   82.99    7.50
   9  10   5    5.40    6.60
   9  10   5    7.60    5.00
   9  10   5    6.90    5.20
  10  10   5   -3.60    6.30
  10  10   5    5.00    5.60
  10  10   5   15.70    5.20
   9 -11  -5    3.70   13.50
  -9  11   5   12.60    5.90
   8 -11  -5   22.70   15.50
  -8  11   5    7.40    5.20
   7 -11  -5   35.40   15.20
  -7  11   5   33.10    5.50
   6 -11  -5   13.00   12.50
  -6  11   5   12.60    4.30
   5 -11  -5   42.50   13.70
  -5  11   5   66.49    6.20
   4 -11  -5   43.80   12.70
  -4  11   5   67.89    6.10
   3 -11  -5   -8.80    8.60
  -3  11   5    3.00    3.60
   2 -11  -5   17.10    9.10
  -2  11   5   17.70    4.10
   1 -11  -5  152.68   18.00
  -1  11   5  165.98   10.30
   0 -11  -5    2.60    8.30
   0  11   5    5.80    3.60
  -1 -11  -5   49.20   10.60
   1  11   5   52.69    5.60
  -2 -11  -5   49.60   10.60
   2  11   5   42.40    9.60
   2  11   5   64.39    5.80
  -3 -11  -5  119.29   14.70
   3  11   5  120.89   13.80
   3  11   5  146.39    9.20
  -4 -11  -5    2.80    6.30
   4  11   5    7.60    3.80
   4  11   5    8.20    6.90
  -5 -11  -5   11.40    6.70
   5  11   5   10.10    4.10
   6  11   5   90.49   11.90
   6  11   5  102.09    9.60
   6  11   5   92.89    6.30
   6  11   5   89.29    7.80
   7  11   5  149.19   11.70
   7  11   5  138.89   14.30
   7  11   5  148.19   10.40
   8  11   5   29.60    8.50
   8  11   5   21.00    5.20
   8  11   5   21.30    6.10
   9  11   5    5.50    5.40
   9  11   5    1.70    6.90
   9  11   5    8.50    6.10
  10  11   5   10.60    5.40
  10  11   5    0.60    5.20
   8 -12  -5   13.00   15.60
  -8  12   5    1.80    5.50
   7 -12  -5   14.20   15.80
  -7  12   5  -10.10    4.90
   6 -12  -5   48.90   15.60
  -6  12   5   66.39    6.90
   5 -12  -5   35.90   13.70
  -5  12   5   34.20    5.50
   4 -12  -5    6.10   11.40
  -4  12   5   -0.30    4.10
   3 -12  -5   21.00   11.60
  -3  12   5    8.00    4.30
   2 -12  -5   66.19   13.80
  -2  12   5  112.59    8.10
   1 -12  -5   15.00   10.10
  -1  12   5   39.00    5.10
   0 -12  -5   -2.60    8.00
   0  12   5   -7.20    3.60
  -1 -12  -5    5.80    8.30
   1  12   5    5.60    4.00
  -2 -12  -5  148.69   20.30
   2  12   5  179.48   11.00
  -3 -12  -5    2.60    8.00
   3  12   5   14.50    4.40
  -4 -12  -5   18.50    8.50
   4  12   5   19.00   10.80
   4  12   5   18.40    4.60
  -5 -12  -5  156.78   15.00
   5  12   5  137.89   15.60
   5  12   5  148.99   10.40
   6  12   5   93.59    6.60
   6  12   5  100.69   10.50
   6  12   5   93.29    8.10
   6  12   5   87.79   12.70
   7  12   5   -4.50    5.30
   7  12   5    8.60    7.80
   7  12   5   -3.90    4.60
   8  12   5    9.80    5.90
   8  12   5    8.70    5.30
   8  12   5   17.80   10.90
   9  12   5   35.60    7.10
   9  12   5   43.00    6.40
   7 -13  -5   27.00   16.10
  -7  13   5   21.50    6.20
   6 -13  -5    0.70   27.40
  -6  13   5   19.30    5.80
   5 -13  -5    1.80   13.00
  -5  13   5   -1.80    4.80
   4 -13  -5   17.10   13.50
  -4  13   5    7.90    4.60
   3 -13  -5   40.90   14.80
  -3  13   5   81.19    7.20
   2 -13  -5   -0.60   10.50
  -2  13   5   19.00    4.80
   1 -13  -5    3.60   10.00
  -1  13   5    5.10    4.30
   0 -13  -5   15.20   11.30
   0  13   5   28.90    5.10
  -1 -13  -5   84.09   15.00
   1  13   5   80.69    7.40
  -2 -13  -5    8.80    9.20
   2  13   5   15.80    4.70
  -3 -13  -5   -2.30    7.90
   3  13   5   19.60    4.80
  -4 -13  -5   80.69   14.00
   4  13   5  101.09    8.70
  -5 -13  -5   46.70   12.90
   5  13   5   62.99    6.70
   6  13   5   12.00    6.50
   6  13   5   25.10    9.40
   6  13   5   14.20    3.50
   7  13   5    7.60    6.60
   7  13   5   22.70    5.50
   6 -14  -5  -20.20   13.20
  -6  14   5   -1.90    5.40
   5 -14  -5   -5.80   14.10
  -5  14   5    3.40    5.20
   4 -14  -5   30.10   15.10
  -4  14   5   28.70    5.90
   3 -14  -5   10.80   13.20
  -3  14   5   15.80    5.30
   2 -14  -5    2.50   11.50
  -2  14   5    3.80    5.00
   1 -14  -5    3.50   12.00
  -1  14   5   28.40    5.70
   0 -14  -5   62.29   15.20
   0  14   5   69.79    7.10
  -1 -14  -5    2.30    9.80
   1  14   5    4.50    4.80
  -2 -14  -5   22.80   11.70
   2  14   5   58.09    6.60
  -3 -14  -5   24.80   11.20
   3  14   5   14.20    5.20
  -4 -14  -5   35.10   11.10
  -5 -14  -5    9.40    9.70
   5  14   5    4.60    5.20
   6  14   5   15.90    5.40
   6  14   5   25.70    4.20
   6  14   5   22.10    7.60
  -3  15   5    8.90    6.70
   2 -15  -5   -3.50   12.00
  -2  15   5   -2.20    5.60
   1 -15  -5   16.10   12.90
  -1  15   5   30.90    7.30
   0 -15  -5    0.90   11.00
  -1 -15  -5   26.50   12.90
   1  15   5   37.80    7.10
  -2 -15  -5   16.20   11.40
   2  15   5    4.50    5.50
  -3 -15  -5   -5.50    9.60
   3  15   5   -4.20    5.10
  -4 -15  -5   -4.50    9.70
   4  15   5    3.40    5.20
   3  12  -6   11.60    5.10
  -3 -12   6    2.10   12.60
   2  12  -6    1.20    5.00
  -2 -12   6   -0.30   14.90
   1  12  -6   -9.00    7.80
   0  12  -6   43.50   12.10
  -1  12  -6   29.40    7.80
   1 -12   6   48.50   28.40
  -2  12  -6   -2.20    5.30
   2 -12   6   -2.80   13.60
  -3  12  -6   -1.30    4.90
   3 -12   6   23.40   17.10
  -4  12  -6   19.70    5.80
   4 -12   6   18.20   15.40
  -5  12  -6    2.90    5.20
   5 -12   6   11.90   17.10
   5  11  -6   -1.10    9.30
   5  11  -6   10.00    6.40
   4  11  -6   16.60    5.00
   4  11  -6   33.30   11.40
   4  11  -6   13.10    5.00
   3  11  -6    1.90    4.70
  -3 -11   6   19.70   12.70
   2  11  -6   47.40    6.20
  -2 -11   6   28.80   14.40
   1  11  -6   67.19    7.10
  -1 -11   6   92.19   18.70
   0  11  -6   13.80    4.70
   0 -11   6    7.90   13.10
  -1  11  -6    4.90    4.50
   1 -11   6    5.30   12.00
  -2  11  -6   -1.00    4.60
   2 -11   6   17.10   13.20
  -3  11  -6   16.00    4.90
   3 -11   6    2.80   12.70
  -4  11  -6   20.50    5.30
   4 -11   6   13.20   13.90
  -5  11  -6   44.80    9.00
   5 -11   6    9.20   23.40
  -6  11  -6   12.20    5.80
   6 -11   6   14.10   16.20
  -7  11  -6   10.20    5.70
   7 -11   6   13.30   17.20
   6  10  -6   -3.60    4.50
   6  10  -6   -4.00    8.80
   5  10  -6   22.00    5.30
   5  10  -6   34.60   11.00
   4  10  -6    5.20    8.70
   4  10  -6    9.60    4.40
   4  10  -6    6.50    4.40
   3  10  -6  112.79    8.90
  -3 -10   6   84.09   16.90
   2  10  -6   22.00    4.90
  -2 -10   6   13.90   11.50
   1  10  -6   54.29    6.00
  -1 -10   6   60.29   14.80
   0  10  -6   -0.20    3.90
   0 -10   6   -9.30    9.80
  -1  10  -6   19.10    4.60
   1 -10   6   16.10   11.40
  -2  10  -6    6.90    4.00
   2 -10   6   27.50   12.90
  -3  10  -6    9.90    4.50
   3 -10   6    8.70   11.90
   4 -10   6   43.40   14.80
  -5  10  -6   30.80    5.60
   5 -10   6   23.70   14.60
  -6  10  -6   37.40    6.30
   6 -10   6   44.20   16.60
  -7  10  -6   -2.90    5.50
   7 -10   6   13.60   15.90
  -8  10  -6   18.50    6.00
   8 -10   6   15.00   15.60
   7   9  -6   -7.80    4.50
   7   9  -6   -2.00    8.60
   6   9  -6   -2.00    8.40
   6   9  -6    2.80    4.40
   5   9  -6    6.60    4.20
   5   9  -6  -11.80    8.00
   4   9  -6   40.70   10.30
   4   9  -6   55.39    5.80
   4   9  -6   51.59    6.00
   3   9  -6   56.49    6.00
  -3  -9   6   69.69   14.60
   2   9  -6   21.90    4.30
  -2  -9   6   19.30   10.60
   1   9  -6    4.80    3.60
  -1  -9   6    6.80    9.80
   0   9  -6   52.19    5.70
   0  -9   6   62.59   14.70
  -1   9  -6  134.09    9.20
   1  -9   6  126.79   18.70
  -2   9  -6    1.60    3.70
   2  -9   6   -6.40    8.80
  -3   9  -6   80.29    7.30
   3  -9   6   70.39   15.70
  -4   9  -6   56.39    6.20
   4  -9   6   50.59   14.90
  -5   9  -6   24.10    5.00
   5  -9   6   25.40   14.40
  -6   9  -6    3.50    4.60
   6  -9   6    3.00   12.10
  -7   9  -6   37.00    6.40
   7  -9   6   41.60   16.00
  -8   9  -6    7.50    5.60
   8  -9   6    0.30   14.10
  -9   9  -6    3.40    6.10
   9  -9   6  -29.90   23.00
 -10   9  -6    0.70    6.20
   8   8  -6   21.50   10.60
   8   8  -6    8.00    4.50
   7   8  -6    1.10    8.60
   7   8  -6   -4.70    4.30
   6   8  -6    3.90    8.40
   6   8  -6    4.70    4.10
   5   8  -6  101.99    8.00
   5   8  -6  103.89   13.90
   4   8  -6   12.00    8.20
   4   8  -6   30.90    4.70
   4   8  -6   28.60    4.50
   3   8  -6   59.69    6.00
   3   8  -6   65.39   11.70
   3   8  -6   54.39    5.50
   2   8  -6   15.00    3.90
  -2  -8   6   10.10    9.80
   1   8  -6  188.58   11.60
  -1  -8   6  223.78   20.30
   0   8  -6   28.50    4.40
   0  -8   6   35.00   11.50
  -1   8  -6    0.90    3.40
   1  -8   6    2.50    8.30
  -2   8  -6   11.40    3.90
   2  -8   6    3.90    9.00
  -3   8  -6  149.19    9.80
   3  -8   6  151.78   20.30
  -4   8  -6   -0.30    3.40
   4  -8   6    5.70   10.50
  -5   8  -6   -0.80    3.80
   5  -8   6   11.80   10.90
  -6   8  -6   94.49    8.30
   6  -8   6   62.89   16.10
  -7   8  -6   27.70    5.30
   7  -8   6   28.00   14.00
  -8   8  -6    9.40    5.00
   8  -8   6  -14.60   12.10
  -9   8  -6    3.30    5.70
   9  -8   6   -8.20   13.20
 -10   8  -6   11.10    8.00
  10  -8   6  -10.80   14.60
   9   7  -6    1.40    4.40
   9   7  -6    7.60   10.10
   8   7  -6    1.40    4.10
   8   7  -6    2.80    9.30
   7   7  -6   15.00    4.20
   7   7  -6    8.70    8.90
   6   7  -6   98.39    7.60
   6   7  -6   83.59   12.70
   5   7  -6    3.10    7.20
   5   7  -6   -0.80    3.20
   4   7  -6    7.70    3.60
   4   7  -6    5.30    7.00
   4   7  -6    0.90    3.10
   3   7  -6   23.40    4.30
   3   7  -6    8.70    7.60
   3   7  -6   32.60    4.20
   2   7  -6  339.37   17.20
  -2  -7   6  294.87   23.80
   1   7  -6   88.79    7.50
  -1  -7   6   89.19   13.90
   0   7  -6   12.40    3.80
   0  -7   6   16.50    9.60
  -1   7  -6   64.29    5.50
   1  -7   6   60.09   12.20
  -2   7  -6  104.39    7.40
   2  -7   6   88.09   14.50
  -3   7  -6    0.80    3.10
   3  -7   6    6.10    8.40
  -4   7  -6   33.10    4.50
   4  -7   6   34.80   11.30
  -5   7  -6  105.89    8.00
   5  -7   6   92.09   16.10
  -6   7  -6  113.19    8.60
   6  -7   6   98.69   16.90
  -7   7  -6    1.00    4.10
   7  -7   6  -13.30    9.80
  -8   7  -6    3.50    4.80
   8  -7   6   -7.60   11.70
  -9   7  -6   24.50    5.90
   9  -7   6   40.20   15.60
 -10   7  -6    1.70    5.60
  10  -7   6    0.50   13.10
 -11   7  -6    3.50    7.10
  11  -7   6   -2.10   15.40
  10   6  -6    2.90   10.60
  10   6  -6    3.60    4.60
   9   6  -6    3.10    4.30
   9   6  -6    6.30    9.40
   8   6  -6   -3.50    3.80
   8   6  -6    8.50    8.60
   7   6  -6   40.10    5.10
   7   6  -6   45.30   10.30
   6   6  -6   -5.90    6.50
   6   6  -6   -0.80    3.20
   5   6  -6   40.90    4.90
   5   6  -6   44.30    9.00
   4   6  -6   19.30    3.40
   4   6  -6   -2.10    5.50
   3   6  -6  268.17   14.80
   3   6  -6  284.07   19.40
   3   6  -6  293.17   15.20
   2   6  -6   54.09    4.80
   1   6  -6   29.10    3.60
  -1  -6   6   19.70    3.40
  -1  -6   6   26.60    8.60
   0   6  -6   90.39    6.40
   0  -6   6   95.79   13.60
  -1   6  -6  222.88   12.20
   1  -6   6  222.38   18.40
  -2   6  -6    2.30    2.60
   2  -6   6    1.10    6.00
  -3   6  -6  130.49    8.50
   3  -6   6  112.79   18.30
  -4   6  -6  131.89    8.20
   4  -6   6  107.29   15.90
  -5   6  -6  130.69    8.70
   5  -6   6  118.99   16.40
  -6   6  -6   21.00    4.10
   6  -6   6   12.00    9.70
  -7   6  -6    0.20    3.70
   7  -6   6   11.00   10.70
  -8   6  -6   37.30    5.40
   8  -6   6   48.70   14.10
  -9   6  -6   19.90    5.30
   9  -6   6   20.90   13.20
 -10   6  -6   -0.50    5.60
  10  -6   6   -3.50   12.00
 -11   6  -6    3.40    5.90
  11  -6   6    5.20   13.60
 -12   6  -6   -2.70    6.40
  12  -6   6   -3.30   14.90
  10   5  -6    2.90    4.20
  10   5  -6   -1.30    9.90
   9   5  -6    0.40    3.90
   9   5  -6    0.80    8.70
   8   5  -6   24.60    9.40
   8   5  -6   21.00    4.20
   7   5  -6   -1.80    3.60
   7   5  -6   -7.20    6.80
   6   5  -6   91.99    6.80
   6   5  -6   90.39   12.20
   5   5  -6   41.80    8.60
   5   5  -6   35.60    3.80
  -5  -5   6   26.50    3.60
   4   5  -6  208.08   10.70
  -4  -5   6  180.18   10.60
   3   5  -6   35.00    4.00
   3   5  -6   42.80    3.80
   3   5  -6   42.80    7.60
  -3  -5   6   29.30    3.50
   2   5  -6    8.70    2.40
  -2  -5   6    6.50    2.30
  -2  -5   6    7.40    6.40
   1   5  -6  140.79    7.90
   1   5  -6  141.09   16.70
  -1  -5   6  103.89   13.50
  -1  -5   6  135.69    7.70
   0   5  -6  520.35   25.80
   0   5  -6  501.65   31.00
   0  -5   6  528.25   25.70
   0  -5   6  527.25   31.30
  -1   5  -6    2.90    2.20
  -1   5  -6   -2.50    5.40
   1  -5   6    1.90    1.90
   1  -5   6   -1.80    5.30
  -2   5  -6  265.47   13.50
  -2   5  -6  248.88   18.70
  -2   5  -6  255.97   13.70
   2  -5   6  237.78   18.80
  -3   5  -6  211.18   11.20
  -3   5  -6  181.58   16.90
  -3   5  -6  204.28   12.10
   3  -5   6  216.98   17.50
  -4   5  -6  105.99    7.30
   4  -5   6  114.19   14.50
   5  -5   6   32.60    9.70
  -6   5  -6   11.40    3.60
  -7   5  -6   39.20    4.80
   7  -5   6   52.99   12.10
  -8   5  -6   42.30    5.60
   8  -5   6   29.60   12.00
  -9   5  -6    0.70    4.40
   9  -5   6   -7.30   10.40
 -10   5  -6    8.30    5.50
  10  -5   6   -8.20   10.90
 -11   5  -6    3.10    5.70
  11  -5   6    7.90   13.30
 -12   5  -6   -4.30   10.20
  12  -5   6  -15.00   13.00
  11   4  -6    4.80   10.60
  11   4  -6   12.90    4.50
  10   4  -6    2.50    3.90
  10   4  -6   20.80   10.80
   9   4  -6   38.90    4.90
   9   4  -6   33.70   11.00
   8   4  -6   -4.00    3.10
   8   4  -6    0.20    7.90
   7   4  -6   28.60    3.80
   7   4  -6   34.50    9.20
  -7  -4   6   18.80    3.40
   6   4  -6   10.60    7.30
   6   4  -6   10.60    3.10
  -6  -4   6   12.50    2.90
   5   4  -6   70.29   12.30
   5   4  -6   86.19    6.00
  -5  -4   6   88.89    6.20
   4   4  -6   78.19    5.10
   4   4  -6   58.49    8.70
  -4  -4   6   62.89    4.90
   3   4  -6   52.99    4.10
   3   4  -6   47.40    4.50
   3   4  -6   29.70    8.20
   3   4  -6   46.40    7.70
  -3  -4   6   46.00    3.90
   2   4  -6  269.67   13.90
   2   4  -6  284.77   17.50
   2   4  -6  258.87   19.10
   2   4  -6  272.17   14.20
  -2  -4   6  275.37   14.00
   1   4  -6  703.83   39.50
   1   4  -6  709.13   34.30
  -1  -4   6  697.33   34.20
  -1  -4   6  704.33   39.10
   0   4  -6   38.10    3.30
   0   4  -6   26.10    7.10
   0  -4   6   30.90    3.00
   0  -4   6   34.80    7.80
  -1   4  -6   97.39   10.80
  -1   4  -6  109.19    6.50
   1  -4   6  106.89   11.30
   1  -4   6  104.69    6.20
  -2   4  -6  115.49   11.70
  -2   4  -6  117.29    7.10
   2  -4   6  131.39   12.30
  -3   4  -6   94.19    6.60
  -3   4  -6  115.09   12.50
  -3   4  -6   94.69    6.40
   3  -4   6  107.69   12.70
  -4   4  -6  263.07   14.30
  -4   4  -6  280.37   14.00
  -4   4  -6  245.38   18.60
   4  -4   6  263.67   19.50
  -5   4  -6  510.75   30.90
  -5   4  -6  531.15   26.20
   5  -4   6  519.25   31.90
   6  -4   6   29.40    8.90
  -7   4  -6   64.09    6.20
   7  -4   6   66.29   12.70
   8  -4   6   -3.70    8.50
   8  -4   6    1.70    4.20
   9  -4   6    1.30    9.30
   9  -4   6    4.80    4.80
  10  -4   6   -2.00   10.30
  10  -4   6    1.10    5.00
  11  -4   6    8.40    6.20
  11  -4   6   -3.40   11.20
  12  -4   6   40.30   15.20
  12  -4   6   34.30    7.40
  13  -4   6   -3.70   13.30
  13  -4   6    2.00    6.90
  11   3  -6    5.30    4.20
  11   3  -6    8.20   11.00
  10   3  -6    4.40    3.80
  10   3  -6   -4.90    8.70
   9   3  -6   60.39    5.20
   9   3  -6   45.00   11.50
   8   3  -6   -6.20    7.90
   8   3  -6    2.10    2.90
  -8  -3   6    4.40    2.90
   7   3  -6   -0.30    7.60
   7   3  -6   -2.20    2.80
  -7  -3   6   -5.20    2.60
   6   3  -6   88.69   13.20
   6   3  -6   94.79    5.90
  -6  -3   6   71.79    5.60
   5   3  -6    7.00    2.20
   5   3  -6    9.20    5.90
  -5  -3   6    3.10    2.00
   4   3  -6  555.24   27.60
   4   3  -6  563.94   33.30
   4   3  -6  561.74   31.40
  -4  -3   6  581.14   27.70
   3   3  -6  286.17   18.20
   3   3  -6  272.77   19.80
   3   3  -6  302.87   14.60
  -3  -3   6  288.07   14.60
   2   3  -6  134.39   10.60
   2   3  -6  135.89   12.40
   2   3  -6  136.49    7.50
   2   3  -6  141.49    7.80
  -2  -3   6  132.79    7.40
   1   3  -6  184.58    9.40
   1   3  -6  176.18   14.10
  -1  -3   6  185.28   14.10
  -1  -3   6  176.88    9.40
   0   3  -6  253.57   17.60
   0   3  -6  256.27   13.20
   0  -3   6  257.47   17.60
   0  -3   6  268.07   13.10
  -1   3  -6   -0.60    2.20
  -1   3  -6   -2.40    4.40
  -1   3  -6    2.80    2.10
   1  -3   6    6.80    5.50
  -2   3  -6  210.98   14.80
  -2   3  -6  199.98   10.70
  -2   3  -6  191.18   10.40
   2  -3   6  189.58   14.70
  -3   3  -6  166.48   13.40
  -3   3  -6  180.88   10.00
  -3   3  -6  182.88    9.60
   3  -3   6  177.98   14.10
  -4   3  -6   97.29    6.60
  -4   3  -6   96.99   10.40
  -4   3  -6   99.59    6.30
   4  -3   6  118.09   11.50
  -5   3  -6  158.38    9.20
   5  -3   6  159.38    9.70
   5  -3   6  154.28   14.40
  -6   3  -6  140.59   13.60
   6  -3   6  149.19   15.10
   6  -3   6  167.68    9.90
  -7   3  -6   87.49   11.90
   7  -3   6   89.59    7.70
   7  -3   6  119.89   14.20
   8  -3   6   79.89    7.40
   8  -3   6   65.99   12.90
   9  -3   6   -4.40    3.90
   9  -3   6   18.20   17.50
  10  -3   6    2.50    4.80
  10  -3   6    4.70    9.80
  11  -3   6   50.59    7.30
  11  -3   6   57.99   13.80
  12  -3   6   -5.20   11.50
  12  -3   6   11.50    6.40
  13  -3   6   -4.20    7.00
  13  -3   6   -8.90   13.60
  11   2  -6    8.30   11.50
  11   2  -6   -3.90    4.00
  10   2  -6   10.20    3.70
  10   2  -6   16.80   11.00
   9   2  -6   17.20    9.90
   9   2  -6    6.70    3.30
  -9  -2   6   -2.10    3.00
   8   2  -6    0.70    2.80
   8   2  -6   -2.00    7.40
  -8  -2   6    3.20    2.90
   7   2  -6   18.80    8.00
   7   2  -6   19.00    2.90
  -7  -2   6   19.30    2.90
   6   2  -6   14.10    6.30
   6   2  -6   -3.30    2.20
  -6  -2   6    2.80    2.10
   5   2  -6  241.78   16.70
   5   2  -6  242.98   12.10
  -5  -2   6  243.08   18.70
  -5  -2   6  229.78   12.10
  -5  -2   6  232.58   13.40
   4   2  -6  428.26   27.70
   4   2  -6  447.56   26.50
   4   2  -6  488.05   22.80
  -4  -2   6  474.85   22.80
   3   2  -6   45.90    8.90
   3   2  -6   52.39    7.30
   3   2  -6   46.60    3.40
  -3  -2   6   40.40    3.30
   2   2  -6   13.30    5.00
   2   2  -6   14.90    1.90
   2   2  -6   14.70    6.00
  -2  -2   6    9.50    1.80
   1   2  -6  135.49   11.70
   1   2  -6  139.19    7.80
   1   2  -6  142.39    7.40
   1   2  -6  139.29   10.30
  -1  -2   6  140.89    7.40
   0   2  -6  267.77   17.20
   0   2  -6  263.57   13.20
   0  -2   6  260.77   13.10
   0  -2   6  263.07   17.10
  -1   2  -6   78.49    5.10
  -1   2  -6   73.39    4.80
  -1   2  -6   91.09    8.80
   1  -2   6   92.39   10.40
  -2   2  -6  559.24   27.40
  -2   2  -6  572.04   31.00
  -2   2  -6  578.84   27.60
   2  -2   6  531.05   30.80
  -3   2  -6  330.27   20.00
  -3   2  -6  330.37   16.70
   3  -2   6  329.07   16.90
   3  -2   6  319.37   20.20
  -4   2  -6  198.68   10.80
  -4   2  -6  200.68   14.20
   4  -2   6  194.78   11.00
   4  -2   6  205.38   14.60
  -5   2  -6  368.26   19.20
  -5   2  -6  375.56   22.60
   5  -2   6  383.66   19.50
   5  -2   6  390.06   23.50
  -6   2  -6   93.59   10.40
  -6   2  -6   98.79    6.80
   6  -2   6  104.69    7.20
   6  -2   6  128.09   13.40
  -7   2  -6  204.48   17.80
   7  -2   6  244.68   18.20
  -8   2  -6   14.60    6.80
   8  -2   6   14.70    4.20
   8  -2   6   21.30    8.40
   9  -2   6   -2.90    8.20
   9  -2   6    2.50    4.50
  10  -2   6   -5.00    8.80
  10  -2   6   -3.70    4.40
  11  -2   6    2.40   10.40
  11  -2   6    1.40    5.10
  12  -2   6   -6.10   10.90
  12  -2   6   -6.70    5.50
  13  -2   6   20.10   13.20
  13  -2   6   -0.60    7.80
  12   1  -6    3.70    4.50
  12   1  -6    4.20   11.90
  11   1  -6   11.90   11.20
  10   1  -6    2.60    3.70
  10   1  -6  -12.70    8.70
 -10  -1   6   -1.40    3.40
   9   1  -6   49.40   11.60
   9   1  -6   49.50    4.50
  -9  -1   6   38.50    4.20
   8   1  -6    7.00    8.00
   8   1  -6   11.90    2.90
  -8  -1   6    2.70    2.50
   7   1  -6   61.89   10.20
   7   1  -6   51.99    4.50
  -7  -1   6   53.19    4.40
   6   1  -6  254.77   12.90
   6   1  -6  266.47   18.20
  -6  -1   6  246.78   12.80
   5   1  -6  123.29    6.50
   5   1  -6  124.69   11.40
  -5  -1   6  120.59    6.50
  -5  -1   6  117.09    7.20
  -5  -1   6  100.69   10.40
   4   1  -6   86.69    9.70
   4   1  -6  102.99    5.40
  -4  -1   6   96.09    5.40
  -4  -1   6   94.59    6.10
  -4  -1   6   97.49    9.20
   3   1  -6    7.90    4.80
   3   1  -6   18.50    3.00
  -3  -1   6   10.00    1.60
  -3  -1   6    6.20    4.30
  -3  -1   6   16.10    2.50
   2   1  -6  897.91   46.60
   2   1  -6  932.21   48.10
   2   1  -6  935.81   44.20
  -2  -1   6  906.71   44.00
   1   1  -6  318.47   18.40
   1   1  -6  329.17   19.80
  -1  -1   6  328.17   15.90
   0   1  -6   50.79    3.70
   0   1  -6   47.10    3.60
   0   1  -6   49.90    3.40
   0   1  -6   58.69    7.60
   0   1  -6   55.99    6.10
  -1   1  -6   78.79    7.80
  -1   1  -6   80.09    4.60
  -1   1  -6   78.99    4.80
   1  -1   6   80.79    8.80
  -2   1  -6  152.08   10.80
  -2   1  -6  146.59    8.00
   2  -1   6  145.89    8.20
   2  -1   6  146.39   10.90
  -3   1  -6  190.88    9.80
  -3   1  -6  172.28   12.40
   3  -1   6  185.88    9.90
   3  -1   6  175.28   12.80
  -4   1  -6   12.20    5.00
  -4   1  -6   11.60    2.60
   4  -1   6   16.40    5.30
   4  -1   6   15.40    3.10
  -5   1  -6  568.54   30.60
   5  -1   6  562.74   27.90
   5  -1   6  553.44   31.00
  -6   1  -6  367.76   18.50
  -6   1  -6  360.06   21.50
   6  -1   6  378.26   22.60
   6  -1   6  350.36   18.70
  -7   1  -6   96.49   10.40
   7  -1   6   84.39   10.70
   7  -1   6   76.79    6.60
  -8   1  -6   34.10    7.30
   8  -1   6   30.20    8.50
   8  -1   6   31.30    4.40
  -9   1  -6   12.90    6.10
   9  -1   6    0.40    7.00
   9  -1   6   -3.50    3.70
 -10   1  -6   70.39   13.10
  10  -1   6   66.69    6.90
  10  -1   6   66.29   13.30
  11  -1   6   99.99   15.80
  11  -1   6   98.29    9.20
  12  -1   6    0.90    5.60
  12  -1   6   -2.10    9.70
  13  -1   6   27.60   13.30
  13  -1   6   15.00    6.70
  12   0  -6   -2.60    4.50
  12   0  -6   19.80   12.80
  11   0  -6   15.60    4.30
  11   0  -6    7.30   10.70
  10   0  -6   65.89   13.30
  10   0  -6   90.09    6.60
 -10   0   6   51.59    5.20
   9   0  -6    4.40    9.30
   9   0  -6    7.90    3.30
  -9   0   6    4.70    3.10
   8   0  -6   27.50    3.60
   8   0  -6   34.30   10.20
  -8   0   6   20.00    3.10
   7   0  -6   81.69   12.20
   7   0  -6   97.99    6.00
  -7   0   6   95.39    5.90
   6   0  -6   53.09    3.90
   6   0  -6   47.70    8.80
  -6   0   6   53.89    3.70
   5   0  -6   77.09    9.70
   5   0  -6   71.79    4.40
  -5   0   6   76.89    4.40
  -5   0   6   80.79    8.60
   4   0  -6    1.20    4.30
   4   0  -6    1.40    1.20
  -4   0   6    2.30    1.30
  -4   0   6    0.50    4.10
   3   0  -6  335.87   19.90
   3   0  -6  335.07   16.20
  -3   0   6  335.77   16.20
  -3   0   6  333.37   19.50
   2   0  -6 1800.32   88.69
   2   0  -6 1818.92   86.09
  -2   0   6 1773.32   88.59
  -2   0   6 1836.62   86.59
  -2   0   6 1797.22   86.09
   1   0  -6  316.47   15.80
   1   0  -6  337.77   15.90
   1   0  -6  305.07   18.10
  -1   0   6  334.17   18.20
  -1   0   6  336.87   16.30
   0   0  -6   57.39    3.30
   0   0  -6   50.39    6.70
   0   0  -6   56.99    5.80
  -1   0  -6 2609.34  123.69
  -1   0  -6 2600.84  126.09
   1   0   6 2563.04  123.69
  -2   0  -6   57.49    4.00
  -2   0  -6   72.59    6.90
   2   0   6   60.99    4.40
   2   0   6   67.49    6.80
  -3   0  -6  324.07   19.10
  -3   0  -6  341.77   16.90
   3   0   6  347.07   17.00
   3   0   6  341.27   19.10
  -4   0  -6  918.91   44.70
  -4   0  -6  947.31   46.80
   4   0   6  916.31   44.80
   4   0   6  913.61   46.80
  -5   0  -6  158.88    9.00
  -5   0  -6  161.18   11.20
   5   0   6  171.48   11.90
   5   0   6  165.98    9.20
  -6   0  -6   11.70    4.20
  -6   0  -6    6.20    2.30
   6   0   6    6.10    2.60
   6   0   6    8.90    4.80
  -7   0  -6   30.90    6.00
   7   0   6   35.50    7.10
   7   0   6   21.90    3.50
  -8   0  -6   31.30    6.30
   8   0   6   31.00    5.10
   8   0   6   46.10    8.70
  -9   0  -6   15.00    5.50
   9   0   6   13.80    4.20
   9   0   6   12.40    7.60
 -10   0  -6   26.00    7.20
  10   0   6   23.40    5.10
  10   0   6   41.30    9.80
 -11   0  -6   -0.10    8.90
  11   0   6   -1.90    4.80
  11   0   6    4.60    8.30
  12   0   6   34.80    6.40
  12   0   6   26.70   13.30
  13   0   6   23.20    6.80
  13   0   6   -1.90   11.10
  12  -1  -6    1.30   12.70
  12  -1  -6   -1.20    5.60
  11  -1  -6   57.39    5.90
  11  -1  -6   57.79   14.40
  10  -1  -6    8.10    9.70
  10  -1  -6   -0.10    3.60
 -10   1   6   -4.00    3.30
   9  -1  -6    0.60    3.10
   9  -1  -6  -10.00    8.10
  -9   1   6   -5.40    2.70
   8  -1  -6   58.49   11.80
   8  -1  -6   44.00    4.00
  -8   1   6   44.80    3.90
   7  -1  -6   20.00    8.50
   7  -1  -6   18.10    2.70
  -7   1   6   18.80    2.60
   6  -1  -6  152.48    8.10
   6  -1  -6  153.98   13.80
  -6   1   6  157.58    8.10
   5  -1  -6   99.09   11.20
   5  -1  -6  119.89    6.20
  -5   1   6  117.49    6.90
  -5   1   6  119.59   10.40
   4  -1  -6  113.19   10.40
   4  -1  -6  111.79    5.90
  -4   1   6  121.09    5.90
   3  -1  -6  115.09   10.10
  -3   1   6  116.59    9.50
   2  -1  -6  307.67   18.00
  -2   1   6  315.37   17.70
   1  -1  -6    8.40    1.00
   1  -1  -6   15.70    4.10
   1  -1  -6   10.10    1.00
  -1   1   6   14.60    3.90
   0  -1  -6 1109.19   53.09
   0  -1  -6 1090.29   54.79
   0   1   6 1138.79   54.89
   0   1   6 1113.19   53.39
   0   1   6 1108.09   53.19
  -1  -1  -6  264.47   13.20
  -1  -1  -6  260.97   14.70
  -1  -1  -6  282.47   15.70
   1   1   6  266.47   13.30
  -2  -1  -6  807.62   39.60
  -2  -1  -6  775.52   37.80
   2   1   6  772.72   37.90
  -3  -1  -6  858.81   41.50
   3   1   6  864.61   41.60
   3   1   6  853.21   42.90
  -4  -1  -6  241.48   14.20
  -4  -1  -6  202.48   11.00
   4   1   6  209.68   12.60
   4   1   6  207.88   11.20
  -5  -1  -6   40.80    3.70
  -5  -1  -6   54.89    5.90
   5   1   6   40.50    3.90
  -6  -1  -6    3.70    3.60
  -6  -1  -6    4.40    2.10
   6   1   6    6.30    2.60
   6   1   6    6.30    4.10
  -7  -1  -6   72.29    7.40
   7   1   6   63.79    5.70
   7   1   6   78.19    8.70
  -8  -1  -6  246.68   15.60
   8   1   6  259.37   17.20
  -9  -1  -6    1.60    4.70
   9   1   6    0.60    3.40
   9   1   6   -1.00    6.20
 -10  -1  -6   10.80    6.20
  10   1   6   26.50    5.00
  10   1   6   20.70    8.20
 -11  -1  -6    4.80    6.50
  11   1   6    4.80    4.70
  11   1   6    8.80    8.10
  12   1   6   34.50   10.80
  12   1   6   30.60    6.30
  13   1   6   26.60    6.70
  12  -2  -6  -13.10   12.10
  11  -2  -6   -2.00   11.20
  11  -2  -6   -1.50    4.20
 -11   2   6  -10.00    3.80
  10  -2  -6   -0.50   10.20
  10  -2  -6    5.50    3.70
 -10   2   6   -7.70    3.50
   9  -2  -6   20.60   10.20
   9  -2  -6   22.40    3.60
  -9   2   6   16.50    3.30
   8  -2  -6   26.80    3.50
   8  -2  -6   25.90    9.70
  -8   2   6   22.40    3.10
   7  -2  -6  134.79    7.40
   7  -2  -6  130.39   14.30
  -7   2   6  119.09    7.10
   6  -2  -6  122.59    7.00
   6  -2  -6  134.09   13.20
  -6   2   6  132.79    6.80
   5  -2  -6   90.69    5.00
   5  -2  -6   85.49   10.60
  -5   2   6   93.89    9.60
  -5   2   6   91.59    4.90
   4  -2  -6  443.86   26.50
  -4   2   6  482.65   22.50
   3  -2  -6    2.70    4.50
  -3   2   6    5.90    4.10
   2  -2  -6  143.29   10.60
  -2   2   6  143.39   10.10
   1  -2  -6  507.05   24.40
   1  -2  -6  511.65   26.90
  -1   2   6  507.05   24.50
  -1   2   6  524.45   26.80
   0  -2  -6  351.66   16.60
   0  -2  -6  343.77   18.70
   0   2   6  345.37   16.60
   0   2   6  324.07   18.30
  -1  -2  -6  809.12   38.40
  -1  -2  -6  828.52   39.70
   1   2   6  778.82   38.40
   1   2   6  817.32   38.50
   1   2   6  767.32   39.50
  -2  -2  -6  316.67   16.60
  -2  -2  -6  306.07   15.30
  -2  -2  -6  310.37   16.10
   2   2   6  304.87   15.30
  -3  -2  -6  371.16   19.10
  -3  -2  -6  366.46   18.20
  -3  -2  -6  366.66   17.80
  -3  -2  -6  370.46   18.50
   3   2   6  373.36   18.30
  -4  -2  -6   10.20    2.70
  -4  -2  -6    6.60    1.90
   4   2   6    5.80    2.10
   4   2   6    6.80    2.50
  -5  -2  -6  540.95   26.60
  -5  -2  -6  530.65   27.10
   5   2   6  549.35   26.80
   5   2   6  544.55   27.40
  -6  -2  -6    9.60    2.40
  -6  -2  -6   17.70    5.80
   6   2   6   11.70    3.70
   6   2   6   12.90    2.70
  -7  -2  -6  247.18   14.30
   7   2   6  250.77   13.50
   7   2   6  254.07   15.30
  -8  -2  -6   91.79    8.20
   8   2   6   97.49    9.40
   8   2   6   94.89    8.30
  -9  -2  -6    1.30    4.50
   9   2   6    0.50    3.40
   9   2   6    1.10    5.50
 -10  -2  -6   -1.00    5.10
  10   2   6   12.00    6.70
  10   2   6    5.10    4.20
 -11  -2  -6    3.90    6.20
  11   2   6    0.40    6.80
  11   2   6   -5.00    4.20
 -12  -2  -6   15.70    7.90
  12   2   6   41.10   10.10
  12   2   6   46.50    6.80
  13   2   6    3.70    5.60
  13   2   6    1.70    9.00
  12  -3  -6    1.10   15.90
  11  -3  -6   -3.00    4.40
  11  -3  -6   -9.90   11.00
  10  -3  -6    8.80   11.10
  10  -3  -6   16.00    4.20
 -10   3   6   -1.30    3.70
   9  -3  -6   45.90   12.00
   9  -3  -6   44.30    4.60
  -9   3   6   36.10    4.00
   8  -3  -6   16.70    3.40
   8  -3  -6    7.40    9.60
  -8   3   6   11.80    2.90
   7  -3  -6   66.09   11.60
  -7   3   6   64.09    4.70
   6  -3  -6  160.18   14.20
  -6   3   6  133.39    7.30
   5  -3  -6  198.88   15.30
  -5   3   6  205.18    9.70
  -5   3   6  169.28   13.90
  -5   3   6  191.58    9.90
   4  -3  -6  545.85   30.60
  -4   3   6  558.34   26.20
  -4   3   6  523.35   30.60
  -4   3   6  547.25   26.20
   3  -3  -6  157.38   12.40
  -3   3   6  139.99   11.50
  -3   3   6  161.18    7.60
   2  -3  -6  625.24   33.40
  -2   3   6  650.33   30.30
  -2   3   6  620.94   33.00
   1  -3  -6  658.63   32.10
   1  -3  -6  686.13   34.60
  -1   3   6  650.33   34.10
  -1   3   6  684.73   32.10
   0  -3  -6   16.80    3.90
   0  -3  -6   19.10    1.70
   0   3   6   15.80    1.60
   0   3   6   19.10    3.80
  -1  -3  -6  177.58   10.40
  -1  -3  -6  179.48    9.00
   1   3   6  181.18    9.10
   1   3   6  174.68   12.10
  -2  -3  -6    6.30    1.60
  -2  -3  -6    5.40    2.40
   2   3   6    9.20    2.10
   2   3   6    5.50    1.70
  -3  -3  -6   79.89    4.80
  -3  -3  -6   74.79    4.60
  -3  -3  -6   71.29    4.50
   3   3   6   66.99    4.70
  -4  -3  -6  676.53   32.50
   4   3   6  657.03   32.50
  -5  -3  -6  168.28    9.00
   5   3   6  161.78    9.10
  -6  -3  -6  629.84   32.50
  -6  -3  -6  673.63   32.40
   6   3   6  679.43   32.70
   6   3   6  664.03   32.60
  -7  -3  -6    0.70    2.70
   7   3   6   -4.40    3.00
   7   3   6   -2.80    2.40
  -8  -3  -6   32.10    4.60
   8   3   6   23.00    8.60
   8   3   6   20.10    3.80
  -9  -3  -6   -1.90    3.90
   9   3   6    0.90    4.80
   9   3   6   -2.30    3.40
 -10  -3  -6    9.70    5.40
  10   3   6    6.50    6.10
  10   3   6   -0.20    3.90
 -11  -3  -6   42.50    8.60
  11   3   6   98.19   11.20
  11   3   6   70.79    7.00
 -12  -3  -6   14.60    9.80
  12   3   6   26.00    8.70
  12   3   6   28.70    5.90
 -13  -3  -6   -6.10    7.90
  13   3   6   -1.20    5.50
  13   3   6    8.80    8.80
  12  -4  -6    8.50   17.00
 -12   4   6   11.70    6.10
  11  -4  -6   -7.50   12.00
 -11   4   6    7.20    4.20
 -11   4   6  -11.00    4.70
  10  -4  -6   -5.80   10.80
 -10   4   6   10.80    3.80
 -10   4   6   10.40    3.50
   9  -4  -6  -19.90    9.00
  -9   4   6   -1.30    2.90
  -9   4   6    1.20    3.00
   8  -4  -6    9.30    8.80
  -8   4   6   10.60    2.60
  -8   4   6   10.50    2.70
   7  -4  -6    0.60    8.00
  -7   4   6   -3.40    1.90
  -7   4   6    0.40    2.20
   6  -4  -6   96.19   12.60
  -6   4   6   97.99    5.50
  -6   4   6   90.99    5.50
   5  -4  -6  324.47   21.00
  -5   4   6  289.47   19.80
  -5   4   6  314.07   15.30
   4  -4  -6  213.48   15.70
  -4   4   6  208.38   14.70
  -4   4   6  212.28   10.70
   3  -4  -6  227.38   15.40
  -3   4   6  221.98   14.60
  -3   4   6  219.68   11.00
  -3   4   6  220.08   10.90
   2  -4  -6  432.06   23.90
   2  -4  -6  421.56   20.30
  -2   4   6  417.36   20.30
  -2   4   6  419.06   23.40
   1  -4  -6  249.08   15.50
   1  -4  -6  256.27   12.70
  -1   4   6  258.27   12.60
  -1   4   6  258.57   15.10
   0  -4  -6  250.87   14.60
   0  -4  -6  248.78   12.30
   0   4   6  244.98   14.20
  -1  -4  -6  151.88    7.90
  -1  -4  -6  160.58    9.80
   1   4   6  145.29    9.10
   1   4   6  150.58    7.90
  -2  -4  -6   39.70    4.10
  -2  -4  -6   36.10    2.90
   2   4   6   36.00    3.00
   2   4   6   36.70    3.70
  -3  -4  -6 1078.59   51.99
   3   4   6 1081.39   51.99
  -4  -4  -6  136.99    7.60
   4   4   6  130.19    7.70
  -5  -4  -6  126.39    7.40
   5   4   6  134.09    7.70
  -6  -4  -6   -1.40    2.00
   6   4   6    1.20    2.30
   7   4   6  428.76   21.80
   8   4   6    3.80    3.30
   8   4   6    4.30    3.60
  -9  -4  -6   19.80    4.60
   9   4   6   28.60    7.30
   9   4   6   10.70    4.30
 -10  -4  -6   22.30    5.40
  10   4   6   10.60    5.60
  10   4   6   21.40    4.70
 -11  -4  -6   57.39    7.90
  11   4   6   48.80    6.30
  11   4   6   50.19    8.30
 -12  -4  -6    1.70    2.80
 -12  -4  -6    4.50    5.50
  12   4   6   10.40    7.00
  12   4   6   -3.50    4.80
 -13  -4  -6    2.30    3.90
 -13  -4  -6    8.90    8.70
  13   4   6   -1.60    7.30
  12  -5  -6  -14.10   13.40
 -12   5   6   13.50    8.70
  11  -5  -6  -13.30   11.40
 -11   5   6    0.80    4.20
  10  -5  -6   -8.30   11.20
 -10   5   6    2.50    3.70
 -10   5   6    3.50    3.70
   9  -5  -6    3.00    9.80
  -9   5   6    5.50    5.00
  -9   5   6    8.30    3.10
   8  -5  -6    2.00    9.10
  -8   5   6    7.70    2.70
  -8   5   6    0.80    2.70
   7  -5  -6   -0.70    7.70
  -7   5   6   -0.10    2.20
  -7   5   6    4.10    2.40
   6  -5  -6   68.29   11.30
  -6   5   6   84.19    5.10
  -6   5   6   77.89    5.10
   5  -5  -6  212.88   17.70
  -5   5   6  245.28   12.20
  -5   5   6  248.08   12.20
   4  -5  -6  117.09   12.10
  -4   5   6  120.39   11.10
  -4   5   6  119.89    6.40
  -4   5   6  117.39    6.60
   3  -5  -6  168.48   13.80
   3  -5  -6  182.78    9.10
  -3   5   6  180.98    9.20
  -3   5   6  193.18   15.10
   2  -5  -6  319.07   19.80
   2  -5  -6  325.07   15.80
  -2   5   6  314.87   19.20
  -2   5   6  320.57   15.80
   1  -5  -6  140.89    7.20
   1  -5  -6  136.59   10.80
  -1   5   6  137.39    7.20
  -1   5   6  126.09   10.00
   0  -5  -6  277.97   16.70
   0  -5  -6  289.37   14.10
   0   5   6  284.27   16.20
   0   5   6  279.57   14.00
  -1  -5  -6  190.28   11.90
  -1  -5  -6  192.08    9.70
   1   5   6  186.18    9.70
   1   5   6  179.28   11.20
  -2  -5  -6  696.13   33.10
  -2  -5  -6  698.03   34.20
   2   5   6  670.73   33.70
   2   5   6  660.53   33.00
  -3  -5  -6  578.54   27.80
  -3  -5  -6  561.54   27.50
   3   5   6  549.95   27.40
   3   5   6  551.34   27.50
  -4  -5  -6    0.20    2.00
   4   5   6   -1.90    2.00
  -5  -5  -6    1.60    2.10
   5   5   6    2.80    2.40
   6   5   6  543.05   27.00
   8   5   6   42.30    4.80
   9   5   6    0.30    3.70
   9   5   6    1.70    3.90
  10   5   6   -4.50    4.00
  10   5   6    5.80    5.70
  10   5   6   -2.80    3.90
  11   5   6   -4.40    4.50
  11   5   6    2.00    5.40
  11   5   6   -4.00    4.40
  12   5   6    0.00    5.20
  12   5   6    1.80    5.60
  12   5   6   -4.50    5.90
  13   5   6   21.50    7.70
  13   5   6    1.60    6.50
  13   5   6   13.80    5.80
  11  -6  -6  -23.40   12.80
 -11   6   6    0.80    4.50
  10  -6  -6    9.00   12.10
 -10   6   6    8.40    4.10
 -10   6   6   11.30    4.50
   9  -6  -6    4.70   10.40
  -9   6   6   17.40    3.90
  -9   6   6   16.90    3.70
   8  -6  -6    2.10   10.30
  -8   6   6    0.50    2.90
  -8   6   6    4.60    3.00
   7  -6  -6   55.49   12.20
  -7   6   6   80.49    5.60
  -7   6   6   63.09    5.50
   6  -6  -6  208.48   18.70
  -6   6   6  189.28   11.00
  -6   6   6  220.88   10.90
   5  -6  -6    8.70    7.00
  -5   6   6    7.10    2.20
  -5   6   6    7.80    2.20
   4  -6  -6   56.09    9.30
  -4   6   6   46.00    4.20
  -4   6   6   48.80    3.90
  -4   6   6   51.79    8.50
   3  -6  -6  574.34   33.10
   3  -6  -6  586.74   28.20
  -3   6   6  588.54   28.30
  -3   6   6  570.74   32.20
   2  -6  -6  449.26   21.40
   2  -6  -6  443.26   25.70
  -2   6   6  421.66   21.30
  -2   6   6  429.96   24.80
   1  -6  -6    0.40    4.50
   1  -6  -6   -1.00    1.50
  -1   6   6    3.60    4.20
  -1   6   6    0.80    1.60
   0  -6  -6   11.80    5.50
   0  -6  -6   10.40    2.00
   0   6   6   11.70    4.50
   0   6   6   12.40    2.10
  -1  -6  -6   10.10    4.40
  -1  -6  -6    9.10    2.00
   1   6   6    4.40    3.50
   1   6   6    8.10    2.10
  -2  -6  -6  220.58   13.70
  -2  -6  -6  196.28   10.20
   2   6   6  185.98   11.50
   2   6   6  184.88   10.20
  -3  -6  -6    4.70    2.90
  -3  -6  -6    1.10    1.90
   3   6   6    3.10    2.20
   3   6   6   -0.90    2.40
  -4  -6  -6  140.89    8.20
   4   6   6  147.89    8.40
   4   6   6  151.08    8.10
  -5  -6  -6  882.61   43.30
   5   6   6  895.61   43.40
   6   6   6   79.89    6.10
   7   6   6   45.50    4.70
   8   6   6   12.90    3.90
   9   6   6   94.49    7.90
   9   6   6   99.99    7.40
  10   6   6   46.70    6.70
  10   6   6   35.90    5.70
  11   6   6   11.50    5.30
  11   6   6   14.70    5.30
  11   6   6   11.10    6.60
  12   6   6    5.00    5.60
  12   6   6    4.90    5.20
  12   6   6    3.20    5.30
  13   6   6   30.70    6.50
  13   6   6   22.40    7.10
  11  -7  -6   40.20   15.70
 -11   7   6   16.00    5.60
  10  -7  -6   -2.50   12.40
 -10   7   6    1.50    4.40
   9  -7  -6    5.20   11.80
  -9   7   6    2.40    3.70
  -9   7   6    6.80    3.70
   8  -7  -6    4.60   10.50
  -8   7   6    3.00    3.20
  -8   7   6    8.00    3.40
   7  -7  -6  131.79   18.20
  -7   7   6  139.39   10.70
  -7   7   6  180.58    9.40
   6  -7  -6    4.30    8.50
  -6   7   6   -3.30    2.50
  -6   7   6   -3.40    2.80
   5  -7  -6   21.00    8.70
  -5   7   6   14.40    2.60
  -5   7   6   15.40    2.90
   4  -7  -6   90.99   13.20
  -4   7   6  132.49    7.20
   3  -7  -6  405.46   26.30
   3  -7  -6  417.66   20.50
  -3   7   6  395.86   25.00
  -3   7   6  430.76   20.60
   2  -7  -6   32.50    3.20
   2  -7  -6   40.50    8.40
  -2   7   6   40.00    7.30
  -2   7   6   39.60    3.30
   1  -7  -6    9.10    5.90
   1  -7  -6   12.90    2.20
  -1   7   6   15.30    5.10
  -1   7   6   13.40    2.30
   0  -7  -6  276.47   21.30
   0  -7  -6  272.97   13.90
   0   7   6  272.07   13.90
   0   7   6  271.77   16.90
  -1  -7  -6  178.18    9.50
  -1  -7  -6  167.98   12.60
   1   7   6  177.58    9.50
   1   7   6  176.28   11.90
  -2  -7  -6  146.89   10.70
   2   7   6  138.89    8.20
   2   7   6  147.69   10.00
  -3  -7  -6  111.19    6.70
  -3  -7  -6  118.89    8.80
   3   7   6  113.79    6.90
   3   7   6   97.59    8.10
  -4  -7  -6  478.35   25.20
  -4  -7  -6  477.45   24.20
   4   7   6  483.25   24.20
   4   7   6  503.35   25.80
   5   7   6   72.69    4.90
   5   7   6   63.99    5.50
   5   7   6   77.69    5.80
   6   7   6   12.10    3.20
   7   7   6    5.10    3.40
   8   7   6  144.89    9.60
   9   7   6   23.70    5.00
  10   7   6    9.40    4.60
  11   7   6   -2.70    5.00
  11   7   6    8.60    5.40
  12   7   6   26.40    6.80
  11  -8  -6   30.60   16.60
 -11   8   6    9.10    5.50
  10  -8  -6    1.60   13.90
 -10   8   6    6.50    4.90
   9  -8  -6  -11.00   10.90
  -9   8   6   23.70    4.50
   8  -8  -6    5.30   10.80
  -8   8   6   21.50    4.10
  -8   8   6   25.70    5.10
   7  -8  -6  -11.70    8.80
  -7   8   6    0.30    3.30
  -7   8   6    1.80    3.70
   6  -8  -6   34.30   11.50
  -6   8   6   30.50    4.00
  -6   8   6   26.80    4.20
   5  -8  -6  158.88   17.70
  -5   8   6  173.08    9.60
   4  -8  -6   84.29    5.50
   4  -8  -6   65.69   15.20
  -4   8   6   88.29    5.90
   3  -8  -6   -4.60    6.00
   3  -8  -6    1.30    2.10
  -3   8   6    1.40    2.30
   2  -8  -6   13.90    2.60
   2  -8  -6   20.50    7.30
  -2   8   6   20.70    6.50
  -2   8   6   20.90    2.90
   1  -8  -6  260.27   18.70
   1  -8  -6  256.77   13.60
  -1   8   6  263.67   13.60
  -1   8   6  278.07   18.80
   0  -8  -6  295.97   19.70
   0   8   6  294.47   18.70
   0   8   6  312.07   15.50
  -1  -8  -6   94.59    6.10
  -1  -8  -6   88.89   10.00
   1   8   6  103.29    9.30
   1   8   6  100.49    6.30
  -2  -8  -6  254.87   13.80
  -2  -8  -6  266.07   16.90
   2   8   6  267.47   13.80
   2   8   6  273.07   16.30
  -3  -8  -6  219.78   14.00
   3   8   6  197.88   13.50
   3   8   6  217.38   11.50
  -4  -8  -6   26.50    5.10
   4   8   6   31.70    5.20
   4   8   6   22.50    3.40
   5   8   6   -0.30    2.80
   5   8   6   -1.10    3.30
   6   8   6  105.39    7.00
   6   8   6   93.99   11.20
   6   8   6  105.89    7.60
   7   8   6  192.68   11.30
   7   8   6  177.18   10.50
   7   8   6  191.48   11.40
   8   8   6   -0.10    3.80
   9   8   6   21.00    4.90
  10   8   6    8.90    4.90
  11   8   6   22.50    5.80
  12   8   6   11.70    5.90
  10  -9  -6   25.20   15.50
 -10   9   6    4.80    5.30
   9  -9  -6   22.50   15.30
  -9   9   6   34.00    5.80
   8  -9  -6    0.80   11.10
  -8   9   6   23.00    5.40
   7  -9  -6   19.30   12.50
  -7   9   6   28.30    4.40
   6  -9  -6   -6.60    9.60
  -6   9   6    1.30    4.50
  -6   9   6   -0.90    3.20
   5  -9  -6   68.29   13.90
  -5   9   6   94.09    6.50
  -5   9   6   63.89    6.40
   4  -9  -6  106.89    7.20
   4  -9  -6  108.39   15.20
  -4   9   6  129.39    7.70
   3  -9  -6  133.29    8.20
  -3   9   6  141.59    8.50
   2  -9  -6  156.18   15.30
   2  -9  -6  131.69    8.40
  -2   9   6  158.18    8.70
   1  -9  -6  481.65   23.80
  -1   9   6  476.25   28.00
  -1   9   6  466.65   23.70
   0  -9  -6   71.49   10.40
   0  -9  -6   62.09    5.30
   0   9   6   70.69    9.70
   0   9   6   76.39    5.70
  -1  -9  -6  320.17   18.90
  -1  -9  -6  325.27   21.30
   1   9   6  335.37   20.60
   1   9   6  343.87   17.20
  -2  -9  -6  144.09   12.80
   2   9   6  143.19   12.30
   2   9   6  166.58    9.20
  -3  -9  -6   12.30    5.60
   3   9   6   11.20    5.10
  -4  -9  -6  510.25   27.60
   4   9   6  490.15   27.00
   4   9   6  481.65   24.90
  -5  -9  -6  145.09   11.10
   5   9   6  146.69   11.10
   5   9   6  154.08    9.50
   6   9   6    1.40    4.50
   6   9   6    2.70    3.40
   6   9   6    0.60    3.50
   7   9   6   79.49    7.10
   7   9   6   71.99    7.90
   8   9   6    0.10    3.90
   8   9   6   10.70    7.90
   8   9   6    3.80    3.90
   9   9   6   -2.00    4.50
  10   9   6   48.90    7.00
  11   9   6    2.90    5.40
  10 -10  -6    7.10   14.90
 -10  10   6    5.40    6.00
   9 -10  -6   -5.60   15.30
  -9  10   6    3.60    5.20
   8 -10  -6   12.10   13.60
  -8  10   6   29.70    5.20
   7 -10  -6    0.50   11.00
  -7  10   6    6.20    4.10
   6 -10  -6   64.69   14.60
   5 -10  -6   17.60   11.30
  -5  10   6   25.60    4.20
   4 -10  -6  121.29   17.70
  -4  10   6  136.59    8.70
   3 -10  -6   11.70    9.00
  -3  10   6   17.50    3.60
   2 -10  -6  213.38   23.60
  -2  10   6  233.08   12.70
   1 -10  -6    5.80    7.40
  -1  10   6    0.40    3.00
   0 -10  -6  132.99   14.40
   0  10   6  114.89   12.90
   0  10   6  138.19    8.60
  -1 -10  -6   20.80    8.00
   1  10   6   32.50    7.90
  -2 -10  -6   -3.80    5.40
   2  10   6    5.30    3.10
   2  10   6    2.80    5.70
  -3 -10  -6  255.87   18.20
   3  10   6  254.47   17.60
   3  10   6  270.67   14.30
  -4 -10  -6   41.30    8.30
   4  10   6   40.40    4.90
   4  10   6   48.40    8.00
  -5 -10  -6  198.88   14.20
   5  10   6  195.08   11.50
   5  10   6  179.68   14.00
   6  10   6    8.50    4.00
   6  10   6   15.90    4.40
   6  10   6   15.40    5.70
   7  10   6   32.90    5.20
   7  10   6   34.70    6.70
   7  10   6   35.70    5.40
   8  10   6    8.00    4.20
   8  10   6    6.80    4.50
   8  10   6    9.70    5.30
   9  10   6   20.70    6.00
   9  10   6   10.40    4.90
  10  10   6   -3.30    6.00
   9 -11  -6   -7.90   13.20
  -9  11   6    8.60    5.70
   8 -11  -6   21.90   26.80
  -8  11   6   -7.10    4.80
   7 -11  -6   39.60   15.70
  -7  11   6   34.40    5.50
   6 -11  -6    7.20   12.40
  -6  11   6   12.30    4.60
   5 -11  -6   74.99   16.00
  -5  11   6  104.19    8.00
   4 -11  -6   31.60   11.80
  -4  11   6   53.99    5.40
   3 -11  -6   38.40   11.90
  -3  11   6   51.99    5.20
   2 -11  -6   16.80    9.40
  -2  11   6   13.60    4.00
   1 -11  -6  138.99   17.20
  -1  11   6  156.68    9.80
   0 -11  -6   12.40    8.50
   0  11   6   13.10    3.90
  -1 -11  -6   41.10   10.00
   1  11   6   43.10    5.10
   1  11   6   43.60   11.10
  -2 -11  -6  137.79   15.20
   2  11   6  160.68   14.80
   2  11   6  165.68   10.00
  -3 -11  -6  142.09   15.30
   3  11   6  122.59    8.80
   3  11   6  124.09   13.60
  -4 -11  -6   32.60    8.20
   4  11   6   43.50    8.60
   4  11   6   41.60    5.00
  -5 -11  -6    7.80    5.80
   5  11   6    6.40    6.20
   5  11   6    0.20    3.70
   6  11   6   73.59    9.60
   6  11   6   66.89    6.60
   6  11   6   57.69    4.90
   6  11   6   76.79    8.10
   7  11   6   88.99    7.90
   7  11   6   74.09    8.30
   7  11   6   89.29   10.50
   8  11   6   20.60    5.10
   8  11   6   21.50    6.80
   8  11   6   12.80    4.90
   9  11   6    3.80    4.10
   9  11   6  -10.00    5.50
   9  11   6    8.30    5.60
  10  11   6   19.40    5.90
   8 -12  -6    0.60   14.60
  -8  12   6    2.10    5.50
   7 -12  -6  -24.30   20.50
  -7  12   6    4.90    5.10
   6 -12  -6   39.30   14.90
  -6  12   6   65.59    6.80
   5 -12  -6   27.70   13.70
  -5  12   6   30.00    5.40
   4 -12  -6   -1.10   11.30
  -4  12   6    8.10    4.30
   3 -12  -6    4.40    9.70
  -3  12   6   18.50    4.70
   2 -12  -6  165.38   20.60
  -2  12   6  215.28   12.20
   1 -12  -6   -3.00    8.70
  -1  12   6   25.20    4.50
   0 -12  -6   -8.20    7.30
   0  12   6    3.40    3.80
  -1 -12  -6   14.20   15.20
   1  12   6    1.80    3.70
  -2 -12  -6  169.58   17.10
   2  12   6  185.68   11.30
  -3 -12  -6   47.70   10.80
   3  12   6   63.89   12.50
   3  12   6   43.40    5.50
   4  12   6    5.60    7.20
   4  12   6    6.30    4.20
  -5 -12  -6  123.29   14.10
   5  12   6  116.59   13.60
   5  12   6  146.59    9.80
   6  12   6  105.99    8.90
   6  12   6   97.79    6.50
   6  12   6   90.69    9.80
   7  12   6    6.60    4.70
   7  12   6    6.10    6.90
   7  12   6    3.60    5.00
   8  12   6    3.90    5.10
   8  12   6   -4.40    4.80
   8  12   6    6.10    6.60
   9  12   6   36.80    6.10
   9  12   6   43.00    6.50
   9  12   6   33.30    8.60
   7 -13  -6   21.00   15.80
  -7  13   6   21.70    6.20
  -6  13   6    2.70    5.10
   5 -13  -6    1.00   12.60
  -5  13   6   -0.20    4.60
   4 -13  -6  -14.50   11.20
  -4  13   6    9.60    4.70
   3 -13  -6  104.19   19.10
  -3  13   6  148.29   10.10
   2 -13  -6   11.60   11.50
  -2  13   6   20.00    4.90
   1 -13  -6   -2.00    9.70
  -1  13   6   13.30    4.70
   0 -13  -6   39.20   12.60
   0  13   6   32.80    5.40
  -1 -13  -6   88.79   15.20
   1  13   6  110.49    8.60
  -2 -13  -6    2.90    8.30
   2  13   6    7.70    4.40
  -3 -13  -6   -4.10    8.80
   3  13   6   13.80    4.80
  -4 -13  -6  163.18   16.70
   4  13   6  156.38   10.80
  -5 -13  -6   63.69   11.40
   5  13   6   59.49    6.70
   6  13   6   11.00    8.20
   6  13   6   -3.70    5.10
   6  13   6    2.40    2.90
   6  13   6    6.80    5.90
   7  13   6    6.50    5.80
   7  13   6   13.80    8.10
   7  13   6    1.00    4.90
   8  13   6   14.30    5.70
   8  13   6   16.20    6.20
   5 -14  -6    9.50   15.80
  -5  14   6   -4.30    5.20
   4 -14  -6   38.70   15.60
  -4  14   6   58.79    6.90
   3 -14  -6    4.60   12.20
  -3  14   6   10.70    5.20
   2 -14  -6   -3.70   11.60
  -2  14   6    1.80    4.70
   1 -14  -6   29.60   14.20
  -1  14   6   28.80    5.30
   0 -14  -6   86.89   16.90
   0  14   6  122.49    9.50
  -1 -14  -6    1.80    9.70
   1  14   6    7.70    4.90
  -2 -14  -6   31.90   11.80
   2  14   6   50.19    6.40
  -3 -14  -6   33.70   11.80
   3  14   6   50.39    6.60
  -4 -14  -6   50.09   12.40
   4  14   6   62.89    7.40
  -5 -14  -6    5.60    8.70
   5  14   6   14.70    5.50
   6  14   6    6.80    5.30
   6  14   6    4.40    3.20
   6  14   6    9.90    6.70
   3 -15  -6   -1.90   16.20
  -3  15   6    2.10    5.40
   2 -15  -6   -7.50   11.40
  -2  15   6    9.60    5.70
   1 -15  -6   58.29   15.60
  -1  15   6   57.89    7.20
   0 -15  -6  -18.10   10.40
   0  15   6    2.60    5.20
  -1 -15  -6   35.40   12.80
  -2 -15  -6   22.50   11.90
   2  15   6   17.10    5.80
  -3 -15  -6    9.60   10.70
   3  15   6    2.90    5.40
  -4 -15  -6    6.20    9.60
   4  15   6    2.40    5.10
   1  12  -7    6.20    5.00
  -1 -12   7   -8.30   12.70
   0  12  -7   20.60    5.50
   0 -12   7   35.20   16.50
  -1  12  -7   28.60    5.80
   1 -12   7   27.50   15.80
  -2  12  -7    2.40    5.20
   2 -12   7    2.40   14.40
  -3  12  -7    4.20    5.30
   3 -12   7   14.60   15.50
  -4  12  -7   31.90    6.10
   4 -12   7   21.20   17.90
   4  11  -7    0.50   13.40
   4  11  -7   11.40    8.80
   4  11  -7   10.50    6.40
   3  11  -7   15.40    5.20
   3  11  -7    4.80    4.90
   3  11  -7   -3.40   10.80
   2  11  -7   10.00    5.30
  -2 -11   7    7.30   13.10
   1  11  -7   92.39    8.20
  -1 -11   7   89.59   19.70
   0  11  -7    8.40    4.70
   0 -11   7    7.40   12.70
  -1  11  -7   12.70    5.10
   1 -11   7  -10.10   12.70
  -2  11  -7   -2.30    4.40
   2 -11   7    6.80   12.40
  -3  11  -7   27.60    5.70
   3 -11   7   27.80   16.40
   4 -11   7   33.40   27.60
  -5  11  -7   16.50    5.60
   5 -11   7   23.80   18.30
  -6  11  -7   10.00    5.50
   6 -11   7   21.40   17.10
   6  10  -7   -2.10    4.70
   6  10  -7   14.90   16.70
   5  10  -7   23.70    5.30
   5  10  -7   39.20   12.00
   4  10  -7    8.30    4.40
   4  10  -7    6.60    9.50
   4  10  -7    1.50    4.60
   3  10  -7   44.20    6.20
   3  10  -7   55.39    6.30
   3  10  -7   45.00   12.10
   2  10  -7   41.90    5.80
  -2 -10   7   46.20   14.50
   1  10  -7   53.09    6.10
  -1 -10   7   71.09   16.10
   0  10  -7   -0.40    4.20
   0 -10   7   -2.30   11.20
  -1  10  -7   16.40    4.80
   1 -10   7    8.50   12.30
  -2  10  -7   13.30    4.60
   2 -10   7   10.00   12.10
  -3  10  -7   10.90    4.70
   3 -10   7   10.20   13.00
  -4  10  -7   16.80    4.90
   4 -10   7   -1.70   11.90
  -5  10  -7    6.70    5.00
   5 -10   7   -3.50   14.30
  -6  10  -7   37.10    6.70
   6 -10   7   41.40   17.20
  -7  10  -7    5.00    5.40
   7 -10   7   -7.50   16.30
  -8  10  -7   17.70    6.10
   8 -10   7   17.40   17.00
   7   9  -7  -11.10    4.50
   7   9  -7   -3.40    9.00
   6   9  -7    2.90    9.60
   6   9  -7    5.10    4.60
   5   9  -7    3.00    4.20
   5   9  -7   -3.70    8.50
   4   9  -7   22.20    4.70
   4   9  -7   23.90    4.90
   4   9  -7   17.40    9.30
   3   9  -7   55.29    6.30
   3   9  -7   59.09    6.10
   3   9  -7   46.50   11.30
   2   9  -7   19.60    4.30
  -2  -9   7   18.80   10.50
   1   9  -7   17.40    4.20
  -1  -9   7    0.70   10.20
   0   9  -7   35.20    5.20
   0  -9   7   29.40   12.00
  -1   9  -7  171.08   10.60
   1  -9   7  140.79   20.10
  -2   9  -7    1.30    3.80
   2  -9   7    6.90   10.20
  -3   9  -7   70.99    6.80
   3  -9   7   73.59   16.80
  -4   9  -7   24.80    4.90
   4  -9   7   31.50   14.50
  -5   9  -7   30.50    5.50
   5  -9   7   57.39   16.40
  -6   9  -7    3.10    4.50
   6  -9   7   11.70   13.90
  -7   9  -7   19.60    5.70
   7  -9   7   22.60   15.20
  -8   9  -7    4.20    9.90
   8  -9   7    4.50   15.10
  -9   9  -7    6.20    6.20
   9  -9   7   -0.60   15.20
   8   8  -7    0.00    4.50
   8   8  -7    4.70   10.80
   7   8  -7    4.20    9.30
   7   8  -7   -1.80    4.30
   6   8  -7   -5.40    8.40
   6   8  -7    0.40    3.80
   5   8  -7   25.10    4.60
   5   8  -7   15.80    9.20
   4   8  -7   16.90    4.40
   4   8  -7   11.20    8.60
   4   8  -7   27.80    4.50
   3   8  -7   38.50    5.20
   3   8  -7   38.80    4.80
   3   8  -7   46.40   10.40
   2   8  -7   47.70    5.40
  -2  -8   7   58.39   13.80
   1   8  -7   77.69    6.80
  -1  -8   7   65.89   13.70
   0   8  -7   72.29    6.40
   0  -8   7   63.09   13.40
  -1   8  -7    2.60    3.40
   1  -8   7   -3.10    9.20
  -2   8  -7   24.90    4.20
   2  -8   7   10.70   10.50
  -3   8  -7   98.39    7.90
   3  -8   7   93.59   16.70
  -4   8  -7    9.40    3.90
   4  -8   7    9.20   11.10
  -5   8  -7    0.70    3.90
   5  -8   7   12.30   11.30
  -6   8  -7   74.09    7.20
   6  -8   7   80.99   17.10
  -7   8  -7   18.00    5.40
   7  -8   7   22.00   14.10
  -8   8  -7    4.60    5.10
   8  -8   7   -2.00   14.30
  -9   8  -7    0.70    5.60
   9  -8   7   -2.60   15.00
 -10   8  -7   -7.50    6.10
  10  -8   7    0.30   29.80
   9   7  -7   19.50    5.00
   9   7  -7   14.10   11.50
   8   7  -7    7.30   10.40
   8   7  -7    1.90    4.40
   7   7  -7    3.40    4.20
   7   7  -7   19.70    9.20
   6   7  -7   30.30   10.10
   6   7  -7   35.50    4.80
   5   7  -7   -2.90    3.50
   5   7  -7   -3.80    7.90
   4   7  -7   -6.60    6.20
   4   7  -7   -1.20    3.30
   3   7  -7   71.09   11.50
   3   7  -7   74.09    6.50
   3   7  -7   77.39    6.90
   2   7  -7  221.18   12.70
  -2  -7   7  239.58   20.80
   1   7  -7  130.69    8.60
  -1  -7   7  121.29   17.10
   0   7  -7   15.20    3.50
   0  -7   7   29.50   10.80
  -1   7  -7   56.29    5.20
   1  -7   7   47.30   11.80
  -2   7  -7  101.99    7.40
   2  -7   7   84.79   14.60
  -3   7  -7    1.80    3.40
   3  -7   7   -3.60    8.10
  -4   7  -7    5.90    3.90
   4  -7   7    9.10   10.20
  -5   7  -7  115.49    8.30
   5  -7   7   86.09   15.90
  -6   7  -7   50.09    5.70
   6  -7   7   45.30   13.80
  -7   7  -7   12.00    4.80
   7  -7   7   16.00   12.80
  -8   7  -7    1.00    4.90
   8  -7   7    7.60   13.20
  -9   7  -7   19.10    5.70
   9  -7   7   22.90   14.10
 -10   7  -7   -1.10    5.90
  10  -7   7   -2.40   14.00
 -11   7  -7   -5.50    6.20
  11  -7   7  -16.30   14.20
   9   6  -7   13.70   10.80
   9   6  -7    9.00    4.60
   8   6  -7   17.80    4.70
   8   6  -7   16.30   10.00
   7   6  -7   15.60    4.10
   7   6  -7   13.10    8.80
   6   6  -7    5.60    7.50
   6   6  -7   -2.80    3.30
   5   6  -7   19.20    7.90
   5   6  -7   12.00    4.10
   4   6  -7    5.10    3.10
   4   6  -7    8.20    7.00
   3   6  -7  174.78   15.20
   3   6  -7  190.48   10.40
   3   6  -7  169.78   10.60
   2   6  -7   63.39    5.30
  -2  -6   7   57.59   11.30
   1   6  -7   16.10    3.30
  -1  -6   7    9.70    8.80
   0   6  -7  148.99    9.00
   0  -6   7  150.68   15.60
  -1   6  -7  203.18   11.40
   1  -6   7  208.08   18.20
  -2   6  -7    5.80    5.50
   2  -6   7    6.80    7.50
  -3   6  -7   62.59    5.50
   3  -6   7   69.19   12.90
  -4   6  -7  193.08   11.40
   4  -6   7  199.38   19.50
  -5   6  -7  135.69    8.90
   5  -6   7  113.49   16.70
  -6   6  -7    0.20    3.70
   6  -6   7    8.50    9.60
  -7   6  -7   12.80    4.30
   7  -6   7   11.20   10.20
  -8   6  -7   34.60    5.50
   8  -6   7   34.50   14.00
  -9   6  -7   13.90    5.20
   9  -6   7   23.20   13.60
 -10   6  -7    2.10    5.70
  10  -6   7   -2.10   13.20
  11  -6   7   25.60   16.00
  10   5  -7   -1.80   10.20
  10   5  -7    7.60    4.30
   9   5  -7    2.60    4.10
   9   5  -7    4.60    9.70
   8   5  -7   13.50    3.90
   8   5  -7   -7.70    8.70
   7   5  -7    0.70    8.10
   6   5  -7   29.20    3.90
   6   5  -7   27.60    8.80
   5   5  -7    8.30    3.10
   5   5  -7   10.90    7.00
  -5  -5   7    3.60    3.10
   4   5  -7  128.49    7.60
   4   5  -7  108.89   13.00
  -4  -5   7  112.19    7.40
   3   5  -7   23.00    3.80
   3   5  -7   26.50    3.30
   3   5  -7   27.90    8.00
  -3  -5   7   22.30    3.20
   2   5  -7   24.50    8.50
   2   5  -7   28.20    3.40
   2   5  -7   28.00    4.50
  -2  -5   7   30.10    3.30
   1   5  -7  133.89    7.80
  -1  -5   7  135.59   14.10
  -1  -5   7  125.39    7.60
   0   5  -7  489.25   23.50
   0  -5   7  449.66   29.20
   0  -5   7  464.45   23.40
  -1   5  -7   39.10    3.90
   1  -5   7   28.40    8.50
   1  -5   7   33.80    3.40
  -2   5  -7  123.59    7.60
  -2   5  -7  111.79    8.30
   2  -5   7  133.39   13.90
  -3   5  -7  314.37   16.10
   3  -5   7  295.87   22.20
  -4   5  -7  124.99   10.70
   4  -5   7  139.29   16.70
  -5   5  -7   30.70    4.10
  -6   5  -7    4.90    3.10
   6  -5   7    5.20    8.30
  -7   5  -7   32.10    4.90
   7  -5   7   31.20   11.80
  -8   5  -7   26.20    5.00
   8  -5   7   31.30   12.40
  -9   5  -7    3.60    4.70
   9  -5   7   -8.40   10.70
 -10   5  -7    0.10    5.50
  10  -5   7  -13.90   12.10
 -11   5  -7   12.50    6.50
  11  -5   7   12.30   13.70
 -12   5  -7    8.30    7.00
  12  -5   7    3.50   14.30
  10   4  -7    4.50    3.90
  10   4  -7   19.20   11.80
   9   4  -7   31.40    4.60
   9   4  -7   40.60   11.70
   8   4  -7   -3.30    3.20
   8   4  -7   -7.90    7.90
   7   4  -7   10.30    8.20
   7   4  -7   -1.60    2.90
  -7  -4   7    6.10    3.00
   6   4  -7   -0.10    2.60
   6   4  -7    6.60    7.30
  -6  -4   7   -4.50    2.40
   5   4  -7   31.60    8.00
   5   4  -7   23.80    3.20
  -5  -4   7   16.70    3.00
   4   4  -7   16.00    2.80
   4   4  -7   10.60    7.30
   3   4  -7   11.80    6.00
   3   4  -7   22.10    2.80
  -3  -4   7   19.40    2.80
   2   4  -7  465.15   26.60
   2   4  -7  458.65   22.80
   2   4  -7  468.05   23.20
  -2  -4   7  452.75   22.80
   1   4  -7  904.01   44.20
   1   4  -7  928.21   50.09
  -1  -4   7  915.01   44.20
  -1  -4   7  905.41   49.50
   0   4  -7   45.30    3.70
   0   4  -7   47.70    9.10
   0  -4   7   37.80    8.50
   0  -4   7   35.80    3.40
  -1   4  -7  117.89    7.00
  -1   4  -7  111.69   12.00
   1  -4   7  114.59   12.60
  -2   4  -7  315.47   16.20
  -2   4  -7  317.57   16.50
  -2   4  -7  311.57   21.20
   2  -4   7  321.27   21.50
  -3   4  -7  173.48   15.80
  -3   4  -7  212.48   11.10
  -3   4  -7  202.48   11.30
   3  -4   7  214.08   16.60
  -4   4  -7  190.18   16.00
  -4   4  -7  201.48   10.80
   4  -4   7  179.08   16.40
  -5   4  -7  328.27   25.60
  -5   4  -7  314.47   16.10
   5  -4   7  268.87   21.90
  -6   4  -7   56.39    5.30
   6  -4   7   47.50   10.10
  -7   4  -7    8.50    3.50
   7  -4   7    6.70    9.30
   8  -4   7   -0.40    8.30
   9  -4   7   18.50    5.40
   9  -4   7   -4.30    9.40
  10  -4   7    8.70   11.10
  10  -4   7   -6.40    5.10
  11  -4   7   13.60    6.30
  11  -4   7  -11.90   11.80
  12  -4   7   16.20   14.30
  12  -4   7   24.20   11.40
  11   3  -7   21.10   12.60
  11   3  -7   11.30    4.30
  10   3  -7   16.90    4.30
  10   3  -7    3.60    9.80
   9   3  -7   29.40   11.10
   9   3  -7   38.70    4.50
   8   3  -7   -1.50    7.60
   8   3  -7    2.00    3.10
  -8  -3   7    1.10    3.00
   7   3  -7   37.60    3.90
   7   3  -7   27.60    9.30
  -7  -3   7   32.50    3.70
   6   3  -7   24.00    8.40
   6   3  -7   37.50    3.50
  -6  -3   7   28.50    3.40
   5   3  -7   51.19    4.10
   5   3  -7   43.40    8.70
  -5  -3   7   27.70    3.20
   4   3  -7  234.78   11.90
   4   3  -7  233.28   16.50
  -4  -3   7  224.58   11.90
   3   3  -7  230.28   11.30
   3   3  -7  199.88   19.00
   3   3  -7  218.78   15.40
  -3  -3   7  212.98   11.30
   2   3  -7  375.96   18.10
   2   3  -7  356.96   23.60
   2   3  -7  347.87   18.40
   2   3  -7  369.06   21.70
  -2  -3   7  366.66   18.10
   1   3  -7   38.40    6.50
   1   3  -7   49.60    9.30
   1   3  -7   37.80    3.40
   1   3  -7   42.60    3.70
  -1  -3   7   35.40    3.10
   0   3  -7  322.77   21.10
   0   3  -7  329.97   16.20
   0  -3   7  321.37   16.10
   0  -3   7  307.87   20.70
  -1   3  -7   14.30    2.60
  -1   3  -7   14.00    2.40
   1  -3   7   15.10    6.30
  -2   3  -7  361.56   18.40
  -2   3  -7  367.26   18.70
   2  -3   7  376.66   23.10
  -3   3  -7  230.08   12.20
  -3   3  -7  230.38   12.50
   3  -3   7  239.68   17.10
  -4   3  -7  201.98   11.60
  -4   3  -7  206.68   16.00
  -4   3  -7  220.98   11.40
   4  -3   7  214.38   16.60
  -5   3  -7  222.38   11.90
  -5   3  -7  199.28   15.90
   5  -3   7  224.28   17.40
  -6   3  -7  159.38   14.40
   6  -3   7  178.98   16.10
   6  -3   7  156.78   10.40
  -7   3  -7   53.79   10.20
   7  -3   7   92.09   13.20
   7  -3   7   49.80    6.00
   8  -3   7   13.40    4.60
   8  -3   7   17.10    9.40
   9  -3   7    0.00   10.70
   9  -3   7   -3.00    4.50
  10  -3   7   25.80   11.80
  10  -3   7   24.20    6.40
  11  -3   7   54.79   14.30
  11  -3   7   38.10    7.20
  12  -3   7   -9.40   11.70
  12  -3   7   12.10    6.50
  13  -3   7   13.80    7.40
  13  -3   7   11.50   14.20
  11   2  -7   -2.50   10.20
  11   2  -7    7.90    4.40
  10   2  -7   10.30    3.80
  10   2  -7    0.50    9.90
   9   2  -7    1.60    3.00
   9   2  -7    2.20    9.20
  -9  -2   7   -1.80    3.10
   8   2  -7  156.18   16.20
   8   2  -7  123.49    7.90
   7   2  -7    1.40    7.40
   7   2  -7    7.20    2.70
  -7  -2   7    1.50    2.50
   6   2  -7   22.70    3.00
   6   2  -7   40.10    8.80
  -6  -2   7   25.60    2.90
   5   2  -7   27.00    7.10
   5   2  -7   22.80    2.70
  -5  -2   7   22.20    2.60
   4   2  -7  493.85   28.80
   4   2  -7  504.05   24.70
  -4  -2   7  518.55   24.80
   3   2  -7  261.67   12.90
   3   2  -7  254.37   16.90
   3   2  -7  257.47   18.40
  -3  -2   7  253.27   12.90
   2   2  -7    7.40    1.80
   2   2  -7    2.40    5.00
   2   2  -7   10.40    4.60
  -2  -2   7   11.10    1.80
   1   2  -7  175.78   14.30
   1   2  -7  181.28    9.80
   1   2  -7  186.58    9.40
   1   2  -7  178.68   12.50
  -1  -2   7  184.18    9.40
   0   2  -7  307.87   15.60
   0   2  -7  311.67   19.90
   0   2  -7  310.77   15.40
   0  -2   7  303.17   19.70
  -1   2  -7  448.36   22.30
  -1   2  -7  470.65   22.50
  -1   2  -7  451.35   26.50
   1  -2   7  433.56   26.40
  -2   2  -7  570.54   28.30
  -2   2  -7  590.34   28.50
  -2   2  -7  564.84   32.20
   2  -2   7  588.34   32.30
  -3   2  -7  315.77   15.40
  -3   2  -7  300.67   19.20
  -3   2  -7  303.87   15.60
   3  -2   7  282.77   19.30
  -4   2  -7  326.47   16.50
  -4   2  -7  318.07   20.00
   4  -2   7  314.87   16.70
   4  -2   7  312.57   20.50
  -5   2  -7  334.47   20.90
  -5   2  -7  342.07   17.30
   5  -2   7  327.57   21.50
   5  -2   7  331.17   17.60
  -6   2  -7   72.39   10.90
   6  -2   7   73.89   11.00
   6  -2   7   75.29    6.30
  -7   2  -7  111.89   12.40
   7  -2   7   98.49    7.90
   7  -2   7  107.59   13.40
  -8   2  -7    0.00    6.00
   8  -2   7   -0.90    3.60
   8  -2   7  -10.90    6.40
   9  -2   7   11.60    4.50
   9  -2   7   -8.50    7.60
  10  -2   7    1.10    4.70
  10  -2   7   -6.80    9.90
  11  -2   7   16.20    5.70
  11  -2   7   10.30   10.60
  12  -2   7    6.50    6.30
  12  -2   7    2.70   10.90
  13  -2   7    3.00    6.70
  13  -2   7    6.50   12.20
  11   1  -7    5.50   11.30
  11   1  -7   10.00    4.20
  10   1  -7   13.00   10.80
  10   1  -7    2.00    3.50
 -10  -1   7   -4.00    3.30
   9   1  -7    4.40    9.40
   9   1  -7   -3.30    2.90
   8   1  -7   15.00    2.90
   8   1  -7    0.60    8.00
  -8  -1   7    8.90    2.80
   7   1  -7   28.50    3.00
   7   1  -7   34.10    9.30
  -7  -1   7   23.10    2.90
   6   1  -7   13.70    2.30
   6   1  -7   12.70    7.20
  -6  -1   7   12.20    2.30
   5   1  -7   30.70    7.50
   5   1  -7   20.50    2.30
  -5  -1   7   24.30    2.40
   4   1  -7  193.78    9.80
   4   1  -7  180.48   14.20
  -4  -1   7  207.28   14.00
  -4  -1   7  187.38   10.60
  -4  -1   7  199.08    9.80
   3   1  -7   36.70    6.70
   3   1  -7   47.90    3.10
  -3  -1   7   36.50    6.30
  -3  -1   7   42.10    3.10
  -3  -1   7   44.80    3.80
   2   1  -7 1416.46   74.69
   2   1  -7 1453.05   73.19
   2   1  -7 1504.15   70.29
  -2  -1   7 1495.15   70.29
   1   1  -7  487.25   27.10
   1   1  -7  498.35   24.30
   1   1  -7  524.75   28.90
   0   1  -7   32.40    6.50
   0   1  -7   36.70    3.20
   0   1  -7   37.80    3.30
   0   1  -7   43.20    5.90
   0   1  -7   38.20    2.80
  -1   1  -7   30.80    6.20
  -1   1  -7   33.50    3.00
  -1   1  -7   27.40    2.50
   1  -1   7   28.30    6.30
  -2   1  -7  280.67   13.90
  -2   1  -7  264.57   17.10
   2  -1   7  271.77   14.10
   2  -1   7  271.57   17.40
  -3   1  -7  314.67   19.10
  -3   1  -7  315.47   15.80
   3  -1   7  305.27   16.00
   3  -1   7  307.67   19.30
  -4   1  -7   69.09    8.50
  -4   1  -7   67.69    4.90
   4  -1   7   69.69    8.60
   4  -1   7   61.49    5.20
  -5   1  -7  727.63   38.80
  -5   1  -7  746.13   35.90
   5  -1   7  726.33   39.20
   5  -1   7  724.23   36.10
  -6   1  -7  364.36   19.10
  -6   1  -7  381.06   22.30
   6  -1   7  377.46   23.10
  -7   1  -7    6.70    5.10
   7  -1   7    5.00    3.40
   7  -1   7    4.90    5.90
   8  -1   7   27.50    8.70
   8  -1   7   30.40    5.00
  -9   1  -7    8.40    6.50
   9  -1   7    3.00    7.60
   9  -1   7   -1.90    4.20
 -10   1  -7   19.10    8.20
  10  -1   7   13.90    5.10
  10  -1   7   25.50    9.70
  11  -1   7   37.40    6.40
  11  -1   7   42.40   11.60
  12  -1   7   12.10   10.90
  12  -1   7    1.50    5.50
  13  -1   7   15.70   12.70
  11   0  -7   19.50    4.40
  11   0  -7    9.20   11.90
 -11   0   7    9.80    4.10
  10   0  -7   23.20   11.90
 -10   0   7   26.10    3.90
   9   0  -7    2.30    3.10
   9   0  -7   -8.40    9.10
  -9   0   7    4.20    2.90
   8   0  -7   61.39   12.00
   8   0  -7   64.99    5.10
  -8   0   7   49.50    4.70
   7   0  -7   10.80    7.70
   7   0  -7    6.70    2.20
  -7   0   7    0.90    2.00
   6   0  -7    2.50    1.60
  -6   0   7   -0.40    1.70
   5   0  -7    0.20    5.30
  -5   0   7   -1.10    1.30
   4   0  -7   11.50    1.60
   4   0  -7   17.10    6.20
  -4   0   7   11.30    1.50
  -4   0   7   10.40    5.00
   3   0  -7  512.15   24.20
   3   0  -7  496.05   27.90
  -3   0   7  501.55   24.30
   2   0  -7 2067.59   99.29
   2   0  -7 2080.99  102.29
  -2   0   7 2098.29   99.79
  -2   0   7 2082.49  102.19
   1   0  -7  470.25   26.00
   1   0  -7  504.15   23.50
   1   0  -7  476.65   27.20
   1   0  -7  481.15   23.40
   0   0  -7   65.79    6.50
   0   0  -7   68.49    8.00
   0   0  -7   60.59    3.90
  -1   0  -7 2932.31  142.19
  -1   0  -7 2967.80  140.49
  -1   0  -7 2960.30  143.49
  -1   0  -7 2907.61  140.49
   1   0   7 2948.41  140.49
  -2   0  -7   90.59    5.30
  -2   0  -7   90.49    8.30
   2   0   7   88.99    5.50
   2   0   7   82.39    8.30
  -3   0  -7  106.29    8.90
  -3   0  -7   93.99    6.00
   3   0   7   98.09    6.30
   3   0   7  116.19    9.10
  -4   0  -7 1446.46   72.89
  -4   0  -7 1440.26   69.69
   4   0   7 1432.86   69.89
   4   0   7 1479.45   72.19
  -5   0  -7  403.16   22.10
  -5   0  -7  392.16   19.60
   5   0   7  392.56   22.40
   5   0   7  373.46   19.80
  -6   0  -7   25.40    5.40
  -6   0  -7   15.30    2.80
   6   0   7   17.40    3.30
   6   0   7   19.10    5.50
  -7   0  -7    0.20    4.20
   7   0   7   -0.60    2.70
   7   0   7    4.30    5.30
  -8   0  -7    7.70    4.80
   8   0   7    3.90    3.40
   8   0   7    2.40    5.90
  -9   0  -7    3.70    5.00
   9   0   7  -11.70    3.50
   9   0   7   -2.70    6.40
 -10   0  -7   24.20    7.10
  10   0   7   33.80    5.80
  10   0   7   30.10    9.50
 -11   0  -7   28.10    8.30
  11   0   7   13.90    5.50
  11   0   7   31.00   10.30
  12   0   7   51.99    7.30
  12   0   7   49.00   12.40
  13   0   7   15.10    7.80
  13   0   7   15.20   11.60
  12  -1  -7    5.40    4.60
  12  -1  -7   16.30   18.90
  11  -1  -7   48.30   13.90
  11  -1  -7   40.70    4.80
 -11   1   7   22.60    4.30
  10  -1  -7    3.80   10.20
 -10   1   7   -2.60    3.80
   9  -1  -7   40.40    4.20
   9  -1  -7   30.90   11.40
  -9   1   7   32.50    3.80
   8  -1  -7   -0.60    2.60
   8  -1  -7   11.50    9.30
  -8   1   7   -1.40    2.30
   7  -1  -7    4.30    2.10
   7  -1  -7    1.70    7.40
  -7   1   7    5.60    1.90
   6  -1  -7   -4.00    6.60
  -6   1   7    1.80    1.50
   5  -1  -7    4.50    1.30
   5  -1  -7    2.00    5.50
  -5   1   7    3.90    1.20
  -5   1   7    2.90    8.20
   4  -1  -7  197.98   14.90
   4  -1  -7  213.78   10.30
  -4   1   7  213.68   14.40
  -4   1   7  209.98   10.20
   3  -1  -7  355.16   21.00
  -3   1   7  354.56   20.60
   2  -1  -7  503.05   27.20
  -2   1   7  498.05   26.90
   1  -1  -7   65.69    3.50
   1  -1  -7   62.19    3.60
   1  -1  -7   65.29    7.20
  -1   1   7   69.19    4.30
  -1   1   7   64.39    6.50
   0  -1  -7 1873.51   88.89
   0  -1  -7 1796.92   90.79
   0   1   7 1872.31   88.89
   0   1   7 1865.91   90.79
   0   1   7 1898.21   89.09
  -1  -1  -7  212.28   12.40
  -1  -1  -7  219.08   13.50
  -1  -1  -7  214.18   10.60
   1   1   7  205.58   10.70
  -2  -1  -7   66.19    6.80
  -2  -1  -7   46.10    5.00
  -2  -1  -7   45.10    3.10
  -2  -1  -7   39.90    3.30
   2   1   7   42.50    3.50
  -3  -1  -7 1893.81   90.59
  -3  -1  -7 1819.82   88.69
   3   1   7 1840.12   88.79
   3   1   7 1855.11   90.49
  -4  -1  -7 1141.59   56.79
  -4  -1  -7 1141.39   55.09
   4   1   7 1162.18   56.99
   4   1   7 1123.59   55.19
  -5  -1  -7   11.00    4.00
   5   1   7    9.90    4.00
   5   1   7    4.90    2.50
  -6  -1  -7   58.19    6.50
  -6  -1  -7   59.89    4.70
   6   1   7   63.09    5.30
   6   1   7   72.49    7.80
  -7  -1  -7   43.30    6.10
   7   1   7   41.10    4.30
   7   1   7   39.20    6.80
  -8  -1  -7   16.30    5.10
   8   1   7   21.20    3.90
   8   1   7   27.20    6.80
  -9  -1  -7   12.10    5.30
   9   1   7    7.60    6.20
   9   1   7    0.90    3.60
 -10  -1  -7   16.50    5.90
  10   1   7   11.00    4.60
  10   1   7    7.50    7.20
 -11  -1  -7   11.30    6.90
  11   1   7    3.00    7.70
  11   1   7   11.20    5.10
 -12  -1  -7   19.50    8.10
  12   1   7   29.40    6.20
  12   1   7   16.90    9.70
  13   1   7   -0.70    9.60
  13   1   7    7.80    7.20
  12  -2  -7   12.00   14.70
  12  -2  -7   15.00    5.00
  11  -2  -7    1.40    4.10
  11  -2  -7   -1.10   10.90
 -11   2   7  -10.80    3.60
  10  -2  -7   10.40    3.80
  10  -2  -7   10.00   11.60
 -10   2   7   -0.90    3.20
   9  -2  -7  -17.00    8.20
   9  -2  -7    1.40    3.10
  -9   2   7   -1.40    2.70
   8  -2  -7    0.40    8.10
   8  -2  -7    1.50    2.60
  -8   2   7   -0.60    2.30
   7  -2  -7   82.29    5.10
   7  -2  -7   57.49   11.40
  -7   2   7   77.59    4.90
   6  -2  -7    0.70    1.50
   6  -2  -7   -6.50    6.90
   5  -2  -7   17.40    6.70
  -5   2   7   33.00   10.40
  -5   2   7   29.90    2.00
   4  -2  -7  454.95   26.00
  -4   2   7  439.16   25.20
   3  -2  -7   10.00    4.90
  -3   2   7    4.10    4.10
   2  -2  -7  364.46   21.00
  -2   2   7  366.76   20.50
   1  -2  -7 1353.86   66.99
   1  -2  -7 1348.27   64.39
  -1   2   7 1355.36   66.79
   0  -2  -7  351.16   19.50
   0  -2  -7  370.16   17.30
   0   2   7  349.57   19.30
   0   2   7  357.06   17.40
  -1  -2  -7  251.37   14.30
  -1  -2  -7  242.48   12.60
   1   2   7  258.07   12.70
   1   2   7  265.57   12.90
   1   2   7  257.37   14.10
  -2  -2  -7  583.24   28.10
  -2  -2  -7  588.74   29.90
   2   2   7  567.34   28.10
  -3  -2  -7 1095.99   54.09
  -3  -2  -7 1084.99   53.49
  -3  -2  -7 1149.19   54.89
   3   2   7 1121.19   53.59
  -4  -2  -7   11.60    3.50
  -4  -2  -7    6.60    2.40
   4   2   7    1.80    2.30
   4   2   7   11.30    3.50
  -5  -2  -7  810.52   39.60
   5   2   7  806.52   39.80
   5   2   7  782.62   39.00
  -6  -2  -7   30.20    3.30
   6   2   7   28.30    4.60
   6   2   7   19.30    3.20
  -7  -2  -7   56.69    5.90
   7   2   7   47.00    8.20
   7   2   7   44.10    4.70
  -8  -2  -7    4.70    3.70
   8   2   7   -2.10    3.20
   8   2   7   -0.90    4.50
  -9  -2  -7   29.70    6.00
   9   2   7   29.70    7.00
   9   2   7   29.30    4.70
 -10  -2  -7    3.80    5.10
  10   2   7   -0.10    4.10
  10   2   7   -5.30    6.10
 -11  -2  -7   -0.40    5.90
  11   2   7   -1.00    4.60
  11   2   7    8.20    7.60
 -12  -2  -7   15.70    8.80
  12   2   7   39.20   10.00
  12   2   7   21.20    5.70
 -13  -2  -7   -5.50    7.30
  13   2   7    0.90    8.90
  13   2   7   12.00    7.60
  12  -3  -7   -4.40   12.70
  11  -3  -7    6.20   11.70
  10  -3  -7   34.50   13.70
   9  -3  -7   36.40   12.10
   8  -3  -7  -15.00    7.70
  -8   3   7   -2.40    2.30
   7  -3  -7    2.00    7.90
  -7   3   7    5.60    2.00
   6  -3  -7   12.20   14.50
  -6   3   7   13.40    1.60
   5  -3  -7  194.98   16.20
  -5   3   7  212.98   10.30
  -5   3   7  212.28   10.30
   4  -3  -7  315.27   19.60
  -4   3   7  289.27   18.60
   3  -3  -7  456.35   25.40
  -3   3   7  428.06   24.60
   2  -3  -7 1596.74   77.99
  -2   3   7 1542.35   77.49
   1  -3  -7  492.65   26.10
   1  -3  -7  488.85   23.30
  -1   3   7  475.35   25.70
  -1   3   7  483.75   23.30
   0  -3  -7   46.10    3.00
   0  -3  -7   54.29    6.10
   0   3   7   59.39    6.00
   0   3   7   46.00    3.00
  -1  -3  -7 1035.30   50.59
  -1  -3  -7 1085.99   52.09
   1   3   7 1044.50   50.59
   1   3   7 1057.49   51.79
  -2  -3  -7  361.76   18.10
  -2  -3  -7  382.46   19.20
   2   3   7  365.06   18.20
  -3  -3  -7   40.20    4.30
  -3  -3  -7   38.90    3.30
  -3  -3  -7   45.70    4.10
   3   3   7   45.60    3.60
  -4  -3  -7  757.32   37.80
  -4  -3  -7  792.72   37.60
  -4  -3  -7  804.52   37.80
   4   3   7  755.82   37.90
  -5  -3  -7  391.46   19.50
   5   3   7  375.96   19.30
  -6  -3  -7  295.37   15.50
  -6  -3  -7  303.27   15.30
   6   3   7  307.17   15.50
   6   3   7  303.57   15.80
  -7  -3  -7   91.39    6.50
   7   3   7   96.29    7.00
   7   3   7   86.69    6.60
  -8  -3  -7    3.00    5.30
   8   3   7   -1.20    3.80
   8   3   7    3.20    3.20
  -9  -3  -7    8.50    4.20
   9   3   7    5.80    4.90
   9   3   7    1.90    3.60
 -10  -3  -7    2.00    4.50
  10   3   7    0.30    4.00
  10   3   7   -4.00    5.30
 -11  -3  -7   48.70    8.00
  11   3   7   57.59    9.40
  11   3   7   46.10    6.30
 -12  -3  -7    5.00    6.90
  12   3   7   11.10    5.50
  12   3   7   12.10    8.10
  13   3   7   -4.80    7.70
  12  -4  -7   17.90   14.20
 -12   4   7    5.30    4.50
  11  -4  -7   32.50   14.10
 -11   4   7   -9.90    3.80
 -11   4   7   10.90    3.90
  10  -4  -7   30.40   12.80
 -10   4   7    9.30    3.80
 -10   4   7   30.10    4.00
   9  -4  -7  -10.30    9.80
  -9   4   7   -2.40    2.80
  -9   4   7    6.30    2.80
   8  -4  -7   20.80   10.60
  -8   4   7   22.20    2.70
  -8   4   7   12.10    2.70
   7  -4  -7   21.00    9.20
  -7   4   7   16.60    2.30
  -7   4   7   24.80    2.50
   6  -4  -7  114.99   13.80
  -6   4   7  127.49    6.70
   5  -4  -7   96.19   12.00
  -5   4   7  118.99    6.00
  -5   4   7  115.49    6.00
   4  -4  -7  108.59   11.90
  -4   4   7  102.59   10.70
  -4   4   7  119.79    6.10
  -4   4   7  123.79    6.10
   3  -4  -7  981.40   49.30
  -3   4   7  926.71   45.00
  -3   4   7  930.61   45.00
   2  -4  -7  451.55   21.40
   2  -4  -7  444.86   25.30
  -2   4   7  415.06   24.50
  -2   4   7  457.35   21.40
   1  -4  -7  191.78    9.50
   1  -4  -7  189.68   12.90
  -1   4   7  190.18    9.50
  -1   4   7  191.68   12.30
   0  -4  -7  889.41   42.60
   0  -4  -7  908.61   44.80
   0   4   7  865.11   44.30
  -1  -4  -7  702.43   34.00
  -1  -4  -7  717.23   35.60
   1   4   7  706.23   34.00
   1   4   7  694.63   35.20
  -2  -4  -7   -3.30    2.40
  -2  -4  -7    0.60    1.60
   2   4   7    3.70    2.30
   2   4   7    1.90    1.70
  -3  -4  -7 2004.20   96.39
  -3  -4  -7 2041.60   96.59
   3   4   7 1997.20   96.49
  -4  -4  -7  505.85   24.70
   4   4   7  498.45   24.80
  -5  -4  -7  415.66   20.40
   5   4   7  398.66   20.40
  -6  -4  -7   17.00    2.80
   6   4   7   23.30    3.40
   7   4   7  168.98    9.90
   8   4   7   35.60    4.80
   9   4   7   14.80    4.40
   9   4   7    9.40    4.20
 -10  -4  -7    8.50    4.60
  10   4   7   13.10    7.10
  10   4   7   15.50    4.50
 -11  -4  -7   10.50    5.40
  11   4   7   15.90    6.20
  11   4   7   13.80    4.90
 -12  -4  -7    4.00    5.10
  12   4   7    5.10    5.30
  12   4   7   10.70    6.70
  13   4   7    7.70    5.70
  13   4   7   -4.20    6.80
  11  -5  -7    7.70   15.90
 -11   5   7    1.60    3.90
 -11   5   7   12.10    4.20
  10  -5  -7   -5.00   11.00
 -10   5   7   -3.00    3.40
   9  -5  -7   -1.60   10.10
  -9   5   7    8.40    3.20
  -9   5   7    6.90    2.90
   8  -5  -7   38.60   11.90
  -8   5   7   56.19    4.60
  -8   5   7   43.60    4.00
   7  -5  -7   -1.60    8.60
  -7   5   7   13.10    2.50
  -7   5   7   16.80    2.50
   6  -5  -7   16.90    9.00
  -6   5   7   21.30    2.40
  -6   5   7   18.30    2.40
   5  -5  -7   51.59    9.90
  -5   5   7   65.19    4.40
  -5   5   7   66.29    4.10
   4  -5  -7  192.48   15.30
  -4   5   7  194.28    9.50
  -4   5   7  183.68    9.50
  -4   5   7  170.88   13.80
   3  -5  -7  209.98   15.60
  -3   5   7  220.38   10.80
  -3   5   7  211.78   14.80
   2  -5  -7  445.76   21.20
   2  -5  -7  432.46   25.10
  -2   5   7  449.36   24.60
  -2   5   7  420.16   21.30
   1  -5  -7  298.87   18.10
   1  -5  -7  288.97   14.40
  -1   5   7  293.27   14.40
  -1   5   7  285.87   17.30
   0  -5  -7  499.35   24.20
   0  -5  -7  506.55   26.90
   0   5   7  494.75   24.20
   0   5   7  487.05   26.30
  -1  -5  -7   50.49    6.10
  -1  -5  -7   36.70    3.40
   1   5   7   41.00    3.60
   1   5   7   49.60    5.50
  -2  -5  -7 1258.57   60.59
  -2  -5  -7 1270.67   61.79
   2   5   7 1256.37   60.69
  -3  -5  -7  626.94   30.50
  -3  -5  -7  629.54   30.20
   3   5   7  611.54   30.20
   3   5   7  608.14   30.20
   4   5   7  118.59    7.10
  -5  -5  -7    4.60    2.20
   5   5   7    3.20    2.40
   6   5   7  365.66   18.80
   7   5   7    4.70    2.90
   8   5   7    4.10    3.40
   9   5   7   -5.00    3.60
  10   5   7   30.90    5.30
  11   5   7   -0.40    4.80
  11   5   7   -1.70    6.90
  12   5   7    2.10    6.20
  12   5   7    7.10    5.30
  12   5   7    0.80    4.60
  13   5   7    2.80    5.50
  13   5   7   27.80    7.30
  13   5   7   15.90    6.10
  11  -6  -7    0.70   14.20
 -11   6   7   -3.30    4.30
  10  -6  -7   -6.90   11.20
 -10   6   7    7.70    3.80
 -10   6   7   -2.80    3.80
   9  -6  -7    2.80   11.00
  -9   6   7   12.80    3.60
  -9   6   7   -1.00    3.30
   8  -6  -7   16.80   10.60
  -8   6   7   18.30    3.20
  -8   6   7    4.90    2.90
   7  -6  -7   21.20   10.20
  -7   6   7   34.50    3.50
  -7   6   7   33.80    3.40
   6  -6  -7   31.10    9.60
  -6   6   7   35.70    3.20
   5  -6  -7   16.70   12.00
  -5   6   7    5.50    2.10
  -5   6   7    6.30    2.00
   4  -6  -7   38.30    8.30
  -4   6   7   41.90    3.50
  -4   6   7   50.09    3.60
   3  -6  -7  779.12   37.70
   3  -6  -7  785.32   42.50
  -3   6   7  802.72   37.70
  -3   6   7  754.12   41.50
   2  -6  -7  656.73   35.30
   2  -6  -7  638.24   31.10
  -2   6   7  663.43   34.90
  -2   6   7  620.64   31.00
   1  -6  -7   93.19    5.30
   1  -6  -7   90.19    9.60
  -1   6   7   85.19    8.60
  -1   6   7   89.49    5.30
   0  -6  -7    0.80    4.00
   0  -6  -7    6.00    1.80
   0   6   7    6.00    1.90
   0   6   7    3.20    3.60
  -1  -6  -7   26.80    2.60
  -1  -6  -7   16.60    4.80
   1   6   7   22.70    2.60
   1   6   7   27.10    4.70
  -2  -6  -7  300.57   16.40
  -2  -6  -7  274.67   14.10
   2   6   7  269.17   15.20
   2   6   7  275.97   14.20
  -3  -6  -7   84.69    6.30
  -3  -6  -7   80.89    5.30
   3   6   7   87.19    5.60
   3   6   7   79.59    5.70
  -4  -6  -7   97.59    6.00
   4   6   7   94.09    6.40
  -5  -6  -7  944.71   45.80
   5   6   7  924.91   45.50
   6   6   7    4.70    2.70
   7   6   7   24.20    4.50
   8   6   7   15.10    4.10
   9   6   7    7.30    4.10
  10   6   7   58.39    6.70
  11   6   7    3.40    4.90
  12   6   7    4.00    6.00
  11  -7  -7   25.20   15.20
 -11   7   7   17.20    5.00
  10  -7  -7   -3.40   12.70
 -10   7   7   -1.80    4.10
 -10   7   7    9.70    4.10
   9  -7  -7    0.70   11.40
  -9   7   7   24.20    4.00
  -9   7   7   20.10    4.20
   8  -7  -7    8.90   10.60
  -8   7   7   14.20    4.30
  -8   7   7   13.10    3.40
   7  -7  -7   10.30   10.70
  -7   7   7   41.50    4.10
  -7   7   7   61.99    5.00
   6  -7  -7   -4.80    8.10
  -6   7   7   -0.60    2.50
  -6   7   7    1.20    2.70
   5  -7  -7   -8.40    7.00
  -5   7   7   -3.20    2.20
  -5   7   7    2.70    2.60
   4  -7  -7  191.68   17.50
  -4   7   7  218.98   10.90
  -4   7   7  204.08   11.20
   3  -7  -7  543.55   33.20
   3  -7  -7  588.54   27.80
  -3   7   7  549.15   32.10
  -3   7   7  582.54   27.90
   2  -7  -7  102.99   11.50
   2  -7  -7  104.59    6.20
  -2   7   7  119.29   10.50
  -2   7   7  103.89    6.20
   1  -7  -7   -2.40    1.70
   1  -7  -7   -2.70    4.70
  -1   7   7    0.80    4.30
  -1   7   7    0.40    2.10
   0  -7  -7  744.03   35.10
   0   7   7  712.53   35.00
   0   7   7  700.13   37.50
  -1  -7  -7  380.96   21.40
  -1  -7  -7  359.26   18.30
   1   7   7  355.16   20.40
   1   7   7  370.56   18.30
  -2  -7  -7   10.30    4.50
   2   7   7   14.80    2.70
   2   7   7   16.00    4.30
  -3  -7  -7  165.88    8.80
   3   7   7  154.88    8.90
   3   7   7  149.88    9.60
  -4  -7  -7 1077.79   52.09
  -4  -7  -7 1095.59   52.59
   4   7   7 1057.89   51.99
   4   7   7 1058.69   51.99
   5   7   7   55.49    5.00
   6   7   7   -2.80    2.90
   7   7   7   -1.90    3.10
   8   7   7   72.19    6.60
   9   7   7   59.49    6.60
  10   7   7    7.60    4.50
  11   7   7   12.10    5.40
  12   7   7   27.90    6.30
  10  -8  -7   -1.30   16.20
 -10   8   7    0.00    4.50
   9  -8  -7    3.20   12.60
  -9   8   7    8.50    4.30
  -9   8   7    9.20    5.00
   8  -8  -7   -1.60   11.00
  -8   8   7    5.40    3.60
  -8   8   7   11.00    3.80
   7  -8  -7    1.30   10.80
  -7   8   7   14.80    3.70
  -7   8   7    8.30    3.30
   6  -8  -7    2.30    9.70
  -6   8   7    3.60    3.30
  -6   8   7   -0.20    2.70
   5  -8  -7  130.19   17.20
  -5   8   7  195.38    9.70
  -5   8   7  156.78   10.00
   4  -8  -7   69.79    5.10
   4  -8  -7   64.49   12.40
  -4   8   7   86.29    5.70
   3  -8  -7   -2.50    6.40
   3  -8  -7    3.70    2.20
  -3   8   7    7.20    2.40
   2  -8  -7   61.59   10.20
   2  -8  -7   60.09    4.70
  -2   8   7   67.19    4.90
  -2   8   7   59.89    9.20
   1  -8  -7  469.65   23.30
   1  -8  -7  481.65   28.10
  -1   8   7  473.85   27.10
  -1   8   7  460.85   23.30
   0  -8  -7  267.07   14.20
   0  -8  -7  268.37   18.20
   0   8   7  270.57   16.90
   0   8   7  265.17   13.80
  -1  -8  -7   37.40    3.90
  -1  -8  -7   49.30    7.60
   1   8   7   49.10    7.00
   1   8   7   51.89    4.10
  -2  -8  -7  289.97   15.00
  -2  -8  -7  309.47   18.10
   2   8   7  266.87   16.90
   2   8   7  296.27   15.00
  -3  -8  -7  698.13   33.60
   3   8   7  653.83   34.20
   3   8   7  660.03   32.90
   4   8   7   22.40    4.10
   4   8   7   19.30    3.40
   5   8   7   41.60    4.50
   5   8   7   41.70    4.50
   6   8   7   19.90    3.90
   7   8   7  216.78   12.60
   8   8   7   -1.40    3.60
   9   8   7    9.20    4.50
  10   8   7   -2.60    4.70
  11   8   7   30.20    6.10
  12   8   7   -6.60    5.50
  10  -9  -7  -12.70   13.00
 -10   9   7   -1.00    5.40
   9  -9  -7   26.00   14.30
  -9   9   7   22.30    5.60
   8  -9  -7   29.70   13.60
  -8   9   7   37.90    5.00
   7  -9  -7    9.10   11.00
  -7   9   7   12.30    3.90
  -7   9   7    8.40    4.50
   6  -9  -7    7.40   10.30
  -6   9   7    0.80    3.70
  -6   9   7    2.20    3.20
   5  -9  -7    6.00    9.90
  -5   9   7   24.50    3.80
  -5   9   7   22.20    4.30
   4  -9  -7   90.99    6.10
   4  -9  -7   77.69   13.10
  -4   9   7   97.19    6.60
   3  -9  -7   54.79    5.00
   3  -9  -7   48.80   11.90
  -3   9   7   64.69    5.50
   2  -9  -7  279.17   15.20
   2  -9  -7  301.07   21.60
  -2   9   7  305.27   15.30
   1  -9  -7  628.54   30.60
   1  -9  -7  636.04   36.00
  -1   9   7  584.74   34.30
  -1   9   7  627.14   30.50
   0  -9  -7    8.00    6.60
   0  -9  -7   10.60    2.70
   0   9   7   19.00    6.30
   0   9   7   21.90    3.20
  -1  -9  -7  185.48   14.00
  -1  -9  -7  151.78    9.40
   1   9   7  166.88    9.40
   1   9   7  164.38   12.80
  -2  -9  -7  386.86   23.30
   2   9   7  393.66   19.90
   2   9   7  389.96   22.50
  -3  -9  -7   32.00    6.50
   3   9   7   26.20    4.20
   3   9   7   41.20    6.20
  -4  -9  -7  242.38   15.60
   4   9   7  216.18   14.50
   4   9   7  261.17   13.40
  -5  -9  -7  122.89    9.30
   5   9   7  114.39    8.80
   5   9   7  116.39    8.10
   6   9   7    5.50    3.90
   6   9   7    4.70    2.60
   6   9   7    5.80    3.70
   7   9   7   45.90    5.60
   8   9   7   25.20    5.00
   9   9   7   26.90    5.40
  10   9   7   41.90    6.30
  11   9   7   16.40    5.70
   9 -10  -7    9.40   14.90
  -9  10   7   -6.30    4.90
   8 -10  -7   30.60   15.00
  -8  10   7   10.10    4.90
   7 -10  -7   -5.50   12.10
  -7  10   7   -0.80    4.50
   6 -10  -7   17.10   12.60
  -6  10   7   30.60    4.50
   5 -10  -7    2.80    9.70
  -5  10   7   16.70    3.90
   4 -10  -7  130.49   17.60
  -4  10   7  145.19    8.90
   3 -10  -7   50.59   11.80
  -3  10   7   51.89    5.00
   2 -10  -7  239.28   22.80
  -2  10   7  231.88   12.80
   1 -10  -7   -0.10    6.70
  -1  10   7   -1.30    3.00
   0 -10  -7  151.78   14.70
   0  10   7  135.39   13.20
   0  10   7  151.38    9.10
  -1 -10  -7  227.98   18.10
   1  10   7  275.87   15.40
   1  10   7  227.88   16.90
  -2 -10  -7    3.20    6.00
   2  10   7    2.90    3.00
   2  10   7    3.20    5.20
  -3 -10  -7  218.48   15.70
   3  10   7  202.58   11.80
   3  10   7  195.88   14.60
  -4 -10  -7   32.30    7.30
   4  10   7   28.10    4.40
   4  10   7   35.80    6.50
  -5 -10  -7  216.78   14.60
   5  10   7  240.68   12.80
   5  10   7  200.08   14.10
   6  10   7    9.30    3.80
   6  10   7   18.30    4.90
   6  10   7   13.00    4.10
   7  10   7   10.90    3.30
   7  10   7    7.00    4.10
   8  10   7    7.60    4.50
   9  10   7    9.60    4.80
  10  10   7    9.90    5.50
   9 -11  -7   34.20   17.60
  -9  11   7    1.50    5.50
   8 -11  -7  -16.10   15.10
  -8  11   7    9.20    5.20
   7 -11  -7   23.50   14.50
  -7  11   7   33.60    5.50
   6 -11  -7   21.40   13.00
  -6  11   7    9.10    4.60
   5 -11  -7   45.20   13.60
  -5  11   7   58.39    5.60
   4 -11  -7   40.60   12.50
  -4  11   7   62.49    5.70
   3 -11  -7   78.69   14.80
  -3  11   7   96.09    7.50
   2 -11  -7   17.40    9.50
  -2  11   7   12.90    3.90
   1 -11  -7   88.09   13.80
  -1  11   7   95.09    7.40
   0 -11  -7   64.39   11.90
   0  11   7   76.89    6.40
  -1 -11  -7   48.00   10.50
   1  11   7   38.30    8.40
   1  11   7   37.20    4.80
  -2 -11  -7  247.98   19.10
   2  11   7  260.87   13.90
   2  11   7  229.18   17.80
  -3 -11  -7   84.89   11.70
   3  11   7  107.49    7.60
   3  11   7   83.89   15.90
  -4 -11  -7  105.29   12.00
   4  11   7  106.59   11.40
   4  11   7  128.89    8.60
  -5 -11  -7    2.50    5.40
   5  11   7    7.10    5.50
   5  11   7   10.80    4.20
   6  11   7   50.69    7.30
   6  11   7   41.40    5.80
   6  11   7   45.10    6.10
   7  11   7   30.40    5.90
   7  11   7   24.70    5.10
   7  11   7   25.80    4.80
   8  11   7   13.80    4.00
   8  11   7    8.70    4.80
   9  11   7   -0.50    5.90
  10  11   7   13.70    5.70
   8 -12  -7   12.20   16.00
  -8  12   7    9.70    5.60
  -7  12   7   10.70    5.20
   6 -12  -7   21.00   15.00
  -6  12   7   39.60    5.70
   5 -12  -7   17.40   12.60
  -5  12   7   31.70    5.20
   4 -12  -7    5.50   11.00
  -4  12   7   13.30    4.50
   3 -12  -7   12.80   11.20
  -3  12   7   26.40    4.90
   2 -12  -7  228.98   22.70
  -2  12   7  256.77   14.20
   1 -12  -7   -2.70    8.60
  -1  12   7   -1.60    3.70
   0 -12  -7   23.40    9.60
   0  12   7   14.40    4.20
  -1 -12  -7    0.20    8.60
   1  12   7    4.60    3.80
  -2 -12  -7  136.49   16.10
   2  12   7  135.19    9.50
  -3 -12  -7  103.69   14.10
   3  12   7  142.39    9.20
   3  12   7  115.79   13.30
  -4 -12  -7    5.20    7.10
   4  12   7    4.70    6.30
   4  12   7   -3.90    4.00
  -5 -12  -7  101.59   12.30
   5  12   7   77.89   10.40
   5  12   7   94.39    8.20
   6  12   7   72.69    5.00
   6  12   7   58.09    7.40
   6  12   7   58.39    9.00
   6  12   7   62.79    6.70
   7  12   7   17.50    5.10
   7  12   7   21.00    6.30
   7  12   7   13.30    5.40
   8  12   7    9.90    5.40
   8  12   7   -0.20    4.10
   8  12   7    9.30    5.00
   9  12   7   26.40    5.70
   7 -13  -7   17.80   16.00
  -7  13   7   21.10    5.80
  -6  13   7   -5.50    4.90
   5 -13  -7    7.00   13.30
  -5  13   7    5.30    4.90
   4 -13  -7   16.70   12.40
  -4  13   7   13.60    5.00
   3 -13  -7   97.39   18.20
  -3  13   7  149.88   10.00
   2 -13  -7   10.60   10.60
  -2  13   7   17.20    4.90
   1 -13  -7   24.60   11.30
  -1  13   7    9.30    4.50
   0 -13  -7   53.09   12.90
   0  13   7   60.79    6.30
  -1 -13  -7   80.79   14.80
   1  13   7   95.09    8.10
  -2 -13  -7    1.50    8.00
   2  13   7    7.30    4.30
  -3 -13  -7    3.90    7.70
   3  13   7    2.70    4.40
  -4 -13  -7  143.19   16.00
   4  13   7  170.18   11.10
  -5 -13  -7   47.70    9.90
   5  13   7   37.90    5.90
   5  13   7   58.39   10.10
   6  13   7    2.10    2.70
   6  13   7    2.30    4.70
   7  13   7    5.80    5.10
   7  13   7   16.10    7.10
   7  13   7    1.80    4.90
   8  13   7   12.60    5.10
   8  13   7   14.10    5.40
   5 -14  -7  -16.20   12.40
  -5  14   7    3.90    5.50
   4 -14  -7   46.40   16.80
  -4  14   7   73.79    7.60
   3 -14  -7   12.40   12.90
  -3  14   7    9.70    5.10
   2 -14  -7    2.80   11.40
  -2  14   7   11.80    5.20
   1 -14  -7   39.00   13.50
  -1  14   7   41.50    6.00
   0 -14  -7  101.19   17.10
   0  14   7  127.19    9.50
  -1 -14  -7    7.40   10.10
   1  14   7   -3.70    4.50
  -2 -14  -7   14.30    9.40
   2  14   7   27.50    5.50
  -3 -14  -7   62.69   13.40
   3  14   7   70.29    7.30
  -4 -14  -7   46.30   11.50
   4  14   7   79.19    7.30
  -5 -14  -7   10.10    8.30
   5  14   7    7.80    5.20
   6  14   7   -1.30    4.90
   3 -15  -7    9.10   14.00
  -3  15   7    4.20    5.40
   2 -15  -7    2.90   12.10
  -2  15   7   11.20    5.30
   1 -15  -7   53.49   15.70
  -1  15   7   58.09    7.00
   0 -15  -7    8.80   11.90
   0  15   7    3.90    5.30
  -1 -15  -7   25.30   11.70
   1  15   7   30.80    6.00
  -2 -15  -7   48.70   13.10
  -3 -15  -7   23.40   11.30
   3  15   7   34.20    6.30
  -4 -15  -7   -3.40    8.40
   4  15   7    9.40    5.60
   3  11  -8   17.10   11.10
   3  11  -8    3.50    5.00
   2  11  -8   -1.20    5.50
  -2 -11   8    5.80   12.70
   1  11  -8   60.89    7.20
  -1 -11   8   66.09   18.10
   0  11  -8   -2.80    4.80
   0 -11   8    2.30   14.80
  -1  11  -8   -3.60    5.30
   1 -11   8    3.50   15.00
   2 -11   8    1.00   14.20
  -3  11  -8   19.80    5.70
   3 -11   8   10.50   14.00
  -4  11  -8    7.80    5.20
   4 -11   8   13.70   14.20
  -5  11  -8    5.50    5.50
   5 -11   8   -0.40   15.10
   5  10  -8   33.60    5.70
   5  10  -8   25.30   12.40
   4  10  -8    0.10    4.90
   4  10  -8   -9.60    4.40
   4  10  -8  -14.30   10.70
   3  10  -8    8.10    4.90
   3  10  -8    3.80   10.10
   3  10  -8   11.20    4.80
   2  10  -8   20.90    5.00
  -2 -10   8   36.60   15.20
   1  10  -8   31.10    5.40
  -1 -10   8   40.20   15.20
   0  10  -8   13.00    4.60
   0 -10   8   19.10   13.60
  -1  10  -8   -0.80    4.20
   1 -10   8   -0.90   12.30
  -2  10  -8    9.20    4.50
   2 -10   8   -2.90   12.00
  -3  10  -8   14.20    4.80
   3 -10   8   21.80   14.50
   4 -10   8   33.60   16.20
  -5  10  -8   -2.50    5.10
   5 -10   8  -14.80   13.00
  -6  10  -8   17.20    5.50
   6 -10   8   -0.40   17.20
  -7  10  -8   -3.30    5.40
   7 -10   8   17.40   17.40
   6   9  -8   19.40    5.10
   6   9  -8   31.60   12.90
   5   9  -8    1.40    4.30
   5   9  -8   -1.60    9.00
   4   9  -8    9.70   10.30
   4   9  -8   10.20    4.50
   4   9  -8    7.70    4.30
   3   9  -8   59.29   12.40
   3   9  -8   58.99    6.70
   3   9  -8   77.89    6.80
   2   9  -8   30.60    5.10
  -2  -9   8   53.49   14.40
   1   9  -8    2.50    3.80
  -1  -9   8    6.10   10.30
   0   9  -8    7.20    4.00
   0  -9   8    2.50   10.60
  -1   9  -8  123.09    9.00
   1  -9   8  113.49   18.70
  -2   9  -8    3.00    4.10
   2  -9   8    8.50   10.40
  -3   9  -8   35.50    5.30
   3  -9   8   40.00   13.80
  -4   9  -8   -0.20    4.20
   4  -9   8    7.90   12.30
  -5   9  -8   20.90    5.20
   5  -9   8   23.80   14.70
  -6   9  -8  -10.50    4.50
   6  -9   8  -16.50   12.00
  -7   9  -8   16.20    6.10
   7  -9   8   36.50   17.80
  -8   9  -8    5.20    6.00
   8  -9   8  -14.20   26.50
  -9   9  -8    4.30    6.10
   9  -9   8   18.10   17.20
   7   8  -8   14.70   11.40
   7   8  -8    3.90    4.60
   6   8  -8    9.10    9.90
   6   8  -8   -3.40    4.10
   5   8  -8   11.60    4.20
   5   8  -8   12.20    9.60
   4   8  -8   32.20   11.10
   4   8  -8   39.60    5.20
   3   8  -8   58.69    6.30
   3   8  -8   56.09    5.70
   3   8  -8   54.09   11.50
   2   8  -8   24.60    4.40
  -2  -8   8   15.00   10.50
   1   8  -8   28.70    4.50
  -1  -8   8   32.60   11.30
   0   8  -8   40.60    5.00
   0  -8   8   37.00   13.20
  -1   8  -8   -2.30    3.40
   1  -8   8    0.40    9.80
  -2   8  -8    6.50    3.80
   2  -8   8   16.80   11.10
  -3   8  -8   26.20    4.70
   3  -8   8   57.49   15.00
  -4   8  -8   23.70    4.70
   4  -8   8   15.50   12.60
  -5   8  -8    3.90    4.10
   5  -8   8    9.60   11.80
  -6   8  -8   61.69    6.80
   6  -8   8   47.30   15.70
  -7   8  -8   13.10    5.20
   7  -8   8   21.80   14.90
  -8   8  -8   12.60    5.80
   8  -8   8   17.00   15.10
  -9   8  -8    1.20    6.20
   9  -8   8    1.30   15.10
 -10   8  -8    2.30    6.20
  10  -8   8   21.10   16.90
   8   7  -8    3.40    4.40
   8   7  -8  -11.30    9.40
   7   7  -8    5.50    9.40
   7   7  -8    1.90    4.20
   6   7  -8   36.60   10.90
   6   7  -8   34.30    4.80
   5   7  -8   25.40    4.20
   5   7  -8   22.90    9.80
   4   7  -8   15.40    3.90
   4   7  -8   13.00    8.80
   3   7  -8   40.20    5.40
   3   7  -8   56.59    5.30
   3   7  -8   46.60   10.40
   2   7  -8   37.70    4.90
   2   7  -8   38.20    9.30
   2   7  -8   46.20    4.80
   1   7  -8   74.09    6.60
  -1  -7   8   88.29   15.70
   0   7  -8   17.10    3.80
   0  -7   8   18.80   10.10
  -1   7  -8    7.60    3.40
   1  -7   8   13.90    9.60
  -2   7  -8   20.60    4.00
   2  -7   8   16.30    9.90
  -3   7  -8   10.70    3.80
   3  -7   8   10.60   10.50
  -4   7  -8   -0.60    3.50
   4  -7   8    4.00    9.50
  -5   7  -8   51.99    5.70
   5  -7   8   39.50   13.00
  -6   7  -8   25.10    5.20
   6  -7   8   13.80   11.50
  -7   7  -8    9.50    4.70
   7  -7   8   20.60   12.90
  -8   7  -8   -9.30    4.80
   8  -7   8    8.30   13.70
  -9   7  -8   21.30    6.10
   9  -7   8   12.40   14.00
 -10   7  -8    6.50    6.00
  10  -7   8    8.10   15.20
   9   6  -8    2.70    4.20
   9   6  -8    1.80   11.00
   8   6  -8   -1.80    9.70
   8   6  -8    2.40    4.20
   7   6  -8   81.09   13.50
   7   6  -8   80.29    7.20
   6   6  -8   32.10    4.50
   6   6  -8   32.90   10.10
   5   6  -8    4.10    3.30
   5   6  -8    0.30    7.80
   4   6  -8   26.60    5.00
   4   6  -8   26.90    8.80
   3   6  -8   84.09    7.30
   3   6  -8   93.69   12.50
   3   6  -8   92.19    7.40
   2   6  -8   65.69    5.60
   2   6  -8   53.09    5.40
   2   6  -8   40.00    9.10
   1   6  -8   31.50    4.10
  -1  -6   8   41.90   11.50
   0   6  -8   98.19    8.00
   0  -6   8   74.39   12.80
  -1   6  -8   74.59    6.90
   1  -6   8   76.99   13.40
  -2   6  -8    7.80    3.20
   2  -6   8   19.50    9.30
  -3   6  -8    9.00    3.30
   3  -6   8    7.50    8.90
  -4   6  -8  101.79    7.70
   4  -6   8   96.19   16.10
  -5   6  -8   39.00    5.10
   5  -6   8   55.79   13.40
  -6   6  -8    3.50    4.00
   6  -6   8   -7.00    8.80
  -7   6  -8   -2.70    3.80
   7  -6   8    1.70   10.30
  -8   6  -8   67.09    7.30
   8  -6   8   65.69   16.00
  -9   6  -8   -1.20    4.90
   9  -6   8    8.60   12.70
 -10   6  -8   -4.10    5.30
  10  -6   8  -13.60   13.10
 -11   6  -8    2.20    6.20
  11  -6   8   -1.70   13.60
   9   5  -8    3.30   10.20
   9   5  -8    2.10    4.00
   8   5  -8   57.79    5.50
   8   5  -8   36.30   11.60
   7   5  -8   22.00   10.20
   7   5  -8   34.50    4.90
   6   5  -8    0.20    3.00
   6   5  -8    4.20    7.80
   5   5  -8   19.50    3.50
   5   5  -8   12.00    7.50
   4   5  -8  140.79    8.10
   4   5  -8  130.29   13.90
  -4  -5   8  112.29    7.80
   3   5  -8   18.30    3.20
   3   5  -8   29.00    7.60
  -3  -5   8   14.40    2.90
   2   5  -8   72.69    5.50
   2   5  -8   69.99   10.70
   2   5  -8   64.99    6.00
  -2  -5   8   57.89    5.10
   1   5  -8   16.30    3.00
  -1  -5   8   17.70    2.80
  -1  -5   8   13.90    7.60
   0   5  -8  242.48   12.50
   0  -5   8  223.48   12.30
   0  -5   8  232.08   20.50
  -1   5  -8   29.70    3.70
  -2   5  -8    9.70    3.00
  -3   5  -8  221.28   12.80
  -4   5  -8   52.09    5.10
   4  -5   8   46.70   11.30
  -5   5  -8    9.90    3.40
   5  -5   8   14.20    9.50
  -6   5  -8    5.00    3.50
   6  -5   8   -2.30    8.50
  -7   5  -8   64.09    6.20
   7  -5   8   66.39   14.10
  -8   5  -8   28.10    5.10
   8  -5   8   13.40   11.40
  -9   5  -8   -2.10    4.70
   9  -5   8    3.40   11.40
 -10   5  -8   13.50    5.90
  10  -5   8   20.20   13.90
 -11   5  -8   30.60    7.60
  11  -5   8   37.50   15.60
 -12   5  -8   -1.00    6.80
  12  -5   8   -8.00   13.50
  10   4  -8    0.80    3.80
  10   4  -8   -6.00   10.90
   9   4  -8   26.40    4.40
   9   4  -8   20.80   11.00
   8   4  -8   -9.50    8.60
   8   4  -8    1.40    3.50
   7   4  -8    5.10    8.50
   7   4  -8    0.00    3.20
  -7  -4   8   -3.70    3.30
   6   4  -8   11.30    3.00
   6   4  -8   12.20    8.00
  -6  -4   8   13.00    3.10
   5   4  -8   19.90    3.30
   5   4  -8   16.60    7.80
  -5  -4   8   14.90    3.10
   4   4  -8    0.30    6.10
   4   4  -8    0.90    2.50
  -4  -4   8    3.90    2.40
   3   4  -8   40.80    8.30
   3   4  -8   37.90    3.60
   2   4  -8  175.38   10.50
   2   4  -8  177.88   15.50
   2   4  -8  164.58    9.30
   1   4  -8  382.26   19.30
   1   4  -8  388.06   19.00
   1   4  -8  354.66   22.70
   0   4  -8   68.49    4.90
   0  -4   8   65.19   10.90
   0  -4   8   56.19    4.40
  -1   4  -8    4.30    2.30
  -1   4  -8    0.50    2.20
   1  -4   8    5.40    6.20
  -2   4  -8   98.69    6.80
  -2   4  -8  103.89    6.60
   2  -4   8  109.69   13.30
  -3   4  -8   96.19    9.10
  -3   4  -8   87.39    6.30
   3  -4   8   89.19   12.70
  -4   4  -8   27.30    3.70
   4  -4   8   22.50    8.90
  -5   4  -8   98.39    7.00
   5  -4   8   99.89   14.30
  -6   4  -8  104.59    7.70
   6  -4   8   91.59   14.30
  -7   4  -8    3.90    3.70
   7  -4   8   12.20   10.00
  -8   4  -8    1.40    4.10
   8  -4   8    3.40    9.20
   9  -4   8   -5.90    9.50
  10  -4   8   42.50    7.30
  10  -4   8   71.59   15.20
  11  -4   8   19.60   13.30
  11  -4   8    6.90    6.70
  12  -4   8    4.80   13.20
  12  -4   8    3.70    6.70
  10   3  -8   22.50    7.70
  10   3  -8    9.70   11.10
   9   3  -8    5.80    3.40
   9   3  -8   11.80   10.80
   8   3  -8    2.90    8.90
   8   3  -8   12.40    3.30
  -8  -3   8    6.80    3.20
   7   3  -8   21.90    3.40
   7   3  -8   28.70    9.50
  -7  -3   8   21.00    3.40
   6   3  -8  150.38   15.00
   6   3  -8  139.89    7.80
  -6  -3   8  118.69    7.80
   5   3  -8   17.30    2.90
   5   3  -8   13.50    7.20
  -5  -3   8   20.00    2.80
   4   3  -8  177.68    9.20
   4   3  -8  186.18   14.60
  -4  -3   8  154.78    9.10
   3   3  -8   82.09    5.10
   3   3  -8   74.99    9.80
  -3  -3   8   69.29    4.80
   2   3  -8  106.39   10.70
   2   3  -8  121.09    6.80
  -2  -3   8  121.29    6.70
   1   3  -8    7.70    2.00
   1   3  -8    7.40    5.90
   1   3  -8    6.90    4.90
   1   3  -8    4.20    2.40
  -1  -3   8    6.50    1.80
   0   3  -8   56.09    9.70
   0   3  -8   55.79    4.30
   0  -3   8   47.00    8.90
  -1   3  -8   34.00    8.00
  -1   3  -8   35.90    3.80
  -1   3  -8   39.00    3.60
   1  -3   8   39.90    8.80
  -2   3  -8   47.70    9.10
  -2   3  -8   59.79    4.70
  -2   3  -8   60.29    5.40
   2  -3   8   67.49   10.30
  -3   3  -8   45.80    4.40
  -3   3  -8   40.10    8.70
  -3   3  -8   39.00    3.80
   3  -3   8   41.70    8.70
  -4   3  -8   32.90    8.10
  -4   3  -8   24.20    3.30
  -4   3  -8   18.10    3.20
   4  -3   8   28.50    8.30
  -5   3  -8   75.39   11.30
  -5   3  -8   86.29    6.20
   5  -3   8   96.89   12.90
  -6   3  -8   93.89   12.70
   6  -3   8  108.69   14.10
   6  -3   8  103.59    8.00
   7  -3   8   15.20    8.70
   7  -3   8   10.60    4.10
   8  -3   8   31.30    5.70
   8  -3   8   50.29   11.50
   9  -3   8   47.50   12.80
   9  -3   8   27.50    6.30
  10  -3   8   37.40   12.00
  10  -3   8   29.00    6.30
  11  -3   8    5.90   12.40
  11  -3   8   19.60    6.50
  12  -3   8  -10.70   12.20
  12  -3   8   -1.10   10.10
  11   2  -8   30.60   18.60
  10   2  -8   13.50    3.80
  10   2  -8   11.30   11.20
 -10  -2   8    1.40    6.40
   9   2  -8   17.50   10.80
   9   2  -8   17.20    3.60
  -9  -2   8    9.00    3.40
   8   2  -8    8.20    9.30
   8   2  -8    0.70    2.80
  -8  -2   8    0.80    3.50
   7   2  -8  174.68    9.20
   7   2  -8  187.88   17.20
  -7  -2   8  149.49    9.20
   6   2  -8   39.80    3.50
   6   2  -8   44.80    9.40
  -6  -2   8   35.90    3.40
   5   2  -8   89.79    5.30
   5   2  -8   82.09   11.20
  -5  -2   8   71.19    5.20
   4   2  -8  496.15   24.20
   4   2  -8  484.55   28.80
  -4  -2   8  500.55   24.20
   3   2  -8  204.28   15.40
   3   2  -8  228.18   11.20
  -3  -2   8  214.98   11.10
   2   2  -8    4.40    5.30
   2   2  -8    9.30    1.90
   2   2  -8   14.20    5.20
  -2  -2   8   12.80    1.90
   1   2  -8   18.90    2.80
   1   2  -8   21.40    2.30
   1   2  -8   18.40    6.60
   1   2  -8   15.90    5.20
  -1  -2   8   16.50    2.10
   0   2  -8   13.60    6.00
   0   2  -8   15.40    2.70
   0   2  -8   17.10    2.70
   0   2  -8   15.30    5.10
   0   2  -8   20.90    2.40
  -1   2  -8  473.45   23.20
  -1   2  -8  474.25   29.70
  -1   2  -8  480.85   23.40
   1  -2   8  454.65   27.60
  -2   2  -8  729.43   35.30
  -2   2  -8  713.63   39.60
  -2   2  -8  738.13   35.60
   2  -2   8  718.03   39.70
  -3   2  -8   16.40    2.50
  -3   2  -8    8.70    5.40
   3  -2   8   15.70    6.40
  -4   2  -8   76.79    5.70
  -4   2  -8   94.89   11.10
   4  -2   8   89.99   10.90
   4  -2   8   77.29    6.30
  -5   2  -8  131.89    8.50
   5  -2   8  133.59    8.60
   5  -2   8  137.79   13.10
  -6   2  -8   38.70    8.20
   6  -2   8   52.19    9.40
   6  -2   8   41.40    4.80
  -7   2  -8  164.38   15.00
   7  -2   8  206.48   17.40
   7  -2   8  188.88   11.40
  -8   2  -8   70.89   10.90
   8  -2   8   61.09    6.30
   8  -2   8   88.79   13.00
   9  -2   8   11.10    4.70
   9  -2   8    9.30    9.40
  10  -2   8   64.49    7.60
  11  -2   8    8.80   11.50
  11  -2   8    1.90    5.40
  12  -2   8    8.20    6.30
  12  -2   8   33.00   13.50
  13  -2   8   -3.10   11.50
  13  -2   8    5.40    6.90
  11   1  -8   16.60    4.30
  11   1  -8   31.20   13.80
  10   1  -8    2.10    3.50
  10   1  -8  -16.50    9.60
 -10  -1   8    1.60    3.50
   9   1  -8   -0.10    9.80
   9   1  -8   10.50    3.30
  -9  -1   8    5.20    3.10
   8   1  -8  202.28   18.90
   8   1  -8  181.78    9.80
  -8  -1   8  165.28    9.80
   7   1  -8    0.90    2.30
   7   1  -8   -1.10    7.90
  -7  -1   8    1.20    2.20
   6   1  -8   49.80    9.50
   6   1  -8   31.40    3.10
  -6  -1   8   41.30    3.20
   5   1  -8   35.40   10.10
   5   1  -8   21.00    2.40
  -5  -1   8   29.70    2.60
   4   1  -8  194.18    9.50
   4   1  -8  183.38   14.50
  -4  -1   8  182.08    9.50
   3   1  -8    8.70    5.10
   3   1  -8    4.80    1.50
   3   1  -8    7.80    5.60
  -3  -1   8    6.60    1.50
   2   1  -8  446.96   25.70
   2   1  -8  434.76   27.10
   2   1  -8  459.05   22.10
  -2  -1   8  467.75   22.10
   1   1  -8  151.38    8.10
   1   1  -8  146.39   11.30
   1   1  -8  162.38    8.30
   0   1  -8  147.59    7.90
   0   1  -8  151.58    8.10
   0   1  -8  151.68   11.00
   0   1  -8  138.89   12.20
   0   1  -8  157.28    8.30
  -1   1  -8   33.70    7.00
  -1   1  -8   28.50    2.90
  -1   1  -8   31.40    2.70
   1  -1   8   29.60    6.80
  -2   1  -8    3.30    1.80
  -2   1  -8    6.20    4.40
  -2   1  -8    2.40    1.80
   2  -1   8   -4.20    4.10
  -3   1  -8   40.10    7.10
  -3   1  -8   43.50    3.90
   3  -1   8   49.30    4.40
   3  -1   8   44.70    7.90
  -4   1  -8  237.78   16.60
  -4   1  -8  264.17   13.80
   4  -1   8  254.37   17.10
   4  -1   8  257.27   13.60
  -5   1  -8  113.59    7.10
  -5   1  -8  124.79   11.00
   5  -1   8  110.59   11.30
   5  -1   8  113.99    7.50
  -6   1  -8  342.27   21.70
   6  -1   8  396.66   22.90
   6  -1   8  338.57   18.60
  -7   1  -8   93.09   10.40
   7  -1   8  101.29    7.70
   7  -1   8  118.19   12.90
  -8   1  -8   23.00    7.20
   8  -1   8   19.20    4.50
   8  -1   8   35.10    9.40
  -9   1  -8   47.90    8.90
   9  -1   8   40.20    9.90
   9  -1   8   46.60    6.20
  10  -1   8  176.48   18.20
  10  -1   8  176.88   12.20
  11  -1   8   -1.20   10.00
  11  -1   8   -3.00    5.10
  12  -1   8   -3.20   10.60
  12  -1   8    8.60    6.10
  13  -1   8   36.90   13.80
  13  -1   8   23.70    7.20
  11   0  -8    6.20   11.70
  11   0  -8    6.50    3.90
 -11   0   8    1.90    3.80
  10   0  -8   -3.40   10.20
  10   0  -8   14.40    3.70
 -10   0   8    2.10    3.50
   9   0  -8   10.50    9.70
   9   0  -8    2.80    3.00
  -9   0   8   -1.70    2.70
   8   0  -8    3.90    8.50
   8   0  -8    3.50    2.60
  -8   0   8    0.20    2.40
   7   0  -8   22.80    2.80
   7   0  -8    7.00    8.60
  -7   0   8   22.10    2.60
   6   0  -8   30.60    9.20
   6   0  -8   26.70    2.70
  -6   0   8   30.30    2.60
   5   0  -8    7.00    1.80
   5   0  -8    4.90    6.00
  -5   0   8    6.60    1.70
   4   0  -8    4.60    5.60
   4   0  -8    1.70    1.20
  -4   0   8   -0.30    1.10
   3   0  -8   33.90    6.70
   3   0  -8   36.10    2.30
  -3   0   8   31.00    3.20
  -3   0   8   24.10    2.20
  -3   0   8   24.20    5.70
   2   0  -8  222.78   15.10
   2   0  -8  229.88   11.20
   2   0  -8  228.68   11.40
   1   0  -8  187.18   13.80
   1   0  -8  192.38   12.80
   1   0  -8  179.68    9.30
   1   0  -8  184.78    9.40
   0   0  -8  111.39   10.40
   0   0  -8  109.69    6.10
   0   0  -8  115.39    6.30
   0   0  -8  119.39    9.50
  -1   0  -8  222.58   11.30
  -1   0  -8  225.58   14.80
  -1   0  -8  221.28   11.20
  -1   0  -8  203.98   13.40
  -2   0  -8   14.60    2.40
  -2   0  -8    8.60    4.70
   2   0   8   14.00    2.70
   2   0   8   15.60    5.60
  -3   0  -8    5.00    2.10
  -3   0  -8    2.00    4.10
   3   0   8    7.70    2.40
   3   0   8    5.20    4.60
  -4   0  -8  292.07   18.20
  -4   0  -8  291.97   15.30
   4   0   8  324.57   18.60
   4   0   8  301.87   15.60
  -5   0  -8   99.99   10.00
  -5   0  -8   71.69    5.40
   5   0   8   72.29    5.80
   5   0   8   84.69    9.50
  -6   0  -8   18.80    5.50
   6   0   8   19.10    5.80
   6   0   8   16.20    3.40
  -7   0  -8   19.70    5.90
   7   0   8   20.10    4.80
   7   0   8   28.40    7.30
  -8   0  -8   65.99    8.60
   8   0   8   54.99    5.90
   8   0   8   71.79   10.30
  -9   0  -8   63.49    9.40
   9   0   8   98.49   12.50
   9   0   8   73.19    7.00
 -10   0  -8   15.10    6.30
  10   0   8    7.30    8.20
  10   0   8    1.70    4.60
 -11   0  -8   37.40    8.40
  11   0   8   25.70    5.80
  11   0   8   39.90   11.10
  12   0   8   29.50    6.80
  12   0   8   32.00   11.70
  13   0   8    4.80    6.50
  13   0   8    5.20   10.60
  11  -1  -8   38.20   13.60
  11  -1  -8   26.10    4.40
  10  -1  -8    9.90   11.30
  10  -1  -8    0.50    3.40
 -10   1   8   -1.00    2.90
   9  -1  -8  -15.80    9.10
   9  -1  -8   -1.00    2.90
  -9   1   8    0.60    2.60
   8  -1  -8  182.08    9.90
   8  -1  -8  206.48   18.80
  -8   1   8  175.88    9.60
   7  -1  -8   37.10    9.90
   7  -1  -8   52.19    4.00
  -7   1   8   45.20    3.70
   6  -1  -8   12.50    1.90
   6  -1  -8   -0.60    6.80
  -6   1   8   11.70    2.00
   5  -1  -8  181.88    9.00
   5  -1  -8  169.98   14.80
  -5   1   8  182.78    8.90
   4  -1  -8  273.97   18.20
  -4   1   8  275.87   17.60
   3  -1  -8   -2.30    4.30
  -3   1   8    0.20    3.90
   2  -1  -8  281.27   14.00
   2  -1  -8  291.07   14.00
   2  -1  -8  311.27   18.10
  -2   1   8  292.07   17.40
   1  -1  -8    8.20    5.20
   1  -1  -8    4.90    1.30
   1  -1  -8    1.10    1.30
  -1   1   8    2.60    2.00
  -1   1   8    4.30    4.20
   0  -1  -8  389.06   18.70
   0  -1  -8  380.06   22.20
   0  -1  -8  381.36   21.30
  -1  -1  -8  135.09   10.20
  -1  -1  -8  130.19    9.10
  -1  -1  -8  122.09    6.70
   1   1   8  125.69    6.90
  -2  -1  -8   42.50    5.10
  -2  -1  -8   34.80    3.10
  -2  -1  -8   43.40    6.10
  -2  -1  -8   29.90    2.90
   2   1   8   39.90    3.30
  -3  -1  -8  927.71   46.90
  -3  -1  -8  906.51   44.40
   3   1   8  933.11   44.50
   3   1   8  906.81   46.70
  -4  -1  -8  109.69    8.80
  -4  -1  -8  102.09    6.00
   4   1   8   90.79    6.30
   4   1   8   98.99    8.60
  -5  -1  -8   56.89    4.60
  -5  -1  -8   83.59    8.10
   5   1   8   59.39    5.10
   5   1   8   66.19    7.30
  -6  -1  -8  191.68   12.20
  -6  -1  -8  173.88   10.20
   6   1   8  203.38   13.00
   6   1   8  188.88   10.70
  -7  -1  -8   78.69    8.30
   7   1   8   77.39    6.60
   7   1   8  109.49    9.70
  -8  -1  -8  137.49   10.80
   8   1   8  133.49   12.20
   8   1   8  108.09    8.70
  -9  -1  -8   10.00    5.10
   9   1   8    9.50    6.50
   9   1   8   -0.70    4.20
 -10  -1  -8   -0.30    5.10
  10   1   8    2.20    6.90
  10   1   8   -3.90    4.10
 -11  -1  -8   49.40    9.30
  11   1   8   46.30    6.50
  11   1   8   44.40   10.50
 -12  -1  -8    3.10    7.10
  12   1   8    9.30    9.50
  12   1   8   20.60    6.10
  13   1   8    2.00    6.90
  13   1   8    6.20    9.50
  11  -2  -8   12.50    4.30
  11  -2  -8   17.50   13.10
 -11   2   8    2.70    3.60
  10  -2  -8   13.40   11.80
  10  -2  -8    0.40    3.40
 -10   2   8   -1.30    2.90
   9  -2  -8   38.30    3.80
   9  -2  -8   23.50   11.90
  -9   2   8   27.20    3.20
   8  -2  -8  167.68    9.20
   8  -2  -8  196.68   18.80
  -8   2   8  161.68    8.90
   7  -2  -8   -0.10    7.80
   7  -2  -8   -1.90    2.20
   6  -2  -8   35.60    9.00
  -6   2   8   32.60    2.40
   5  -2  -8  166.58   14.50
   4  -2  -8   74.29    9.50
  -4   2   8   68.79    8.60
   3  -2  -8   50.29    8.30
  -3   2   8   54.99    7.50
   2  -2  -8   61.09    8.20
  -2   2   8   58.59    7.30
   1  -2  -8  824.32   42.20
   1  -2  -8  812.72   39.10
  -1   2   8  822.62   41.90
   0  -2  -8  251.07   12.40
   0  -2  -8  256.07   15.00
   0   2   8  251.57   14.70
   0   2   8  251.07   12.70
   0   2   8  249.08   12.40
  -1  -2  -8    6.00    3.70
  -1  -2  -8    5.50    1.50
   1   2   8    7.20    1.70
  -2  -2  -8  187.98   11.90
  -2  -2  -8  178.88    9.40
  -2  -2  -8  177.28   11.00
   2   2   8  183.68    9.50
  -3  -2  -8  428.76   21.70
  -3  -2  -8  437.76   23.60
  -3  -2  -8  446.86   22.80
   3   2   8  441.76   21.80
  -4  -2  -8    3.80    1.90
  -4  -2  -8   -0.20    3.10
   4   2   8    0.90    2.10
  -5  -2  -8  173.08    9.70
  -5  -2  -8  189.68   12.00
   5   2   8  186.38   11.10
   5   2   8  170.98    9.90
  -6  -2  -8   89.79    6.10
  -6  -2  -8  106.99    7.50
   6   2   8   99.19    8.40
   6   2   8   93.49    6.60
  -7  -2  -8  200.88   12.40
   7   2   8  205.48   11.70
   7   2   8  218.58   13.50
  -8  -2  -8   38.90    5.70
   8   2   8   25.00    6.10
   8   2   8   28.50    4.60
  -9  -2  -8   12.50    5.00
   9   2   8   10.60    4.50
   9   2   8   14.10    6.20
 -10  -2  -8  189.78   13.90
  10   2   8  212.28   12.70
  10   2   8  202.68   15.80
 -11  -2  -8   19.20    6.60
  11   2   8   34.80    5.80
  11   2   8   18.40    8.40
 -12  -2  -8   -0.30    8.30
  12   2   8    9.50    5.60
  12   2   8    7.90    8.20
 -13  -2  -8  -13.50    6.90
  13   2   8    4.70    8.70
  13   2   8   14.10    6.80
  11  -3  -8    8.50   13.90
 -11   3   8    1.70    3.50
 -11   3   8   -9.70    3.40
  10  -3  -8    5.80   11.20
 -10   3   8   -3.10    3.00
 -10   3   8    8.10    3.10
   9  -3  -8   57.39   13.20
  -9   3   8   62.19    4.50
  -9   3   8   33.80    3.70
   8  -3  -8   -1.10    8.80
  -8   3   8    6.10    2.20
  -8   3   8   -2.50    2.20
   7  -3  -8   -3.10    7.90
  -7   3   8    0.80    1.50
   6  -3  -8   39.40    9.40
   5  -3  -8   26.10    7.80
   4  -3  -8   69.49    9.40
  -4   3   8   58.99    8.40
   3  -3  -8   49.40    7.70
  -3   3   8   47.90    6.90
   2  -3  -8  345.17   20.10
  -2   3   8  325.67   19.40
   1  -3  -8  241.88   11.70
   1  -3  -8  241.68   15.60
  -1   3   8  229.18   14.80
  -1   3   8  242.48   11.70
   0  -3  -8  276.77   15.90
   0   3   8  265.67   13.20
   0   3   8  261.87   15.40
  -1  -3  -8   77.29    6.80
  -1  -3  -8   70.29    4.40
   1   3   8   78.19    4.60
   1   3   8   86.09    6.50
  -2  -3  -8   72.99    6.30
  -2  -3  -8   75.39    4.50
   2   3   8   73.09    4.70
  -3  -3  -8    7.20    2.20
  -3  -3  -8    9.80    3.30
  -3  -3  -8    2.80    3.30
   3   3   8    4.40    2.30
  -4  -3  -8   15.10    3.20
  -4  -3  -8   15.60    2.30
  -4  -3  -8   17.50    2.70
   4   3   8   16.40    2.70
  -5  -3  -8   53.59    4.20
  -5  -3  -8   58.59    4.50
  -5  -3  -8   53.69    4.30
   5   3   8   51.59    4.60
  -6  -3  -8  547.25   27.40
  -6  -3  -8  552.34   27.20
   6   3   8  559.94   27.60
  -7  -3  -8    3.80    2.60
   7   3   8    5.90    2.90
   7   3   8    6.10    3.00
   8   3   8   -0.30    3.30
   8   3   8    1.40    3.70
  -9  -3  -8  284.87   16.40
   9   3   8  293.37   16.10
 -10  -3  -8  110.99    9.50
  10   3   8  120.69   11.10
  10   3   8  132.39    9.40
 -11  -3  -8   -3.10    4.90
  11   3   8    3.00    4.60
  11   3   8   19.40    7.10
 -12  -3  -8   -4.70    6.40
  12   3   8    4.70    7.10
  12   3   8    6.20    5.40
 -13  -3  -8    0.50    7.60
  13   3   8   15.30    8.40
  13   3   8   14.60    6.50
 -11   4   8   10.70    3.60
 -11   4   8   -8.70    3.60
  10  -4  -8   14.10   12.50
 -10   4   8   15.60    3.30
 -10   4   8    5.90    3.30
   9  -4  -8   -0.90    9.90
  -9   4   8   -4.20    2.70
  -9   4   8    4.30    2.50
   8  -4  -8   24.40   10.20
  -8   4   8    7.80    2.40
  -8   4   8   13.00    2.30
   7  -4  -8   32.80   10.50
  -7   4   8   20.40    2.90
  -7   4   8   22.00    2.80
   6  -4  -8   87.99   12.80
  -6   4   8   84.49    4.70
  -6   4   8   82.89    4.70
   5  -4  -8  170.28   16.00
   4  -4  -8   56.49    8.90
  -4   4   8   52.59    8.10
   3  -4  -8  263.67   17.60
  -3   4   8  250.47   16.40
   2  -4  -8   38.10    2.30
   2  -4  -8   34.00    6.80
  -2   4   8   37.80    2.30
  -2   4   8   31.90    5.90
   1  -4  -8   17.10    5.40
   1  -4  -8   13.20    1.50
  -1   4   8    6.80    4.20
  -1   4   8   14.10    1.50
   0  -4  -8   -0.70    4.30
   0  -4  -8    7.40    1.70
   0   4   8   11.10    4.40
  -1  -4  -8    3.20    1.60
  -1  -4  -8    0.90    3.70
   1   4   8    2.40    1.80
   1   4   8    1.30    3.30
  -2  -4  -8  113.99    6.40
   2   4   8  106.79    6.60
   2   4   8  116.19    7.60
  -3  -4  -8  564.14   28.00
  -3  -4  -8  568.04   28.60
  -3  -4  -8  586.94   28.90
   3   4   8  577.24   28.10
  -4  -4  -8    0.20    1.90
   4   4   8    2.30    2.10
  -5  -4  -8  344.97   17.60
   5   4   8  349.57   17.70
   6   4   8    2.60    2.50
   7   4   8   44.90    7.20
   8   4   8   29.60    4.30
   9   4   8   65.19    6.30
  10   4   8   11.00    4.10
  10   4   8    2.40    4.10
  11   4   8   19.00    5.30
  12   4   8   -0.90    5.30
  12   4   8   10.00    6.20
  13   4   8   -2.80    5.50
  13   4   8   -1.90    6.00
  11  -5  -8    8.20   14.10
 -11   5   8   10.70    3.90
  10  -5  -8    7.60   12.20
 -10   5   8   -0.20    3.30
 -10   5   8   -5.20    3.30
   9  -5  -8   23.90   12.60
  -9   5   8   22.70    3.20
  -9   5   8   10.30    3.00
   8  -5  -8   10.60   10.00
  -8   5   8    4.70    2.40
  -8   5   8    7.60    2.60
   7  -5  -8   93.99   15.00
  -7   5   8   84.49    5.40
  -7   5   8   86.29    5.30
   6  -5  -8   40.50    9.80
  -6   5   8   44.00    3.90
  -6   5   8   48.20    3.60
   5  -5  -8  102.49   15.70
  -5   5   8  115.39    6.10
  -5   5   8  119.89    6.40
   4  -5  -8  245.68   18.20
  -4   5   8  251.17   12.40
  -4   5   8  254.87   12.30
   3  -5  -8   36.10    7.70
  -3   5   8   16.70    5.60
  -3   5   8   41.50    2.60
   2  -5  -8  149.09   11.70
  -2   5   8  115.49   10.40
  -2   5   8  130.19    6.70
   1  -5  -8  125.39   10.20
   1  -5  -8  111.29    5.90
  -1   5   8   97.99    9.00
  -1   5   8  108.39    6.20
   0  -5  -8  351.76   17.00
   0  -5  -8  354.46   19.90
   0   5   8  333.07   19.30
   0   5   8  344.27   17.00
  -1  -5  -8   63.39    6.90
  -1  -5  -8   45.60    3.50
   1   5   8   49.40    5.60
   1   5   8   48.20    3.70
  -2  -5  -8  803.62   38.40
   2   5   8  775.72   39.20
   2   5   8  800.12   38.40
  -3  -5  -8  101.89    6.00
  -3  -5  -8  101.69    6.70
   3   5   8  101.89    6.10
   3   5   8  102.09    6.20
  -4  -5  -8   59.29    4.40
   4   5   8   55.09    4.70
  -5  -5  -8   23.90    3.00
   5   5   8   23.60    3.50
   6   5   8  238.88   13.00
   7   5   8   71.89    6.00
   8   5   8   43.10    4.90
   9   5   8   87.39    7.60
  10   5   8   -1.50    4.00
  11   5   8   30.20    5.80
  12   5   8    0.40    0.90
  12   5   8    2.20    5.10
  13   5   8   30.40    6.70
  11  -6  -8    7.60   14.00
 -11   6   8   -3.50    4.60
 -11   6   8   -3.50    3.80
  10  -6  -8    3.50   13.00
 -10   6   8    5.60    3.60
 -10   6   8    6.50    3.50
   9  -6  -8   22.00   13.00
  -9   6   8   26.00    3.80
  -9   6   8   27.70    3.70
   8  -6  -8   67.69   14.40
  -8   6   8   88.99    5.90
  -8   6   8   82.29    5.90
   7  -6  -8   19.70   10.80
  -7   6   8   34.10    3.30
  -7   6   8   33.30    3.30
   6  -6  -8   27.30   10.00
  -6   6   8   31.00    3.00
  -6   6   8   40.20    3.50
   5  -6  -8   29.30    8.80
  -5   6   8   42.50    3.40
  -5   6   8   32.50    2.90
   4  -6  -8   46.30    9.10
  -4   6   8   62.09    3.90
  -4   6   8   54.39    4.10
   3  -6  -8  423.96   20.80
   3  -6  -8  409.06   25.90
  -3   6   8  424.96   25.10
  -3   6   8  439.26   20.80
   2  -6  -8  185.58    9.50
   2  -6  -8  178.58   14.30
  -2   6   8  184.28    9.50
  -2   6   8  188.68   13.50
   1  -6  -8  139.39   11.90
   1  -6  -8  150.08    7.80
  -1   6   8  160.38   11.30
  -1   6   8  142.89    7.80
   0  -6  -8    2.10    1.60
   0  -6  -8    5.20    4.50
   0   6   8    4.50    3.80
   0   6   8    5.60    1.80
  -1  -6  -8    8.90    1.90
  -1  -6  -8    9.30    4.20
   1   6   8   12.10    3.80
   1   6   8    9.50    2.20
  -2  -6  -8   22.30    2.70
  -2  -6  -8   30.00    5.10
   2   6   8   24.50    3.00
   2   6   8   27.60    4.10
  -3  -6  -8  252.07   13.60
  -3  -6  -8  243.28   13.00
   3   6   8  234.78   12.70
   3   6   8  242.98   13.00
  -4  -6  -8    0.80    1.90
   4   6   8   -0.80    2.30
   5   6   8  603.74   29.90
   7   6   8   89.49    7.10
   8   6   8   43.50    5.20
   9   6   8  207.38   12.60
  10   6   8   31.80    5.40
  11   6   8   -0.90    4.50
  11  -7  -8   -7.70   14.10
 -11   7   8   15.40    4.50
  10  -7  -8    5.40   21.70
 -10   7   8    9.10    4.10
 -10   7   8    4.70    4.00
   9  -7  -8    1.30   11.40
  -9   7   8   19.30    3.70
  -9   7   8   16.20    4.00
   8  -7  -8   -7.60   10.00
  -8   7   8   11.80    3.30
  -8   7   8    1.00    3.20
   7  -7  -8   46.20   13.40
  -7   7   8   59.89    4.80
  -7   7   8   42.00    4.10
   6  -7  -8    1.30    8.50
  -6   7   8    5.60    2.60
  -6   7   8    1.70    2.40
   5  -7  -8   -4.40    7.40
  -5   7   8   -2.70    2.20
  -5   7   8   -3.10    2.20
  -4   7   8  115.99    7.10
  -4   7   8  123.39    6.90
   3  -7  -8  250.77   12.90
   3  -7  -8  255.77   19.00
  -3   7   8  258.87   12.90
   2  -7  -8   73.99   10.30
   2  -7  -8   55.69    4.30
  -2   7   8   72.49    9.10
  -2   7   8   64.29    4.50
   1  -7  -8   13.40    5.90
   1  -7  -8   17.30    2.30
  -1   7   8   14.30    4.90
  -1   7   8   21.90    2.50
   0  -7  -8  107.39   10.50
   0  -7  -8  108.49    6.40
   0   7   8  108.89    9.50
   0   7   8  112.89    6.50
  -1  -7  -8    7.30    4.80
  -1  -7  -8   12.20    2.30
   1   7   8    9.50    4.10
   1   7   8    9.60    2.30
  -2  -7  -8   -0.80    3.70
   2   7   8    2.10    2.90
   2   7   8   -1.30    2.20
  -3  -7  -8    2.40    6.10
  -3  -7  -8    6.70    2.30
   3   7   8   11.30    3.10
   3   7   8    7.30    2.60
  -4  -7  -8  562.94   27.20
  -4  -7  -8  555.14   27.00
   4   7   8  522.05   26.90
   4   7   8  529.75   26.60
   5   7   8   59.99    5.30
   6   7   8    1.80    3.40
   7   7   8    0.50    3.50
   8   7   8  224.78   13.20
   9   7   8    3.30    4.10
  10   7   8   -3.90    4.20
  11   7   8    2.60    5.00
  12   7   8    0.10    5.20
  10  -8  -8   -0.30   13.10
 -10   8   8    2.50    4.40
 -10   8   8   23.30    4.80
   9  -8  -8    1.30   12.60
  -9   8   8   18.70    4.10
  -9   8   8   11.80    4.20
   8  -8  -8   31.10   13.70
  -8   8   8   31.80    4.30
   7  -8  -8    5.40   10.10
  -7   8   8    2.10    3.10
  -7   8   8    4.30    3.20
   6  -8  -8   -4.50    9.10
  -6   8   8    5.40    2.80
  -6   8   8    0.50    3.00
   5  -8  -8  200.68   20.70
  -5   8   8  230.28   13.10
  -5   8   8  270.17   12.90
   4  -8  -8   39.30   10.40
  -4   8   8   64.39    5.00
   3  -8  -8    2.00    2.00
   3  -8  -8   -8.40    6.10
  -3   8   8   -3.60    2.10
   2  -8  -8   64.99    4.80
   2  -8  -8   67.09   10.50
  -2   8   8   61.29    9.10
  -2   8   8   71.49    5.00
   1  -8  -8  251.67   12.70
   1  -8  -8  234.48   17.60
  -1   8   8  218.98   16.20
  -1   8   8  256.37   12.70
   0  -8  -8   34.10    7.60
   0  -8  -8   29.60    3.20
   0   8   8   34.60    3.40
   0   8   8   23.20    6.00
  -1  -8  -8   52.19    4.50
  -1  -8  -8   54.59    8.20
   1   8   8   71.79    8.10
   1   8   8   57.09    4.80
  -2  -8  -8  120.49    7.40
  -2  -8  -8  128.09   10.40
   2   8   8  117.19    9.40
   2   8   8  131.69    7.60
  -3  -8  -8  604.84   30.80
  -3  -8  -8  584.74   29.40
   3   8   8  586.64   28.90
   3   8   8  556.34   29.80
  -4  -8  -8   11.80    3.80
   4   8   8   15.10    3.20
   5   8   8   77.09    6.60
   6   8   8   23.60    4.10
   7   8   8  357.26   19.00
   8   8   8    6.10    3.90
   9   8   8    7.30    4.30
  10   8   8   13.70    5.00
  11   8   8   37.30   10.50
  12   8   8    6.50    5.90
  10  -9  -8   34.60   16.20
 -10   9   8    4.90    5.00
  -9   9   8   49.80    5.80
   8  -9  -8    5.30   12.40
  -8   9   8   14.90    4.20
  -8   9   8    9.30    3.90
   7  -9  -8    5.20   11.50
  -7   9   8    7.40    3.90
  -7   9   8   -1.00    3.40
   6  -9  -8   -3.90   10.20
  -6   9   8   16.20    3.50
  -6   9   8    7.20    3.60
   5  -9  -8    9.30   10.10
  -5   9   8   23.40    3.50
  -5   9   8   15.70    4.40
   4  -9  -8   44.60   11.30
  -4   9   8   49.80    4.60
   3  -9  -8   -1.80    7.60
  -3   9   8   -1.40    2.70
   2  -9  -8  339.67   17.80
  -2   9   8  356.56   17.80
   1  -9  -8  330.17   16.90
   1  -9  -8  331.17   22.50
  -1   9   8  338.27   16.90
  -1   9   8  306.67   20.70
   0  -9  -8   -2.60    2.20
   0  -9  -8   -1.90    5.70
   0   9   8   -1.50    2.60
   0   9   8    0.90    5.10
  -1  -9  -8   58.99    8.80
  -1  -9  -8   53.09    4.70
   1   9   8   57.49    7.80
   1   9   8   58.79    5.10
  -2  -9  -8  445.06   25.20
   2   9   8  434.46   21.70
   2   9   8  412.66   23.90
  -3  -9  -8    6.70    4.90
   3   9   8   12.60    4.30
   3   9   8   10.80    3.30
  -4  -9  -8  150.98   11.00
   4   9   8  142.99    9.10
   4   9   8  140.79    9.80
   5   9   8  175.78   10.00
   5   9   8  147.29   10.70
   6   9   8    5.70    3.70
   7   9   8    5.00    3.90
   8   9   8   -2.60    4.10
   9   9   8    9.70    4.90
  10   9   8  164.58   11.70
  11   9   8    0.60    5.20
   9 -10  -8    4.00   13.90
  -9  10   8   -4.10    6.00
   8 -10  -8   -2.60   13.10
  -8  10   8   -2.90    4.40
   7 -10  -8    7.30   12.00
  -7  10   8    7.70    4.10
   6 -10  -8   14.10   12.00
  -6  10   8   17.60    4.20
   5 -10  -8   -6.30    9.00
  -5  10   8    4.20    4.10
  -5  10   8   -1.70    3.40
   4 -10  -8   90.09   14.70
   4 -10  -8   61.79    5.80
  -4  10   8   91.49    6.50
   3 -10  -8   24.20    3.70
   3 -10  -8   23.50    9.70
  -3  10   8   34.80    4.10
   2 -10  -8  147.29    9.40
   2 -10  -8  157.08   17.20
  -2  10   8  177.78    9.70
   1 -10  -8  -14.70    6.60
  -1  10   8   -2.40    3.00
   0 -10  -8   14.10    7.60
   0  10   8   19.80    6.70
   0  10   8   21.00    3.60
  -1 -10  -8  328.37   21.90
   1  10   8  327.57   17.00
   1  10   8  318.07   20.50
  -2 -10  -8   10.80    6.30
   2  10   8    5.20    5.00
   2  10   8   10.80    3.30
  -3 -10  -8   95.29   10.60
   3  10   8   76.09    6.60
   3  10   8   72.39    8.80
  -4 -10  -8   -0.40    5.10
   4  10   8   12.70    4.00
   4  10   8   10.30    4.90
  -5 -10  -8  190.98   12.90
   5  10   8  188.48   12.10
   5  10   8  196.28   11.50
   6  10   8   13.60    3.00
   6  10   8   13.50    4.10
   6  10   8   13.00    3.60
   7  10   8    9.30    4.40
   8  10   8    1.40    4.20
   9  10   8  163.88   11.40
  10  10   8    1.50    5.00
   8 -11  -8   -5.40   13.90
  -8  11   8    1.10    4.90
   7 -11  -8   39.20   15.40
  -7  11   8   54.99    6.10
   6 -11  -8  -13.70   11.00
  -6  11   8   -2.40    4.30
   5 -11  -8   11.90   10.70
   4 -11  -8   56.99   14.30
  -4  11   8   76.99    9.80
   3 -11  -8   52.49   12.60
  -3  11   8   62.79    8.20
   2 -11  -8   11.20    8.90
   1 -11  -8    1.10    7.80
  -1  11   8    4.90    3.60
   0 -11  -8   68.39   11.80
   0  11   8   80.69    6.80
  -1 -11  -8   -1.70    6.30
   1  11   8    7.80    6.00
   1  11   8    5.30    3.60
  -2 -11  -8  266.37   19.30
   2  11   8  260.07   14.20
   2  11   8  243.38   17.60
  -3 -11  -8   15.30    6.70
   3  11   8   23.50    6.60
   3  11   8   20.40    4.10
  -4 -11  -8  140.09   12.90
   4  11   8  162.48    9.70
   4  11   8  135.59   11.70
  -5 -11  -8    5.40    5.20
   5  11   8    4.90    3.90
   5  11   8    7.00    4.60
   6  11   8   48.70    6.00
   6  11   8   37.00    5.40
   6  11   8   44.90    5.40
   7  11   8   30.50    5.30
   8  11   8    8.20    5.00
   9  11   8   -9.40    5.20
  10  11   8   11.80    5.50
   8 -12  -8   25.10   16.50
  -8  12   8   24.90    6.00
   7 -12  -8   -5.30   14.60
  -7  12   8   -6.10    4.60
   6 -12  -8   18.60   13.80
  -6  12   8   24.50    5.10
   5 -12  -8   22.50   13.80
  -5  12   8   39.90    5.30
   4 -12  -8   14.90   11.20
  -4  12   8   31.10    5.00
   3 -12  -8    4.60    9.70
  -3  12   8   26.40    4.70
   2 -12  -8  108.59   16.70
  -2  12   8  131.89    9.00
   1 -12  -8   12.30    9.00
  -1  12   8    5.40    3.90
   0 -12  -8   -4.80    7.60
   0  12   8    7.10    4.00
  -1 -12  -8    3.00    8.00
   1  12   8   14.90    4.20
  -2 -12  -8   23.90    8.60
   2  12   8   37.00    4.90
   2  12   8   29.00    7.90
  -3 -12  -8  140.89   15.70
   3  12   8  134.29   13.30
   3  12   8  163.68   10.10
  -4 -12  -8   -2.70    6.30
   4  12   8    0.90    3.90
   4  12   8    7.20    6.50
  -5 -12  -8   84.89   10.90
   5  12   8   79.19    9.50
   5  12   8   98.29    8.00
   6  12   8   58.79    7.50
   6  12   8   47.90    6.40
   6  12   8   49.20    4.20
   6  12   8   54.39    6.30
   7  12   8   30.40    5.10
   7  12   8   17.80    5.30
   7  12   8   16.20    7.10
   8  12   8    0.00    5.50
   9  12   8   53.49    7.00
   7 -13  -8    6.80   14.10
  -7  13   8   18.80    6.00
   6 -13  -8    2.10   16.40
  -6  13   8   -7.40    4.90
   5 -13  -8   21.80   13.20
  -5  13   8   19.80    5.50
   4 -13  -8   29.10   13.80
  -4  13   8   12.90    4.90
   3 -13  -8   92.99   17.20
  -3  13   8  111.59    8.90
   2 -13  -8   19.20   11.90
  -2  13   8   21.20    4.80
   1 -13  -8    6.00    9.80
  -1  13   8   -4.30    4.10
   0 -13  -8   36.50   11.70
   0  13   8   71.09    6.40
  -1 -13  -8   48.50   11.80
   1  13   8   45.80    5.80
   2  13   8   27.50    5.00
  -3 -13  -8    1.80    8.00
   3  13   8   13.30    4.70
  -4 -13  -8  148.99   16.10
   4  13   8  129.99   13.70
   4  13   8  158.98   10.60
  -5 -13  -8   17.40    7.80
   5  13   8   42.80    5.80
   6  13   8   -8.40    4.40
   6  13   8   18.70    6.30
   7  13   8    3.30    4.90
   7  13   8    0.40    4.40
   7  13   8   21.80    5.60
   8  13   8   58.59    7.10
   5 -14  -8   -7.80   14.20
  -5  14   8    2.20    5.30
   4 -14  -8   41.80   15.20
  -4  14   8   46.60    6.50
   3 -14  -8   11.20   11.90
  -3  14   8   14.10    5.40
   2 -14  -8    9.40   11.30
  -2  14   8   16.60    5.20
   1 -14  -8   23.80   12.30
  -1  14   8   28.70    5.60
   0 -14  -8   65.19   14.50
   0  14   8   70.99    7.10
  -1 -14  -8    1.10    8.60
   1  14   8   -1.00    4.40
  -2 -14  -8    3.30    9.20
   2  14   8    6.70    4.80
  -3 -14  -8   68.79   13.00
   3  14   8   80.99    7.50
  -4 -14  -8   45.30   11.30
   4  14   8   50.79    6.60
  -5 -14  -8    4.80    7.50
   5  14   8   15.50    8.00
   5  14   8   -4.50    5.80
   6  14   8   -2.50    5.00
   6  14   8   11.70    7.80
   3 -15  -8   12.70   14.10
  -3  15   8   -4.60    5.20
   2 -15  -8   17.00   13.50
  -2  15   8   20.40    5.70
   1 -15  -8   29.10   13.80
  -1  15   8   38.00    6.30
   0 -15  -8   -3.00   10.20
   0  15   8    5.40    5.10
  -1 -15  -8    8.50   10.80
   1  15   8    6.10    5.30
  -2 -15  -8   57.89   13.40
   2  15   8   47.00    8.20
  -3 -15  -8   26.30   11.00
   3  15   8   23.00    5.80
  -4 -15  -8   -7.70    8.10
   4  15   8    0.30    5.10
   1  11  -9   26.50    5.80
  -1 -11   9   11.00   13.70
   0  11  -9   -1.70    4.70
   0 -11   9   14.40   14.30
  -1  11  -9   -1.80    4.90
   1 -11   9   -6.20   13.10
  -2  11  -9    8.40    5.20
   2 -11   9   -6.00   13.30
  -3  11  -9   20.70    5.60
   3 -11   9   23.20   16.90
  -4  11  -9   14.60    5.60
   4 -11   9    1.20   15.10
   4  10  -9    1.20   10.80
   3  10  -9    3.30    4.80
   3  10  -9   -0.30    9.90
   3  10  -9   -0.10    4.50
   2  10  -9   16.20    5.10
   1  10  -9   10.60    4.70
  -1 -10   9   17.80   22.40
   0  10  -9    4.20    4.50
   0 -10   9   22.90   13.60
  -1  10  -9    1.00    4.60
   1 -10   9    8.60   14.30
  -2  10  -9    5.30    4.50
   2 -10   9    3.30   13.20
  -3  10  -9   16.40    5.00
   3 -10   9   16.20   21.90
  -4  10  -9   -6.10    7.00
   4 -10   9    3.70   17.80
  -5  10  -9    4.70    5.30
   5 -10   9    7.80   14.50
  -6  10  -9   -1.50    5.30
   6 -10   9    3.60   16.00
   5   9  -9   -4.50   12.10
   5   9  -9   -5.30    4.20
   4   9  -9    6.40    4.50
   4   9  -9   15.40   10.60
   3   9  -9   55.99    6.20
   3   9  -9   52.99   13.00
   3   9  -9   67.09    7.30
   2   9  -9   17.70    5.30
   2   9  -9   24.00   10.80
   2   9  -9   22.00    4.80
   1   9  -9   -1.20    3.80
  -1  -9   9   -6.60   10.30
   0   9  -9    0.80    3.90
   0  -9   9   -7.30   11.30
  -1   9  -9   62.79    6.40
   1  -9   9   50.79   15.00
  -2   9  -9   11.80    4.50
   2  -9   9    9.90   11.90
  -3   9  -9    7.00    4.50
   3  -9   9   10.40   11.90
  -4   9  -9   -1.80    4.30
   4  -9   9    4.40   13.50
  -5   9  -9   16.30    5.20
   5  -9   9    0.40   14.30
  -6   9  -9   -5.10    5.00
   6  -9   9  -14.90   13.10
  -7   9  -9   12.70    5.50
  -8   9  -9    1.10    5.70
   8  -9   9   12.70   17.60
   6   8  -9   -9.20    9.90
   6   8  -9  -10.20    3.90
   5   8  -9    0.00    9.00
   5   8  -9    1.00    4.00
   4   8  -9   71.39   13.90
   4   8  -9   44.30    5.50
   3   8  -9   56.29    6.50
   3   8  -9   56.69    6.00
   3   8  -9   63.89   12.70
   2   8  -9   33.40    4.90
   2   8  -9   32.50    5.50
   2   8  -9   33.10   10.50
   1   8  -9    7.90    3.80
  -1  -8   9   -6.40    9.40
   0   8  -9   23.00    4.40
   0  -8   9   26.80   11.50
  -1   8  -9    2.20    3.40
   1  -8   9   -0.30   10.50
  -2   8  -9    3.80    3.90
   2  -8   9    9.20   10.90
  -3   8  -9   20.40    4.50
   3  -8   9    1.30   10.90
  -4   8  -9   20.70    4.60
   4  -8   9   10.30   11.50
  -5   8  -9   11.60    4.60
   5  -8   9  -19.60   10.50
  -6   8  -9   36.80    6.00
   6  -8   9   36.40   15.40
  -7   8  -9   -5.70    4.60
   7  -8   9   12.30   15.40
  -8   8  -9    5.30   10.10
   8  -8   9   19.40   16.00
  -9   8  -9   -3.70    5.60
   7   7  -9   -3.90    4.10
   7   7  -9  -13.10    9.10
   6   7  -9   24.80   10.40
   6   7  -9   26.20    4.70
   5   7  -9   69.19   13.20
   5   7  -9   78.59    7.00
   4   7  -9   78.19    6.90
   4   7  -9   62.79   12.60
   3   7  -9   16.20    9.30
   3   7  -9   24.60    4.70
   3   7  -9   20.30    4.20
   2   7  -9   13.90    3.70
   2   7  -9    1.40    3.70
   2   7  -9    9.30    8.10
   1   7  -9   23.40    4.20
  -1  -7   9   23.90   10.60
   0   7  -9    0.20    3.30
   0  -7   9    2.30    8.80
  -1   7  -9   44.80    5.00
   1  -7   9   28.50   11.40
  -2   7  -9   49.60    5.30
   2  -7   9   32.50   12.50
  -3   7  -9   25.50    4.50
   3  -7   9   20.50   11.60
  -4   7  -9   13.70    4.20
   4  -7   9   22.20   11.60
  -5   7  -9   12.60    4.30
   5  -7   9   -7.10   11.00
  -6   7  -9   11.70    4.50
   6  -7   9   -3.10   11.90
  -7   7  -9   21.70    5.30
   7  -7   9   36.30   15.50
  -8   7  -9   14.10    5.60
   8  -7   9   28.10   14.40
  -9   7  -9   68.09   13.10
   9  -7   9   49.80   17.00
 -10   7  -9   11.60    6.10
  10  -7   9   13.60   15.80
   8   6  -9   -3.10    4.00
   8   6  -9   -1.80   10.00
   7   6  -9   32.00    5.00
   7   6  -9   45.10   12.10
   6   6  -9   58.49   12.30
   6   6  -9   51.49    5.30
   5   6  -9   45.20   11.10
   5   6  -9   35.30    4.50
   4   6  -9   29.50    4.00
   4   6  -9   14.40    8.70
   3   6  -9   27.90    4.50
   3   6  -9   29.20    4.10
   3   6  -9   21.10    8.80
   2   6  -9   47.70    4.70
   2   6  -9   36.50    4.90
   2   6  -9   35.30    9.30
   1   6  -9   17.60    3.80
  -1  -6   9   23.30   10.20
   0   6  -9   71.99    6.50
   0  -6   9   90.79   15.10
  -1   6  -9   60.29    5.50
   1  -6   9   57.39   13.00
  -2   6  -9   78.49    6.60
   2  -6   9   66.29   13.70
  -3   6  -9   19.20    4.00
   3  -6   9   -1.10    9.60
   4  -6   9   30.80   12.10
  -5   6  -9    2.90    3.60
   5  -6   9   -1.40    9.30
  -6   6  -9    3.40    4.10
   6  -6   9   -1.40    9.60
  -7   6  -9   -3.30    4.10
   7  -6   9    1.30   11.00
  -8   6  -9   59.29    6.50
   8  -6   9   24.90   13.50
  -9   6  -9    2.20    5.00
   9  -6   9   15.10   14.00
 -10   6  -9  -17.70   13.10
  10  -6   9    2.10   13.60
 -11   6  -9   -6.40    6.20
  11  -6   9   16.60   15.90
   9   5  -9  -11.10   19.40
   9   5  -9    1.20    4.20
   8   5  -9   17.80    4.20
   8   5  -9   27.60   11.70
   7   5  -9   33.70   11.20
   7   5  -9   19.00    4.00
   6   5  -9   11.10    3.60
   6   5  -9   -1.00    8.10
   5   5  -9   25.80    3.80
   5   5  -9   20.10    9.10
   4   5  -9   60.29   10.60
   4   5  -9   63.89    5.70
   3   5  -9   14.90    3.20
   3   5  -9   12.40    7.60
   2   5  -9   44.50    9.40
   2   5  -9   39.60    4.80
   2   5  -9   40.40    4.20
   1   5  -9    2.70    3.00
   1   5  -9    4.80    6.40
   1   5  -9    1.80    2.70
   0   5  -9   60.29    5.50
   0  -5   9   67.79   11.70
  -1   5  -9   10.30    3.20
   1  -5   9   10.10    8.70
  -2   5  -9    3.00    5.70
   2  -5   9    0.90    8.20
  -3   5  -9  113.19    7.70
   3  -5   9  113.49   15.70
  -4   5  -9    3.60    3.10
   4  -5   9   -7.70    7.30
  -5   5  -9   17.30    4.10
   5  -5   9   14.70    9.40
  -6   5  -9    4.40    3.80
   6  -5   9    7.20    9.60
  -7   5  -9   51.49    5.80
   7  -5   9   64.79   14.20
  -8   5  -9    8.40    4.40
   8  -5   9    3.40   11.50
  -9   5  -9   -2.10    4.90
   9  -5   9    2.40   13.10
 -10   5  -9   -8.60    5.20
  10  -5   9    0.20   13.10
 -11   5  -9   23.40    7.10
  11  -5   9   36.30   16.90
   9   4  -9   28.50    4.60
   9   4  -9   41.80   12.60
   8   4  -9    8.00    3.60
   8   4  -9    1.50   10.00
   7   4  -9    2.10    3.20
   7   4  -9   -0.20    8.80
  -7  -4   9    0.40    5.30
   6   4  -9   51.79    4.60
   6   4  -9   60.09   11.10
  -6  -4   9   39.80    4.30
   5   4  -9   70.69   11.50
   5   4  -9   47.00    4.40
  -5  -4   9   47.10    4.40
   4   4  -9   33.10    9.30
   4   4  -9   25.90    3.50
  -4  -4   9   18.40    3.10
   3   4  -9   86.49    5.70
   3   4  -9   79.79   10.70
  -3  -4   9   69.39    5.40
   2   4  -9   53.29    4.90
   2   4  -9   56.49    4.50
   2   4  -9   60.99    9.40
  -2  -4   9   38.70    3.90
   1   4  -9  117.49   11.70
   1   4  -9  125.89    7.70
   1   4  -9  121.59    7.10
  -1  -4   9  108.99    6.90
   0   4  -9   12.40    2.70
  -1   4  -9   28.30    3.30
  -1   4  -9   21.30    3.30
   1  -4   9   23.20    8.10
  -2   4  -9  316.67   18.40
  -2   4  -9  336.67   17.10
   2  -4   9  351.86   24.00
  -3   4  -9  121.09    7.80
   3  -4   9  136.79   16.10
  -4   4  -9    0.70    4.90
   4  -4   9   24.90    8.40
  -5   4  -9   47.70    4.80
  -6   4  -9   38.80    4.70
   6  -4   9   48.00   11.30
  -7   4  -9    1.90    3.90
   7  -4   9   16.40    9.70
  -8   4  -9    3.10    4.00
   8  -4   9   22.40   10.80
  -9   4  -9   -0.50    4.90
   9  -4   9    8.60   11.10
 -10   4  -9   57.79    7.30
  10  -4   9   51.49   15.50
  11  -4   9   20.40   13.90
  12  -4   9   31.80   15.50
  10   3  -9   54.59   25.20
  10   3  -9   32.10    5.50
   9   3  -9    4.70   11.00
   9   3  -9   10.50    3.50
   8   3  -9    0.80    3.10
   8   3  -9   -2.40    9.00
  -8  -3   9    2.60    3.20
   7   3  -9   32.60    3.80
   7   3  -9   17.30    9.80
  -7  -3   9   33.30    3.80
   6   3  -9  184.48   16.80
   6   3  -9  174.28    9.30
  -6  -3   9  150.18    9.40
   5   3  -9  100.89   12.80
   5   3  -9  117.49    6.80
  -5  -3   9   98.59    6.60
   4   3  -9   -3.10    6.10
   4   3  -9    4.90    2.20
  -4  -3   9    0.40    2.00
   3   3  -9   91.99    5.70
   3   3  -9   89.49   11.00
  -3  -3   9   82.79    5.50
   2   3  -9   99.49    5.80
  -2  -3   9   81.29    5.40
   1   3  -9   14.80    2.90
   1   3  -9   16.80    2.60
   1   3  -9   11.50    5.50
  -1  -3   9   13.50    2.20
   0   3  -9  212.88   10.90
   0   3  -9  190.48   11.00
   0  -3   9  215.88   16.90
  -1   3  -9  130.09    7.60
  -1   3  -9  121.09    8.60
  -1   3  -9  160.68   18.00
   1  -3   9  135.79   13.30
  -2   3  -9  254.07   13.60
  -2   3  -9  224.28   18.40
  -2   3  -9  265.47   13.40
   2  -3   9  276.87   19.40
  -3   3  -9  115.59   13.10
  -3   3  -9  140.29    8.50
  -3   3  -9  141.39    8.20
   3  -3   9  152.78   14.20
  -4   3  -9    2.80    5.80
  -4   3  -9   -0.70    2.40
   4  -3   9   -1.70    6.00
  -5   3  -9   81.39   18.60
   5  -3   9   72.89   12.50
  -6   3  -9   28.70    4.30
   6  -3   9   22.30    9.40
   7  -3   9   16.70    8.70
   7  -3   9    5.90    4.30
   8  -3   9   35.50    5.70
   8  -3   9   35.90   15.10
   9  -3   9   81.29   15.30
   9  -3   9   64.39    7.50
  10  -3   9   42.80   13.70
  10  -3   9   22.00    6.50
  11  -3   9    4.90   11.90
  11  -3   9   -3.80    5.90
  12  -3   9    8.60   13.70
  12  -3   9   11.00    6.80
  10   2  -9   24.90   12.40
  10   2  -9    9.60    3.60
 -10  -2   9    2.40    3.70
   9   2  -9   -2.90    3.00
   9   2  -9   -8.10    9.80
  -9  -2   9    3.50    3.30
   8   2  -9    4.50    9.70
   8   2  -9    2.60    2.80
  -8  -2   9    4.20    2.90
   7   2  -9   82.69   13.40
   7   2  -9   77.69    5.70
  -7  -2   9   74.89    5.70
   6   2  -9  103.19   13.60
   6   2  -9   99.29    6.30
  -6  -2   9   99.39    6.20
   5   2  -9    2.40    6.70
   5   2  -9    4.70    2.10
  -5  -2   9    1.90    2.00
   4   2  -9  311.67   14.90
   4   2  -9  286.57   20.30
  -4  -2   9  283.57   14.80
   3   2  -9  311.07   15.30
   3   2  -9  319.57   22.10
  -3  -2   9  296.17   15.30
   2   2  -9   11.70    2.10
   2   2  -9   14.70    5.80
  -2  -2   9   13.60    2.10
   1   2  -9    6.30    2.30
   1   2  -9    6.60    5.50
   1   2  -9    5.50    4.80
   1   2  -9   12.10    2.40
   1   2  -9    8.20    2.00
   0   2  -9    0.00    2.10
   0   2  -9    2.40    1.90
   0   2  -9    0.40    2.00
   0   2  -9    1.90    4.30
   0   2  -9    0.10    5.20
  -1   2  -9  492.35   29.70
  -1   2  -9  508.15   24.80
  -1   2  -9  495.55   24.60
   1  -2   9  494.55   29.50
  -2   2  -9  162.08   13.80
  -2   2  -9  164.88    8.70
  -2   2  -9  149.69    8.90
   2  -2   9  161.08   13.90
  -3   2  -9   78.99    5.40
  -3   2  -9   89.39   11.60
  -3   2  -9   72.69    5.50
   3  -2   9   87.99   11.20
  -4   2  -9   22.20    3.20
  -4   2  -9   25.40    7.00
   4  -2   9   16.80    7.10
  -5   2  -9   26.90    7.30
   5  -2   9   34.20    8.30
   5  -2   9   42.20    4.70
  -6   2  -9   27.00    7.90
   6  -2   9   46.10    9.80
   6  -2   9   34.30    5.00
  -7   2  -9  116.69   13.40
   7  -2   9  162.28   15.80
   7  -2   9  137.09    9.60
   8  -2   9  133.49   10.10
   8  -2   9  143.19   16.70
   9  -2   9    7.10    9.20
   9  -2   9    2.90    4.60
  10  -2   9   35.30    6.20
  10  -2   9   49.00   13.10
  11  -2   9    5.70    5.90
  11  -2   9   16.30   11.60
  12  -2   9   41.60   14.40
  13  -2   9    0.60    6.70
  13  -2   9   -1.50   12.60
  10   1  -9    1.40   10.80
  10   1  -9   -1.10    3.40
   9   1  -9    0.30    9.80
   9   1  -9   -0.30    3.00
  -9  -1   9   -0.90    2.90
   8   1  -9   99.19    6.20
   8   1  -9   75.19   13.70
  -8  -1   9   84.79    6.10
   7   1  -9    3.90    7.90
   7   1  -9    2.40    2.30
  -7  -1   9    0.80    2.40
   6   1  -9   -1.40    2.10
   6   1  -9   -0.30    7.90
  -6  -1   9    4.90    2.10
   5   1  -9   50.29    3.70
   5   1  -9   55.59   10.20
  -5  -1   9   43.60    3.70
   4   1  -9  382.76   18.40
   4   1  -9  356.56   26.60
  -4  -1   9  375.56   18.40
   3   1  -9   14.40    1.90
   3   1  -9   15.50    6.10
  -3  -1   9   13.20    1.70
   2   1  -9  254.47   17.00
   2   1  -9  256.07   12.80
   2   1  -9  259.87   18.60
   1   1  -9   -2.50    4.80
   1   1  -9    1.20    1.70
   1   1  -9   -0.20    1.70
   1   1  -9    3.10    4.70
   0   1  -9   13.70    5.10
   0   1  -9   16.60    2.60
   0   1  -9   15.80    6.20
   0   1  -9   14.20    2.40
   0   1  -9   13.50    2.10
  -1   1  -9  155.18   13.40
  -1   1  -9  160.78    8.60
  -1   1  -9  151.78   11.40
  -1   1  -9  158.48    8.40
  -1   1  -9  159.88    8.70
  -2   1  -9    1.00    1.80
  -2   1  -9   -2.80    4.10
  -2   1  -9   -0.30    1.70
   2  -1   9    4.50    5.30
  -3   1  -9   64.89    9.20
  -3   1  -9   55.19    4.70
   3  -1   9   67.19    5.30
   3  -1   9   66.69    9.60
  -4   1  -9  157.08   12.90
  -4   1  -9  154.28    8.80
   4  -1   9  160.78    9.30
   4  -1   9  147.09   12.80
  -5   1  -9   53.59    4.80
  -5   1  -9   56.79    8.90
   5  -1   9   50.09    4.90
   5  -1   9   58.79    9.30
  -6   1  -9  182.68   14.40
   6  -1   9  179.08   15.20
   6  -1   9  182.38   10.80
   7  -1   9   35.00    5.10
   7  -1   9   47.50    9.20
  -8   1  -9    7.20    6.40
   8  -1   9    4.70    4.10
   8  -1   9    5.80    7.30
  -9   1  -9   35.50    8.90
   9  -1   9   49.00   11.10
   9  -1   9   37.70    5.90
  10  -1   9   72.59   13.80
  10  -1   9   78.79    7.90
  11  -1   9    3.00   11.40
  11  -1   9   11.30    5.80
  12  -1   9   -5.00   10.40
  12  -1   9    5.70    6.00
  13  -1   9    7.30   12.10
  13  -1   9   -3.20    6.20
  11   0  -9   21.20    4.30
  11   0  -9   -2.60   12.20
  10   0  -9   25.70   12.20
  10   0  -9    5.60    3.40
 -10   0   9    6.10    3.20
   9   0  -9    5.80    3.20
   9   0  -9   15.90   11.30
  -9   0   9    1.90    2.70
   8   0  -9    0.80    9.40
   8   0  -9    6.40    2.60
  -8   0   9    4.40    2.40
   7   0  -9   16.30    9.20
   7   0  -9   30.00    2.90
  -7   0   9   26.80    2.70
   6   0  -9   72.19    5.90
   6   0  -9   90.19   12.50
  -6   0   9   78.79    4.70
   5   0  -9  163.58   15.00
   5   0  -9  156.88    8.10
   4   0  -9   50.59    3.00
   4   0  -9   42.30    8.00
  -4   0   9   43.40    2.90
   3   0  -9   60.59    8.60
   3   0  -9   63.89    3.70
  -3   0   9   84.69   14.60
   2   0  -9   92.09    5.10
   2   0  -9   96.49   10.60
   2   0  -9  104.69   10.20
   1   0  -9    9.80    5.30
   1   0  -9    4.70    4.60
   1   0  -9   10.60    1.60
   1   0  -9   14.60    1.80
   0   0  -9  478.65   22.70
   0   0  -9  457.85   27.20
   0   0  -9  456.95   25.60
   0   0  -9  465.95   22.80
  -1   0  -9 1104.69   52.49
  -1   0  -9 1082.99   52.39
  -1   0  -9 1092.29   52.59
  -1   0  -9 1091.89   56.49
  -1   0  -9 1077.19   54.89
  -2   0  -9  751.32   40.20
  -2   0  -9  753.92   36.50
   2   0   9  746.63   36.60
  -3   0  -9  328.47   20.40
  -3   0  -9  346.17   17.00
   3   0   9  325.07   20.30
   3   0   9  336.67   17.20
  -4   0  -9   61.29    5.40
  -4   0  -9   81.29    9.60
   4   0   9   82.69    9.70
   4   0   9   70.09    5.60
  -5   0  -9  152.78   12.00
  -5   0  -9  136.69    8.40
   5   0   9  164.58   12.50
   5   0   9  148.39    8.90
  -6   0  -9   21.60    5.90
   6   0   9   11.80    3.50
   6   0   9    9.20    5.40
  -7   0  -9   24.40    5.90
   7   0   9   19.40    4.00
   7   0   9   22.10    7.00
  -8   0  -9  117.89   11.70
   8   0   9  141.29    9.30
   8   0   9  127.89   13.40
   9   0   9   40.10    9.80
   9   0   9   46.20    5.90
 -10   0  -9   28.40    7.30
  10   0   9   14.20    9.00
  10   0   9   17.50    5.50
 -11   0  -9   20.20    7.60
  11   0   9    4.30    5.40
  11   0   9   24.80   10.10
  12   0   9   46.80   12.40
  12   0   9   34.10    6.80
  13   0   9   -2.90    6.10
  13   0   9    0.00   10.80
  11  -1  -9   29.30    4.30
  11  -1  -9   21.20   13.70
 -11   1   9   10.00    3.90
  10  -1  -9    8.90   12.00
  10  -1  -9   16.50    3.50
 -10   1   9    9.90    3.10
   9  -1  -9   -1.50    2.70
   9  -1  -9   -7.00   10.40
  -9   1   9    0.20    2.50
   8  -1  -9   40.90   11.70
   8  -1  -9   39.30    3.50
  -8   1   9   42.00    3.60
   7  -1  -9   35.10   10.00
   7  -1  -9   37.60    3.10
   6  -1  -9  134.79    6.80
   6  -1  -9  119.39   14.60
   5  -1  -9   -6.00    5.90
   4  -1  -9  261.17   18.20
   3  -1  -9    5.00    5.20
  -3   1   9    7.40    4.50
   2  -1  -9  313.57   15.30
   2  -1  -9  338.67   19.80
   2  -1  -9  315.87   15.40
  -2   1   9  311.77   16.20
  -2   1   9  322.57   19.20
   1  -1  -9   22.90    1.90
   1  -1  -9   19.50    5.30
   1  -1  -9   23.00    1.80
  -1   1   9   19.90    2.60
  -1   1   9   17.50    4.90
   0  -1  -9  739.33   38.20
   0  -1  -9  745.13   35.40
   0  -1  -9  728.53   39.40
   0  -1  -9  730.13   35.50
  -1  -1  -9  108.79    9.70
  -1  -1  -9  101.39    8.70
  -1  -1  -9  109.19    6.00
   1   1   9  110.09    6.20
  -2  -1  -9  591.94   28.30
  -2  -1  -9  569.24   31.50
  -2  -1  -9  585.84   28.20
  -2  -1  -9  570.64   30.20
   2   1   9  573.34   28.40
  -3  -1  -9   96.39    5.70
  -3  -1  -9   92.39    8.80
   3   1   9   97.59    6.10
  -4  -1  -9   61.79    4.60
  -4  -1  -9   66.09    8.00
   4   1   9   74.19    8.50
   4   1   9   64.59    5.00
  -5  -1  -9   55.49    7.40
  -5  -1  -9   49.10    4.30
   5   1   9   45.00    4.50
   5   1   9   55.59    7.60
  -6  -1  -9   28.40    5.80
   6   1   9   24.00    5.90
   6   1   9   18.90    3.40
  -7  -1  -9  241.68   16.00
   7   1   9  296.77   17.50
   7   1   9  256.97   14.80
  -8  -1  -9  105.69    9.90
   8   1   9  108.89    8.10
   8   1   9  108.09   11.60
  -9  -1  -9    8.90    5.10
   9   1   9    0.30    3.80
   9   1   9    9.40    6.70
 -10  -1  -9   16.80    5.90
  10   1   9    7.10    8.10
  10   1   9    4.40    4.70
 -11  -1  -9   20.90   10.20
  11   1   9   31.60    9.70
  11   1   9   31.00    5.90
 -12  -1  -9   16.10    7.70
  12   1   9   12.10    9.60
  12   1   9    9.90    5.80
  13   1   9   10.40    6.30
  13   1   9    2.20    9.30
  11  -2  -9  -13.20   11.60
 -11   2   9    2.10    3.30
  10  -2  -9    2.00   11.90
 -10   2   9    3.10    2.70
   9  -2  -9   -2.70   10.30
  -9   2   9    7.20    2.20
   8  -2  -9   20.70   10.70
   7  -2  -9   12.30    9.10
   6  -2  -9   -6.30    6.90
   5  -2  -9  149.49   14.00
   4  -2  -9   82.89   10.40
   3  -2  -9  354.86   22.10
  -3   2   9  367.26   21.40
   2  -2  -9   52.59    7.70
  -2   2   9   48.60    7.00
   1  -2  -9  214.08   13.90
   1  -2  -9  204.98   10.00
   1  -2  -9  205.48   10.00
  -1   2   9  194.38   13.20
   0  -2  -9    3.30    1.20
   0  -2  -9    0.50    4.10
   0   2   9    5.50    1.50
   0   2   9    3.60    1.70
   0   2   9    3.90    3.30
  -1  -2  -9   14.60    1.90
  -1  -2  -9   12.70    4.80
  -1  -2  -9   10.30    4.30
   1   2   9   12.60    2.10
  -2  -2  -9    2.30    4.30
  -2  -2  -9   -1.90    1.60
  -2  -2  -9    2.00    3.60
   2   2   9    4.00    2.00
  -3  -2  -9  167.58   11.30
  -3  -2  -9  160.78    8.70
  -3  -2  -9  162.18   10.30
   3   2   9  158.98    8.90
  -4  -2  -9    9.30    4.20
  -4  -2  -9   10.80    1.70
  -4  -2  -9   12.80    3.40
  -4  -2  -9    9.50    2.20
   4   2   9   13.40    2.50
  -5  -2  -9  102.69    6.50
  -5  -2  -9  105.59    8.50
   5   2   9  109.89    8.40
   5   2   9  109.29    6.90
  -6  -2  -9  249.88   14.20
   6   2   9  227.08   13.00
   6   2   9  241.48   14.60
  -7  -2  -9   42.50    5.70
   7   2   9   27.30    6.90
   7   2   9   44.60    6.30
  -8  -2  -9    5.60    3.90
   8   2   9    5.70    3.50
   8   2   9   -1.00    4.80
  -9  -2  -9    7.40    4.50
   9   2   9    0.80    5.60
   9   2   9    3.80    3.90
 -10  -2  -9   81.99    9.10
  10   2   9  110.99    8.90
  10   2   9  102.09   11.50
 -11  -2  -9    7.30    5.70
  11   2   9   11.50    5.00
  11   2   9   13.60    7.10
 -12  -2  -9    0.60    6.50
  12   2   9    0.60    7.20
  12   2   9    6.30    5.80
  13   2   9    1.10    5.80
  13   2   9    3.70    8.60
  11  -3  -9   10.80   13.10
 -11   3   9   -4.40    2.70
  10  -3  -9    5.70   11.80
 -10   3   9    4.10    2.60
 -10   3   9    5.10    2.50
   9  -3  -9   14.50   11.20
  -9   3   9    9.00    2.30
   8  -3  -9   -2.90    8.90
   7  -3  -9   -4.40    8.50
   6  -3  -9  152.48   15.80
   5  -3  -9   82.59   11.60
   4  -3  -9   47.50    8.90
   3  -3  -9   18.70    6.20
  -3   3   9   24.10    5.80
   2  -3  -9  227.68   15.70
  -2   3   9  231.98   16.00
   1  -3  -9  166.38    8.20
   1  -3  -9  171.48   12.30
  -1   3   9  175.68   11.70
  -1   3   9  163.78    8.30
   0  -3  -9  142.59   10.60
   0  -3  -9  141.99    7.20
   0   3   9  142.09    7.30
   0   3   9  137.39    9.90
  -1  -3  -9  991.60   47.70
  -1  -3  -9  999.00   49.80
   1   3   9 1012.30   47.80
   1   3   9  994.70   47.80
   1   3   9  966.70   49.50
  -2  -3  -9  810.02   39.90
  -2  -3  -9  809.12   42.20
  -2  -3  -9  859.31   41.50
   2   3   9  828.22   40.00
  -3  -3  -9   73.59    5.00
  -3  -3  -9   84.29    7.20
  -3  -3  -9   99.79    6.80
   3   3   9   79.79    5.30
  -4  -3  -9    1.20    2.60
  -4  -3  -9    0.20    1.70
   4   3   9    0.10    2.00
  -5  -3  -9  219.08   11.30
  -5  -3  -9  193.78   10.90
  -5  -3  -9  210.38   11.90
   5   3   9  200.38   11.20
  -6  -3  -9  199.38   11.30
   6   3   9  204.78   11.30
  -7  -3  -9  134.59    8.40
   7   3   9  139.39    9.30
   7   3   9  141.19    8.80
  -8  -3  -9   16.40    4.60
   8   3   9   15.90    3.80
   8   3   9   15.70    4.00
  -9  -3  -9  247.58   15.10
   9   3   9  257.57   14.80
   9   3   9  277.17   17.40
 -10  -3  -9   38.40    5.80
  10   3   9   44.40    5.90
  10   3   9   40.60    7.00
 -11  -3  -9   -2.90    4.50
  11   3   9    0.50    4.40
  11   3   9    0.30    5.30
 -12  -3  -9   -3.90    6.00
  12   3   9   15.40    5.90
  12   3   9    6.50    6.60
 -13  -3  -9    3.90   10.10
  13   3   9   13.10    7.40
  13   3   9   21.40    6.20
  11  -4  -9   11.50   13.90
 -11   4   9   12.50    3.20
 -11   4   9   -2.80    3.20
  10  -4  -9   12.70   12.30
 -10   4   9   18.80    2.90
 -10   4   9    6.50    2.80
   9  -4  -9    0.30   11.30
  -9   4   9   -6.20    2.20
   8  -4  -9    7.40    9.80
  -8   4   9    9.50    1.80
  -8   4   9    8.80    2.00
   7  -4  -9   56.99   11.80
   6  -4  -9  147.59   16.00
   5  -4  -9   12.70    7.80
   4  -4  -9   38.40    8.80
   3  -4  -9  351.46   22.00
  -3   4   9  350.56   21.00
   2  -4  -9    1.60    5.20
  -2   4   9    3.80    4.70
   1  -4  -9   32.20    2.40
   1  -4  -9   29.80    6.10
  -1   4   9   36.60    2.50
  -1   4   9   43.10    6.10
   0  -4  -9  599.44   28.60
   0  -4  -9  616.44   31.50
   0   4   9  582.34   30.80
   0   4   9  574.84   28.80
  -1  -4  -9  800.82   39.60
  -1  -4  -9  762.02   37.40
   1   4   9  752.72   39.10
   1   4   9  790.82   37.50
  -2  -4  -9  302.37   15.10
  -2  -4  -9  311.17   16.80
   2   4   9  301.67   16.30
   2   4   9  295.37   14.90
   2   4   9  301.57   15.20
  -3  -4  -9   22.80    4.70
  -3  -4  -9   22.80    4.00
  -3  -4  -9   26.70    2.70
   3   4   9   24.70    2.80
  -4  -4  -9   12.00    3.00
  -4  -4  -9   12.40    2.90
   4   4   9   12.70    2.70
  -5  -4  -9  255.37   13.60
   5   4   9  272.27   13.90
   6   4   9   98.29    6.80
   7   4   9   72.89    6.10
   8   4   9  138.39    9.30
   9   4   9   38.40    5.20
  10   4   9   -5.60    4.10
  11   4   9   12.30    5.20
  12   4   9   28.50    6.00
  13   4   9    3.20    5.80
  11  -5  -9    9.80   14.00
 -11   5   9   -9.90    3.80
 -11   5   9   10.80    3.30
  10  -5  -9   -6.10   11.20
 -10   5   9  -12.10    2.70
 -10   5   9   -3.80    2.60
   9  -5  -9   22.20   13.20
  -9   5   9   10.50    2.80
  -9   5   9    0.20    2.60
   8  -5  -9    6.10    9.80
  -8   5   9    5.40    3.20
  -8   5   9    4.30    2.70
   7  -5  -9   53.19   12.40
  -7   5   9   78.59    4.20
  -7   5   9   63.49    4.40
   6  -5  -9   -0.50    8.70
   5  -5  -9   28.10    8.90
   4  -5  -9  451.45   27.60
   3  -5  -9   21.60    7.10
  -3   5   9   13.10    5.20
  -3   5   9   21.10    1.90
  -3   5   9   23.60    1.90
   2  -5  -9    1.30    5.20
   2  -5  -9    0.50    1.10
  -2   5   9    2.10    4.20
  -2   5   9    3.00    1.30
   1  -5  -9   70.29    8.60
   1  -5  -9   63.79    3.90
  -1   5   9   69.19    7.80
   0  -5  -9  457.15   22.30
   0  -5  -9  461.45   25.90
   0   5   9  471.05   22.30
   0   5   9  436.56   24.60
  -1  -5  -9   55.39    7.00
  -1  -5  -9   49.00    3.60
   1   5   9   47.70    5.70
   1   5   9   51.09    3.70
  -2  -5  -9   39.50    5.30
  -2  -5  -9   31.50    2.90
   2   5   9   32.00    4.50
   2   5   9   30.90    3.00
  -3  -5  -9    4.00    2.70
  -3  -5  -9    2.70    1.80
   3   5   9    1.50    2.10
  -4  -5  -9   42.30    3.70
   4   5   9   43.10    4.10
  -5  -5  -9   81.59    5.60
   5   5   9   84.99    6.00
   6   5   9  205.48   11.50
   7   5   9  157.08    9.80
   8   5   9   31.40    4.80
   9   5   9   42.50    5.40
  10   5   9   11.30    4.70
  11   5   9   33.60    5.80
  12   5   9    8.50    6.30
  13   5   9   23.50    6.60
  11  -6  -9   22.70   16.00
 -11   6   9    0.00    3.60
 -10   6   9   -5.30    3.20
 -10   6   9    4.70    3.30
   9  -6  -9   14.80   11.70
  -9   6   9   16.00    3.00
  -9   6   9   17.20    3.10
   8  -6  -9   31.50   12.40
  -8   6   9   33.10    3.30
  -8   6   9   39.50    3.40
   7  -6  -9   16.30   10.20
  -7   6   9   36.80    4.70
  -7   6   9   38.60    3.10
   6  -6  -9    1.50    8.90
  -6   6   9   11.60    2.40
  -6   6   9   10.80    2.40
   5  -6  -9  142.89   16.00
  -5   6   9  155.78    7.90
   4  -6  -9   73.79   19.70
  -4   6   9   98.39    5.30
   3  -6  -9  150.58   13.80
   3  -6  -9  141.69    7.40
  -3   6   9  144.29    7.80
   2  -6  -9   22.70    2.20
   2  -6  -9   25.30    7.00
  -2   6   9   25.50    2.30
  -2   6   9   31.30    6.20
   1  -6  -9    1.50    1.50
   1  -6  -9   -1.70    4.70
  -1   6   9    1.20    1.80
  -1   6   9    1.60    3.80
   0  -6  -9  253.07   16.30
   0  -6  -9  259.07   12.70
   0   6   9  232.88   15.20
   0   6   9  249.97   12.60
  -1  -6  -9   39.50    3.60
  -1  -6  -9   47.50    6.80
   1   6   9   52.09    6.20
   1   6   9   47.10    3.80
  -2  -6  -9   15.80    2.50
  -2  -6  -9   19.90    4.60
   2   6   9   16.60    2.70
   2   6   9   16.60    3.90
  -3  -6  -9  374.76   19.70
   3   6   9  369.06   18.70
  -4  -6  -9   -2.90    2.00
   4   6   9    2.20    2.30
   5   6   9  353.86   18.30
   6   6   9   77.29    7.00
   7   6   9   14.10    3.70
   8   6   9  186.38   11.40
   9   6   9   74.69    7.10
  10   6   9   43.70    5.90
  11   6   9   -6.60    4.80
  12   6   9   21.40    6.70
  10  -7  -9   -6.60   12.80
 -10   7   9    6.50    3.60
 -10   7   9    2.40    3.60
   9  -7  -9   -1.50   12.10
  -9   7   9   11.80    3.30
  -9   7   9   12.20    3.40
   8  -7  -9    0.10   10.50
  -8   7   9   15.30    3.00
  -8   7   9    6.40    2.80
   7  -7  -9   58.09   13.60
  -7   7   9   81.49    5.70
  -7   7   9   83.59    5.60
   6  -7  -9   56.29   13.40
  -6   7   9   79.59    5.50
  -6   7   9   89.49    5.40
   5  -7  -9   25.10    9.90
  -5   7   9   33.00    3.00
  -5   7   9   30.60    3.20
   4  -7  -9   21.00    8.80
  -4   7   9   35.40    3.00
  -4   7   9   29.00    3.20
   3  -7  -9  151.08    8.20
   3  -7  -9  154.48   14.60
  -3   7   9  161.38    8.30
   2  -7  -9   11.70    6.30
   2  -7  -9    6.20    2.00
  -2   7   9   14.60    2.30
  -2   7   9   11.10    5.70
   1  -7  -9  116.29    6.90
   1  -7  -9  123.39   11.60
  -1   7   9  118.49   11.50
  -1   7   9  130.19    6.90
   0  -7  -9  408.06   23.40
   0  -7  -9  397.06   19.60
   0   7   9  378.66   22.20
   0   7   9  396.16   19.50
  -1  -7  -9  192.98   10.40
  -1  -7  -9  204.88   13.70
   1   7   9  200.38   12.70
   1   7   9  197.38   10.50
  -2  -7  -9  220.38   13.40
   2   7   9  194.58   12.30
   2   7   9  204.98   11.00
  -3  -7  -9   44.40    4.00
   3   7   9   49.90    4.90
   3   7   9   45.80    4.20
  -4  -7  -9  248.48   12.90
   4   7   9  244.18   12.90
   4   7   9  232.58   12.30
   5   7   9   87.79    6.50
   6   7   9   -0.80    3.10
   7   7   9   69.09    6.40
   8   7   9  229.58   13.40
   9   7   9   15.40    4.50
  10   7   9    0.80    4.60
  11   7   9   19.90    5.90
  12   7   9   -1.00    5.30
  10  -8  -9    6.50   13.90
 -10   8   9    5.40    4.00
   9  -8  -9   13.00   13.60
  -9   8   9   22.40    4.00
  -9   8   9   18.40    3.80
   8  -8  -9   20.60   12.90
  -8   8   9   29.00    4.10
  -8   8   9   33.00    3.90
   7  -8  -9   18.10   11.30
  -7   8   9   38.70    3.90
  -7   8   9   30.60    3.80
   6  -8  -9    4.30    9.90
  -6   8   9   16.10    3.20
  -6   8   9   10.40    3.00
   5  -8  -9  191.78   19.50
  -5   8   9  202.58    9.80
  -5   8   9  150.38    9.90
   4  -8  -9   28.90    9.90
  -4   8   9   33.30    3.30
   3  -8  -9   -0.70   16.10
   3  -8  -9    0.10    2.00
  -3   8   9    5.00    2.50
   2  -8  -9   34.70    8.70
   2  -8  -9   44.60    3.70
  -2   8   9   53.49    4.20
   1  -8  -9  298.57   14.80
   1  -8  -9  286.87   19.70
  -1   8   9  288.77   14.70
  -1   8   9  272.67   18.30
   0  -8  -9   94.19   10.80
   0  -8  -9   96.79    6.10
   0   8   9  101.29    6.20
   0   8   9   87.29    9.30
  -1  -8  -9   88.59   10.10
  -1  -8  -9  104.19    6.30
   1   8   9  103.89    6.50
   1   8   9   96.19    8.90
  -2  -8  -9   10.90    2.50
  -2  -8  -9   19.50    5.50
   2   8   9   10.50    2.90
   2   8   9   11.60    4.20
  -3  -8  -9  157.98   11.30
  -3  -8  -9  178.78   11.50
   3   8   9  167.08    9.60
   3   8   9  160.18   10.40
  -4  -8  -9   28.60    4.50
   4   8   9   28.30    3.90
   4   8   9   30.00    3.70
   5   8   9   70.49    6.20
   6   8   9   53.59    5.50
   7   8   9  417.46   21.80
   8   8   9   21.40    4.70
   9   8   9   -5.50    4.10
  10   8   9   28.00    5.60
  12   8   9   -4.20    5.50
   9  -9  -9   31.70   15.30
  -9   9   9   40.70    5.10
  -9   9   9   35.60    5.10
   8  -9  -9   -0.70   11.90
  -8   9   9    6.70    4.00
  -8   9   9    3.00    3.90
   7  -9  -9  -11.20   10.80
  -7   9   9   -6.50    3.30
   6  -9  -9   20.90   11.30
  -6   9   9   28.40    3.70
  -6   9   9   18.50    4.00
   5  -9  -9  -11.90    8.50
  -5   9   9    7.40    3.00
  -5   9   9    3.30    3.40
   4  -9  -9   64.19    5.00
   4  -9  -9   68.29   13.30
  -4   9   9   73.79    5.70
   3  -9  -9   39.80   10.60
   3  -9  -9   52.49    4.40
  -3   9   9   57.69    5.10
   2  -9  -9  226.08   18.40
   2  -9  -9  201.78   12.00
  -2   9   9  229.28   11.80
   1  -9  -9   78.49    6.10
   1  -9  -9  101.19   12.50
  -1   9   9   92.49    6.30
  -1   9   9   91.89   11.10
   0  -9  -9   -4.40    2.20
   0  -9  -9    7.80    6.50
   0   9   9    5.20    2.80
   0   9   9    4.70    5.10
  -1  -9  -9   17.70    3.00
  -1  -9  -9   20.70    6.80
   1   9   9   11.20    3.00
   1   9   9   10.60    5.00
  -2  -9  -9  346.97   20.60
   2   9   9  340.77   17.20
   2   9   9  312.57   19.30
  -3  -9  -9    1.10    5.00
   3   9   9   -1.70    3.90
   3   9   9    2.40    3.40
  -4  -9  -9   66.59    7.20
   4   9   9   70.69    6.00
   4   9   9   53.79    5.90
   5   9   9  206.78   12.00
   6   9   9    0.90    3.50
   7   9   9   -1.80    3.70
   8   9   9    0.10    4.20
   9   9   9   21.90    5.40
  10   9   9  129.29   10.30
  11   9   9    2.10    5.20
   9 -10  -9  -20.30   12.20
  -9  10   9   -6.90    4.60
   8 -10  -9   19.30   25.90
  -8  10   9   -1.50    4.30
   7 -10  -9   28.00   14.20
  -7  10   9   36.30    5.40
  -7  10   9   50.29    5.00
   6 -10  -9    0.00   11.30
  -6  10   9   15.10    4.40
  -6  10   9   15.80    3.90
   5 -10  -9    7.30   10.30
  -5  10   9    7.30    3.50
  -5  10   9   15.50    4.30
   4 -10  -9   16.50    9.70
   4 -10  -9    7.30    2.80
  -4  10   9   15.00    3.50
   3 -10  -9    6.30    9.50
   3 -10  -9    7.10    3.00
  -3  10   9   18.00    3.40
   2 -10  -9   16.00    9.20
   2 -10  -9   22.10    3.50
  -2  10   9   26.00    4.00
   1 -10  -9   23.50    8.90
   1 -10  -9   15.10    3.30
  -1  10   9   20.80    3.60
   0 -10  -9   18.50    8.20
   0  10   9   23.00    6.80
   0  10   9   21.20    3.60
  -1 -10  -9  464.35   27.90
   1  10   9  425.76   26.30
   1  10   9  485.65   23.30
  -2 -10  -9    8.10    5.70
   2  10   9    5.00    3.40
   2  10   9    3.10    5.00
  -3 -10  -9    3.90    5.40
   3  10   9   12.80    4.70
   3  10   9    2.80    3.40
  -4 -10  -9   12.60    5.40
   4  10   9   10.90    4.10
   4  10   9    6.60    3.60
   5  10   9  103.59    7.90
   5  10   9   98.69   10.00
   6  10   9   -1.90    3.70
   7  10   9   33.70    5.10
   8  10   9   20.30    5.10
   9  10   9  222.08   13.90
  10  10   9   -9.10    4.70
   8 -11  -9   -6.40   13.20
  -8  11   9    7.00    5.60
   7 -11  -9   22.30   14.40
  -7  11   9   69.89    8.40
   6 -11  -9   -4.30   11.50
  -6  11   9    2.20    4.20
   5 -11  -9   -3.60   10.50
  -5  11   9    3.40    3.80
   4 -11  -9   59.69   14.00
  -4  11   9   78.69    6.80
   3 -11  -9   -5.30    9.50
  -3  11   9   26.00    4.10
   2 -11  -9   22.00   10.70
  -2  11   9   41.40    4.60
   1 -11  -9    3.20    8.00
   0 -11  -9  240.98   19.80
   0  11   9  249.48   13.70
  -1 -11  -9   49.30   10.10
   1  11   9   68.49    5.70
   1  11   9   52.89    8.80
  -2 -11  -9   75.39   11.10
   2  11   9   71.09    9.50
   2  11   9   70.49    6.10
  -3 -11  -9    2.90    6.00
   3  11   9   -0.20    3.50
   3  11   9   10.50    5.30
  -4 -11  -9   99.99   11.00
   4  11   9   92.99    9.40
   4  11   9  114.69    8.20
  -5 -11  -9    8.10    5.00
   5  11   9    9.70    4.00
   5  11   9    4.00    4.00
   6  11   9   48.20    6.10
   7  11   9   71.19    7.30
   8  11   9   75.59    7.60
   9  11   9    0.80    5.20
  10  11   9    3.30    5.40
   7 -12  -9   10.70   14.60
  -7  12   9   10.30    5.10
   6 -12  -9    9.40   12.80
  -6  12   9    8.40    4.80
   5 -12  -9   57.59   15.70
  -5  12   9   44.10    5.70
   4 -12  -9   44.60   13.90
  -4  12   9   30.00    5.10
   3 -12  -9    8.90   11.20
  -3  12   9   25.00    4.50
   2 -12  -9   37.10   12.60
  -2  12   9   42.80    5.10
   1 -12  -9   11.40    9.80
  -1  12   9   19.50    4.30
   0 -12  -9   -2.10    7.60
   0  12   9   -2.70    3.70
  -1 -12  -9    2.80    7.50
   1  12   9   -1.00    3.70
  -2 -12  -9    0.10    6.60
   2  12   9    1.10    3.70
   2  12   9   11.20    6.10
  -3 -12  -9  116.59   13.70
   3  12   9   98.49   11.20
   3  12   9  114.79    8.50
  -4 -12  -9    7.00    6.20
   4  12   9   -1.90    4.10
   4  12   9    5.90    5.00
  -5 -12  -9   56.29    8.90
   5  12   9   56.49    7.40
   5  12   9   73.29    6.70
   6  12   9   71.29    6.80
   6  12   9   59.29    6.50
   6  12   9   71.29    7.00
   7  12   9   58.69    6.70
   8  12   9   12.20    5.50
   9  12   9   45.70    6.70
   6 -13  -9   17.70   15.00
  -6  13   9   13.50    5.40
   5 -13  -9   11.40   13.80
  -5  13   9   26.90    5.50
   4 -13  -9   16.00   13.00
  -4  13   9    9.20    4.80
   3 -13  -9   30.70   13.50
  -3  13   9   21.90    5.00
   2 -13  -9   30.60   12.40
  -2  13   9   18.50    5.00
   1 -13  -9    8.50    9.50
  -1  13   9    1.60    4.20
   0 -13  -9   59.89   12.50
   0  13   9   62.89    6.60
  -1 -13  -9   13.20    9.00
   1  13   9    8.60    4.40
  -2 -13  -9   44.90   11.00
   2  13   9   54.79    6.00
  -3 -13  -9    3.30    7.30
   3  13   9   15.40    7.30
   3  13   9   11.60    4.60
  -4 -13  -9  111.89   13.70
   4  13   9  115.39    8.90
   4  13   9   96.19   11.50
  -5 -13  -9    6.40    6.80
   5  13   9   20.40    6.20
   5  13   9   15.80    5.00
   6  13   9   32.50    5.80
   6  13   9   18.80    5.20
   7  13   9    7.70    5.20
   8  13   9   67.99    7.60
   5 -14  -9   -4.50   13.10
  -5  14   9   -2.80    5.40
   4 -14  -9    0.30   12.90
  -4  14   9   20.70    5.50
   3 -14  -9   -1.90   11.40
  -3  14   9    8.50    5.00
   2 -14  -9   -0.80   10.80
  -2  14   9    1.50    4.80
   1 -14  -9   43.90   13.70
  -1  14   9   48.80    6.30
   0 -14  -9   35.40   11.90
   0  14   9   35.20    5.70
  -1 -14  -9    6.70    9.80
   1  14   9    7.00    4.60
  -2 -14  -9   -6.80    8.70
   2  14   9    9.20    4.70
  -3 -14  -9   50.59   20.80
   3  14   9   55.89    6.50
  -4 -14  -9   34.80   10.00
   4  14   9   33.80    5.80
  -5 -14  -9   -2.80    7.10
   5  14   9    7.70    6.80
   6  14   9   -0.90    4.90
   6  14   9   14.30    6.10
   3 -15  -9    2.60   12.90
  -3  15   9   -1.10    5.30
   2 -15  -9   13.30   12.90
  -2  15   9   18.40    5.90
   1 -15  -9   10.40   12.30
  -1  15   9   25.00    5.60
   0 -15  -9    4.10   11.10
   0  15   9    7.80    5.20
  -1 -15  -9    2.50   10.20
   1  15   9   -9.70    4.50
  -2 -15  -9   12.70   10.30
   2  15   9   21.40    5.90
  -3 -15  -9   10.10   10.20
   3  15   9   15.90    6.10
  -4 -15  -9   -0.30    8.60
   4  15   9    9.40    5.20
   2  10 -10   10.60    4.80
   2  10 -10   -3.00   10.00
   2  10 -10   -0.50    5.20
   1  10 -10    9.70    4.80
  -1 -10  10   13.80   13.60
   0  10 -10   -5.10    4.30
   0 -10  10   -5.70   12.50
  -1  10 -10    6.80    4.90
   1 -10  10    2.40   13.60
  -2  10 -10   -2.50    5.40
   2 -10  10    6.00   13.70
  -3  10 -10   13.00    7.00
   3 -10  10    6.90   14.80
  -4  10 -10   16.70    5.60
   4 -10  10   -7.40   14.90
  -5  10 -10   -3.20    5.10
   5 -10  10   10.60   15.90
   4   9 -10    2.30    4.30
   4   9 -10   -2.30    9.90
   3   9 -10   32.20   18.90
   3   9 -10   20.70    5.00
   3   9 -10   15.20    8.70
   2   9 -10    2.80    4.20
   2   9 -10    5.00    9.60
   2   9 -10    0.60    4.80
   1   9 -10    1.50    4.20
  -1  -9  10    5.30   12.00
   0   9 -10    6.00    4.20
   0  -9  10   -6.00   11.20
  -1   9 -10   38.40    5.60
   1  -9  10   38.60   14.20
  -2   9 -10   20.50    5.00
   2  -9  10    5.50   12.50
  -3   9 -10   -1.50    4.40
   3  -9  10   -3.40   12.30
  -4   9 -10    0.40    4.60
   4  -9  10    4.90   13.10
  -5   9 -10   19.40    5.80
   5  -9  10   25.70   17.90
  -6   9 -10   -0.60    5.20
   6  -9  10   -1.10   19.50
  -7   9 -10   -0.60    5.80
   7  -9  10    4.90   16.10
   5   8 -10   -2.20    4.00
   5   8 -10   21.50   18.30
   4   8 -10   19.40    4.70
   4   8 -10   18.20   10.60
   3   8 -10   31.60    6.10
   3   8 -10   44.80   12.00
   3   8 -10   39.10    5.40
   2   8 -10   12.40    4.20
   2   8 -10   15.40    4.80
   2   8 -10   19.00    9.50
   1   8 -10    8.80    4.20
  -1  -8  10   11.30   12.40
   0   8 -10   42.60    5.40
   0  -8  10   35.00   13.40
  -1   8 -10   -1.80    3.60
   1  -8  10   15.70   11.50
  -2   8 -10   -1.90    3.80
   2  -8  10    3.70   12.50
  -3   8 -10   -2.40    4.00
   3  -8  10    2.30   12.00
  -4   8 -10   13.00    4.80
   4  -8  10   14.80   13.40
  -5   8 -10    8.40    4.90
   5  -8  10    6.30   12.30
  -6   8 -10    0.40    4.80
   6  -8  10   -7.70   13.40
  -7   8 -10    3.50    8.40
   7  -8  10   17.20   15.60
  -8   8 -10   11.50    5.80
   8  -8  10   14.20   21.10
   7   7 -10    3.40   10.40
   7   7 -10   -1.00    4.30
   6   7 -10   -3.40    9.10
   6   7 -10   -3.70    4.10
   5   7 -10   48.50    5.40
   5   7 -10   41.20   12.10
   4   7 -10   68.89   13.30
   4   7 -10   66.69    6.10
   3   7 -10    5.00    8.40
   3   7 -10   15.50    4.10
   3   7 -10   15.20    4.70
   2   7 -10   10.40    8.90
   2   7 -10   17.80    4.20
   2   7 -10    8.90    4.00
   1   7 -10   12.50    3.90
   0   7 -10    0.40    3.30
   0  -7  10    3.80    9.50
  -1   7 -10   14.80    4.00
   1  -7  10    9.70   10.50
  -2   7 -10    5.40    3.80
   2  -7  10    1.10   11.40
  -3   7 -10   16.20    4.30
   3  -7  10   13.10   10.70
  -4   7 -10   13.90    4.30
   4  -7  10    8.20   11.40
  -5   7 -10    5.20    4.00
   5  -7  10  -16.70   10.80
  -6   7 -10   11.50    5.00
   6  -7  10   17.40   13.60
  -7   7 -10   31.90    5.80
   7  -7  10   21.70   14.30
  -8   7 -10   20.40    5.90
   8  -7  10   -3.00   13.20
  -9   7 -10   21.20    6.70
   9  -7  10   11.50   16.00
   7   6 -10   14.00    4.40
   7   6 -10   21.20   11.90
   6   6 -10   59.39    5.70
   6   6 -10   46.70   12.60
   5   6 -10   77.79    6.70
   5   6 -10   58.09   12.60
   4   6 -10   10.90    8.60
   4   6 -10    8.70    3.60
   3   6 -10    4.70    7.80
   3   6 -10    4.50    3.50
   2   6 -10   25.10    4.30
   2   6 -10   22.90    3.90
   2   6 -10   19.40    8.10
   1   6 -10   -7.40    6.10
   1   6 -10    1.30    3.50
   1   6 -10    2.50    3.20
   0   6 -10   31.60    4.20
   0  -6  10   22.50   10.60
  -1   6 -10   21.10    3.90
   1  -6  10   29.60   11.00
  -2   6 -10   39.50    4.90
   2  -6  10   33.50   11.90
  -3   6 -10    3.70    3.50
   3  -6  10   16.50   10.90
  -4   6 -10   22.30    4.50
   4  -6  10   22.70   12.00
  -5   6 -10    6.60    3.90
   5  -6  10    7.40   10.50
  -6   6 -10   24.50    5.00
   6  -6  10   18.50   11.90
  -7   6 -10    0.80    4.40
   7  -6  10   -6.00   11.00
  -8   6 -10   28.10    5.50
   8  -6  10   25.60   15.00
  -9   6 -10   -1.20    5.10
   9  -6  10   16.30   14.70
 -10   6 -10   -1.60    5.60
  10  -6  10   21.90   15.50
   8   5 -10   67.09   22.50
   8   5 -10   34.80    4.90
   7   5 -10   83.49    7.20
   7   5 -10   95.09   15.10
   6   5 -10   23.10   10.20
   5   5 -10    0.50    7.80
   5   5 -10   21.70    3.80
   4   5 -10   16.30    3.40
   4   5 -10   10.20    8.20
   3   5 -10   -5.30    6.50
   3   5 -10    5.60    3.00
   2   5 -10    1.20    2.90
   2   5 -10    2.40    6.90
   2   5 -10    7.50    3.30
   1   5 -10   40.10    5.00
   1   5 -10   41.00    4.50
   1   5 -10   26.40    9.00
   0   5 -10   67.79    5.70
   0  -5  10   80.69   14.30
  -1   5 -10   85.39    9.60
   1  -5  10   86.09   14.40
  -2   5 -10    9.40    3.30
   2  -5  10    4.00    9.00
  -3   5 -10   82.09    6.70
   3  -5  10   69.79   13.70
  -4   5 -10    7.30    3.70
   4  -5  10    8.30    8.90
  -5   5 -10    4.10    3.60
   5  -5  10    0.70    8.80
  -6   5 -10   -1.50    3.70
   6  -5  10   11.10   10.70
  -7   5 -10   40.50    5.70
   7  -5  10   24.40   11.80
  -8   5 -10    4.10    4.40
   8  -5  10   14.60   12.50
  -9   5 -10    2.90    4.80
   9  -5  10    5.00   12.00
 -10   5 -10   14.20    7.20
  10  -5  10   28.60   15.60
 -11   5 -10   37.80    7.50
  11  -5  10   23.70   15.60
   9   4 -10   41.50    5.70
   9   4 -10   49.20   14.70
   8   4 -10   42.30   12.90
   8   4 -10   44.10    4.80
   7   4 -10   31.70    4.10
   7   4 -10   37.30   11.90
   6   4 -10   46.30   11.60
   6   4 -10   50.29    4.60
  -6  -4  10   50.79    4.70
   5   4 -10   39.30    4.00
   5   4 -10   57.29   11.20
  -5  -4  10   30.60    3.80
   4   4 -10    3.80    7.80
   4   4 -10    6.20    2.80
  -4  -4  10    1.30    2.50
   3   4 -10   40.90    4.00
   3   4 -10   32.20    8.80
  -3  -4  10   35.20    3.70
   2   4 -10   32.50    3.60
   2   4 -10   31.70    8.40
  -2  -4  10   24.60    3.30
   1   4 -10  112.69   11.40
   1   4 -10   99.19    6.30
   1   4 -10   91.39    6.80
  -1  -4  10   79.29    5.90
   0   4 -10    5.60    2.60
   0   4 -10    4.00    2.80
   0  -4  10    3.40    7.50
  -1   4 -10    5.60    2.80
   1  -4  10   11.40    8.50
  -2   4 -10  154.68    9.20
   2  -4  10  154.98   16.70
   3  -4  10   30.30   10.30
  -4   4 -10   18.30    3.60
   4  -4  10   36.30   10.50
  -5   4 -10    5.10    3.30
   5  -4  10   19.30    9.70
  -6   4 -10   36.30    4.70
   6  -4  10   30.60   11.00
  -7   4 -10    9.30    4.00
   7  -4  10   24.30   10.90
  -8   4 -10   -2.00    4.10
   8  -4  10    1.70    9.80
  -9   4 -10   24.60    5.60
   9  -4  10   21.40   12.30
 -10   4 -10   60.89    7.60
  10  -4  10   65.69   16.40
 -11   4 -10    8.50    7.00
  11  -4  10   -4.40   13.10
   9   3 -10    1.30   11.00
   9   3 -10   26.20    3.80
  -9  -3  10   17.70    4.20
   8   3 -10    5.00   11.30
   8   3 -10   26.10    3.90
  -8  -3  10   13.90    3.50
   7   3 -10   67.89    5.20
   7   3 -10   44.40   11.90
  -7  -3  10   43.80    4.60
   6   3 -10  142.99    8.00
   6   3 -10  157.98   16.60
  -6  -3  10  114.09    8.80
   5   3 -10  108.59    6.30
   5   3 -10   99.59   13.00
  -5  -3  10   80.99    6.10
   4   3 -10    2.50    2.50
   4   3 -10    3.20    7.00
  -4  -3  10    2.10    2.20
   3   3 -10   30.60    3.20
   3   3 -10   30.80    8.10
  -3  -3  10   23.80    2.90
   2   3 -10   22.50    3.10
   2   3 -10   29.00    7.90
  -2  -3  10   24.60    2.90
   1   3 -10    1.40    2.10
   1   3 -10    3.70    2.60
   1   3 -10    5.00    5.40
   1   3 -10    1.00    2.30
   0   3 -10   43.20    5.00
   0   3 -10   45.30    3.90
  -1   3 -10   37.20    3.90
  -1   3 -10   38.80    3.70
   1  -3  10   24.20    8.20
  -2   3 -10    3.20    2.30
  -2   3 -10    5.40    2.50
   2  -3  10   -5.50    5.60
  -3   3 -10   80.39    5.90
   3  -3  10   79.99   12.70
  -4   3 -10    0.80    2.50
   4  -3  10    3.00    6.70
  -5   3 -10   74.59    6.40
   5  -3  10   75.69   13.00
  -6   3 -10   15.00    3.80
   6  -3  10   20.50    9.70
   7  -3  10  -11.10   13.70
   8  -3  10   26.90    5.50
   8  -3  10   15.00   10.00
   9  -3  10   61.49    7.70
   9  -3  10   54.89   13.80
  10  -3  10   14.80    6.40
  10  -3  10    6.70   12.50
  11  -3  10   29.00   14.10
  11  -3  10   28.70    7.30
  12  -3  10   16.00   14.50
  12  -3  10    7.40    6.70
  10   2 -10   10.80    3.70
  10   2 -10   -3.90   11.20
   9   2 -10    5.00    3.10
   9   2 -10   -2.90   10.30
   8   2 -10   16.00    3.00
   8   2 -10    0.50   10.50
  -8  -2  10    4.30    2.90
   7   2 -10  108.49   14.70
   7   2 -10  117.99    6.70
  -7  -2  10   91.19    6.60
   6   2 -10  174.08    8.90
   6   2 -10  162.18   17.00
  -6  -2  10  150.18    8.90
   5   2 -10   -0.60    7.30
   5   2 -10    5.10    2.20
  -5  -2  10   -0.10    2.00
   4   2 -10  168.78    8.90
   4   2 -10  176.58   15.30
  -4  -2  10  159.38    8.80
   3   2 -10   54.39    4.00
   3   2 -10   47.80    9.50
  -3  -2  10   40.80    3.80
   2   2 -10   93.89    5.70
   2   2 -10   95.89   12.90
   1   2 -10   33.80    3.20
   1   2 -10   35.00    3.50
   1   2 -10   33.60    7.10
   0   2 -10   22.50    2.70
   0   2 -10   18.50    5.60
   0   2 -10   22.20    3.00
   0   2 -10   23.00    3.10
  -1   2 -10  129.79   13.50
  -1   2 -10  142.39    8.00
  -1   2 -10  144.19    8.20
  -2   2 -10   56.49    4.50
  -2   2 -10   58.19   10.00
  -2   2 -10   52.99    4.70
   2  -2  10   79.39   10.80
  -3   2 -10    6.40    2.50
  -3   2 -10    6.90    2.30
  -3   2 -10    4.70    5.70
   3  -2  10   17.00    7.10
  -4   2 -10   36.90    8.40
  -4   2 -10   45.90    4.20
   4  -2  10   46.40    9.90
  -5   2 -10   67.29   11.10
   5  -2  10   80.49   12.10
   5  -2  10   73.99    6.90
  -6   2 -10   14.20    6.80
   6  -2  10   16.30    4.20
   6  -2  10   32.10    9.10
   7  -2  10   60.49    6.40
   7  -2  10   45.30   11.20
   8  -2  10  202.58   19.20
   8  -2  10  186.28   12.50
   9  -2  10    1.70   14.20
   9  -2  10   -2.70    4.60
  10  -2  10   74.99   14.80
  10  -2  10   83.79    8.60
  11  -2  10   -0.40    5.70
  11  -2  10   17.30   12.30
  12  -2  10   61.49   15.70
  12  -2  10   47.10    8.70
  10   1 -10    0.50    3.30
  10   1 -10  -10.10   13.20
 -10  -1  10    3.50    3.40
   9   1 -10   18.30    3.30
   9   1 -10    5.40   10.60
  -9  -1  10   12.20    3.10
   8   1 -10  296.37   24.20
  -8  -1  10  265.97   14.00
   7   1 -10    4.30    9.00
   7   1 -10    6.50    2.30
  -7  -1  10    9.00    2.40
   6   1 -10    4.50    2.00
   6   1 -10    2.90    7.60
  -6  -1  10    5.80    2.00
   5   1 -10   49.50    3.80
   5   1 -10   45.80    9.70
  -5  -1  10   46.00    3.60
   4   1 -10  159.88   14.90
   4   1 -10  167.58    8.60
  -4  -1  10  161.18    8.50
   3   1 -10   35.50    8.00
   3   1 -10   33.10    3.00
   2   1 -10  196.78   10.20
   2   1 -10  193.48   10.00
   2   1 -10  197.88   14.90
   1   1 -10    7.60    7.70
   1   1 -10   12.20    2.00
   1   1 -10   10.70    2.20
   1   1 -10    5.40    4.70
   0   1 -10   28.00    3.00
   0   1 -10   28.90    6.40
   0   1 -10   25.20    7.30
   0   1 -10   26.90    2.80
  -1   1 -10   83.09    8.60
  -1   1 -10   83.59    5.40
  -1   1 -10   90.49   11.80
  -1   1 -10   80.49    5.20
  -1   1 -10   80.59    5.50
  -2   1 -10  107.49    6.60
  -2   1 -10  107.29   11.30
  -2   1 -10  116.69    6.60
   2  -1  10  109.19   11.70
  -3   1 -10   99.09    6.10
  -3   1 -10   94.49   13.20
   3  -1  10   89.79   11.10
  -4   1 -10  106.29    6.80
   4  -1  10  116.19   12.30
   4  -1  10  107.89    7.40
   5  -1  10   50.49    9.20
   5  -1  10   51.09    5.00
  -6   1 -10    3.00    5.70
   6  -1  10   13.00    7.30
   6  -1  10   13.20    3.90
  -7   1 -10   91.29   11.70
   7  -1  10   74.29   11.70
   7  -1  10   85.99    7.50
  -8   1 -10   13.00    6.50
   8  -1  10    2.40    7.90
   8  -1  10    4.80    4.20
  -9   1 -10   57.29   10.70
   9  -1  10   79.79    7.60
   9  -1  10   81.69   13.30
  10  -1  10   95.49   14.90
  10  -1  10   88.49    8.60
  11  -1  10   51.49    7.50
  12  -1  10   15.70   11.60
  12  -1  10    2.70   12.20
  10   0 -10   19.30   23.30
 -10   0  10   11.50    3.10
   9   0 -10   84.59   15.80
   9   0 -10   70.89    5.70
  -9   0  10   79.69    5.50
   8   0 -10    2.80    9.50
   8   0 -10   16.30    2.60
  -8   0  10    4.50    2.10
   7   0 -10   17.30    9.60
   7   0 -10   33.30    4.30
  -7   0  10   35.60    3.20
   6   0 -10  116.59   15.00
   6   0 -10  135.09    7.20
   5   0 -10  175.08   15.90
   5   0 -10  178.58    8.90
   4   0 -10    3.20    6.20
   4   0 -10   12.00    1.50
   3   0 -10   27.50    6.90
   3   0 -10   24.60    2.00
   2   0 -10   39.80    7.50
   2   0 -10   36.00    3.00
   1   0 -10   32.70    2.70
   1   0 -10   19.10    6.70
   1   0 -10   36.10    6.80
   1   0 -10   30.50    2.50
   0   0 -10   14.90    6.10
   0   0 -10   26.60    2.50
   0   0 -10   26.70    5.70
   0   0 -10   23.30    2.60
  -1   0 -10  143.69    7.80
  -1   0 -10  147.29    7.90
  -1   0 -10  142.89   11.00
  -1   0 -10  133.19   13.70
  -2   0 -10  108.79   10.50
  -2   0 -10  107.19    6.40
  -2   0 -10  100.59    9.10
  -2   0 -10  106.49    6.30
   2   0  10  106.09    6.70
  -3   0 -10   54.39    8.50
  -3   0 -10   41.40    3.80
   3   0  10   50.49    4.40
   3   0  10   45.60    7.80
  -4   0 -10    6.50    2.10
  -4   0 -10    3.20    4.90
   4   0  10    0.20    2.50
   4   0  10    3.10    4.80
  -5   0 -10   22.50    6.20
  -5   0 -10   20.10    3.40
   5   0  10   22.30    6.80
   5   0  10   23.40    3.80
  -6   0 -10   39.80    7.50
   6   0  10   30.20    4.40
   6   0  10   43.60    8.30
  -7   0 -10   -2.10    4.90
   7   0  10    2.90    6.30
   7   0  10    4.40    3.80
  -8   0 -10   74.29   10.60
   8   0  10  110.09   12.90
   8   0  10   76.09    7.20
  -9   0 -10   58.69    9.60
   9   0  10   47.10    6.20
   9   0  10   52.49   10.30
 -10   0 -10   31.60    8.00
  10   0  10   27.50    6.00
  10   0  10   24.90    9.20
 -11   0 -10   10.20    8.10
  11   0  10    1.10    5.30
  11   0  10   -6.00    8.60
  12   0  10   34.00    8.50
  12   0  10   42.20   12.20
  13   0  10    5.80    6.30
  13   0  10    5.00   13.00
  10  -1 -10   27.60   15.70
 -10   1  10   31.40    3.30
   9  -1 -10   27.70   13.00
   8  -1 -10   43.80   11.90
   7  -1 -10  125.19   15.40
   6  -1 -10  157.38   16.60
   5  -1 -10    7.50    7.30
   4  -1 -10   70.49   10.30
   3  -1 -10   45.20    8.50
   2  -1 -10   25.10    2.00
   2  -1 -10   26.10    2.00
   2  -1 -10   40.50    7.40
  -2   1  10   26.50    5.90
  -2   1  10   25.20    3.10
   1  -1 -10    8.50    5.20
   1  -1 -10    2.20    1.60
   1  -1 -10    1.40    1.30
   0  -1 -10   97.29    5.50
   0  -1 -10  100.99    5.50
   0  -1 -10   99.49    9.30
   0  -1 -10  115.19   13.40
  -1  -1 -10   45.10    3.40
  -1  -1 -10   42.20    6.50
  -1  -1 -10   56.79    8.70
   1   1  10   48.10    3.80
  -2  -1 -10   62.09    6.90
  -2  -1 -10   55.19    4.00
  -2  -1 -10   71.29    8.80
   2   1  10   60.49    4.50
  -3  -1 -10  117.19   10.50
  -3  -1 -10  124.69    9.30
  -3  -1 -10  116.29    6.70
  -3  -1 -10  112.09    6.80
   3   1  10  123.19    7.30
  -4  -1 -10   15.50    2.60
  -4  -1 -10   15.50    5.40
   4   1  10   15.90    5.30
   4   1  10   13.10    2.90
  -5  -1 -10    8.30    2.40
  -5  -1 -10    9.40    4.90
   5   1  10    4.90    4.70
   5   1  10    4.10    2.70
  -6  -1 -10  150.78   11.60
   6   1  10  158.88   12.40
   6   1  10  135.39    9.10
  -7  -1 -10  101.59   10.00
   7   1  10  102.59    7.90
   7   1  10  101.49   11.10
  -8  -1 -10  129.49   11.50
   8   1  10  147.19   13.00
   8   1  10  131.49    9.50
  -9  -1 -10   34.20    6.80
   9   1  10   31.00    5.60
   9   1  10   29.90    8.10
 -10  -1 -10   15.40    6.10
  10   1  10    8.80    5.00
  10   1  10   12.50    8.30
 -11  -1 -10   73.49   13.80
  11   1  10  133.19   14.60
  11   1  10  116.09   10.30
 -12  -1 -10   27.00    7.90
  12   1  10   24.00    6.60
  12   1  10   19.60   10.00
  13   1  10   13.30   10.40
  13   1  10   16.40    6.50
  10  -2 -10   -2.60   12.80
   9  -2 -10   30.50   12.30
   8  -2 -10  118.69   16.20
   7  -2 -10  182.88   18.40
   6  -2 -10    4.00    8.70
   5  -2 -10   91.89   12.60
   3  -2 -10   30.50    7.50
   2  -2 -10   87.19   10.10
  -2   2  10   81.39    9.30
   1  -2 -10  170.98    8.50
   1  -2 -10  172.38    8.50
   1  -2 -10  180.98   13.00
  -1   2  10  169.28    9.40
  -1   2  10  171.08   12.30
   0  -2 -10    6.50    1.40
   0  -2 -10    8.80    4.60
   0   2  10    1.80    1.80
   0   2  10    4.50    1.90
   0   2  10    6.50    4.00
  -1  -2 -10   25.10    5.40
  -1  -2 -10   18.70    5.70
  -1  -2 -10   30.00    2.60
   1   2  10   27.20    2.80
  -2  -2 -10    0.60    4.00
  -2  -2 -10    2.60    3.80
  -2  -2 -10    4.40    1.60
   2   2  10    1.50    1.90
  -3  -2 -10   92.69    6.00
  -3  -2 -10  109.99    8.40
  -3  -2 -10  104.39    9.10
   3   2  10  105.99    6.40
  -4  -2 -10   23.90    4.50
  -4  -2 -10   21.60    4.40
  -4  -2 -10   25.00    5.50
  -4  -2 -10   21.00    2.30
   4   2  10   25.60    3.30
  -5  -2 -10   60.49    7.30
  -5  -2 -10   46.00    4.20
   5   2  10   57.59    4.90
  -6  -2 -10   21.20    5.00
   6   2  10   17.60    3.50
   6   2  10   22.10    5.20
  -7  -2 -10    6.50    4.10
   7   2  10   -2.90    3.10
   7   2  10    2.40    4.60
  -8  -2 -10   52.29    6.60
   8   2  10   51.39    7.60
   8   2  10   43.00    5.50
  -9  -2 -10   31.40    5.70
   9   2  10   20.60    5.00
   9   2  10   20.10    6.50
 -10  -2 -10  276.87   17.90
  10   2  10  288.47   17.00
  10   2  10  318.97   19.80
 -11  -2 -10   45.00    7.80
  11   2  10   45.10    9.10
  11   2  10   41.80    6.60
 -12  -2 -10   -0.70    6.00
  12   2  10    7.60    8.10
  12   2  10   -1.20    5.60
  13   2  10   -0.40    5.90
  13   2  10   -0.60    7.90
  10  -3 -10   45.50   17.90
   9  -3 -10   77.69   15.70
   8  -3 -10   58.09   13.10
   7  -3 -10   -6.70    8.60
   6  -3 -10  360.36   25.50
   5  -3 -10   24.00    8.60
   3  -3 -10   73.09   10.30
   2  -3 -10  104.59   10.50
  -2   3  10   98.69    9.20
   1  -3 -10   19.60    5.70
   1  -3 -10   11.90    1.30
   0  -3 -10    1.00    1.20
   0  -3 -10    2.50    4.20
   0   3  10    1.40    3.30
  -1  -3 -10  153.78   11.30
  -1  -3 -10  146.89    7.80
   1   3  10  149.88    8.00
   1   3  10  154.88   10.40
   1   3  10  154.78    8.10
  -2  -3 -10  202.08   12.20
  -2  -3 -10  181.38    9.70
  -2  -3 -10  193.28   12.80
   2   3  10  186.08    9.90
  -3  -3 -10   14.50    2.20
  -3  -3 -10   10.30    4.20
  -3  -3 -10   10.50    4.00
   3   3  10   17.50    2.70
  -4  -3 -10   74.19    6.80
  -4  -3 -10   80.29    6.80
  -4  -3 -10   67.09    7.20
   4   3  10   82.19    5.50
  -5  -3 -10   13.00    4.00
  -5  -3 -10   11.00    2.30
   5   3  10    7.90    2.70
  -6  -3 -10   32.10    4.10
   6   3  10   27.30    3.90
  -7  -3 -10   17.90    4.40
   7   3  10   10.50    3.70
   8   3  10    1.60    3.70
   8   3  10    2.80    3.60
  -9  -3 -10  409.76   24.50
   9   3  10  464.65   23.50
   9   3  10  459.05   24.60
 -10  -3 -10   58.69    6.50
  10   3  10   65.89    6.90
 -11  -3 -10    2.70    4.90
  11   3  10    0.40    5.10
  11   3  10   -4.70    5.40
 -12  -3 -10   10.70    5.50
  12   3  10   17.40    6.70
  12   3  10   23.70    6.20
  13   3  10   20.80    7.00
  13   3  10   22.00    6.70
   9  -4 -10   -1.40   11.60
   8  -4 -10    7.80    9.70
   7  -4 -10  168.98   18.50
   6  -4 -10  138.59   16.30
   5  -4 -10    3.80    7.30
   3  -4 -10  118.49   12.20
   2  -4 -10   50.49    7.80
  -2   4  10   32.20    6.40
   1  -4 -10   32.00    6.50
   1  -4 -10   29.40    2.20
  -1   4  10   25.70    2.30
  -1   4  10   33.30    7.10
   0  -4 -10  120.99   10.10
   0  -4 -10  113.49    6.10
   0   4  10  113.89    9.00
   0   4  10  114.19    6.20
  -1  -4 -10  114.89    6.40
  -1  -4 -10  123.79    9.50
   1   4  10  124.99    8.80
   1   4  10  116.99    6.60
  -2  -4 -10    7.30    1.80
  -2  -4 -10   12.90    4.40
   2   4  10    8.40    1.60
   2   4  10    5.00    2.00
   2   4  10    8.10    3.40
  -3  -4 -10    6.40    3.90
  -3  -4 -10   12.80    2.30
  -3  -4 -10    7.80    3.80
   3   4  10   11.40    2.60
  -4  -4 -10    4.30    2.00
  -4  -4 -10    6.00    2.90
   4   4  10    6.80    2.50
  -5  -4 -10  185.08   10.50
  -5  -4 -10  202.68   10.70
  -5  -4 -10  201.28   11.00
   5   4  10  192.58   10.90
   6   4  10    5.60    3.00
   7   4  10   -7.90    3.10
   8   4  10  275.87   15.40
   9   4  10   61.49    6.40
  10   4  10   11.30    5.00
  11   4  10  112.19    9.80
  12   4  10   53.29    8.90
  13   4  10    7.10    6.10
  10  -5 -10    8.10   13.10
   9  -5 -10   10.40   12.40
   8  -5 -10   67.19   14.30
   7  -5 -10   75.39   13.40
   6  -5 -10    6.70    8.80
   5  -5 -10   17.20    8.10
   4  -5 -10  176.28   16.10
   3  -5 -10   32.60    8.40
   2  -5 -10    3.80    1.10
   2  -5 -10    8.60    5.80
  -2   5  10    0.30    4.40
  -2   5  10    5.40    1.20
   1  -5 -10   31.00    2.50
   1  -5 -10   43.70    7.40
  -1   5  10   32.20    2.70
   0  -5 -10  269.17   17.50
   0  -5 -10  273.97   14.00
   0   5  10  292.37   14.10
   0   5  10  297.17   17.00
  -1  -5 -10   26.90    5.80
  -1  -5 -10   18.50    2.40
   1   5  10   23.50    2.70
   1   5  10   24.70    4.90
  -2  -5 -10   32.80    3.10
  -2  -5 -10   43.30    6.00
   2   5  10   30.90    4.80
   2   5  10   41.90    3.50
  -3  -5 -10   11.00    2.20
  -3  -5 -10   10.20    3.70
   3   5  10    7.80    2.40
  -4  -5 -10   86.59    5.90
  -4  -5 -10   84.59    6.20
  -4  -5 -10   72.59    5.40
   4   5  10   89.69    5.80
  -5  -5 -10   -5.80    3.70
   5   5  10   -0.50    2.80
   6   5  10   -6.50    4.60
   7   5  10  193.78   11.40
   8   5  10   46.20    5.50
   9   5  10  101.49    8.30
  10   5  10   24.90    5.20
  11   5  10  165.18   11.70
  12   5  10   24.20    7.90
  10  -6 -10    2.10   12.90
   9  -6 -10   78.59   16.90
   8  -6 -10   88.19   16.10
   7  -6 -10    0.80    9.80
   6  -6 -10    3.80    9.00
   5  -6 -10  211.38   19.00
   4  -6 -10   -8.40    7.50
   3  -6 -10  152.88   14.50
  -3   6  10  156.08    7.90
   2  -6 -10   43.00    8.30
   2  -6 -10   31.30    2.80
  -2   6  10   46.50    7.50
   1  -6 -10   11.20    1.80
   1  -6 -10    8.60    5.70
  -1   6  10   14.40    2.00
  -1   6  10   11.80    5.00
   0  -6 -10  172.98    9.20
   0  -6 -10  186.08   13.40
   0   6  10  183.38    9.30
   0   6  10  171.38   12.10
  -1  -6 -10    1.10    1.70
  -1  -6 -10    1.30    4.20
   1   6  10   -0.10    2.00
   1   6  10    3.80    3.60
  -2  -6 -10   -2.10    1.70
  -2  -6 -10    9.80    4.20
   2   6  10    0.20    2.00
   2   6  10    1.00    3.00
  -3  -6 -10  436.26   22.50
  -3  -6 -10  357.26   18.90
   3   6  10  365.56   18.90
   3   6  10  368.96   19.50
  -4  -6 -10   19.90    3.10
  -4  -6 -10   30.20    3.60
  -4  -6 -10   28.50    3.70
   4   6  10   33.30    3.90
   5   6  10    2.80    2.80
   6   6  10   81.19    6.60
   7   6  10   36.20    4.80
   8   6  10  215.58   12.80
   9   6  10  110.59    8.80
  10   6  10  161.68   11.30
  11   6  10    2.90    4.80
  12   6  10   31.90    6.30
  10  -7 -10   16.90   14.80
 -10   7  10    8.60    3.60
 -10   7  10   -0.40    2.90
   9  -7 -10   17.60   13.20
  -9   7  10   19.30    3.10
  -9   7  10   23.80    4.10
   8  -7 -10   11.00   10.90
  -8   7  10    4.00    2.50
   7  -7 -10   59.19   13.70
  -7   7  10   75.89    5.00
   6  -7 -10  176.78   19.20
  -6   7  10  161.38    8.80
   5  -7 -10    9.60    9.50
  -5   7  10   16.50    2.30
   4  -7 -10   12.90    7.70
  -4   7  10   16.60    2.30
  -4   7  10   16.70    2.30
   3  -7 -10   60.39    4.10
   3  -7 -10   52.89   11.50
  -3   7  10   74.59    4.50
   2  -7 -10   39.30    8.40
   2  -7 -10   39.70    3.20
  -2   7  10   42.40    3.50
  -2   7  10   37.70    8.40
   1  -7 -10  115.09    6.50
   1  -7 -10  124.39   11.90
  -1   7  10  115.99    6.70
  -1   7  10  107.89   10.30
   0  -7 -10   46.40    4.00
   0  -7 -10   57.99    8.50
   0   7  10   63.09    7.70
   0   7  10   53.59    4.30
  -1  -7 -10   20.40    5.50
  -1  -7 -10    7.20    2.10
   1   7  10   13.30    4.30
   1   7  10    5.90    2.40
  -2  -7 -10   76.99    7.90
   2   7  10   70.39    6.90
   2   7  10   73.69    5.30
  -3  -7 -10   15.50    2.80
  -3  -7 -10   20.80    4.70
   3   7  10   19.40    3.70
   3   7  10   18.70    3.20
  -4  -7 -10   41.30    4.30
   4   7  10   43.60    4.30
   6   7  10    2.50    3.40
   7   7  10   92.99    7.60
   8   7  10  162.58   10.50
   9   7  10   82.09    7.70
  10   7  10    3.90    4.80
  11   7  10   81.79    8.30
  12   7  10   17.00    6.10
 -10   8  10    5.50    3.60
   9  -8 -10   15.30   14.20
  -9   8  10   10.40    3.40
  -9   8  10   20.80    3.50
   8  -8 -10   16.70   12.70
  -8   8  10   33.50    3.50
  -8   8  10   24.10    3.40
   7  -8 -10   77.09   16.50
  -7   8  10  100.29    6.30
  -7   8  10   93.89    6.30
   6  -8 -10   13.70   11.30
  -6   8  10   10.50    2.70
  -6   8  10   16.10    2.90
   5  -8 -10   76.19   13.90
  -5   8  10   73.59    5.70
  -5   8  10   89.39    5.60
   4  -8 -10   19.30   10.00
  -4   8  10   25.40    3.40
  -4   8  10   32.60    3.20
   3  -8 -10    4.20    7.20
   3  -8 -10    8.10    2.20
  -3   8  10   13.10    2.50
   2  -8 -10    7.20    2.30
   2  -8 -10    1.80    7.20
  -2   8  10   17.10    2.70
   1  -8 -10  189.68   15.60
   1  -8 -10  191.58   10.10
  -1   8  10  197.68   10.10
  -1   8  10  161.68   13.70
   0  -8 -10   17.90    2.70
   0  -8 -10   33.20    7.10
   0   8  10   27.20    3.10
  -1  -8 -10  115.79    7.50
  -1  -8 -10  136.19   11.40
   1   8  10  130.99    7.40
   1   8  10  112.59    9.90
  -2  -8 -10   -0.80    2.10
  -2  -8 -10   -6.40    4.20
   2   8  10    3.70    2.50
   2   8  10    2.20    3.60
  -3  -8 -10   67.09    7.50
   3   8  10   80.29    5.80
   3   8  10   63.99    6.40
  -4  -8 -10    2.10    3.30
   4   8  10    2.00    2.70
   4   8  10    3.30    3.30
   5   8  10  131.59    8.60
   6   8  10   -0.30    3.60
   7   8  10  343.27   18.40
   8   8  10   39.30    5.60
   9   8  10    3.80    4.40
  10   8  10  202.48   13.20
  11   8  10   37.90    6.50
   9  -9 -10   47.60   16.20
  -9   9  10   41.00    4.60
  -9   9  10   38.30    4.60
   8  -9 -10    2.60   12.70
  -8   9  10   24.30    3.80
  -8   9  10   13.40    3.80
   7  -9 -10   18.10   11.80
  -7   9  10    5.60    3.30
  -7   9  10    3.00    3.30
   6  -9 -10    8.30   10.70
  -6   9  10   26.50    3.90
  -6   9  10   29.40    3.70
   5  -9 -10    0.50    9.10
  -5   9  10   -3.40    2.80
  -5   9  10   -3.70    3.10
   4  -9 -10   32.30   10.70
  -4   9  10   27.00    3.40
   3  -9 -10   30.20   10.30
   3  -9 -10   20.40    3.10
  -3   9  10   33.40    3.70
   2  -9 -10  165.18    9.40
   2  -9 -10  158.58   26.50
  -2   9  10  173.38    9.50
   1  -9 -10   69.19   10.70
  -1   9  10   54.89    4.60
   0  -9 -10    1.40    6.10
   0  -9 -10    1.40    2.40
   0   9  10    5.10    5.10
   0   9  10    7.50    2.80
  -1  -9 -10   12.00    6.80
  -1  -9 -10    9.40    2.80
   1   9  10   14.80    5.50
   1   9  10   11.00    3.20
  -2  -9 -10  270.77   17.00
   2   9  10  249.68   13.40
   2   9  10  233.68   15.40
  -3  -9 -10   30.30    6.20
   3   9  10   29.30    4.60
   3   9  10   33.40    5.20
  -4  -9 -10    3.30    6.50
   4   9  10    7.20    3.40
   4   9  10    6.20    3.30
   5   9  10  119.29    8.40
   6   9  10   -0.80    3.60
   7   9  10   -5.80    3.60
   8   9  10    0.10    4.10
   9   9  10  103.19    8.90
  10   9  10  118.79   10.10
  11   9  10    9.40    5.50
  -9  10  10    7.00    4.40
   8 -10 -10  -17.90   12.10
  -8  10  10    8.00    4.20
  -8  10  10   -1.50    4.10
   7 -10 -10   45.10   14.90
  -7  10  10   56.69    5.90
  -7  10  10   84.19    6.50
   6 -10 -10   12.60   11.40
  -6  10  10   21.50    4.00
  -6  10  10   16.70    4.30
   5 -10 -10    2.30    9.90
  -5  10  10    8.90    4.10
  -5  10  10   17.80    3.60
   4 -10 -10    0.70    2.60
   4 -10 -10    1.50    9.30
  -4  10  10    6.10    3.20
   3 -10 -10   19.90   10.20
   3 -10 -10   18.50    3.30
  -3  10  10   27.10    3.80
   2 -10 -10    6.90    2.90
   2 -10 -10   11.50    8.80
  -2  10  10    9.50    3.30
   1 -10 -10    6.70    8.10
   1 -10 -10    2.50    2.80
  -1  10  10   -2.10    2.90
   0 -10 -10    0.70    6.80
   0  10  10    8.80    5.60
   0  10  10    5.50    3.20
  -1 -10 -10  255.87   18.60
   1  10  10  272.37   13.80
   1  10  10  222.98   16.70
  -2 -10 -10    8.80    6.10
   2  10  10    2.70    3.90
   2  10  10    1.50    4.80
  -3 -10 -10    9.80    6.10
   3  10  10   10.40    3.80
   3  10  10   11.40    4.80
  -4 -10 -10   13.60    5.40
   4  10  10   11.30    3.90
   4  10  10   13.90    4.30
  -5 -10 -10   24.40    4.20
   5  10  10   31.60    3.70
   5  10  10   31.70    4.80
   6  10  10    0.80    3.70
   7  10  10   13.70    4.60
   8  10  10   50.09    6.30
   9  10  10  186.88   12.60
  10  10  10    1.60    5.50
   8 -11 -10   12.70   14.50
  -8  11  10    6.00    4.70
   7 -11 -10   52.69   27.10
  -7  11  10   48.60    5.70
   6 -11 -10   24.20   13.40
  -6  11  10    7.80    4.30
   5 -11 -10    7.20   11.90
  -5  11  10    4.70    3.90
   4 -11 -10   64.39   13.80
  -4  11  10   72.99    6.60
   3 -11 -10    6.60   10.50
  -3  11  10   16.30    3.90
   2 -11 -10   40.00   11.70
  -2  11  10   48.90    5.00
   1 -11 -10   -7.10    7.90
  -1  11  10   -1.40    3.30
   0 -11 -10  251.87   20.60
   0  11  10  277.97   15.30
  -1 -11 -10   34.60    9.20
   1  11  10   41.20    7.80
   1  11  10   39.80    4.70
  -2 -11 -10   23.50    7.70
   2  11  10   36.00    4.60
   2  11  10   33.30    7.90
  -3 -11 -10   -6.30    5.40
   3  11  10    1.00    3.70
   3  11  10    4.30    4.70
  -4 -11 -10   58.59    8.70
   4  11  10   64.69    7.30
   4  11  10   74.69    6.30
  -5 -11 -10    9.10    4.80
   5  11  10    8.40    4.10
   5  11  10    9.70    3.80
   6  11  10   19.50    4.90
   7  11  10   75.19    7.10
   8  11  10   87.99    8.30
   9  11  10   12.90    5.40
  10  11  10   10.40    5.70
   7 -12 -10    8.10   15.00
  -7  12  10   -1.90    4.80
   6 -12 -10    5.10   13.20
  -6  12  10   -4.90    4.60
   5 -12 -10   61.39   16.20
  -5  12  10   53.29    6.00
   4 -12 -10   15.80   12.10
  -4  12  10   11.20    4.40
   3 -12 -10   11.30   11.10
  -3  12  10   31.10    4.80
   2 -12 -10   20.00   10.80
  -2  12  10   13.90    4.20
   1 -12 -10   31.10   10.70
  -1  12  10   50.89    5.50
   0 -12 -10   -4.30    7.50
   0  12  10   -1.00    3.70
  -1 -12 -10    1.80    7.60
   1  12  10   -2.10    3.60
  -2 -12 -10    0.70    7.00
   2  12  10   10.60    5.80
   2  12  10    6.70    4.00
  -3 -12 -10  126.29   14.40
   3  12  10  152.48   19.00
   3  12  10  133.69    9.40
  -4 -12 -10    5.50    6.10
   4  12  10   14.50    5.00
   4  12  10    4.20    3.90
  -5 -12 -10    9.20    5.90
   5  12  10    9.30    4.50
   5  12  10    9.80    4.60
   6  12  10   67.79    6.90
   7  12  10   63.19    7.00
   8  12  10   24.10    5.80
   9  12  10   54.89    7.10
   6 -13 -10   13.40   14.90
  -6  13  10   23.10    5.60
   5 -13 -10   40.90   15.70
  -5  13  10   19.30    5.40
   4 -13 -10    1.60   11.80
  -4  13  10    2.90    4.80
   3 -13 -10   -3.00   10.60
  -3  13  10    5.40    4.60
   2 -13 -10   12.10   11.20
   1 -13 -10   -1.10    9.50
  -1  13  10  -10.80    4.10
   0 -13 -10   37.80   11.20
   0  13  10   33.40    5.20
  -1 -13 -10   -7.90    7.90
   1  13  10   -3.00    4.10
  -2 -13 -10   56.99   11.50
   2  13  10   69.69    6.60
  -3 -13 -10   -1.70    7.20
   3  13  10   25.30    6.80
   3  13  10   14.00    4.50
  -4 -13 -10   36.90    9.20
   4  13  10   46.70    5.90
  -5 -13 -10   -2.20    6.20
   5  13  10    0.90    4.50
   5  13  10    8.80    4.90
   6  13  10   37.90    5.30
   6  13  10   45.20    6.20
   7  13  10   22.10    5.60
   8  13  10   75.59    7.80
   4 -14 -10    1.10   12.40
  -4  14  10   -2.00    5.10
   3 -14 -10   19.60   13.40
  -3  14  10   30.20    5.80
   2 -14 -10   -0.60   11.10
  -2  14  10   -4.60    4.80
   1 -14 -10   42.90   13.40
  -1  14  10   49.00    6.10
   0 -14 -10   11.90   10.70
   0  14  10   13.40    5.00
  -1 -14 -10   22.10   10.50
   1  14  10   18.20    5.20
  -2 -14 -10    9.10    9.00
   2  14  10   11.30    4.80
  -3 -14 -10   25.90   10.10
   3  14  10   31.80    5.40
  -4 -14 -10   16.00    8.50
   4  14  10   28.60    5.80
   4  14  10   24.20    7.50
  -5 -14 -10    6.50    7.30
   5  14  10   17.00   10.40
   6  14  10   17.70    5.60
   6  14  10   23.50    5.50
   2 -15 -10   13.00   13.20
  -2  15  10   18.60    5.80
   1 -15 -10    8.70   11.50
  -1  15  10    9.10    5.40
   0 -15 -10   24.20   12.30
   0  15  10   25.20    5.70
  -1 -15 -10   -4.40    9.30
   1  15  10   -6.50    4.70
  -2 -15 -10   17.60   11.00
   2  15  10   11.40    5.10
  -3 -15 -10   21.00   10.70
   4  15  10    5.50    5.10
   0  10 -11    2.60    6.00
  -1  10 -11    2.50    5.10
   1 -10  11   11.30   14.90
  -2  10 -11    7.30    4.90
   2 -10  11   11.50   14.90
  -3  10 -11    1.20    5.10
   3 -10  11    2.20   15.40
   3   9 -11   14.90    5.10
   3   9 -11   19.80   11.90
   2   9 -11    3.10    5.00
   2   9 -11   -1.70    4.30
   2   9 -11   -4.70    9.60
   1   9 -11   -3.10    4.60
   1   9 -11    5.30    9.60
   1   9 -11    3.60    4.20
   0   9 -11    6.10    4.60
   0  -9  11   20.00   14.50
  -1   9 -11   24.10    5.20
   1  -9  11   34.10   19.30
  -2   9 -11   11.70    4.90
   2  -9  11  -17.30   22.30
  -3   9 -11   -3.10    4.60
   3  -9  11    4.50   16.90
  -4   9 -11   14.30    8.60
   4  -9  11   18.20   15.10
  -5   9 -11   14.10    5.40
   5  -9  11   33.10   16.50
  -6   9 -11    7.70    5.60
   6  -9  11   12.00   16.40
   4   8 -11   14.20   11.40
   4   8 -11   16.20    4.60
   3   8 -11   12.90    4.50
   2   8 -11   -5.40    8.40
   2   8 -11   14.40    4.90
   2   8 -11    1.70    4.00
   1   8 -11   21.00    5.30
   1   8 -11   23.60   11.10
   1   8 -11   19.60    4.50
   0   8 -11   32.80    5.00
   0  -8  11   22.00   12.00
  -1   8 -11    0.20    3.90
   1  -8  11    7.70   12.00
  -2   8 -11    5.80    4.10
   2  -8  11    6.30   12.20
  -3   8 -11    6.30    4.30
   3  -8  11   -6.10   13.00
  -4   8 -11   17.70    5.10
   4  -8  11   31.60   14.90
  -5   8 -11    9.90    5.00
   5  -8  11   -8.10   12.80
  -6   8 -11    2.30    5.80
   6  -8  11  -13.40   13.10
  -7   8 -11    3.30    5.30
  -8   8 -11   10.40    6.00
   8  -8  11   13.10   16.10
   6   7 -11   17.60   11.20
   5   7 -11   45.20   19.40
   4   7 -11   36.20    4.90
   4   7 -11   29.20   11.10
   3   7 -11    5.40    3.60
   3   7 -11   25.70   10.20
   2   7 -11   22.10    4.30
   2   7 -11   12.00    8.80
   2   7 -11    8.00    4.70
   1   7 -11   46.90   10.70
   1   7 -11   40.00    5.80
   1   7 -11   26.70    4.70
   0   7 -11    7.50    3.80
   0  -7  11    5.80   10.70
  -1   7 -11    9.10    3.80
   1  -7  11    9.00   11.60
  -2   7 -11   19.90    4.30
   2  -7  11   13.80   12.10
  -3   7 -11   20.90    4.70
   3  -7  11   23.60   13.30
  -4   7 -11   10.10    4.50
   4  -7  11    9.10   11.50
  -5   7 -11   -0.50    4.20
   5  -7  11  -14.90   10.90
  -6   7 -11    8.90    4.80
   6  -7  11   14.20   12.70
  -7   7 -11   30.40    6.20
   7  -7  11   65.79   18.20
  -8   7 -11    5.60    5.70
   8  -7  11   -9.60   13.70
  -9   7 -11    8.50    6.10
   9  -7  11   15.50   19.20
   7   6 -11   -2.00   10.20
   7   6 -11    2.10    4.20
   6   6 -11   15.70    4.40
   6   6 -11   19.40   13.30
   5   6 -11   38.40   11.70
   5   6 -11   32.90    4.80
   4   6 -11  -14.10    7.30
   4   6 -11    8.20    3.50
   3   6 -11   15.30    3.70
   3   6 -11   -5.80    7.60
   2   6 -11   37.40    5.40
   2   6 -11   36.10    4.60
   2   6 -11   48.40   10.60
   1   6 -11    8.90    8.00
   1   6 -11    3.10    3.30
   1   6 -11   -1.20    3.60
   0   6 -11   17.60    3.80
   0  -6  11    8.20    9.30
  -1   6 -11   19.10    4.00
   1  -6  11   15.80   11.10
  -2   6 -11   30.10    4.50
   2  -6  11   42.80   13.30
  -3   6 -11   -1.90    3.40
   3  -6  11   -8.40    9.20
  -4   6 -11   27.90    4.80
   4  -6  11   13.40   11.70
  -5   6 -11   18.50    4.60
   5  -6  11   29.90   13.40
  -6   6 -11   22.60    4.90
   6  -6  11   25.40   12.90
  -7   6 -11    1.10    4.90
   7  -6  11    5.80   13.10
  -8   6 -11   17.20    5.50
   8  -6  11   -3.00   13.40
  -9   6 -11    6.80    5.70
   9  -6  11   22.60   16.30
 -10   6 -11   -3.80    5.40
  10  -6  11   14.20   15.90
   7   5 -11   36.90    4.80
   6   5 -11   19.20   10.70
   6   5 -11   24.80    4.20
   5   5 -11   -3.00    8.00
   4   5 -11   -1.20    7.70
   4   5 -11    2.00    3.60
   3   5 -11    4.30    3.20
   3   5 -11   -3.30    7.30
   2   5 -11   -0.70    3.10
   2   5 -11   -8.30    6.20
   1   5 -11   18.00    3.80
   1   5 -11   12.10    7.60
   0   5 -11   61.49   10.90
   0   5 -11   63.89    6.00
   0   5 -11   64.49    5.50
  -1   5 -11  136.89    8.80
   1  -5  11  137.79   18.40
  -2   5 -11    7.00    3.30
   2  -5  11    4.30    9.00
  -3   5 -11   72.49    6.30
   3  -5  11   69.39   13.90
  -4   5 -11   38.50    5.00
   4  -5  11   29.10   11.20
  -5   5 -11   13.60    4.20
   5  -5  11   14.40   10.40
  -6   5 -11   -0.50    3.80
   6  -5  11    8.40   11.00
  -7   5 -11    9.30    4.50
   7  -5  11    4.70   11.30
  -8   5 -11   14.30    4.90
   8  -5  11   16.80   13.80
  -9   5 -11    6.10    5.20
   9  -5  11   13.50   14.60
 -10   5 -11   -0.90    5.40
  10  -5  11   -2.50   14.70
   8   4 -11   26.10    4.10
   8   4 -11   23.60   13.70
   7   4 -11   29.70    4.20
   7   4 -11   40.30   12.20
   6   4 -11    1.90    8.70
   6   4 -11   13.10    3.20
  -6  -4  11   10.10    3.30
   5   4 -11    9.30    8.90
   5   4 -11    5.90    3.00
  -5  -4  11    6.70    2.90
   4   4 -11   -5.70    7.30
   4   4 -11    0.90    2.90
  -4  -4  11    3.50    2.60
   3   4 -11   40.50    4.10
   3   4 -11   43.80    9.90
  -3  -4  11   41.40    4.00
   2   4 -11   35.80    3.70
   2   4 -11   39.10    9.10
  -2  -4  11   26.40    3.50
   1   4 -11   90.29    6.90
   1   4 -11   74.89   11.70
   1   4 -11   85.89    6.10
   1   4 -11   64.79    6.10
   0   4 -11   50.89    9.60
   0   4 -11   49.10    5.20
   0   4 -11   43.20    4.30
  -1   4 -11   18.00    3.30
   1  -4  11   16.30    9.20
   2  -4  11  204.08   19.30
  -3   4 -11   40.60    4.50
   3  -4  11   26.30   10.60
  -4   4 -11   44.60    5.10
   4  -4  11   50.19   12.30
  -5   4 -11   21.20    4.10
   5  -4  11   14.90   10.40
  -6   4 -11   55.09    5.70
   6  -4  11   31.00   11.60
  -7   4 -11    2.90    4.00
   7  -4  11   -0.50    9.60
  -8   4 -11   -1.20    4.50
   8  -4  11   12.60   11.30
  -9   4 -11    0.20    4.80
   9  -4  11    0.40   11.60
 -10   4 -11   18.70    6.10
  10  -4  11   32.00   13.90
 -11   4 -11   -0.90    6.20
  11  -4  11   -0.80   13.90
   9   3 -11   17.00    3.70
   9   3 -11    1.40   11.70
   8   3 -11   28.50   12.00
   8   3 -11   34.00    3.90
  -8  -3  11   23.30    3.90
   7   3 -11   14.00   10.60
   7   3 -11   15.60    3.20
  -7  -3  11   14.30    4.00
   6   3 -11   22.70    3.20
   6   3 -11   21.20   10.30
   5   3 -11   23.20    9.30
   5   3 -11   27.30    3.30
  -5  -3  11   20.80    3.20
   4   3 -11    0.30    6.60
   4   3 -11    0.50    2.50
  -4  -3  11   -3.70    2.30
   3   3 -11   50.69    9.60
   3   3 -11   43.60    3.80
  -3  -3  11   34.00    3.60
   2   3 -11   84.49   11.80
   2   3 -11   79.89    5.70
   1   3 -11   -1.80    5.20
   1   3 -11    1.10    2.30
   1   3 -11    4.60    2.70
   0   3 -11   12.10    3.20
   0   3 -11    6.00    2.80
   0   3 -11   11.00    2.80
   0   3 -11    7.40    6.10
  -1   3 -11   58.59    5.00
  -1   3 -11   50.79    4.90
   1  -3  11   64.19   12.00
  -2   3 -11    2.90    2.70
   2  -3  11   -1.90    7.30
  -3   3 -11   58.09    5.00
   3  -3  11   44.30   12.60
  -4   3 -11   14.30    3.30
   4  -3  11    2.60   14.40
  -5   3 -11  131.99    8.60
   5  -3  11  106.19   17.50
  -6   3 -11    7.10    3.50
   6  -3  11   12.30    9.40
  -7   3 -11   -2.60    3.80
   7  -3  11   -0.10    8.80
   8  -3  11    3.20   10.80
   9  -3  11   12.00    5.60
   9  -3  11   19.40   12.10
  10  -3  11   16.20    6.40
  10  -3  11    5.80   12.20
  11  -3  11   16.80   13.50
  11  -3  11   -4.20    6.40
  12  -3  11    6.60   14.20
  12  -3  11   28.50    8.00
   9   2 -11    3.40    3.00
   9   2 -11   14.20   13.30
  -9  -2  11    3.10    3.20
   8   2 -11   -9.80    9.80
   8   2 -11    5.60    2.80
  -8  -2  11    3.20    2.70
   7   2 -11   12.90    9.80
   7   2 -11    7.30    2.70
  -7  -2  11    4.00    2.50
   6   2 -11  127.09    7.10
   6   2 -11  125.89   15.80
  -6  -2  11  109.09    7.00
   5   2 -11   19.70    2.70
   5   2 -11   30.80    9.50
  -5  -2  11   13.30    2.60
   4   2 -11  127.39   14.70
   4   2 -11  121.59    6.80
  -4  -2  11  107.09    6.60
   3   2 -11   40.60    3.50
   3   2 -11   43.50    9.20
   2   2 -11   22.20    7.40
   2   2 -11   17.00    2.60
   2   2 -11   15.90    2.90
   1   2 -11   73.09    5.10
   1   2 -11   74.49    5.40
   1   2 -11   74.79   10.20
   0   2 -11  139.19    8.60
   0   2 -11  160.58    8.50
  -1   2 -11   87.89    7.10
  -1   2 -11  105.69    6.30
  -1   2 -11  105.79    6.80
  -1   2 -11  102.49   10.60
  -2   2 -11   -1.80    2.10
  -2   2 -11    1.90    2.40
   2  -2  11    7.50    6.30
  -3   2 -11   13.60    3.00
  -3   2 -11   13.30    2.80
   3  -2  11   12.10    7.30
  -4   2 -11  121.79    7.80
   4  -2  11  127.89   15.30
  -5   2 -11   68.09    5.70
   5  -2  11   50.89   11.00
   6  -2  11   33.40    5.20
   6  -2  11   39.60   11.00
   7  -2  11   25.10    9.80
   7  -2  11   16.50    4.90
   8  -2  11  116.49    9.90
   8  -2  11  109.89   17.30
   9  -2  11   -5.70    5.00
   9  -2  11   -6.00   10.00
  10  -2  11   25.30    6.40
  10  -2  11   29.10   12.30
  11  -2  11    5.60   12.10
  11  -2  11    3.80    6.40
  12  -2  11   32.80    7.60
  12  -2  11   25.80   14.40
   9   1 -11   19.40   15.50
   9   1 -11   13.70    3.10
  -9  -1  11    7.90    2.80
   8   1 -11  123.69    7.10
   8   1 -11  118.69   16.60
  -8  -1  11  112.39    6.90
   7   1 -11    3.90    9.20
   7   1 -11   12.60    2.30
  -7  -1  11    8.60    2.20
   6   1 -11    5.60    2.10
   6   1 -11   -0.90    8.10
  -6  -1  11   10.90    2.10
   5   1 -11   20.30    8.70
   5   1 -11    8.50    2.00
   4   1 -11  128.59   14.20
   4   1 -11  128.79    7.00
   3   1 -11   22.40    7.50
   3   1 -11   21.40    2.30
   3   1 -11   18.30    2.60
   2   1 -11  149.69   14.00
   2   1 -11  162.28    9.10
   2   1 -11  181.48    8.90
   1   1 -11  239.88   16.40
   1   1 -11  212.48   11.60
   1   1 -11  224.28   11.40
   0   1 -11   69.49    4.50
   0   1 -11   54.29    4.60
   0   1 -11   68.29    8.90
  -1   1 -11   73.99    5.20
  -1   1 -11   60.19    4.80
  -1   1 -11   87.79    9.60
  -1   1 -11   67.69   10.80
  -1   1 -11   63.79    4.70
  -2   1 -11   51.79    9.60
  -2   1 -11   52.39    8.10
  -2   1 -11   51.99    4.20
  -2   1 -11   50.99    4.50
  -3   1 -11  268.17   15.00
  -3   1 -11  303.57   14.90
  -3   1 -11  281.47   20.00
   3  -1  11  311.37   20.50
  -4   1 -11  143.79   13.40
   4  -1  11  139.09   13.90
   4  -1  11  145.99    9.10
  -5   1 -11   47.30    9.20
   5  -1  11   56.59   10.30
   5  -1  11   47.80    5.30
  -6   1 -11   14.70    7.20
   6  -1  11   24.30    4.50
   6  -1  11   29.80    8.60
  -7   1 -11  125.49   14.60
   7  -1  11  128.29    9.50
   7  -1  11  135.49   15.60
  -8   1 -11    1.00    6.70
   8  -1  11    4.40    4.30
   8  -1  11    1.30    8.70
   9  -1  11   12.40    5.20
   9  -1  11   20.00   10.00
  10  -1  11   15.60    5.60
  10  -1  11   11.70   10.90
  11  -1  11   52.89   14.00
  11  -1  11   36.90    7.10
  12  -1  11    9.10   11.50
  12  -1  11    7.90    6.40
  10   0 -11    3.10   12.00
  10   0 -11    6.40    4.60
   9   0 -11   51.89   13.90
   8   0 -11   -7.40    9.30
   8   0 -11    5.00    3.30
   7   0 -11    1.00    8.60
   6   0 -11    2.40    8.20
   5   0 -11   54.19    3.40
   5   0 -11   58.99   11.00
   4   0 -11   28.00    2.30
   4   0 -11   25.90    2.30
   4   0 -11   20.60    8.00
   3   0 -11   35.50    2.80
   3   0 -11   21.20    7.60
   2   0 -11  246.58   19.20
   2   0 -11  253.27   12.70
   2   0 -11  257.77   12.60
   1   0 -11   58.29    8.50
   1   0 -11   39.10    3.30
   1   0 -11   43.40    3.50
   0   0 -11    8.10    2.00
   0   0 -11    9.50    1.90
   0   0 -11   13.30    5.10
   0   0 -11    6.80    5.40
  -1   0 -11   36.40    6.70
  -1   0 -11   29.20    2.80
  -1   0 -11   17.80    6.80
  -1   0 -11   32.30    3.10
  -2   0 -11  143.79    8.10
  -2   0 -11  146.69    8.00
  -2   0 -11  135.69   12.50
  -2   0 -11  142.29   11.00
  -3   0 -11   14.10    2.50
   3   0  11   17.60    3.20
  -4   0 -11    4.20    5.20
  -4   0 -11    0.70    2.00
   4   0  11    0.30    5.20
   4   0  11   -0.10    2.50
  -5   0 -11   85.89   10.70
   5   0  11   59.99    9.90
   5   0  11   82.39    6.40
  -6   0 -11  116.59   12.10
   6   0  11  124.89   13.50
   6   0  11  134.29    8.80
  -7   0 -11   18.90    7.70
   7   0  11    8.10    7.40
   7   0  11   14.40    4.20
  -8   0 -11   14.40    7.80
   8   0  11    5.30    7.50
   8   0  11   15.30    4.60
  -9   0 -11   -0.30    6.00
   9   0  11    0.20    7.40
   9   0  11   -3.40    4.40
 -10   0 -11   13.60    6.90
  10   0  11    1.20    5.10
  10   0  11   24.30    9.60
  11   0  11   -4.70    9.00
  11   0  11   -2.70    5.30
  12   0  11   10.60   10.60
  12   0  11    6.50    6.30
  10  -1 -11   15.30   13.30
   9  -1 -11    2.80   11.10
   8  -1 -11  -10.60    9.90
   7  -1 -11    7.20    9.90
   6  -1 -11   82.79   13.20
   5  -1 -11    3.40    7.90
   4  -1 -11   46.90    9.70
   3  -1 -11   19.80    7.60
   2  -1 -11    7.70    1.30
   2  -1 -11    2.50    5.80
   2  -1 -11    8.60    1.30
   1  -1 -11   44.80    3.10
   1  -1 -11   49.10    8.70
   1  -1 -11   49.70    7.80
   1  -1 -11   40.70    3.60
   0  -1 -11   98.29    5.60
   0  -1 -11   88.99    9.50
   0  -1 -11  101.19    5.50
   0  -1 -11  104.79   12.20
  -1  -1 -11  198.08   20.10
  -1  -1 -11  171.18   12.40
  -1  -1 -11  174.28    9.20
  -2  -1 -11   76.49    9.90
  -2  -1 -11   57.19    4.20
  -2  -1 -11   59.69    7.60
   2   1  11   64.59    4.70
  -3  -1 -11  127.09    7.00
  -3  -1 -11  132.09    9.90
  -3  -1 -11  122.69   11.20
  -3  -1 -11  107.49    6.90
   3   1  11  122.89    7.50
  -4  -1 -11   83.59    5.50
  -4  -1 -11   87.59    9.50
   4   1  11   78.29    6.10
  -5  -1 -11  104.19   10.70
   5   1  11  120.29    7.90
   5   1  11  136.29   11.40
  -6  -1 -11   94.99   10.70
   6   1  11   81.89   10.40
  -7  -1 -11   64.89    9.10
   7   1  11   78.99   10.70
   7   1  11   77.29    7.00
  -8  -1 -11   18.70    6.30
   8   1  11   19.00    4.50
   8   1  11   25.80    7.40
  -9  -1 -11    4.60    5.70
   9   1  11    3.70    4.60
   9   1  11   25.10    8.10
 -10  -1 -11    9.40    6.10
  10   1  11   -6.80    4.80
  10   1  11   11.40    8.20
 -11  -1 -11   18.60    8.40
  11   1  11    5.70    5.50
  11   1  11   16.10    8.80
 -12  -1 -11   31.30    8.10
  12   1  11    7.80    7.80
  12   1  11    6.60    9.60
  13   1  11   13.30    6.90
  10  -2 -11  -10.90   11.30
   9  -2 -11    8.70   12.10
   8  -2 -11   39.20   12.40
   7  -2 -11  102.69   15.20
   6  -2 -11   -1.30    7.50
   5  -2 -11   25.10    9.00
   4  -2 -11    0.00    7.10
   2  -2 -11  209.38   15.60
   1  -2 -11  398.36   19.30
   1  -2 -11  384.46   23.50
   1  -2 -11  405.86   19.40
  -1   2  11  390.86   20.10
  -1   2  11  420.46   23.30
   0  -2 -11  115.19   11.00
   0  -2 -11  125.69    6.50
   0  -2 -11  117.89   10.50
  -1  -2 -11   13.20    4.90
  -1  -2 -11   16.60    5.50
  -1  -2 -11   11.20    1.90
   1   2  11   10.10    2.10
  -2  -2 -11   50.99    6.80
  -2  -2 -11   35.00    3.20
  -2  -2 -11   30.50    6.90
   2   2  11   39.60    3.60
  -3  -2 -11  349.07   18.10
  -3  -2 -11  369.06   20.30
  -3  -2 -11  361.16   21.60
   3   2  11  368.06   18.30
  -4  -2 -11  291.97   17.90
  -4  -2 -11  282.57   16.40
  -4  -2 -11  275.87   14.60
   4   2  11  288.77   14.90
  -5  -2 -11   62.89    4.40
  -5  -2 -11   65.39    5.10
  -5  -2 -11   88.79    9.20
  -5  -2 -11   69.89    6.90
   5   2  11   62.29    5.60
  -6  -2 -11   66.49    8.10
   6   2  11   67.69    6.50
  -7  -2 -11    4.00    4.60
   7   2  11   -2.50    3.40
   7   2  11    0.70    4.70
  -8  -2 -11   27.70    6.10
   8   2  11   23.40    6.80
   8   2  11   21.90    4.70
  -9  -2 -11   23.70    5.60
   9   2  11   19.00    6.70
   9   2  11   18.30    4.90
 -10  -2 -11   61.99    8.00
  10   2  11   67.59    9.60
  10   2  11   68.69    7.10
 -11  -2 -11   12.20    5.80
  11   2  11   10.90    7.10
  11   2  11    9.90    5.40
 -12  -2 -11    4.10    6.10
  12   2  11   10.50    8.20
  13   2  11    0.50    6.30
  13   2  11    7.40    8.30
  10  -3 -11    6.10   13.20
   9  -3 -11   29.00   12.50
   8  -3 -11   56.99   13.70
   7  -3 -11    1.30    9.20
   6  -3 -11  108.19   14.80
   5  -3 -11   -1.20    6.90
   4  -3 -11   48.70    9.70
   3  -3 -11  140.69   13.40
   2  -3 -11  295.57   19.90
  -2   3  11  315.07   21.80
   1  -3 -11   89.59    4.70
   1  -3 -11  102.19   10.10
  -1   3  11   82.69    8.70
   0  -3 -11    4.70    1.40
   0  -3 -11   13.60    5.10
   0   3  11    9.60    5.00
   0   3  11    8.90    1.80
   0   3  11    9.70    2.40
  -1  -3 -11   79.49    8.00
  -1  -3 -11   68.49    4.20
   1   3  11   67.39    4.50
  -2  -3 -11  122.59    9.50
  -2  -3 -11  110.29    9.90
  -2  -3 -11  109.19    6.40
   2   3  11  118.19    6.70
  -3  -3 -11   99.59    6.20
  -3  -3 -11  111.09    8.80
  -3  -3 -11  110.39    9.40
   3   3  11  111.59    6.60
  -4  -3 -11   81.19    5.40
  -4  -3 -11   80.29    8.20
  -4  -3 -11   84.59    7.70
   4   3  11   92.09    6.00
  -5  -3 -11  122.49    7.90
  -5  -3 -11  152.08    9.40
  -5  -3 -11  148.79   10.40
   5   3  11  131.59    8.40
  -6  -3 -11   28.90    4.70
  -6  -3 -11   27.60    5.10
   6   3  11   27.90    4.40
  -7  -3 -11   -0.40    3.30
   7   3  11   -0.20    3.50
  -8  -3 -11    0.00    3.80
   8   3  11    0.30    3.70
  -9  -3 -11  112.49    8.90
   9   3  11  106.19    8.90
 -10  -3 -11   10.40    4.30
  10   3  11    6.50    4.90
 -11  -3 -11   -5.40    4.20
  11   3  11   -7.40    4.60
 -12  -3 -11   -0.30    4.70
  12   3  11    8.20    9.90
  13   3  11   21.20    6.60
  13   3  11   15.50   10.80
  10  -4 -11   11.00   12.90
   9  -4 -11    4.20   11.40
   8  -4 -11   -9.20    9.30
   7  -4 -11   54.39   12.70
   6  -4 -11    0.40    8.70
   5  -4 -11   29.20    9.50
   4  -4 -11    5.80    7.30
   3  -4 -11  191.58   15.70
   2  -4 -11   -1.20    5.30
  -2   4  11   -2.80    4.40
   1  -4 -11   11.90    1.40
   1  -4 -11    8.10    5.60
  -1   4  11   11.90    1.50
  -1   4  11   16.30    5.00
   0  -4 -11  147.99    7.80
   0  -4 -11  155.98   12.00
   0   4  11  152.98    8.00
   0   4  11  159.08   11.10
  -1  -4 -11  101.39    9.20
  -1  -4 -11   90.69    5.50
   1   4  11  107.19    5.80
   1   4  11  100.39    5.80
   1   4  11   93.99    8.10
  -2  -4 -11   24.60    2.50
  -2  -4 -11   28.70    5.40
   2   4  11   22.70    2.70
  -3  -4 -11   -0.40    3.50
  -3  -4 -11   -2.00    3.40
  -3  -4 -11   -1.10    1.70
   3   4  11    1.20    2.10
  -4  -4 -11  196.48   11.70
  -4  -4 -11  182.78   12.20
  -4  -4 -11  190.98   10.30
   4   4  11  197.18   10.60
  -5  -4 -11  307.47   16.10
  -5  -4 -11  286.57   17.10
   5   4  11  303.57   15.80
  -6  -4 -11    3.10    2.40
  -6  -4 -11    1.20    2.50
   7   4  11   -2.70    3.20
   8   4  11   83.99    7.50
   9   4  11    1.60    4.20
  10   4  11    1.60    4.40
  11   4  11   49.40    6.70
  12   4  11   30.80    6.90
  10  -5 -11   13.20   12.90
   9  -5 -11    3.30   12.30
   8  -5 -11   15.30   12.10
   7  -5 -11   12.20    9.90
   6  -5 -11   53.19   11.70
   5  -5 -11   -8.70    7.80
   4  -5 -11  117.79   14.00
   3  -5 -11   21.30    8.80
   2  -5 -11   20.10    6.80
  -2   5  11   16.10    7.10
   1  -5 -11  180.88   10.20
   1  -5 -11  227.98   15.30
  -1   5  11  207.68   10.00
  -1   5  11  200.58   13.80
   0  -5 -11  244.88   12.50
   0  -5 -11  258.67   16.50
   0   5  11  263.67   12.60
   0   5  11  235.78   15.50
  -1  -5 -11   62.89    7.60
  -1  -5 -11   45.10    3.50
   1   5  11   47.80    3.90
   1   5  11   55.59    6.40
  -2  -5 -11  106.19    6.20
  -2  -5 -11  112.59    8.90
   2   5  11   98.19    8.00
   2   5  11  106.99    6.40
   2   5  11  108.19    6.00
  -3  -5 -11  244.08   13.00
  -3  -5 -11  245.58   14.40
  -3  -5 -11  236.68   14.70
   3   5  11  252.67   12.80
  -4  -5 -11  304.97   16.40
  -4  -5 -11  287.07   15.20
  -4  -5 -11  282.07   19.10
   4   5  11  302.97   15.40
   5   5  11   12.60    3.10
   6   5  11    1.50    3.50
   7   5  11  148.89    9.60
   8   5  11   -4.50    3.70
   9   5  11   44.20    5.80
  10   5  11   -1.30    4.40
  11   5  11   54.89    7.10
  12   5  11   12.10    5.70
  10  -6 -11    5.80   13.30
   9  -6 -11   61.19   26.90
   8  -6 -11   37.10   12.90
   7  -6 -11   -7.20    8.70
   6  -6 -11   11.10   10.10
   5  -6 -11  119.99   15.50
   4  -6 -11    9.40    8.30
   2  -6 -11  175.28   15.20
  -2   6  11  193.48    9.60
   1  -6 -11  176.78    9.10
   1  -6 -11  170.48   14.10
  -1   6  11  164.98   12.90
  -1   6  11  183.28    9.10
   0  -6 -11   89.79    9.70
   0  -6 -11   76.39    4.90
   0   6  11   72.59    8.20
   0   6  11   83.49    5.00
  -1  -6 -11   -0.80    1.70
  -1  -6 -11    1.30    4.40
   1   6  11   -2.60    3.40
   1   6  11    0.30    2.10
  -2  -6 -11   28.20    5.50
  -2  -6 -11   27.40    2.90
   2   6  11   25.60    4.70
   2   6  11   34.80    3.50
  -3  -6 -11  495.35   25.30
  -3  -6 -11  537.45   27.00
   3   6  11  499.95   24.80
   3   6  11  492.95   26.20
   3   6  11  539.85   25.50
  -4  -6 -11   61.79    5.50
  -4  -6 -11   52.59    5.50
  -4  -6 -11   52.99    4.50
   4   6  11   63.69    5.10
   5   6  11   33.30    4.10
   6   6  11  145.69    9.30
   7   6  11   23.30    4.60
   8   6  11  137.39    9.60
   9   6  11   -2.20    4.10
  10   6  11   56.39    6.80
  11   6  11   -6.10    4.80
  12   6  11   13.40    5.80
   9  -7 -11    9.10   12.80
   8  -7 -11  -13.40   10.30
   7  -7 -11   -7.10   10.10
   6  -7 -11   84.89   14.50
   5  -7 -11   -5.70    8.60
   4  -7 -11   -7.50    8.20
  -4   7  11   -1.00    1.70
  -4   7  11    0.10    1.70
   3  -7 -11  137.29   15.10
   2  -7 -11  177.48    9.30
   2  -7 -11  181.18   16.00
  -2   7  11  182.58    9.40
   1  -7 -11   77.09    4.90
   1  -7 -11   90.29   11.30
  -1   7  11   71.69    9.20
  -1   7  11   75.69    5.00
   0  -7 -11   13.10    2.30
   0  -7 -11   20.60    6.40
   0   7  11   17.50    2.50
  -1  -7 -11   25.50    6.10
  -1  -7 -11   13.60    2.40
   1   7  11   22.50    2.80
   1   7  11   11.30    4.60
  -2  -7 -11   75.59    8.50
   2   7  11   78.09    7.40
   2   7  11   80.69    5.60
  -3  -7 -11    2.20    3.80
  -3  -7 -11   -3.70    2.20
   3   7  11   -1.30    2.80
   3   7  11    1.30    2.40
  -4  -7 -11   29.40    4.20
   4   7  11   27.80    3.90
   5   7  11  328.47   18.00
   6   7  11   22.50    4.10
   7   7  11   68.39    6.30
   9   7  11   27.00    5.10
  10   7  11    3.80    4.70
  12   7  11    3.20    5.20
   9  -8 -11   24.50   13.50
   8  -8 -11   -0.70   10.80
   7  -8 -11   59.39   14.70
  -7   8  11   89.49    6.70
  -7   8  11   99.29    7.00
   6  -8 -11    0.40    9.90
  -6   8  11   10.90    2.30
   5  -8 -11   37.10   11.40
  -5   8  11   30.10    3.00
  -5   8  11   27.90    3.10
   4  -8 -11   34.80   10.20
  -4   8  11   48.10    4.20
  -4   8  11   54.09    4.50
   3  -8 -11   -8.80    7.50
   3  -8 -11    3.30    1.90
  -3   8  11    2.00    2.30
   2  -8 -11    3.20    2.10
   2  -8 -11   -2.50    6.30
  -2   8  11    0.10    2.20
   1  -8 -11   85.19   11.50
   1  -8 -11   86.69    5.80
  -1   8  11   82.49   10.50
  -1   8  11  100.69    6.10
   0  -8 -11   32.90    3.50
   0  -8 -11   39.20    8.40
   0   8  11   38.90    3.60
   0   8  11   34.40    6.80
  -1  -8 -11  112.19    7.40
  -1  -8 -11  134.69   11.60
   1   8  11  107.19    9.70
   1   8  11  123.99    7.40
  -2  -8 -11   54.69    4.70
  -2  -8 -11   63.49    8.30
   2   8  11   63.09    7.10
   2   8  11   58.79    5.00
  -3  -8 -11   86.99    8.50
   3   8  11   76.59    7.30
   3   8  11   91.19    6.50
  -4  -8 -11   66.39    6.50
   4   8  11   58.59    6.30
   4   8  11   79.59    6.80
   5   8  11  157.58    9.80
   6   8  11   -2.90    3.40
   7   8  11  167.58   10.80
   8   8  11   18.60    4.80
   9   8  11    3.10    4.70
  10   8  11  138.39   10.80
  11   8  11    8.40    5.50
   9  -9 -11    7.90   15.20
  -9   9  11   31.50    4.40
  -9   9  11   13.70    3.40
   8  -9 -11   -5.80   14.90
  -8   9  11   28.80    3.50
  -8   9  11   15.30    3.40
   7  -9 -11   -6.60   10.40
  -7   9  11   -1.10    2.80
  -7   9  11   13.30    2.90
   6  -9 -11    7.00   10.30
  -6   9  11   12.60    3.10
  -6   9  11   11.10    3.00
   5  -9 -11   13.10   10.70
  -5   9  11    2.80    2.90
  -5   9  11    6.60    2.80
   4  -9 -11   -2.80    8.30
  -4   9  11    3.90    2.70
   3  -9 -11   14.40    9.90
   3  -9 -11   17.10    2.70
  -3   9  11   21.50    3.10
   2  -9 -11  170.18   10.10
   2  -9 -11  179.08   17.40
  -2   9  11  201.18   10.30
   1  -9 -11  101.59    7.20
   1  -9 -11  126.79   14.20
  -1   9  11  131.09    7.40
   0  -9 -11   35.20    3.80
   0  -9 -11   45.80    8.90
   0   9  11   43.70    4.20
   0   9  11   35.80    7.20
  -1  -9 -11   30.30    3.60
  -1  -9 -11   31.40    7.60
   1   9  11   25.40    7.70
   1   9  11   36.70    4.00
  -2  -9 -11  233.58   15.90
   2   9  11  232.98   12.30
   2   9  11  207.18   14.20
  -3  -9 -11  158.78   12.20
   3   9  11  167.28   10.40
   3   9  11  169.08   11.00
   4   9  11   68.19    6.40
   4   9  11   85.79    6.70
   5   9  11   90.79    7.30
   6   9  11    8.20    3.90
   7   9  11   -3.80    3.90
   8   9  11    6.80    4.50
   9   9  11   58.39    6.70
  11   9  11   14.50    5.80
   8 -10 -11   -6.80   13.10
  -8  10  11   -2.40    3.70
  -8  10  11   14.60    3.90
   7 -10 -11   21.90   13.80
  -7  10  11   49.10    4.70
  -7  10  11   44.40    4.70
   6 -10 -11    6.70   11.70
  -6  10  11    0.60    3.30
  -6  10  11    5.30    3.70
   5 -10 -11   -9.30   10.10
  -5  10  11    7.90    3.40
  -5  10  11    9.00    3.80
   4 -10 -11    1.70    9.40
  -4  10  11    4.80    3.10
   3 -10 -11   30.20   11.30
   3 -10 -11   36.90    4.90
  -3  10  11   58.29    4.60
   2 -10 -11   16.60    9.70
   2 -10 -11   19.90    3.30
  -2  10  11   20.30    3.50
   1 -10 -11   42.30   18.40
   1 -10 -11   33.60    4.10
  -1  10  11   45.70    4.30
   0 -10 -11    3.30    7.70
   0 -10 -11   11.40    3.40
   0  10  11    9.00    7.10
   0  10  11   15.90    3.30
  -1 -10 -11  143.39   14.30
   1  10  11  126.59   12.20
   1  10  11  169.18    9.40
  -2 -10 -11   14.70    7.00
   2  10  11   15.20    5.50
   2  10  11   18.50    6.00
  -3 -10 -11   30.30    7.00
   3  10  11   28.70    5.60
   3  10  11   40.20    4.70
  -4 -10 -11   93.19    9.10
   4  10  11   95.19    7.10
   4  10  11   65.89    7.10
   5  10  11   27.00    4.70
   6  10  11    4.00    3.90
   7  10  11   -2.70    3.90
   8  10  11   20.30    5.10
   9  10  11   76.79    7.90
  10  10  11    8.60    5.30
   7 -11 -11    0.80   13.40
  -7  11  11   27.40    5.00
  -7  11  11   10.40    4.30
   6 -11 -11   12.40   12.10
  -6  11  11   11.90    4.50
  -6  11  11    9.30    4.20
   5 -11 -11    0.90   10.80
  -5  11  11    2.10    3.60
  -5  11  11    2.20    4.30
   4 -11 -11   50.59   13.30
   4 -11 -11   33.30    4.10
   3 -11 -11   10.20    3.70
   3 -11 -11   -4.40    9.10
  -3  11  11   11.90    3.80
   2 -11 -11   14.80   10.00
  -2  11  11    9.50    3.50
   1 -11 -11   15.10    9.60
  -1  11  11   11.20    3.70
   0 -11 -11  174.78   16.90
  -1 -11 -11   24.60    8.30
   1  11  11   18.40    6.40
   1  11  11   27.60    4.20
  -2 -11 -11   17.70    7.80
   2  11  11   19.50    6.30
   2  11  11   24.00    4.40
  -3 -11 -11   17.60    7.20
   3  11  11   15.80    5.40
   3  11  11   26.10    4.50
  -4 -11 -11   53.79    8.10
   4  11  11   55.29    5.70
   4  11  11   51.29    6.40
  -5 -11 -11   20.70    8.00
   5  11  11   27.80    4.90
   6  11  11   -1.40    4.10
   7  11  11   64.19    6.80
   8  11  11   45.80    6.40
   9  11  11   15.20    5.40
   7 -12 -11    1.90   14.20
  -7  12  11   -5.50    5.10
  -6  12  11    1.80    4.80
   5 -12 -11   40.20   15.10
  -5  12  11   59.09    6.70
   4 -12 -11   -1.20   10.80
   3 -12 -11    9.20   11.20
  -3  12  11    7.70    5.20
   2 -12 -11   19.30   11.10
  -2  12  11   17.10    4.40
   1 -12 -11   49.70   12.40
  -1  12  11   70.59    6.20
   0 -12 -11    4.70    8.40
   0  12  11   -2.10    3.70
  -1 -12 -11    1.10    7.50
   1  12  11   -5.00    3.70
  -2 -12 -11    5.10    7.30
   2  12  11   11.40    4.40
   2  12  11   26.00    7.00
  -3 -12 -11  119.79   13.70
   3  12  11  131.89   17.80
   3  12  11  159.58    9.80
  -4 -12 -11   20.40    7.20
   4  12  11   15.20    4.50
   4  12  11   22.10    5.50
  -5 -12 -11    3.60    4.90
   5  12  11    0.00    3.70
   5  12  11   13.10    4.90
   6  12  11   67.19    6.80
   7  12  11   45.80    6.30
   8  12  11   17.20    5.50
   9  12  11   21.70    5.90
   5 -13 -11   25.10   16.40
  -5  13  11   15.60    5.10
   4 -13 -11    6.00   11.70
  -4  13  11   -1.60    4.50
   3 -13 -11    1.00   11.20
  -3  13  11    1.80    4.40
   2 -13 -11   60.59   14.10
  -2  13  11   73.59    6.70
   1 -13 -11    0.20    9.00
  -1  13  11   -9.60    3.80
   0 -13 -11    9.10    9.50
   0  13  11   16.60    4.60
  -1 -13 -11   -0.60    8.20
   1  13  11    5.30    4.30
  -2 -13 -11   83.79   13.50
   2  13  11   97.79    8.10
  -3 -13 -11   21.80    8.30
   3  13  11   29.50    7.10
   3  13  11   21.30    4.90
  -4 -13 -11    9.40    7.10
   4  13  11   14.80    5.60
   4  13  11   14.70    4.70
  -5 -13 -11    5.30    6.00
   5  13  11    5.10    4.80
   5  13  11    6.40    4.50
   6  13  11   61.89    7.20
   7  13  11   29.40    5.70
   4 -14 -11   -3.60   13.50
  -4  14  11  -11.40    5.00
   3 -14 -11   44.30   15.60
  -3  14  11   55.79    6.70
   2 -14 -11   11.70   11.50
  -2  14  11    0.70    5.00
   1 -14 -11   10.90   11.00
  -1  14  11   23.10    5.40
   0 -14 -11   -2.50    9.20
   0  14  11   14.00    5.10
  -1 -14 -11   17.50    9.90
   1  14  11   30.70    5.50
  -2 -14 -11   -0.30    8.00
   2  14  11    0.90    4.50
  -3 -14 -11   23.80    9.00
   3  14  11   36.10    5.80
  -4 -14 -11   15.00    8.50
   4  14  11   24.40    5.50
   4  14  11   31.70    7.20
  -5 -14 -11   10.20    7.10
   5  14  11   19.20    6.00
   6  14  11   14.20    4.90
   6  14  11   23.60    5.80
   2 -15 -11   -3.90   11.60
  -2  15  11   15.50    5.80
   1 -15 -11    4.30   11.40
  -1  15  11   -2.00    5.10
   0 -15 -11    2.20   10.60
   0  15  11   11.30    5.40
  -1 -15 -11    6.30    9.80
   1  15  11   -8.40    4.80
  -2 -15 -11   20.20   10.90
   2  15  11   26.90    5.80
  -3 -15 -11   -2.70    8.20
   1   9 -12    1.90    5.20
   1   9 -12   19.40    5.00
   1   9 -12   13.50   11.00
   0   9 -12    9.50    4.70
   0  -9  12   -6.50   13.70
  -1   9 -12   19.60    5.10
   1  -9  12   19.00   15.30
  -2   9 -12   18.00    5.70
   2  -9  12   22.50   16.10
  -3   9 -12   -7.00    5.40
   3  -9  12   -0.70   14.40
  -4   9 -12    1.70    5.00
   4  -9  12    2.30   14.40
   3   8 -12   18.30    4.80
   3   8 -12   25.00   11.60
   2   8 -12   17.30    4.70
   2   8 -12   14.10    5.20
   2   8 -12    9.60   10.30
   1   8 -12   10.40    4.30
   1   8 -12    5.80    5.90
   1   8 -12    1.40   12.80
   0   8 -12   33.00    5.20
  -1   8 -12    2.40    4.10
   1  -8  12    9.20   14.20
  -2   8 -12    3.60    4.20
   2  -8  12   10.90   14.00
  -3   8 -12    3.90    4.50
   3  -8  12    8.50   13.80
  -4   8 -12   31.60    5.70
   4  -8  12   17.30   17.30
  -5   8 -12    4.70    8.10
  -6   8 -12    1.70    5.20
   6  -8  12    3.90   15.50
  -7   8 -12   18.10    5.90
   7  -8  12    9.30   16.40
   5   7 -12   13.70    4.60
   5   7 -12   21.70   11.00
   4   7 -12   21.90    4.70
   4   7 -12   40.90   11.40
   3   7 -12    9.10   12.20
   3   7 -12    4.10    3.80
   2   7 -12    6.10    4.60
   2   7 -12   10.50    9.10
   2   7 -12    7.90    4.00
   1   7 -12   29.10    5.50
   1   7 -12   36.00   10.40
   1   7 -12   35.20    4.80
   0   7 -12    2.80    3.70
   0   7 -12   10.70    4.50
   0   7 -12   -1.00    7.80
  -1   7 -12   -2.70    3.60
   1  -7  12    7.30   11.40
  -2   7 -12   23.00    4.60
   2  -7  12   -6.70   11.10
  -3   7 -12   32.20    5.10
   3  -7  12   31.30   15.00
  -4   7 -12    2.20    4.40
   4  -7  12   11.60   14.30
  -5   7 -12    0.50    4.50
   5  -7  12   -1.70   13.60
  -6   7 -12    8.80    5.10
   6  -7  12    1.40   13.20
  -7   7 -12   33.20    7.70
   7  -7  12   32.50   16.10
  -8   7 -12    1.10    5.60
   8  -7  12   15.20   24.50
   6   6 -12    3.80    4.20
   6   6 -12    2.90   11.70
   5   6 -12   18.80   12.80
   5   6 -12   16.50    4.20
   4   6 -12    0.10    3.60
   4   6 -12    2.50    9.90
   3   6 -12   12.30    3.80
   3   6 -12    2.80    8.70
   2   6 -12   63.99   13.10
   2   6 -12   58.49    5.60
   1   6 -12    8.30    8.40
   1   6 -12    6.80    3.50
   1   6 -12    6.60    4.10
   0   6 -12    7.10    3.90
   0   6 -12    6.30    8.10
   0   6 -12    3.40    3.60
  -1   6 -12   26.80    4.40
   1  -6  12   31.20   12.60
  -2   6 -12   53.89    5.60
   2  -6  12   66.49   15.50
  -3   6 -12    3.90    3.70
   3  -6  12   14.60   11.40
  -4   6 -12    1.50    4.00
   4  -6  12   -5.70   11.40
  -5   6 -12    1.40    4.20
   5  -6  12    5.80   11.60
  -6   6 -12   16.50    4.90
   6  -6  12   10.10   13.10
  -7   6 -12   13.70    5.40
   7  -6  12    8.00   13.40
   8  -6  12   20.80   15.70
  -9   6 -12   11.40    6.90
   9  -6  12   11.40   14.80
   7   5 -12   31.60   13.30
   7   5 -12   16.90    4.10
   6   5 -12   -2.50   16.90
   6   5 -12    5.60    3.80
   5   5 -12    1.50    3.50
   5   5 -12   12.30   10.10
   4   5 -12   31.00   10.30
   4   5 -12   34.40    4.90
   3   5 -12   45.80    4.90
   3   5 -12   58.49   12.00
   2   5 -12   21.70    3.70
   2   5 -12   17.80    9.30
   1   5 -12   19.20    8.30
   1   5 -12    7.60    3.20
   1   5 -12    7.90    3.90
   0   5 -12   26.30    4.90
   0   5 -12   30.20    4.10
   0   5 -12   40.80   10.40
  -1   5 -12  120.99    8.40
   1  -5  12  126.89   17.40
  -2   5 -12    4.30    3.40
   2  -5  12   16.00   10.40
  -3   5 -12   37.20    4.70
   3  -5  12   46.10   13.00
  -4   5 -12   27.80    4.60
   4  -5  12   32.00   12.50
  -5   5 -12   -3.50    3.70
   5  -5  12   -4.00   10.50
  -6   5 -12   13.90    4.60
   6  -5  12    9.90   11.90
  -7   5 -12   19.30    4.90
   7  -5  12    3.30   12.10
  -8   5 -12   31.10    5.90
   8  -5  12   22.60   13.30
  -9   5 -12   -4.60   10.20
   9  -5  12   -1.60   13.20
 -10   5 -12    2.60    5.70
  10  -5  12  -13.40   14.80
   7   4 -12    9.10    3.50
   7   4 -12   20.50   11.80
   6   4 -12   14.50    3.40
   6   4 -12   14.80   10.00
  -6  -4  12   10.40    4.00
   5   4 -12   21.60    3.50
   5   4 -12    2.50    8.60
  -5  -4  12   15.00    3.40
   4   4 -12   39.50    4.10
   4   4 -12   31.60    9.70
  -4  -4  12   24.50    3.80
   3   4 -12  108.79   14.80
   3   4 -12  125.49    7.80
   2   4 -12   12.90    3.20
   2   4 -12    8.20    7.70
   1   4 -12   16.40    7.90
   1   4 -12    8.30    3.00
   1   4 -12    8.80    3.70
   0   4 -12   80.09    6.80
   0   4 -12   77.99   11.60
   0   4 -12   72.39    6.10
  -1   4 -12   16.60    6.80
  -2   4 -12  206.68   11.60
   2  -4  12  187.98   19.90
  -3   4 -12   75.59    6.50
   3  -4  12   70.59   13.70
  -4   4 -12   61.99    6.00
   4  -4  12   72.09   14.50
  -5   4 -12   20.20    4.30
   5  -4  12   10.00   10.60
  -6   4 -12   23.50    4.60
   6  -4  12   35.10   12.90
  -7   4 -12    1.90    4.20
   7  -4  12    1.20   10.90
  -8   4 -12    2.00    4.80
   8  -4  12    8.60   12.20
  -9   4 -12    5.50    5.40
   9  -4  12  -12.00   11.50
 -10   4 -12   20.70    6.50
  10  -4  12   -1.40   14.30
 -11   4 -12   -7.30    6.20
  11  -4  12   25.30   15.60
   8   3 -12   12.10   11.80
   8   3 -12   27.70    3.60
   7   3 -12   32.20   11.90
   7   3 -12   29.00    3.70
   6   3 -12   29.00    3.50
   6   3 -12   30.70   11.30
   5   3 -12   27.40   10.60
   5   3 -12   12.10    3.00
  -5  -3  12   12.00    4.90
   4   3 -12    9.90    8.20
   4   3 -12    7.80    2.70
   3   3 -12    1.30    7.40
   3   3 -12    5.60    2.50
   2   3 -12   27.30    8.80
   2   3 -12   24.90    3.20
   2   3 -12   17.50    3.50
   1   3 -12   25.40    3.40
   1   3 -12   23.10    3.70
   1   3 -12   27.70    8.80
   0   3 -12    4.80    3.00
   0   3 -12    9.70    3.00
   0   3 -12   20.80    4.00
   0   3 -12   11.50    7.40
  -1   3 -12  113.29   12.80
  -1   3 -12  122.79    7.80
  -1   3 -12  133.09    8.50
  -2   3 -12    9.80    2.90
   2  -3  12   12.30    8.50
  -3   3 -12  154.68    9.50
   3  -3  12  160.88   17.50
  -4   3 -12    4.10    3.10
   4  -3  12    0.10    8.80
  -5   3 -12   24.70    4.10
   5  -3  12   29.50   10.80
  -6   3 -12    4.50    3.70
   6  -3  12    4.30    9.60
  -7   3 -12    9.70    4.00
   7  -3  12    6.50    9.80
  -8   3 -12   21.80    5.00
   8  -3  12   31.70   12.60
   9  -3  12   18.00   12.90
  10  -3  12   19.90   13.40
  10  -3  12    6.10    6.20
  11  -3  12   11.70    6.80
  11  -3  12   -1.60   13.30
   8   2 -12   36.80   25.70
   8   2 -12   10.70    2.80
  -8  -2  12    9.40    2.80
   7   2 -12   10.90   10.70
   7   2 -12    9.50    2.70
  -7  -2  12    3.40    2.60
   6   2 -12   78.99   14.30
   6   2 -12   82.29    5.40
  -6  -2  12   70.49    5.30
   5   2 -12    0.90    8.60
   5   2 -12    1.30    2.20
   4   2 -12  163.48    8.80
   4   2 -12  144.79   15.80
   3   2 -12  102.39    7.00
   3   2 -12  117.79    6.70
   3   2 -12  116.69   13.90
   2   2 -12   33.90    9.20
   2   2 -12   28.10    3.60
   2   2 -12   26.80    3.20
   1   2 -12   -7.30    2.00
   1   2 -12   -7.30    5.50
   1   2 -12   -1.10    2.30
   0   2 -12  126.39   11.20
   0   2 -12  155.98   13.40
   0   2 -12  145.49    8.30
  -1   2 -12   97.49    7.30
  -1   2 -12  121.49    7.60
  -1   2 -12  120.89   11.80
  -1   2 -12  121.69    7.20
  -2   2 -12   27.90    4.20
  -2   2 -12   19.20    3.30
  -2   2 -12   24.70    3.40
  -2   2 -12   22.90    7.10
  -3   2 -12   12.80    2.90
   3  -2  12   11.80   13.10
  -4   2 -12   39.70    4.80
   4  -2  12   37.40   10.10
  -5   2 -12    6.70    3.30
   5  -2  12    4.60    8.60
   6  -2  12    9.10   10.90
   7  -2  12   68.89   16.70
   7  -2  12   64.09    7.10
   8  -2  12  177.78   19.20
   8  -2  12  162.08   12.10
   9  -2  12    2.70    5.30
   9  -2  12   -2.40   10.20
  10  -2  12    6.10    5.90
  10  -2  12   30.50   13.30
  11  -2  12    3.60   12.50
  11  -2  12   -4.90    6.20
   9   1 -12    9.40    3.40
   9   1 -12   -4.10   12.00
   8   1 -12   42.20   13.30
   8   1 -12   44.90    4.00
   7   1 -12   23.20   11.20
   7   1 -12   15.00    2.50
   6   1 -12   24.80   10.10
   5   1 -12   91.59   13.40
   5   1 -12   86.39    5.20
   4   1 -12  274.77   15.30
   4   1 -12  311.77   22.20
   4   1 -12  327.57   15.10
   3   1 -12  167.08    9.80
   3   1 -12  190.88    9.60
   3   1 -12  195.58   16.60
   2   1 -12   31.70    8.20
   2   1 -12   29.60    3.00
   2   1 -12   30.30    3.20
   1   1 -12   47.60    4.40
   1   1 -12   56.39    9.40
   1   1 -12   52.99    4.30
   0   1 -12   81.39   12.30
   0   1 -12   58.69    4.80
   0   1 -12   57.99    4.70
  -1   1 -12   11.50    2.90
  -1   1 -12    5.90    2.40
  -1   1 -12   15.10    2.70
  -1   1 -12   16.90    6.20
  -2   1 -12   -4.00    2.00
  -2   1 -12    5.00    5.40
  -2   1 -12   -1.70    2.30
  -2   1 -12    1.50    2.30
  -3   1 -12  244.98   12.90
  -3   1 -12  235.08   13.00
   3  -1  12  266.57   19.50
  -4   1 -12   40.90   10.20
   4  -1  12   51.29   10.50
  -5   1 -12   13.40    7.50
   5  -1  12    6.80    3.90
   5  -1  12   -2.00    7.40
  -6   1 -12   37.20   10.30
   6  -1  12   44.90    5.70
   6  -1  12   35.50   10.50
   7  -1  12  175.98   17.70
   7  -1  12  171.88   11.60
   8  -1  12    8.30    4.60
   8  -1  12    4.10    8.60
   9  -1  12    1.30    9.70
   9  -1  12    4.80    4.70
  10  -1  12   18.70    5.80
  11  -1  12   30.40    8.40
  11  -1  12   33.00   13.00
  12  -1  12    5.70   11.50
  12  -1  12    6.80    6.20
   9   0 -12    8.90   11.80
   8   0 -12    8.50   11.10
   7   0 -12   11.80   10.30
   6   0 -12   46.00   11.50
   5   0 -12   27.00    9.90
   4   0 -12  124.39    6.20
   4   0 -12  107.19   14.40
   4   0 -12  115.09    6.40
   3   0 -12   84.99    5.20
   3   0 -12   97.69   12.30
   2   0 -12   21.40    2.40
   2   0 -12   23.40    2.50
   2   0 -12   19.70    7.80
   1   0 -12    8.30    2.00
   1   0 -12    7.80    2.00
   0   0 -12    0.40    1.90
   0   0 -12    3.60    1.90
   0   0 -12    1.60    5.20
  -1   0 -12   11.40    6.90
  -1   0 -12   12.80    2.30
  -1   0 -12   13.50    2.30
  -1   0 -12    9.70    5.20
  -2   0 -12  386.56   18.90
  -2   0 -12  384.16   22.30
  -2   0 -12  323.67   23.60
  -2   0 -12  370.46   19.00
  -2   0 -12  384.56   18.80
  -3   0 -12    6.50    5.70
  -3   0 -12   17.00    2.80
  -3   0 -12   16.60    5.10
  -3   0 -12   13.30    2.50
   3   0  12   14.10    3.20
  -4   0 -12   13.40    6.60
   4   0  12    9.10    6.50
   4   0  12    5.10    3.20
  -5   0 -12   13.40    6.70
   5   0  12    1.60    6.40
   5   0  12    1.20    3.80
  -6   0 -12   63.99   10.20
   6   0  12   86.99   11.90
   6   0  12   67.39    6.40
  -7   0 -12   56.29    9.90
   7   0  12   66.49   11.20
   7   0  12   60.89    6.60
  -8   0 -12   11.70    7.20
   8   0  12    3.40    4.60
   8   0  12    3.70    7.70
  -9   0 -12   13.50    7.30
   9   0  12   17.20    8.60
   9   0  12   15.80    5.20
 -10   0 -12   28.80    8.90
  10   0  12   27.90    6.30
  10   0  12   37.70   10.90
  11   0  12    6.90    6.10
  11   0  12    3.80    9.80
  12   0  12    1.00    6.10
  12   0  12   -9.10   10.00
   9  -1 -12   -4.10   11.00
   8  -1 -12    4.90   10.90
   7  -1 -12   28.60   11.00
   6  -1 -12   30.90   10.50
   5  -1 -12    7.40    8.40
   4  -1 -12   38.80   10.00
   3  -1 -12   73.09   10.90
   2  -1 -12   18.10    6.90
   2  -1 -12   21.40    2.00
   2  -1 -12   22.00    1.90
   1  -1 -12    0.20    5.00
   1  -1 -12    0.50    1.40
   1  -1 -12    1.20    1.40
   0  -1 -12   74.39    9.20
   0  -1 -12   50.49    3.80
   0  -1 -12   62.29   11.20
   0  -1 -12   55.59    3.90
  -1  -1 -12  480.95   23.00
  -1  -1 -12  440.36   28.10
  -1  -1 -12  469.15   23.00
  -1  -1 -12  465.25   26.60
  -2  -1 -12  111.59   11.20
  -2  -1 -12   97.19    6.00
  -2  -1 -12   84.99    9.50
   2   1  12  102.99    6.50
  -3  -1 -12  108.39    6.90
  -3  -1 -12  136.89   10.40
   3   1  12  115.99    7.40
  -4  -1 -12   -0.90    4.10
  -4  -1 -12   -0.30    1.90
  -4  -1 -12   -0.40    4.70
  -4  -1 -12    3.20    2.20
   4   1  12    0.70    2.60
  -5  -1 -12   19.20    6.60
   5   1  12   24.10    4.00
  -6  -1 -12   64.79    9.40
   6   1  12   70.39    9.70
   6   1  12   60.39    6.00
  -7  -1 -12  217.98   16.40
   7   1  12  237.28   17.50
   7   1  12  210.88   13.20
  -8  -1 -12   95.09   11.20
   8   1  12   99.29    8.60
   8   1  12  112.19   12.90
  -9  -1 -12   30.40    7.70
   9   1  12   47.00    9.60
   9   1  12   37.80    6.10
  10   1  12    2.80    7.80
  10   1  12   -6.20    4.90
 -11  -1 -12   14.00    6.70
  11   1  12    9.20    5.80
  11   1  12   10.80    8.70
 -12  -1 -12   25.60    8.10
  12   1  12    0.60    6.00
  12   1  12    2.70    8.70
   9  -2 -12    2.50   18.30
   8  -2 -12   63.19   14.20
   7  -2 -12   52.49   12.40
   6  -2 -12    3.40    8.60
   5  -2 -12  220.88   19.00
   4  -2 -12  176.98   16.70
   3  -2 -12  290.17   20.70
   2  -2 -12   27.70   11.20
   1  -2 -12   36.60    2.80
   1  -2 -12   62.19    8.80
   0  -2 -12  388.06   18.90
   0  -2 -12  398.86   23.20
   0  -2 -12  375.76   24.10
   0  -2 -12  383.16   18.90
  -1  -2 -12   27.90    6.50
  -1  -2 -12   22.70    6.80
  -1  -2 -12   29.60    2.70
   1   2  12   25.20    3.00
  -2  -2 -12   67.89    9.70
  -2  -2 -12   63.39    4.50
  -2  -2 -12   94.99    9.60
   2   2  12   68.39    5.10
  -3  -2 -12  270.07   18.10
  -3  -2 -12  282.97   17.00
  -3  -2 -12  273.47   14.80
   3   2  12  278.57   14.50
  -4  -2 -12   71.79    7.90
  -4  -2 -12   65.79    5.00
  -4  -2 -12   84.29    9.80
   4   2  12   70.69    5.70
  -5  -2 -12   49.99    8.10
  -5  -2 -12   52.19    4.10
  -5  -2 -12   61.39    7.20
   5   2  12   57.29    5.20
  -6  -2 -12  213.78   15.50
   6   2  12  238.58   13.00
  -7  -2 -12   97.89   10.00
   7   2  12   61.79    6.50
  -8  -2 -12  163.68   12.90
   8   2  12  172.18   11.40
   8   2  12  185.28   13.90
  -9  -2 -12    9.40    5.50
   9   2  12   16.60    5.10
   9   2  12   10.80    6.80
 -10  -2 -12   32.30    6.40
  10   2  12   30.20    6.20
  10   2  12   35.40    8.10
 -11  -2 -12   24.70    6.50
  11   2  12   18.30    5.90
  11   2  12   16.20    7.30
 -12  -2 -12   18.00    6.80
  12   2  12   11.30    7.60
  12   2  12    6.70    5.90
   9  -3 -12   10.40   15.40
   8  -3 -12   50.59   13.20
   7  -3 -12    0.20    9.80
   6  -3 -12  132.79   17.10
   5  -3 -12   79.99   12.80
   4  -3 -12  354.56   24.40
   3  -3 -12  130.69   14.00
   2  -3 -12   58.69    9.50
   1  -3 -12  101.39    5.10
   1  -3 -12  108.09   11.70
   1  -3 -12   97.99    5.10
  -1   3  12   86.59    9.60
  -1   3  12   91.79    6.30
   0  -3 -12   47.10    3.20
   0  -3 -12   62.69    8.70
   0   3  12   45.40    3.60
   0   3  12   61.09    7.70
   0   3  12   42.90    4.10
  -1  -3 -12   78.09    4.90
  -1  -3 -12   83.49    8.90
  -1  -3 -12  103.79   13.00
   1   3  12   86.09    5.30
  -2  -3 -12  218.88   14.30
  -2  -3 -12  201.68   11.10
  -2  -3 -12  222.88   15.50
   2   3  12  227.58   11.50
  -3  -3 -12  151.58   11.10
  -3  -3 -12  129.19   11.60
  -3  -3 -12  140.29    8.00
   3   3  12  149.79    8.40
  -4  -3 -12   27.80    3.10
  -4  -3 -12   21.90    5.70
  -4  -3 -12   43.90    6.10
   4   3  12   27.20    3.60
  -5  -3 -12  186.08   11.50
  -5  -3 -12  161.98   12.30
   5   3  12  161.38   10.00
  -6  -3 -12   -0.10    4.30
  -6  -3 -12    0.60    3.90
   6   3  12    1.30    3.30
  -7  -3 -12   58.19    6.50
  -7  -3 -12   45.80    6.50
   7   3  12   45.30    5.50
  -8  -3 -12    3.70    4.10
   8   3  12    6.70    4.20
  -9  -3 -12   73.19    7.40
   9   3  12   78.89    7.50
 -10  -3 -12   15.90    4.60
  10   3  12    8.20    5.20
 -11  -3 -12   11.40    4.90
  11   3  12    0.50    5.20
 -12  -3 -12   -0.30    5.40
  12   3  12    7.00    6.00
   9  -4 -12   -2.70   12.60
   8  -4 -12    6.10   10.50
   7  -4 -12   56.39   12.80
   6  -4 -12   13.10    9.30
   5  -4 -12   21.80    9.80
   4  -4 -12   -8.00    7.00
   3  -4 -12    4.60    7.50
   2  -4 -12    5.20    5.90
   1  -4 -12   16.90    1.60
   1  -4 -12   22.10    6.60
  -1   4  12   17.90    1.80
  -1   4  12   22.70    5.70
   0  -4 -12  159.98   12.50
   0  -4 -12  141.19    7.70
   0   4  12  151.78    7.90
   0   4  12  147.59   11.40
  -1  -4 -12  260.07   13.40
  -1  -4 -12  290.97   17.20
   1   4  12  270.77   16.30
   1   4  12  260.77   13.70
   1   4  12  264.57   13.60
  -2  -4 -12   79.59    8.30
  -2  -4 -12   75.39    9.40
  -2  -4 -12   67.09    4.70
   2   4  12   79.49    5.20
  -3  -4 -12   -1.40    2.00
  -3  -4 -12    2.40    4.20
  -3  -4 -12    0.20    4.10
   3   4  12   -2.60    2.20
  -4  -4 -12   55.69    7.30
  -4  -4 -12   46.10    4.10
  -4  -4 -12   57.09    6.50
   4   4  12   51.19    4.60
  -5  -4 -12   18.50    4.70
  -5  -4 -12   22.10    4.40
   5   4  12   15.10    3.40
  -6  -4 -12  134.29    8.90
   6   4  12  130.49    8.70
  -7  -4 -12   52.19    5.10
   7   4  12   59.99    6.00
   8   4  12  122.99    9.10
   9   4  12   14.00    4.70
  10   4  12   19.60    5.30
  11   4  12   33.80    6.30
  12   4  12   10.90    6.00
   9  -5 -12   23.70   12.90
   8  -5 -12   15.20   11.10
   7  -5 -12   15.90   10.90
   6  -5 -12   16.30   10.00
   5  -5 -12   52.19   11.10
   4  -5 -12  249.08   20.40
   3  -5 -12    6.90    7.10
   2  -5 -12   25.40    8.00
   1  -5 -12  112.49   11.50
  -1   5  12   98.79   10.00
  -1   5  12  110.99    5.90
   0  -5 -12  279.27   14.30
   0  -5 -12  295.87   18.70
   0   5  12  295.37   14.40
   0   5  12  282.57   17.60
  -1  -5 -12  182.38   13.10
  -1  -5 -12  182.68    9.40
   1   5  12  182.38    9.60
   1   5  12  167.88   12.10
  -2  -5 -12  148.89   11.10
  -2  -5 -12  134.59    7.80
   2   5  12  140.79    7.70
   2   5  12  150.08    8.20
   2   5  12  142.99   10.20
  -3  -5 -12  252.07   14.40
  -3  -5 -12  277.57   16.70
  -3  -5 -12  280.17   16.30
   3   5  12  294.37   14.40
  -4  -5 -12    1.30    2.10
  -4  -5 -12    1.90    3.50
  -4  -5 -12   -0.30    3.40
   4   5  12    1.70    2.60
  -5  -5 -12  175.28   10.50
  -5  -5 -12  173.38   11.00
   5   5  12  170.78   10.20
   6   5  12  126.49    8.50
   7   5  12  410.26   21.50
   8   5  12   20.30    4.60
   9   5  12   -6.10    4.10
  10   5  12    5.10    5.00
  11   5  12   44.50    6.60
  12   5  12    5.00    5.50
   9  -6 -12   31.20   13.90
   8  -6 -12    2.20   11.10
   7  -6 -12   -2.50    9.70
   6  -6 -12   17.50   10.50
   5  -6 -12  403.96   27.90
   4  -6 -12  231.48   19.80
   3  -6 -12   63.89   11.00
   2  -6 -12   -3.30    6.60
   2  -6 -12   -1.80    1.20
  -2   6  12    1.50    1.40
   1  -6 -12  132.89    7.40
   1  -6 -12  156.58   13.50
  -1   6  12  134.89   11.80
  -1   6  12  149.79    7.60
   0  -6 -12    2.00    1.70
   0  -6 -12    5.20    5.50
   0   6  12   -3.30    3.90
   0   6  12    2.20    1.90
  -1  -6 -12   -2.00    4.50
  -1  -6 -12   -0.70    1.70
   1   6  12   -1.60    3.70
   1   6  12    2.60    2.00
  -2  -6 -12  129.19   10.50
  -2  -6 -12  117.59    7.20
   2   6  12  137.59    7.50
   2   6  12  128.59    9.30
  -3  -6 -12  300.97   16.80
  -3  -6 -12  263.67   14.60
   3   6  12  298.37   14.90
  -4  -6 -12   -2.50    2.40
  -4  -6 -12    1.40    3.30
   4   6  12   -2.00    2.60
   5   6  12    2.20    3.50
   6   6  12  319.57   17.20
   7   6  12  176.38   11.00
   8   6  12   17.60    4.60
   9   6  12   -1.70    4.20
  10   6  12   76.19    7.60
  11   6  12    7.20    6.70
  12   6  12    3.10    5.30
   9  -7 -12    4.60   12.10
   8  -7 -12    2.20   11.40
   7  -7 -12  -10.00    9.90
   6  -7 -12   82.89   15.40
   5  -7 -12   17.60    9.90
   4  -7 -12   69.59   12.90
   3  -7 -12    9.40    8.60
  -3   7  12   15.30    2.00
   2  -7 -12   68.79    4.50
   2  -7 -12   75.39   17.20
  -2   7  12   75.79    4.60
   1  -7 -12   67.89    4.70
   1  -7 -12   79.39   11.20
  -1   7  12   71.29    4.90
  -1   7  12   62.69   11.50
   0  -7 -12   12.90    6.20
   0  -7 -12    6.00    2.10
   0   7  12   12.20    2.50
   0   7  12    6.10    5.20
  -1  -7 -12   91.29    5.80
  -1  -7 -12  104.39   10.50
   1   7  12   98.09    6.10
   1   7  12   84.79    8.70
  -2  -7 -12  121.39    7.50
  -2  -7 -12  135.89   11.00
   2   7  12  128.79    9.60
   2   7  12  137.79    7.90
  -3  -7 -12    1.80    4.60
  -3  -7 -12    3.20    2.40
   3   7  12    2.10    3.20
   3   7  12    6.80    3.60
  -4  -7 -12   18.70    4.80
  -4  -7 -12   19.90    5.20
   4   7  12   20.50    3.60
   5   7  12  191.38   11.10
   6   7  12    0.00    3.50
   7   7  12   79.79    7.00
   8   7  12   11.90    4.60
   9   7  12   68.59    7.10
  10   7  12   -8.20    4.60
  11   7  12   -3.00    5.30
   9  -8 -12   -4.00   13.60
   8  -8 -12   17.80   16.90
   7  -8 -12   62.99   15.30
   6  -8 -12   -0.70   10.40
   5  -8 -12   20.20   10.80
   4  -8 -12   59.59   12.20
  -4   8  12   56.19    4.50
  -4   8  12   72.39    6.20
   3  -8 -12    4.70    8.30
   3  -8 -12   16.70    2.20
  -3   8  12   19.90    2.60
   2  -8 -12    6.00    2.20
   2  -8 -12    6.40    7.90
  -2   8  12    5.80    2.50
   1  -8 -12   19.50    2.70
   1  -8 -12   20.80    7.80
  -1   8  12   20.50    2.80
   0  -8 -12   85.99   11.10
   0  -8 -12   73.39    5.50
   0   8  12   91.09    5.70
   0   8  12   81.69    9.40
  -1  -8 -12  141.29   10.30
  -1  -8 -12  151.28   13.30
   1   8  12  143.89   12.00
   1   8  12  172.38    9.00
  -2  -8 -12   76.29    9.10
  -2  -8 -12   57.19    5.10
   2   8  12   74.89    7.70
   2   8  12   75.39    5.60
  -3  -8 -12   17.10    5.00
   3   8  12   12.20    3.30
   3   8  12   10.10    3.90
  -4  -8 -12    2.50    6.30
   5   8  12    7.40    3.90
   6   8  12  105.49    8.10
   7   8  12  281.67   15.70
   8   8  12  105.19    8.70
   9   8  12   -3.80    4.20
  10   8  12   97.29    8.90
  11   8  12   -3.90    5.00
   8  -9 -12   11.10   13.50
   7  -9 -12   -3.90   11.60
   6  -9 -12   22.90   12.20
  -6   9  12   24.90    3.00
  -6   9  12   24.20    4.90
   5  -9 -12   22.00   11.50
  -5   9  12   22.30    3.10
  -5   9  12   27.20    3.00
   4  -9 -12   58.89   13.20
  -4   9  12   67.89    5.00
  -4   9  12   59.29    5.40
   3  -9 -12  130.09   16.30
   3  -9 -12  113.99    7.00
  -3   9  12  126.19    7.30
   2  -9 -12   37.90    3.70
   2  -9 -12   42.00   10.70
  -2   9  12   45.90    3.90
   1  -9 -12   90.69   12.80
   1  -9 -12   88.99    6.40
  -1   9  12  108.69    6.70
   0  -9 -12  120.09    7.50
   0  -9 -12  129.49   13.60
   0   9  12  128.59    7.80
   0   9  12   99.99   11.50
  -1  -9 -12   65.39    5.20
  -1  -9 -12   55.39    9.60
   1   9  12   62.79    5.30
   1   9  12   55.79    8.10
  -2  -9 -12  138.49   12.30
   2   9  12  133.29    8.50
   2   9  12  128.29   10.60
  -3  -9 -12  165.18   12.40
   3   9  12  150.98   10.80
  -4  -9 -12   -4.90    4.30
   4   9  12    1.20    3.10
   4   9  12    2.30    3.30
   5   9  12  354.16   18.70
   6   9  12   38.80    5.10
   7   9  12   21.50    4.90
   8   9  12   30.70    5.70
   9   9  12   50.69    6.60
  10   9  12   10.80    5.90
  11   9  12   18.30    6.20
   8 -10 -12   12.40   14.30
  -8  10  12   22.00    4.10
  -7  10  12   30.70    3.80
   6 -10 -12    4.60   11.60
  -6  10  12   15.40    3.50
  -6  10  12   10.80    3.40
   5 -10 -12   42.80   12.80
  -5  10  12   47.20    4.70
  -5  10  12   51.49    4.50
   4 -10 -12   19.60   11.40
  -4  10  12   15.10    3.40
   3 -10 -12    5.10    8.90
   3 -10 -12    5.30    2.60
  -3  10  12    4.20    3.00
   2 -10 -12    4.50    8.30
   2 -10 -12   10.20    3.20
  -2  10  12   15.00    3.20
   1 -10 -12   65.39    5.70
   1 -10 -12   68.29   12.30
  -1  10  12   68.29    5.80
   0 -10 -12   46.00   10.00
   0 -10 -12   29.80    4.00
   0  10  12   47.60    4.50
  -1 -10 -12  109.29   13.00
   1  10  12   91.49   10.60
   1  10  12  130.29    7.70
  -2 -10 -12   66.29    9.70
   2  10  12   55.99    7.80
   2  10  12   83.99    8.60
  -3 -10 -12  108.69   10.80
   3  10  12   73.49    8.30
   3  10  12   97.89    7.20
  -4 -10 -12  169.88   12.20
   4  10  12  193.08   10.70
   4  10  12  150.98   10.60
   5  10  12   22.50    4.50
   6  10  12   19.20    4.70
   7  10  12   13.50    4.80
   8  10  12   16.00    5.10
   9  10  12   18.10    6.00
  10  10  12   18.80    5.90
   7 -11 -12    6.40   12.70
  -7  11  12    2.10    3.80
  -7  11  12   14.10    6.10
   6 -11 -12   22.20   13.50
  -6  11  12   16.70    4.00
   5 -11 -12    1.50   10.90
  -5  11  12   10.20    4.50
   4 -11 -12   29.90   13.10
  -4  11  12   34.40    4.40
   3 -11 -12   -3.00    9.40
   3 -11 -12    4.10    3.00
  -3  11  12   13.50    3.70
   2 -11 -12   -0.40    9.10
   2 -11 -12    1.60    3.30
  -2  11  12    0.40    3.40
   1 -11 -12    2.00    8.50
  -1  11  12   -2.60    3.30
   0 -11 -12  144.59   25.60
   0  11  12  160.98   10.40
  -1 -11 -12   48.50   10.40
   1  11  12   69.79    5.80
   1  11  12   57.49    9.70
  -2 -11 -12    2.10    6.70
   2  11  12    6.70    5.40
   2  11  12    9.00    3.70
  -3 -11 -12   43.60    8.30
   3  11  12   44.10    6.90
   3  11  12   46.10    5.30
  -4 -11 -12    9.70    5.70
   4  11  12   -1.50    3.90
   4  11  12   -0.10    3.90
   5  11  12    1.60    4.00
   6  11  12    9.20    4.60
   7  11  12   86.69    7.80
   8  11  12   48.50    6.80
   9  11  12   -4.10    5.00
   6 -12 -12   -0.30   12.90
  -6  12  12  -14.00    4.10
   5 -12 -12   39.70   14.80
  -5  12  12   45.50    5.40
   4 -12 -12   20.10   12.70
  -4  12  12   26.80    4.70
   3 -12 -12   12.40   10.90
  -3  12  12   -1.20    4.00
   2 -12 -12    7.90   10.30
  -2  12  12   12.20    5.00
   1 -12 -12   51.99   11.90
  -1  12  12   48.40    5.30
   0 -12 -12   -1.30    8.20
   0  12  12    0.60    3.70
  -1 -12 -12    0.80    7.80
   1  12  12    0.10    3.70
  -2 -12 -12   34.80    9.20
   2  12  12   37.40    5.00
   2  12  12   43.20    8.00
  -3 -12 -12   59.29    9.90
   3  12  12   60.89    6.00
   3  12  12   46.30    9.50
  -4 -12 -12   -0.90    5.70
   4  12  12    6.10    4.30
   4  12  12   -2.50    4.40
  -5 -12 -12    7.40    7.10
   5  12  12    7.30    4.30
   5  12  12    0.70    4.10
   6  12  12  159.98   11.00
   7  12  12   53.29    6.80
   8  12  12    5.30    5.00
   5 -13 -12   23.80   22.70
  -5  13  12   30.60    5.60
   4 -13 -12    2.40   11.70
  -4  13  12   -7.50    4.40
   3 -13 -12    7.70   11.90
  -3  13  12   -7.70    4.20
   2 -13 -12   52.69   14.10
  -2  13  12   61.49    6.20
   1 -13 -12   -8.40    8.90
  -1  13  12    1.80    4.00
   0 -13 -12    5.80    9.00
   0  13  12    1.00    4.30
  -1 -13 -12   27.90   10.10
   1  13  12   23.60    4.80
  -2 -13 -12   79.59   12.90
   2  13  12  100.49    8.30
  -3 -13 -12    5.60    7.60
   3  13  12    3.60    4.40
   3  13  12   11.50    5.80
  -4 -13 -12    3.60    6.80
   4  13  12   14.10    5.60
   4  13  12   14.00    4.90
  -5 -13 -12   33.00    6.90
   5  13  12   30.10    5.10
   5  13  12   63.89    6.30
   6  13  12  105.79    9.20
   7  13  12    8.00    5.20
   3 -14 -12   78.49   17.10
  -3  14  12   53.09    6.50
   2 -14 -12   -8.80   10.00
  -2  14  12   -1.00    4.70
   1 -14 -12   15.10   11.10
  -1  14  12   21.40    5.30
   0 -14 -12   18.10   10.90
   0  14  12   16.30    5.10
  -1 -14 -12   40.00   11.30
   1  14  12   35.10    5.60
  -2 -14 -12    9.80    8.70
   2  14  12    9.00    4.80
  -3 -14 -12    4.60    8.10
   3  14  12   13.10    4.70
  -4 -14 -12   30.90    9.00
   4  14  12   30.80    5.90
   4  14  12   24.60    8.10
  -5 -14 -12   26.90    7.60
   5  14  12   21.70    5.50
   6  14  12   34.20    6.10
   1 -15 -12   19.30   12.60
  -1  15  12   -1.80    5.10
   0 -15 -12   24.40   12.70
   0  15  12   26.40    5.70
  -1 -15 -12   -2.30    9.90
   1  15  12   -2.90    5.00
  -2 -15 -12   16.30   10.90
   2  15  12   22.10    5.50
  -3 -15 -12   16.70    9.90
   1   8 -13   16.90    5.60
   1   8 -13   20.40    4.70
   1   8 -13   19.90   11.10
   0   8 -13   42.80    5.90
   0   8 -13   38.10   12.70
   0   8 -13   30.40    6.40
  -1   8 -13    9.20    4.40
   1  -8  13   -5.20   12.60
  -2   8 -13   -2.30    4.20
   2  -8  13   -9.70   12.50
  -3   8 -13   17.60    5.20
   3  -8  13   11.40   15.30
   4  -8  13   58.09   18.20
  -5   8 -13   11.60    5.50
   5  -8  13   19.80   17.60
   3   7 -13    9.10    4.30
   3   7 -13   11.70   10.50
   2   7 -13   32.30    4.90
   2   7 -13   14.60   10.70
   1   7 -13   44.40    5.50
   0   7 -13    0.80    4.50
   0   7 -13   -3.90    8.90
   0   7 -13    8.40    4.10
  -1   7 -13    2.60    3.80
   1  -7  13   -1.90   12.40
  -2   7 -13   43.10    5.60
   2  -7  13   27.40   15.00
  -3   7 -13   41.70    5.70
   3  -7  13   31.80   14.50
  -4   7 -13    9.10    4.60
   4  -7  13   32.50   15.10
  -5   7 -13   10.70    5.00
   5  -7  13    6.00   14.30
  -6   7 -13   14.10    7.30
   6  -7  13   19.00   17.80
  -7   7 -13   17.60    5.80
   7  -7  13   12.40   26.30
   5   6 -13   20.40    4.60
   5   6 -13   20.70   11.60
   4   6 -13   20.70    4.50
   4   6 -13   17.10   10.70
   3   6 -13  -10.70   15.20
   3   6 -13   -0.50    3.60
   2   6 -13   45.00    5.10
   2   6 -13   37.50   11.40
   1   6 -13   16.40    9.20
   1   6 -13    7.20    3.60
   1   6 -13    4.80    4.20
   0   6 -13    0.00    4.20
   0   6 -13    5.20    8.90
   0   6 -13    6.30    3.70
  -1   6 -13   50.89    5.60
  -2   6 -13  121.19    8.80
   2  -6  13  101.39   18.20
  -3   6 -13   17.00    4.50
   3  -6  13   17.40   12.70
  -4   6 -13   -4.40    3.70
   4  -6  13   -6.60   11.70
  -5   6 -13   30.30    5.40
   5  -6  13    6.30   14.30
  -6   6 -13   55.29    6.90
   6  -6  13   57.49   16.90
  -7   6 -13   -1.50    5.60
   7  -6  13   -1.00   14.30
  -8   6 -13    4.50    5.60
   8  -6  13   -1.50   15.20
   6   5 -13   -8.20    9.70
   6   5 -13   -3.00    3.70
   5   5 -13    7.30    9.90
   5   5 -13   11.90    3.90
   4   5 -13    4.70    3.50
   4   5 -13    2.80    9.50
   3   5 -13    1.40    3.30
   3   5 -13    0.50    8.60
   2   5 -13   19.50    9.30
   2   5 -13    9.60    3.60
   1   5 -13    6.20    3.30
   1   5 -13    0.50    7.60
   1   5 -13    2.30    3.70
   0   5 -13   35.30    5.20
   0   5 -13   49.20    4.90
   0   5 -13   41.20   10.60
  -1   5 -13  142.49    9.70
  -1   5 -13  134.99    8.90
  -1   5 -13  115.79   14.70
  -2   5 -13    7.10    3.60
   2  -5  13    8.50    9.80
  -3   5 -13   30.40    4.50
   3  -5  13   20.30   12.20
  -4   5 -13   62.29    6.10
   4  -5  13   56.79   15.10
  -5   5 -13   17.00    4.60
   5  -5  13   33.40   13.90
  -6   5 -13   -2.00    4.20
   6  -5  13   -5.00   11.10
  -7   5 -13    8.50    4.80
   7  -5  13   -8.30   11.80
  -8   5 -13   -1.50    5.00
   8  -5  13   12.10   13.60
  -9   5 -13    7.20    5.40
   9  -5  13   -0.40   14.60
   6   4 -13    1.10    3.30
   6   4 -13   18.20   11.10
   5   4 -13   -4.50    9.00
   5   4 -13    0.80    3.10
   4   4 -13  -10.40    7.90
   4   4 -13   -1.10    2.90
   3   4 -13   -9.10    7.60
   3   4 -13    5.20    3.00
   2   4 -13   23.70    9.10
   2   4 -13   23.90    3.70
   1   4 -13   70.99    6.10
   1   4 -13   80.09   12.70
   0   4 -13  127.49    9.10
   0   4 -13  148.99   16.40
   0   4 -13  120.19    9.20
  -1   4 -13    5.10    3.20
  -1   4 -13   -2.00    6.90
  -1   4 -13    6.60    3.70
  -2   4 -13  168.98   10.40
   2  -4  13  188.68   19.80
  -3   4 -13  202.08   11.90
   3  -4  13  214.18   21.40
  -4   4 -13   57.19    5.70
   4  -4  13   62.69   13.90
  -5   4 -13    7.70    4.00
   5  -4  13    7.50   11.50
  -6   4 -13   35.40    5.30
   6  -4  13   31.10   13.10
  -7   4 -13   -1.80    4.00
   7  -4  13   -0.70   11.30
  -8   4 -13   -0.80    4.50
   8  -4  13    3.20   12.60
  -9   4 -13   12.80    8.90
   9  -4  13   -6.90   13.00
 -10   4 -13   -2.20    5.90
  10  -4  13    3.20   13.40
   7   3 -13    1.40   11.00
   6   3 -13   46.40   12.40
   6   3 -13   23.30    3.30
   5   3 -13   32.60   10.50
   5   3 -13   25.50    3.50
   4   3 -13   11.50    2.90
   4   3 -13   13.10    8.90
   4   3 -13    8.50    3.70
   3   3 -13    8.70    3.30
   3   3 -13   10.70    2.90
   3   3 -13    0.60    7.50
   2   3 -13   61.49    5.50
   2   3 -13   61.99   11.50
   2   3 -13   79.29    5.60
   1   3 -13  128.39    7.30
   1   3 -13  126.19   14.30
   1   3 -13   89.69    7.40
   0   3 -13    0.10    6.50
   0   3 -13   -0.30    3.10
   0   3 -13    1.70    2.60
  -1   3 -13  207.58   11.60
  -1   3 -13  205.28   16.90
  -1   3 -13  207.68   12.10
  -2   3 -13   69.59    6.80
  -2   3 -13   83.59    6.80
  -2   3 -13   87.99   12.00
  -3   3 -13  286.67   15.60
   3  -3  13  308.97   24.10
  -4   3 -13   11.10    3.70
   4  -3  13   22.90   10.40
  -5   3 -13   93.49    7.70
   5  -3  13  117.19   17.30
  -6   3 -13   67.39    6.50
   6  -3  13   52.29   13.70
  -7   3 -13    8.80    4.40
   7  -3  13   11.10   11.80
  -8   3 -13    1.90    4.80
   8  -3  13    0.10   11.80
  -9   3 -13   -1.90    4.90
   9  -3  13    7.90   12.30
 -10   3 -13   12.70    6.50
  10  -3  13   10.30   12.80
 -11   3 -13   11.40    6.50
  11  -3  13   30.90   16.10
   8   2 -13    7.90   12.00
   8   2 -13   10.30    2.50
   7   2 -13    3.90    2.40
   6   2 -13   90.59   15.10
   6   2 -13  108.79    6.50
   5   2 -13   67.89   13.20
   5   2 -13   89.59    5.50
   5   2 -13   70.49    6.00
   4   2 -13   -1.20    2.30
   4   2 -13    4.90    8.20
   4   2 -13    2.60    2.70
   3   2 -13    4.60    2.70
   3   2 -13   15.20    8.60
   3   2 -13    7.60    2.50
   2   2 -13   -0.40    2.30
   2   2 -13    4.70    2.60
   2   2 -13    4.40    6.90
   1   2 -13    8.10    7.20
   1   2 -13    1.60    2.40
   0   2 -13  148.89   14.50
   0   2 -13  154.08    8.60
   0   2 -13  135.89    8.70
  -1   2 -13  100.59   12.50
  -1   2 -13  109.09    7.40
  -1   2 -13   87.19    6.90
  -1   2 -13   94.69    6.70
  -2   2 -13  130.89    8.20
  -2   2 -13  138.39   13.30
  -2   2 -13  128.39    8.50
  -3   2 -13    0.70    5.50
   3  -2  13   18.70    9.60
  -4   2 -13   87.89    6.50
   4  -2  13   69.89   13.50
  -5   2 -13   66.79    6.10
   5  -2  13   87.09   14.40
  -6   2 -13  106.09    8.10
   6  -2  13   79.69   14.60
   7  -2  13   13.10    4.90
   7  -2  13   -3.40    9.50
   8  -2  13   -7.20    4.80
   8  -2  13   11.80   10.80
   9  -2  13    2.60   11.10
   9  -2  13   -1.90    5.20
  10  -2  13    4.70    5.90
  10  -2  13    1.80   11.50
  11  -2  13  -11.80    6.00
  11  -2  13   -1.30   12.20
   8   1 -13   11.30   11.40
   7   1 -13   12.10   11.10
   6   1 -13    2.20    4.20
   6   1 -13    4.00   10.00
   5   1 -13    1.40    1.80
   5   1 -13    1.60    2.20
   5   1 -13  -21.30    7.20
   4   1 -13    6.60    2.30
   4   1 -13   -0.70    1.90
   4   1 -13    1.60    7.90
   3   1 -13    7.80    2.10
   3   1 -13    8.10    2.40
   3   1 -13    7.70    7.80
   2   1 -13  105.39   13.00
   2   1 -13   89.49    6.20
   2   1 -13  106.19    6.10
   1   1 -13  198.58   11.40
   1   1 -13  212.28   17.50
   1   1 -13  232.58   11.40
   0   1 -13   62.19    5.10
   0   1 -13   72.59   10.40
   0   1 -13   60.09    5.00
  -1   1 -13   19.90    7.20
  -1   1 -13   19.40    3.20
  -1   1 -13   21.30    3.00
  -2   1 -13   29.50    8.80
  -2   1 -13   21.90    4.10
  -2   1 -13   24.20    3.30
  -2   1 -13   22.70    3.40
  -3   1 -13  151.28    9.60
  -3   1 -13  154.48    8.70
  -3   1 -13  123.89   14.20
  -4   1 -13  120.09   10.50
   4  -1  13   88.29   13.40
   5  -1  13   15.70    4.50
   5  -1  13   21.60    9.20
   6  -1  13   -3.20    3.90
   6  -1  13   -2.90    8.10
   7  -1  13  -11.00    8.50
   7  -1  13    8.90    4.60
   8  -1  13   -1.50    4.60
   8  -1  13   -1.30    9.40
   9  -1  13   24.40    6.00
   9  -1  13   41.40   23.00
  10  -1  13   11.50    5.90
  10  -1  13   29.10   12.20
  11  -1  13   15.80   11.70
  11  -1  13   21.20    7.00
   8   0 -13    1.90   11.10
   7   0 -13   -5.30    9.70
   6   0 -13   35.70   11.50
   5   0 -13    9.80    9.10
   4   0 -13   12.00    8.30
   3   0 -13   24.50    2.40
   3   0 -13   34.50    9.70
   2   0 -13  574.64   33.80
   2   0 -13  560.44   28.00
   2   0 -13  592.74   28.00
   1   0 -13  115.99    7.00
   1   0 -13  125.19    6.90
   1   0 -13  122.09   12.90
   0   0 -13    4.40    2.20
   0   0 -13    7.30    2.20
   0   0 -13    7.30    6.10
  -1   0 -13  113.59   12.20
  -1   0 -13  126.39    7.20
  -1   0 -13  112.69    7.20
  -2   0 -13  689.73   38.30
  -2   0 -13  727.73   34.60
  -2   0 -13  697.53   34.70
  -3   0 -13  101.89   10.50
  -3   0 -13   84.99    6.10
  -3   0 -13   97.59    6.50
  -4   0 -13   15.10    3.10
  -4   0 -13   18.30    7.50
  -4   0 -13   11.40    5.60
   4   0  13   16.20    3.80
  -5   0 -13  141.29   15.80
   5   0  13  150.18   10.00
   5   0  13  160.08   15.40
  -6   0 -13  295.87   21.90
   6   0  13  334.97   22.80
   6   0  13  313.27   17.30
  -7   0 -13    3.90    6.80
   7   0  13   -2.60    7.60
   7   0  13    8.70    4.30
  -8   0 -13   10.70    7.40
   8   0  13   -6.90    4.10
   8   0  13   -0.20    8.10
  -9   0 -13   21.40    8.90
   9   0  13    8.30    9.00
   9   0  13   20.40    5.60
  10   0  13   33.20    6.40
  10   0  13   42.00   11.50
  11   0  13    8.80   10.30
  11   0  13   16.00   11.20
  12   0  13   -5.10   19.60
  12   0  13    5.30    6.50
   9  -1 -13   -2.00   11.70
   7  -1 -13   45.90   12.40
   6  -1 -13   64.89   12.70
   5  -1 -13   64.79   12.30
   4  -1 -13   20.20    8.80
   3  -1 -13   93.79   12.90
   2  -1 -13   47.30    9.60
   2  -1 -13   45.80    3.20
   1  -1 -13    5.40    6.20
   1  -1 -13    4.50    1.70
   1  -1 -13    7.30    1.80
   0  -1 -13   33.80    3.00
   0  -1 -13   28.10    7.30
   0  -1 -13   36.70    3.10
  -1  -1 -13  666.33   31.70
  -1  -1 -13  645.04   35.70
  -1  -1 -13  635.94   31.70
  -2  -1 -13  313.97   21.60
  -2  -1 -13  338.67   19.90
  -2  -1 -13  308.47   15.80
   2   1  13  295.87   16.10
  -3  -1 -13    2.40    2.10
  -3  -1 -13   -3.10    4.70
  -3  -1 -13    4.50    5.80
   3   1  13    3.20    2.90
  -4  -1 -13   67.79   10.20
  -4  -1 -13   83.29    9.40
  -4  -1 -13   60.99    5.10
   4   1  13   49.90    5.50
  -5  -1 -13  289.17   14.80
  -5  -1 -13  269.07   17.90
  -5  -1 -13  295.47   22.30
   6   1  13  164.48   10.80
  -7  -1 -13   10.60    9.60
   7   1  13    7.10    4.10
   7   1  13   -2.60    6.50
   8   1  13   -4.70    3.90
   8   1  13    2.50    7.50
  -9  -1 -13    8.60   11.90
   9   1  13   -0.10    7.40
   9   1  13    5.10    4.80
 -10  -1 -13    9.70    6.80
  10   1  13    0.00    8.30
  10   1  13   -7.20    4.70
 -11  -1 -13   15.30    7.20
  11   1  13   -7.40    6.20
  11   1  13   -2.10    8.30
  12   1  13    0.60    6.00
  12   1  13   -2.40    8.70
   9  -2 -13   17.90   12.30
   8  -2 -13    4.30   12.20
   7  -2 -13   24.80   10.90
   6  -2 -13    1.10    8.60
   5  -2 -13   22.70    9.90
   4  -2 -13   -7.80    7.10
   3  -2 -13    4.80    8.20
   2  -2 -13   44.50    9.20
   1  -2 -13   83.09    4.70
   0  -2 -13  240.08   12.30
   0  -2 -13  246.28   12.30
   0  -2 -13  246.58   17.20
  -1  -2 -13    7.30    6.00
  -1  -2 -13   19.40    6.20
  -1  -2 -13    8.90    2.10
   1   2  13   10.40    2.60
  -2  -2 -13    1.50    5.20
  -2  -2 -13    3.00    1.90
  -2  -2 -13    4.90    5.00
   2   2  13    9.50    2.70
  -3  -2 -13   72.79    5.30
  -3  -2 -13   96.39    9.50
   3   2  13   81.19    6.00
  -4  -2 -13  233.18   13.10
  -4  -2 -13  233.18   17.30
  -4  -2 -13  267.07   16.40
   4   2  13  261.47   13.70
  -5  -2 -13   57.29    7.80
  -5  -2 -13   50.39    8.80
   5   2  13   41.80    4.90
  -6  -2 -13    6.90    6.00
  -6  -2 -13   12.40    5.00
  -6  -2 -13    8.70    2.50
   6   2  13    6.10    3.90
  -7  -2 -13   52.79    8.70
   7   2  13   49.30    5.80
  -8  -2 -13    2.50    5.00
   8   2  13   -2.60    4.10
  -9  -2 -13   64.99    8.70
   9   2  13   68.99    7.20
   9   2  13   64.19    9.70
 -10  -2 -13    7.80    5.60
  10   2  13    4.40    5.00
  10   2  13    7.00    6.60
 -11  -2 -13   17.30    5.90
  11   2  13   10.60    5.80
  11   2  13    3.70    7.20
  12   2  13    9.10    7.30
  12   2  13    3.30    5.90
   9  -3 -13   11.40   11.70
   8  -3 -13    1.90   11.20
   7  -3 -13    1.60    9.90
   6  -3 -13   21.70   10.80
   5  -3 -13    0.50    8.70
   4  -3 -13    4.50    7.80
   3  -3 -13  214.98   18.10
   2  -3 -13  170.48   15.30
   1  -3 -13  381.46   23.40
   1  -3 -13  357.66   17.70
   1  -3 -13  363.66   17.70
   0  -3 -13   13.50    6.30
   0  -3 -13    8.70    1.70
  -1  -3 -13  281.57   17.60
  -1  -3 -13  259.07   13.40
  -1  -3 -13  251.47   18.40
   1   3  13  273.57   13.70
  -2  -3 -13  352.86   20.70
  -2  -3 -13  342.17   17.30
   2   3  13  343.77   17.50
  -3  -3 -13  287.97   15.50
  -3  -3 -13  320.37   18.60
  -3  -3 -13  302.67   19.70
   3   3  13  315.37   15.90
  -4  -3 -13    6.40    5.30
  -4  -3 -13   25.60    5.90
  -4  -3 -13    9.50    2.50
   4   3  13   13.50    3.30
  -5  -3 -13  307.77   17.60
  -5  -3 -13  279.47   18.40
   5   3  13  280.77   15.60
  -6  -3 -13   24.00    6.10
  -6  -3 -13   19.00    5.30
   6   3  13   17.70    4.10
  -7  -3 -13   19.40    5.30
  -7  -3 -13   19.10    5.70
   7   3  13   21.10    4.50
  -8  -3 -13   47.70    6.30
  -8  -3 -13   50.89    6.70
   8   3  13   42.00    5.70
  -9  -3 -13   71.49    8.00
  -9  -3 -13   87.49    7.60
   9   3  13   95.09    8.00
 -10  -3 -13   17.30    4.90
  10   3  13   13.40    5.30
 -11  -3 -13    9.00    5.40
  11   3  13   10.30    5.80
  12   3  13    2.30    5.80
   9  -4 -13   11.70   12.10
   8  -4 -13   -2.90   10.50
   7  -4 -13   54.99   13.90
   6  -4 -13   36.00   11.50
   5  -4 -13   37.90   10.90
   4  -4 -13    8.40    8.10
   3  -4 -13   90.59   12.30
   2  -4 -13  321.27   22.00
   1  -4 -13   53.19    3.30
   1  -4 -13   55.29    9.60
   0  -4 -13  226.78   16.40
   0  -4 -13  217.88   11.30
   0   4  13  236.58   15.30
   0   4  13  218.68   12.00
   0   4  13  236.08   11.50
  -1  -4 -13  494.35   27.50
  -1  -4 -13  463.25   23.50
   1   4  13  492.25   23.70
  -2  -4 -13  445.56   27.60
  -2  -4 -13  471.05   23.80
  -2  -4 -13  511.05   27.10
   2   4  13  501.45   24.00
  -3  -4 -13   56.79    4.80
  -3  -4 -13   95.49    9.20
  -3  -4 -13   79.19    9.50
   3   4  13   76.09    5.50
  -4  -4 -13  277.67   15.20
  -4  -4 -13  276.77   18.40
  -4  -4 -13  311.47   17.70
   4   4  13  316.67   15.80
  -5  -4 -13  324.27   19.80
  -5  -4 -13  347.17   19.10
   5   4  13  342.37   17.80
  -6  -4 -13  139.39    9.80
  -6  -4 -13  124.99   10.20
   6   4  13  137.99    9.10
  -7  -4 -13    2.70    3.90
   7   4  13   -9.20    3.50
   8   4  13   23.40    4.80
   9   4  13   13.60    4.80
  10   4  13   65.89    7.40
  11   4  13    5.20    5.50
  12   4  13   16.20    6.10
   9  -5 -13   -2.40   12.10
   8  -5 -13    5.40   13.60
   7  -5 -13   10.80   10.60
   6  -5 -13   82.29   14.60
   5  -5 -13   14.10    9.70
   4  -5 -13   -4.80    7.70
   3  -5 -13    0.20    7.60
   2  -5 -13   15.50    7.50
   1  -5 -13  136.89    7.10
   1  -5 -13  115.49   12.80
  -1   5  13  104.19    6.20
   0  -5 -13  183.68    9.40
   0  -5 -13  186.08   14.40
   0   5  13  185.18    9.60
   0   5  13  173.38   13.20
  -1  -5 -13  423.26   23.30
  -1  -5 -13  370.96   19.10
   1   5  13  367.06   19.70
   1   5  13  384.36   23.40
   1   5  13  402.96   19.30
  -2  -5 -13    0.90    5.00
  -2  -5 -13    6.30    2.10
   2   5  13    9.30    2.50
  -3  -5 -13  224.58   15.70
  -3  -5 -13  258.17   15.50
  -3  -5 -13  225.68   12.40
   3   5  13  246.58   12.80
  -4  -5 -13  154.28   11.40
  -4  -5 -13  153.08   11.20
  -4  -5 -13  138.39    8.70
   4   5  13  166.78    9.30
  -5  -5 -13  167.18   10.80
  -5  -5 -13  145.99   11.20
   5   5  13  185.28   10.20
  -6  -5 -13   78.79    6.20
  -6  -5 -13   71.19    6.30
   6   5  13   90.99    7.00
   7   5  13   -1.20    3.80
   8   5  13   48.80    6.00
   9   5  13    7.80    4.40
  10   5  13    4.90    4.80
  11   5  13   -4.90    8.20
  12   5  13   18.10    6.20
   9  -6 -13    9.60   13.40
   8  -6 -13   27.00   20.60
   7  -6 -13   -7.40    9.90
   6  -6 -13   16.70   10.20
   5  -6 -13   21.80    9.90
   4  -6 -13   -7.50    7.70
   3  -6 -13   84.89   12.60
   2  -6 -13  220.28   17.90
   1  -6 -13  112.29    6.00
   1  -6 -13  126.99   12.90
  -1   6  13   99.29    6.50
   0  -6 -13   -7.70    5.60
   0  -6 -13    3.20    1.80
   0   6  13   -0.10    2.20
   0   6  13    4.50    5.10
  -1  -6 -13   60.69    9.20
  -1  -6 -13   50.99    4.00
   1   6  13   64.29   13.20
   1   6  13   49.60    4.30
  -2  -6 -13  154.88    9.10
  -2  -6 -13  191.58   13.30
   2   6  13  180.68    9.50
   2   6  13  162.38    9.10
   2   6  13  163.68   11.70
  -3  -6 -13  202.98   14.00
  -3  -6 -13  213.08   13.90
  -3  -6 -13  186.98   11.00
   3   6  13  230.18   11.50
  -4  -6 -13   20.90    4.90
  -4  -6 -13   21.60    4.80
   4   6  13   22.20    3.60
  -5  -6 -13   12.80    3.30
  -5  -6 -13    4.10    3.50
   5   6  13    7.80    4.00
   6   6  13   73.09    6.60
   7   6  13   -4.70    3.50
   8   6  13  125.79    9.40
   9   6  13   36.10    5.80
  10   6  13   26.50    5.60
  11   6  13   -6.90    5.40
  12   6  13    2.80    5.60
   8  -7 -13    3.60   11.70
   7  -7 -13   -2.60   11.10
   6  -7 -13   34.40   12.60
   5  -7 -13    6.70   10.20
   4  -7 -13    2.30    9.10
   3  -7 -13  326.17   23.60
   2  -7 -13  413.76   26.60
   2  -7 -13  369.06   19.80
  -2   7  13  437.56   20.00
   1  -7 -13   14.20    2.20
   1  -7 -13    5.80    7.20
  -1   7  13   16.40    2.40
   0  -7 -13   71.29    5.10
   0  -7 -13   95.29   11.50
   0   7  13   73.09    9.30
   0   7  13   88.39    5.40
  -1  -7 -13  421.06   24.50
  -1  -7 -13  388.66   20.10
   1   7  13  420.56   20.20
   1   7  13  384.86   24.10
  -2  -7 -13  292.07   17.40
  -2  -7 -13  236.78   13.60
   2   7  13  275.67   13.90
   2   7  13  264.97   15.90
  -3  -7 -13   27.90    6.00
  -3  -7 -13   16.70    3.00
   3   7  13   19.60    2.40
   3   7  13   19.90    4.70
   3   7  13   21.30    3.60
  -4  -7 -13    4.30    3.80
  -4  -7 -13   11.40    4.40
   4   7  13    6.80    3.30
   5   7  13  688.93   34.30
   6   7  13   56.79    6.00
   7   7  13   37.00    5.20
   8   7  13   35.00    5.50
   9   7  13   90.49    8.30
  10   7  13   -6.70    4.40
  11   7  13    5.00    5.10
   8  -8 -13    4.20   12.40
   7  -8 -13   48.60   14.80
   6  -8 -13    4.80   10.30
   5  -8 -13   10.70   10.40
   4  -8 -13   41.70   11.10
   3  -8 -13   50.89   11.60
   2  -8 -13    3.10    7.90
   2  -8 -13    2.60    2.00
  -2   8  13    2.70    2.20
   1  -8 -13    7.20    2.30
   1  -8 -13    6.90    7.50
  -1   8  13    4.90    2.40
   0  -8 -13  235.48   17.10
   0  -8 -13  204.28   11.20
   0   8  13  234.48   11.40
   0   8  13  164.68   14.60
  -1  -8 -13  386.46   23.40
  -1  -8 -13  352.46   20.00
   1   8  13  341.07   21.50
   1   8  13  398.56   18.90
  -2  -8 -13   -4.40    2.30
  -2  -8 -13    3.00    5.50
   2   8  13   -1.10    4.30
   2   8  13   -1.50    3.00
  -3  -8 -13   19.70    6.10
   3   8  13   23.40    4.80
   3   8  13   17.70    3.90
  -4  -8 -13  224.28   14.20
   4   8  13  242.18   13.30
   5   8  13  208.48   12.10
   6   8  13   82.79    7.30
   7   8  13   17.80    4.70
   8   8  13   36.40    5.50
   9   8  13    0.90    4.90
  10   8  13   17.10    6.50
  11   8  13    1.20    5.20
   8  -9 -13   21.90   14.10
   6  -9 -13   -1.60   11.30
   5  -9 -13  -10.50    8.90
   4  -9 -13   -6.40    8.80
  -4   9  13    4.00    2.40
  -4   9  13   -0.90    2.30
   3  -9 -13   19.60    9.80
   3  -9 -13   16.00    2.40
  -3   9  13   17.20    2.90
   2  -9 -13   38.40   10.30
   2  -9 -13   37.60    3.70
  -2   9  13   42.10    3.80
   1  -9 -13  113.89    7.70
   1  -9 -13  146.99   15.50
  -1   9  13  142.49    7.90
   0  -9 -13  145.59   10.20
   0  -9 -13  200.58   16.50
   0   9  13  200.18   10.10
  -1  -9 -13   39.90    4.20
  -1  -9 -13   48.40    9.40
   1   9  13   51.49    4.60
   1   9  13   46.50    7.60
  -2  -9 -13   85.09   10.00
   2   9  13   88.99    9.00
   2   9  13   72.19    6.40
  -3  -9 -13  282.97   17.30
   3   9  13  251.37   15.60
  -4  -9 -13   46.50    6.50
   4   9  13   50.09    5.20
   4   9  13   48.00    5.20
   5   9  13   44.50    5.30
   6   9  13   10.90    4.20
   7   9  13   29.60    5.10
   8   9  13   -0.40    4.50
   9   9  13   44.80    6.50
  10   9  13   -9.40    4.70
   7 -10 -13    3.90   12.90
   6 -10 -13   -6.10   11.00
  -6  10  13   -1.00    3.60
  -6  10  13    8.70    2.70
   5 -10 -13   11.10   11.30
  -5  10  13    2.50    2.80
  -5  10  13   -2.30    2.70
   4 -10 -13   16.90   11.20
  -4  10  13    7.70    3.40
  -4  10  13    5.60    3.30
   3 -10 -13   14.00    2.90
   3 -10 -13   12.20   10.00
  -3  10  13   19.40    3.40
   2 -10 -13   79.09   13.30
   2 -10 -13   67.19    5.70
  -2  10  13   77.19    5.90
   1 -10 -13  125.49   15.40
   1 -10 -13  122.09    8.00
  -1  10  13  132.79    8.10
   0 -10 -13  137.39   14.60
   0 -10 -13  110.19    7.90
   0  10  13  136.59    8.20
  -1 -10 -13  145.19   14.10
   1  10  13  160.78    8.90
   1  10  13  105.89   11.60
  -2 -10 -13  172.88   14.50
   2  10  13  153.08   12.40
  -3 -10 -13  110.79   11.30
   3  10  13   96.19    9.50
   3  10  13  140.59    8.30
  -4 -10 -13  222.88   14.40
   4  10  13  198.48   12.70
   4  10  13  240.98   12.70
   5  10  13   21.80    4.60
   6  10  13    4.90    4.20
   7  10  13   -3.80    4.20
   8  10  13   47.60    6.50
  10  10  13   53.19    7.50
   6 -11 -13   30.60   27.10
  -6  11  13   32.90    4.40
  -6  11  13   26.00    4.00
   5 -11 -13   -4.70   11.70
  -5  11  13   -0.90    3.60
  -5  11  13   -6.10    3.30
   4 -11 -13   11.20   10.70
  -4  11  13   27.90    4.10
   3 -11 -13   18.40    3.50
   3 -11 -13   24.60   12.00
  -3  11  13   15.90    3.80
   2 -11 -13   23.30    3.80
   2 -11 -13   13.40   10.20
  -2  11  13   24.60    4.00
   1 -11 -13    2.00    8.60
  -1  11  13   -0.90    3.40
   0 -11 -13  159.58   17.50
   0  11  13  182.68   10.50
  -1 -11 -13  179.68   17.10
   1  11  13  209.58   11.70
  -2 -11 -13   33.00    8.30
   2  11  13   30.10    6.80
   2  11  13   27.50    4.50
  -3 -11 -13  100.79   11.60
   3  11  13   83.99    9.50
   3  11  13  129.99    8.30
  -4 -11 -13   59.79    8.00
   4  11  13   46.00    6.00
   4  11  13   60.49    5.90
   5  11  13   53.49    6.10
   6  11  13   10.00    4.50
   7  11  13   38.20    6.00
   8  11  13   27.50    5.90
   9  11  13    1.60    5.10
   6 -12 -13   -6.40   12.80
  -6  12  13  -10.60    3.80
   5 -12 -13   17.70   13.50
  -5  12  13    8.70    4.20
  -5  12  13   10.40    5.10
   4 -12 -13   10.60   11.60
  -4  12  13    5.50    4.10
   3 -12 -13    9.60   10.90
  -3  12  13   -1.30    3.90
   2 -12 -13   14.80   10.90
  -2  12  13   24.10    4.80
   1 -12 -13   34.90   11.30
  -1  12  13   55.09    5.50
   0 -12 -13   38.20   11.10
   0  12  13   38.90    5.20
  -1 -12 -13   13.90   10.80
   1  12  13   22.20    4.50
  -2 -12 -13   64.99   11.00
   2  12  13   52.79    8.90
   2  12  13   81.19    6.70
  -3 -12 -13   67.79   10.50
   3  12  13   52.69   10.00
   3  12  13   83.79    7.00
  -4 -12 -13   43.70    8.20
   4  12  13   30.00    5.60
   4  12  13   41.20    5.60
  -5 -12 -13   42.70    9.30
   5  12  13   51.19    5.90
   6  12  13   32.40    5.40
   7  12  13    7.70    5.00
   8  12  13    6.20    5.30
   4 -13 -13   -2.50   11.90
  -4  13  13   -7.00    4.60
   3 -13 -13   23.00   13.10
  -3  13  13   10.20    4.60
   2 -13 -13   64.79   15.00
  -2  13  13   60.69    6.10
   1 -13 -13   11.30   10.00
  -1  13  13    8.30    4.30
   0 -13 -13    2.20    9.50
   0  13  13   -2.30    4.20
  -1 -13 -13   52.39   11.10
   1  13  13   55.39    6.10
  -2 -13 -13   98.19   13.80
   2  13  13  121.39    8.90
  -3 -13 -13   -2.90    7.00
   3  13  13   11.10    4.90
   3  13  13   13.80    6.20
  -4 -13 -13   -0.90    6.20
   4  13  13    3.20    4.90
   4  13  13    3.40    4.40
  -5 -13 -13   10.30    5.90
   5  13  13   32.80    5.60
   5  13  13   12.70    4.80
   6  13  13   28.80    6.30
   7  13  13   17.80    5.50
   3 -14 -13   46.20   15.10
  -3  14  13   63.39    6.50
   2 -14 -13   -2.50   10.70
  -2  14  13    0.50    4.60
   1 -14 -13   17.60   12.00
  -1  14  13    2.80    4.80
   0 -14 -13   73.99   14.90
   0  14  13   61.99    6.60
  -1 -14 -13   71.49   13.50
   1  14  13   78.39    7.30
  -2 -14 -13    5.20    8.50
   2  14  13   20.10    5.20
  -3 -14 -13    0.70    7.90
   3  14  13   12.30    4.80
  -4 -14 -13   45.50    9.50
   4  14  13   37.80   12.40
   4  14  13   52.19    6.40
  -5 -14 -13   27.90    6.90
   5  14  13   21.60    5.30
   2   7 -14   12.30    4.40
   2   7 -14    4.80   10.00
   1   7 -14   20.50    4.50
   1   7 -14   27.10   11.60
   1   7 -14   23.30    6.10
   0   7 -14    6.40    4.00
   0   7 -14    1.20    4.60
   0   7 -14    2.30    9.40
  -1   7 -14    7.50   10.70
  -1   7 -14    6.30    5.10
  -1   7 -14    4.70    4.20
  -2   7 -14   30.40    5.20
   2  -7  14   15.20   14.40
  -3   7 -14   13.30    5.00
   3  -7  14    4.60   14.80
  -4   7 -14    6.30    4.80
   4  -7  14   28.60   16.00
  -5   7 -14   -0.10    6.60
   5  -7  14    5.60   15.10
  -6   7 -14    2.00    5.20
   6  -7  14   14.00   16.50
   3   6 -14    3.30    3.80
   3   6 -14   -5.80    9.30
   2   6 -14   42.50    5.40
   2   6 -14   33.30   11.80
   1   6 -14  -14.30   13.90
   1   6 -14    0.50    3.60
   0   6 -14    2.00    9.10
   0   6 -14    2.20    3.70
   0   6 -14    5.50    4.70
  -1   6 -14   54.49    6.70
  -1   6 -14   45.70   11.40
  -1   6 -14   45.50    5.60
  -2   6 -14   81.79    7.10
   2  -6  14   56.69   16.60
  -3   6 -14    4.20    4.10
   3  -6  14    3.60   13.60
  -4   6 -14    2.60    4.10
   4  -6  14   -3.40   12.40
  -5   6 -14   10.10    4.80
   5  -6  14   15.80   14.60
  -6   6 -14   16.60    5.40
   6  -6  14   32.40   16.20
  -7   6 -14    7.00    5.20
   7  -6  14    2.10   15.10
   5   5 -14   20.80   11.70
   4   5 -14    4.90    3.70
   4   5 -14    3.50    9.50
   3   5 -14   16.10    3.80
   2   5 -14   10.20    3.60
   2   5 -14    9.50    9.80
   1   5 -14    6.60    7.80
   1   5 -14    5.70    3.60
   0   5 -14   21.30    5.10
   0   5 -14   34.60   11.00
   0   5 -14   25.10    4.20
  -1   5 -14  109.99   15.40
  -1   5 -14  140.09   10.00
  -1   5 -14  135.99    9.00
  -2   5 -14    9.20    3.90
  -3   5 -14   11.40    4.00
   3  -5  14    3.90   11.60
  -4   5 -14   88.59    7.90
   4  -5  14   83.49   17.70
  -5   5 -14   15.70    4.70
   5  -5  14   22.40   13.40
  -6   5 -14  -10.30    4.10
   6  -5  14   -8.50   12.30
  -7   5 -14   -5.50    4.70
   7  -5  14  -14.90   13.60
  -8   5 -14    1.80    5.60
   8  -5  14    0.90   14.00
   6   4 -14   -8.90   10.50
   6   4 -14   -2.90    3.20
   5   4 -14   14.30   10.90
   4   4 -14    3.40    3.30
   4   4 -14  -11.50    8.70
   3   4 -14   13.70    3.60
   3   4 -14   18.40    9.70
   2   4 -14    6.30    5.30
   2   4 -14   -2.00    7.80
   1   4 -14   12.70    3.40
   1   4 -14   -3.60    8.60
   0   4 -14   64.19    5.40
   0   4 -14   51.39   11.00
   0   4 -14   53.09    6.10
  -1   4 -14    7.40    7.40
  -1   4 -14   18.40    4.30
  -1   4 -14    8.90    3.40
  -2   4 -14   60.99    5.70
  -2   4 -14   55.29    6.10
  -2   4 -14   60.59   11.40
  -3   4 -14  183.88   11.30
   3  -4  14  194.88   21.40
  -4   4 -14   53.19    5.60
   4  -4  14   35.40   12.90
  -5   4 -14   -3.40    3.70
   5  -4  14   11.30   11.30
  -6   4 -14    3.20    4.10
   6  -4  14    2.80   11.90
  -7   4 -14    2.80    4.40
   7  -4  14  -15.20   12.40
  -8   4 -14   -7.00    4.50
   8  -4  14    5.40   13.60
  -9   4 -14    3.90    5.20
   9  -4  14    0.60   13.50
   6   3 -14    2.50   10.30
   5   3 -14    5.20    2.90
   5   3 -14   -8.90    9.70
   4   3 -14   -3.30    8.30
   4   3 -14   -0.80    3.20
   4   3 -14    2.30    2.70
   3   3 -14    3.50    3.20
   3   3 -14    1.40    2.80
   3   3 -14   -9.80    8.00
   2   3 -14    9.50    3.30
   2   3 -14    9.30    2.90
   2   3 -14    3.70    8.60
   1   3 -14   35.90    9.70
   1   3 -14   41.80    4.40
   0   3 -14    3.90    2.80
   0   3 -14    9.00    7.90
  -1   3 -14  140.79    9.60
  -1   3 -14  150.88   15.20
  -1   3 -14  131.09    9.40
  -2   3 -14   70.39    6.90
  -2   3 -14   86.39    6.60
  -2   3 -14   76.69   12.00
  -3   3 -14  184.78   11.00
   3  -3  14  194.48   20.20
  -4   3 -14    4.70    3.40
   4  -3  14  -10.60    9.00
  -5   3 -14    9.90    3.90
   5  -3  14    8.90   10.90
  -6   3 -14   10.70    4.30
   6  -3  14    9.00   11.30
  -7   3 -14   -2.40    4.30
   7  -3  14   16.70   13.20
  -8   3 -14    3.90    5.00
   8  -3  14    4.70   12.10
  -9   3 -14   -6.40    6.00
   9  -3  14   -4.60   13.30
 -10   3 -14    6.70    6.00
  10  -3  14    7.50   13.50
   7   2 -14    9.00   11.40
   7   2 -14    8.80    2.30
   6   2 -14   70.49    5.00
   6   2 -14   72.99   23.30
   5   2 -14   17.60   10.20
   5   2 -14   12.00    2.60
   5   2 -14    9.10    3.10
   4   2 -14    7.40    3.00
   4   2 -14    8.80    8.90
   4   2 -14   16.80    2.80
   3   2 -14   18.30    3.30
   3   2 -14   15.90    9.20
   3   2 -14   24.60    3.10
   2   2 -14   35.30    3.50
   2   2 -14   25.40    4.00
   2   2 -14   29.40    9.50
   1   2 -14    4.50    2.80
   1   2 -14    0.60    2.60
   1   2 -14    1.50    7.00
   0   2 -14  143.99    8.10
   0   2 -14  131.89   14.20
   0   2 -14  116.89    8.20
  -1   2 -14  131.69    8.20
  -1   2 -14  135.09   14.00
  -2   2 -14  116.89   12.80
  -2   2 -14  113.69    8.10
  -2   2 -14  116.79    7.70
  -3   2 -14   38.90    8.50
  -3   2 -14   39.80    4.40
  -3   2 -14   44.00    4.90
  -4   2 -14   53.79    5.20
   4  -2  14   51.39   12.60
  -5   2 -14   36.50    4.70
   5  -2  14   30.00   10.90
  -6   2 -14   -2.10    3.70
   6  -2  14    9.00   10.40
  -7   2 -14   12.50    4.40
   7  -2  14   16.30   10.90
   8  -2  14   24.60   12.80
   9  -2  14   17.50    6.00
   9  -2  14   13.30   12.60
  10  -2  14   -1.50   11.40
  10  -2  14    0.00    5.80
   7   1 -14   12.40   11.40
   6   1 -14    7.50   10.10
   5   1 -14    9.10    9.70
   5   1 -14   -0.60    2.30
   4   1 -14   47.20   11.30
   4   1 -14   32.40    3.30
   4   1 -14   43.00    3.60
   3   1 -14   48.10   10.70
   3   1 -14   39.90    3.60
   3   1 -14   44.20    3.90
   2   1 -14    9.20    2.60
   2   1 -14    8.80    8.00
   2   1 -14    8.90    2.30
   1   1 -14   66.89    5.00
   1   1 -14   63.39   11.20
   1   1 -14   62.19    5.10
   0   1 -14   86.89    6.00
   0   1 -14   85.39   12.00
  -1   1 -14   22.20    3.10
  -1   1 -14   10.30    6.70
  -1   1 -14   16.40    3.20
  -2   1 -14   17.80    3.70
  -2   1 -14   23.80    7.80
  -2   1 -14   22.00    3.50
  -2   1 -14   24.20    3.80
  -3   1 -14  123.89    7.90
  -3   1 -14  123.19   12.40
  -3   1 -14  115.29    7.70
  -4   1 -14  119.79   12.40
  -4   1 -14  133.89    8.40
  -4   1 -14  131.09    8.30
  -5   1 -14   24.20    4.20
   5  -1  14   15.60    9.80
   6  -1  14    5.00    4.20
   6  -1  14    1.60    9.40
   7  -1  14   34.70   11.60
   7  -1  14   27.10    5.60
   8  -1  14   12.60    5.30
   8  -1  14   -0.80    9.80
   9  -1  14    1.90   10.80
   9  -1  14    3.50    5.40
  10  -1  14   23.90   12.50
  10  -1  14   12.30    7.40
  11  -1  14   -3.90   11.20
  11  -1  14   -6.20    6.10
   8   0 -14   11.80   12.00
   7   0 -14   -0.40   16.30
   6   0 -14   -6.30    9.20
   5   0 -14    1.00    8.90
   4   0 -14   40.10   10.60
   3   0 -14   52.59   10.60
   3   0 -14   35.80    3.10
   2   0 -14   50.59   10.70
   2   0 -14   59.49    4.20
   2   0 -14   57.89    4.40
   1   0 -14   52.29    4.40
   1   0 -14   59.49    4.40
   1   0 -14   48.70   10.30
   0   0 -14    9.40    2.50
   0   0 -14    7.20    2.50
   0   0 -14    4.10    7.10
  -1   0 -14   91.39   11.40
  -1   0 -14   69.69    5.40
  -1   0 -14   77.59    8.10
  -2   0 -14  435.36   20.70
  -2   0 -14  377.36   20.60
  -2   0 -14  421.56   25.50
  -3   0 -14  126.59    7.90
  -3   0 -14  122.39    8.60
  -3   0 -14  142.19   15.40
  -4   0 -14   54.79    8.70
  -4   0 -14   59.69    5.40
   4   0  14   54.69    9.00
  -5   0 -14   20.30    3.50
  -5   0 -14   21.40    6.90
   5   0  14    7.70    4.20
   6   0  14   40.10   10.90
   6   0  14   47.40    5.80
   7   0  14   18.50    9.30
   7   0  14   16.50    4.70
   8   0  14    3.30    8.30
   8   0  14    0.40    4.60
   9   0  14   12.40    9.70
   9   0  14   10.50    5.20
  10   0  14    4.10    5.60
  10   0  14    5.60   10.40
  11   0  14   -8.60    5.40
  11   0  14    4.50   16.50
   8  -1 -14   20.50   11.90
   7  -1 -14   18.90   12.00
   6  -1 -14    2.00    9.40
   5  -1 -14   21.20    9.80
   4  -1 -14   23.50   10.20
   3  -1 -14   55.99   10.80
   2  -1 -14    8.10    7.30
   2  -1 -14    1.30    2.30
   2  -1 -14    8.40    2.60
   1  -1 -14    3.10    7.40
   1  -1 -14    1.80    1.80
   1  -1 -14    1.70    1.80
   0  -1 -14   55.29    4.20
   0  -1 -14   67.99   10.10
   0  -1 -14   49.40    4.00
  -1  -1 -14  622.04   29.80
  -1  -1 -14  596.84   29.80
  -2  -1 -14  225.08   15.80
  -2  -1 -14  196.98   11.20
  -2  -1 -14  213.48   11.20
  -3  -1 -14   13.50    2.70
  -3  -1 -14    2.50    5.70
   3   1  14   12.00    3.40
  -4  -1 -14   45.40    8.30
  -4  -1 -14   28.70    8.40
   4   1  14   42.60    4.90
  -5  -1 -14   39.20    4.20
  -5  -1 -14   36.90    9.20
  -5  -1 -14   41.40    7.40
   5   1  14   40.50    5.10
  -6  -1 -14    8.70    3.00
  -6  -1 -14    2.30    5.50
  -6  -1 -14    6.20    6.80
   6   1  14    8.90    4.00
  -7  -1 -14   10.10    7.20
   7   1  14   -0.30    4.10
  -8  -1 -14   42.00    9.10
   8   1  14   51.19   10.50
   8   1  14   47.80    6.50
  -9  -1 -14    7.50    7.10
   9   1  14   -6.90    4.70
   9   1  14    4.00    8.40
 -10  -1 -14   10.10    7.40
  10   1  14    2.20    5.50
  10   1  14    5.20    8.80
 -11  -1 -14   19.10    7.60
  11   1  14   -6.50    5.40
  11   1  14   -7.60    8.30
   8  -2 -14   12.80   11.80
   7  -2 -14   20.30   11.70
   6  -2 -14   -4.90    9.00
   5  -2 -14   -0.40    8.70
   4  -2 -14   69.39   12.20
   3  -2 -14   37.50    9.80
   2  -2 -14   15.40    8.10
   1  -2 -14   15.30    7.40
   1  -2 -14    9.80    1.90
   1  -2 -14   11.60    1.80
   0  -2 -14  407.46   19.70
   0  -2 -14  391.76   19.60
   0  -2 -14  398.26   27.30
  -1  -2 -14  132.49   12.80
  -1  -2 -14  145.09    7.80
  -2  -2 -14   11.60    6.10
  -2  -2 -14   14.20    2.70
  -2  -2 -14    6.90    6.40
   2   2  14   13.40    3.30
  -3  -2 -14  216.78   17.10
  -3  -2 -14  217.18   11.90
  -3  -2 -14  245.18   16.10
   3   2  14  220.68   12.40
  -4  -2 -14  216.78   15.30
  -4  -2 -14  195.28   16.50
   4   2  14  220.78   12.20
  -5  -2 -14   -1.40    5.40
   5   2  14   -4.70    3.60
  -6  -2 -14   26.10    7.40
  -6  -2 -14   18.30    6.20
   6   2  14   16.40    4.30
  -7  -2 -14   16.80    2.90
  -7  -2 -14   20.70    7.00
  -7  -2 -14   14.00    5.50
   7   2  14   19.00    4.60
  -8  -2 -14   48.90    8.80
   8   2  14   80.89    7.40
  -9  -2 -14   20.40    6.90
   9   2  14   19.60    5.60
 -10  -2 -14    5.60    6.00
  10   2  14    3.10    5.30
 -11  -2 -14   23.50    6.80
  11   2  14   23.50    7.30
   8  -3 -14   21.60   12.30
   7  -3 -14   13.80   11.60
   6  -3 -14    3.90    9.80
   5  -3 -14   18.80   10.20
   4  -3 -14   17.70    9.20
   3  -3 -14    6.80    7.70
   2  -3 -14   12.00    7.80
   1  -3 -14  284.17   13.90
   1  -3 -14  276.97   14.30
   1  -3 -14  294.67   20.10
   0  -3 -14   45.80    8.60
   0  -3 -14   33.20    3.10
   0  -3 -14   38.90    3.00
  -1  -3 -14   83.89   10.30
  -1  -3 -14   67.29   12.40
  -1  -3 -14   58.99    4.40
   1   3  14   65.09    5.00
  -2  -3 -14  440.86   24.90
  -2  -3 -14  413.26   20.80
  -2  -3 -14  390.86   26.00
   2   3  14  426.16   21.10
  -3  -3 -14  396.06   20.20
  -3  -3 -14  380.06   24.90
  -3  -3 -14  424.36   23.80
   3   3  14  411.96   20.60
  -4  -3 -14   16.00    6.30
  -4  -3 -14   21.80    6.40
   4   3  14   27.50    4.10
  -5  -3 -14   71.99   10.10
  -5  -3 -14   83.29    9.40
  -6  -3 -14    4.90    5.10
  -6  -3 -14    6.90    5.70
   6   3  14   -1.30    3.50
  -7  -3 -14   56.49    7.20
  -7  -3 -14   28.90    6.90
   7   3  14   37.50    5.30
  -8  -3 -14   13.10    5.30
  -8  -3 -14   15.20    5.60
   8   3  14    7.20    4.50
  -9  -3 -14   10.00    5.00
  -9  -3 -14   -2.00    5.00
   9   3  14    4.90    4.80
 -10  -3 -14   18.30    5.50
 -10  -3 -14   29.70    5.30
  10   3  14   21.30    5.80
 -11  -3 -14   14.50    5.70
  11   3  14    5.30    7.60
  12   3  14    1.80    5.90
   8  -4 -14    3.40   11.60
   7  -4 -14    1.70   10.40
   6  -4 -14   31.30   11.60
   5  -4 -14    5.10    9.20
   4  -4 -14    1.10    7.90
   3  -4 -14   26.10    9.00
   2  -4 -14   95.99   12.90
   1  -4 -14   29.60    2.40
   1  -4 -14   33.00    8.50
   1  -4 -14   29.20    2.20
   0  -4 -14  139.89   13.00
   0  -4 -14  123.89    6.90
   0   4  14  129.39    7.20
  -1  -4 -14  406.66   20.70
  -1  -4 -14  409.86   25.90
  -1  -4 -14  441.46   25.40
   1   4  14  427.16   20.90
  -2  -4 -14  432.96   26.80
  -2  -4 -14  426.56   22.00
  -2  -4 -14  468.05   26.20
   2   4  14  460.65   22.40
  -3  -4 -14   28.20    3.30
  -3  -4 -14   33.90    7.80
  -3  -4 -14   38.70    7.20
   3   4  14   33.20    4.00
  -4  -4 -14  115.29   11.40
  -4  -4 -14  130.59   10.80
   4   4  14  127.29    8.20
  -5  -4 -14    5.90    5.00
  -5  -4 -14    5.40    5.30
  -6  -4 -14    0.00    4.40
  -6  -4 -14    3.50    4.90
   6   4  14   -4.50    3.40
  -7  -4 -14   48.60    6.60
  -7  -4 -14   49.50    6.20
   7   4  14   44.50    5.80
  -8  -4 -14    3.20    4.00
   8   4  14    5.10    4.60
   9   4  14    1.70    4.70
  10   4  14   33.70    6.30
  11   4  14   13.20    6.60
   8  -5 -14   13.70   11.70
   7  -5 -14    7.00   10.60
   6  -5 -14   46.10   12.20
   5  -5 -14    3.80    9.00
   4  -5 -14   -6.40    7.70
   3  -5 -14   39.30   10.30
   2  -5 -14   25.40    8.70
   1  -5 -14   81.69    5.00
   1  -5 -14   97.09   15.30
   0  -5 -14  316.87   20.40
   0  -5 -14  293.17   14.90
   0   5  14  300.57   15.10
  -1  -5 -14  560.94   28.80
  -1  -5 -14  634.74   33.50
   1   5  14  599.44   32.30
   1   5  14  617.04   29.10
   1   5  14  567.34   29.20
  -2  -5 -14    8.60    5.90
  -2  -5 -14    1.60    2.00
   2   5  14    2.70    2.50
  -3  -5 -14  447.56   24.50
  -3  -5 -14  415.46   21.20
  -3  -5 -14  385.36   24.70
   3   5  14  442.36   21.50
  -4  -5 -14   64.19    8.00
  -4  -5 -14   67.59    8.90
   4   5  14   64.89    5.80
  -5  -5 -14   13.60    5.00
  -5  -5 -14    4.30    4.80
   5   5  14    7.10    4.20
  -6  -5 -14   56.49    7.70
   6   5  14   52.09    5.60
   7   5  14   39.00    5.30
   8   5  14   -4.90    4.00
   9   5  14   13.60    5.10
  10   5  14   34.30    6.00
  11   5  14   13.10    5.80
   8  -6 -14   -1.50   11.30
   7  -6 -14   -0.80   10.20
   6  -6 -14  -17.20    8.60
   5  -6 -14   14.30    9.80
   4  -6 -14   49.50   11.70
   3  -6 -14   13.10    8.50
   2  -6 -14   30.40    8.90
   1  -6 -14   97.09   18.20
   1  -6 -14   73.49    4.60
  -1   6  14   80.69    6.20
   0  -6 -14   69.79    4.80
   0  -6 -14  109.89   12.10
   0   6  14   76.69    5.10
  -1  -6 -14   32.50    7.70
  -1  -6 -14   17.20    2.60
   1   6  14   28.60    3.20
   1   6  14   14.80    5.60
  -2  -6 -14  291.37   18.50
   2   6  14  305.07   14.90
   2   6  14  269.47   14.60
   2   6  14  277.37   17.40
  -3  -6 -14  218.28   12.60
  -3  -6 -14  233.48   16.00
  -3  -6 -14  255.27   15.90
   3   6  14  257.57   13.00
  -4  -6 -14   62.79    8.00
  -4  -6 -14   61.29    7.60
   4   6  14   58.99    5.50
  -5  -6 -14   -1.50    3.70
  -5  -6 -14    4.30    3.90
   5   6  14    3.10    3.60
   6   6  14   78.99    7.00
   7   6  14   56.09    6.00
   8   6  14   -4.10    3.90
   9   6  14   17.30    5.40
  10   6  14   34.10    6.30
  11   6  14    0.30    5.10
   8  -7 -14   -2.00   13.10
   7  -7 -14   -2.10   14.30
   6  -7 -14   16.90   10.70
   5  -7 -14   21.10   10.70
   4  -7 -14   16.70   10.40
   3  -7 -14   36.30   10.60
   2  -7 -14  163.28   15.60
   2  -7 -14  137.39    7.20
   1  -7 -14   12.20    7.70
   1  -7 -14    4.50    1.90
  -1   7  14    2.40    2.10
   0  -7 -14   52.99    9.60
   0  -7 -14   35.50    3.30
   0   7  14   39.10    3.70
  -1  -7 -14  410.66   23.90
  -1  -7 -14  359.56   19.10
   1   7  14  417.26   19.40
   1   7  14  342.47   22.10
  -2  -7 -14  202.48   14.30
  -2  -7 -14  164.88    9.80
   2   7  14  169.48   12.50
   2   7  14  186.98   10.20
  -3  -7 -14   82.99    6.90
  -3  -7 -14  102.59   10.20
   3   7  14  106.69    7.00
  -4  -7 -14    5.50    4.40
  -4  -7 -14   10.20    4.60
   4   7  14    6.10    3.60
  -5  -7 -14  113.09    9.60
  -5  -7 -14  151.08    9.10
   5   7  14  150.38    9.20
   6   7  14    4.00    4.00
   7   7  14   22.20    4.70
   8   7  14   26.60    5.20
   9   7  14   39.20    5.90
  10   7  14  -10.10    4.70
  11   7  14   -0.80    4.90
   8  -8 -14    8.80   13.10
   7  -8 -14   25.10   15.20
   6  -8 -14    7.50   11.30
   5  -8 -14   22.60   12.20
   4  -8 -14   27.60   10.80
   3  -8 -14   18.60    9.40
   2  -8 -14   16.20    2.20
   2  -8 -14   18.20    8.90
  -2   8  14   16.40    2.60
   1  -8 -14   13.40    7.90
   1  -8 -14    4.70    2.20
  -1   8  14   10.00    2.60
   0  -8 -14  278.77   20.20
   0  -8 -14  257.97   14.40
   0   8  14  307.97   14.60
  -1  -8 -14  322.17   18.20
  -1  -8 -14  362.66   22.50
   1   8  14  380.26   17.80
   1   8  14  319.87   20.60
  -2  -8 -14   -3.80    2.50
  -2  -8 -14   23.70    6.80
   2   8  14    5.50    3.00
   2   8  14    3.20    4.90
  -3  -8 -14   15.10    6.00
   3   8  14   12.20    3.40
   3   8  14   13.30    4.60
   3   8  14   11.70    2.40
  -4  -8 -14   93.99    8.70
  -4  -8 -14   92.09    8.80
   4   8  14  110.09    7.50
   5   8  14   11.50    4.00
   6   8  14   24.80    4.80
   7   8  14   76.79    7.10
   8   8  14   66.39    7.00
   9   8  14   -1.30    5.10
  10   8  14   17.30    6.60
   7  -9 -14    8.90   13.40
   6  -9 -14  -14.80    9.90
   5  -9 -14   13.50   11.70
   4  -9 -14    8.50   10.50
   3  -9 -14   26.80   10.40
  -3   9  14   29.50    2.90
   2  -9 -14    0.40    8.40
   2  -9 -14    3.60    2.20
  -2   9  14    5.50    2.50
   1  -9 -14  164.78   16.10
   1  -9 -14  133.19    8.50
  -1   9  14  158.28    8.60
   0  -9 -14  217.08   17.80
   0   9  14  214.28   11.70
  -1  -9 -14    7.10    2.80
  -1  -9 -14   17.90    7.90
   1   9  14   10.10    3.20
   1   9  14   10.20    5.60
  -2  -9 -14  105.79   11.90
   2   9  14  112.79    7.60
  -3  -9 -14  334.57   19.90
   3   9  14  306.17   18.20
   3   9  14  325.17   17.80
  -4  -9 -14   14.00    5.40
   4   9  14   21.30    4.40
   5   9  14   26.10    4.70
   6   9  14   33.60    5.10
   7   9  14   -4.60    4.20
   8   9  14   11.40    4.70
   9   9  14   20.50    5.50
  10   9  14    7.50    5.40
   7 -10 -14  -14.70   11.70
   5 -10 -14    6.90   11.90
   4 -10 -14  -12.90    9.60
  -4  10  14    3.50    2.70
  -4  10  14   -1.30    2.50
   3 -10 -14    1.00    2.40
   3 -10 -14   -8.90    8.90
  -3  10  14   -2.50    2.90
   2 -10 -14   21.50    3.30
   2 -10 -14   33.90   11.60
  -2  10  14   37.20    3.80
   1 -10 -14  165.18   16.60
   1 -10 -14  115.49    8.30
  -1  10  14  146.69    8.50
   0 -10 -14   75.59    6.50
   0 -10 -14   71.59   14.80
   0  10  14   99.29    6.60
  -1 -10 -14   75.09   11.30
   1  10  14   88.49    6.70
   1  10  14   68.89   15.40
  -2 -10 -14  248.98   16.90
   2  10  14  160.38   13.90
   2  10  14  226.88   12.80
  -3 -10 -14  174.18   13.60
   3  10  14  158.58    9.80
   3  10  14  136.09   11.20
  -4 -10 -14   86.19    9.00
   4  10  14   88.19    7.20
   4  10  14   64.89    7.00
   5  10  14   11.20    4.40
   6  10  14   -1.50    4.20
   7  10  14   -6.20    4.00
   8  10  14    7.80    4.70
   9  10  14    3.00    5.60
   6 -11 -14   29.00   14.00
  -6  11  14   31.80    3.50
  -6  11  14   22.50    4.30
   5 -11 -14    1.20   12.20
  -5  11  14   -2.50    3.00
  -5  11  14    2.00    3.20
   4 -11 -14    4.40   11.00
  -4  11  14    5.00    3.70
  -4  11  14    2.40    3.20
   3 -11 -14    8.00   10.10
  -3  11  14    5.30    3.40
   2 -11 -14   13.30    3.40
   2 -11 -14   24.00   10.70
  -2  11  14   14.00    3.80
   1 -11 -14   22.90    4.40
   1 -11 -14   16.20    9.70
  -1  11  14   31.40    4.20
   0 -11 -14  139.29   16.20
   0  11  14  140.49    9.00
   1  11  14  267.87   14.60
  -2 -11 -14   67.39   10.50
   2  11  14   39.80    7.80
   2  11  14   78.89    6.20
  -3 -11 -14   50.19    8.60
   3  11  14   64.29    5.90
   3  11  14   42.20    7.10
  -4 -11 -14   21.40    6.30
   4  11  14   18.30    4.70
   4  11  14   19.40    4.60
   5  11  14   35.70    5.50
   6  11  14   -0.20    4.40
   7  11  14   21.20    5.50
   9  11  14    4.60    5.10
   5 -12 -14   17.30   16.80
  -5  12  14    2.20    3.60
   4 -12 -14    5.10   11.60
  -4  12  14    7.40    4.00
   3 -12 -14   10.20    4.50
   3 -12 -14    7.80   11.10
  -3  12  14   -2.70    3.90
   2 -12 -14   21.50   11.40
  -2  12  14   39.60    4.90
   1 -12 -14   42.90   12.20
   0 -12 -14   58.79   12.40
   0  12  14   76.39    6.40
  -1 -12 -14   65.29   13.50
   1  12  14   50.29    5.60
  -2 -12 -14   65.29   11.00
   2  12  14   42.00    9.70
   2  12  14   83.09    6.70
  -3 -12 -14   25.80    8.10
   3  12  14   51.39    5.60
  -4 -12 -14   27.70    7.20
   4  12  14   21.90    5.20
   4  12  14   33.90    5.20
   5  12  14    6.00    4.50
   6  12  14   75.99    7.50
   7  12  14    4.60    5.90
   8  12  14    7.10    5.10
   4 -13 -14   -1.20   14.50
  -4  13  14   10.20    4.60
   3 -13 -14    2.60   12.20
  -3  13  14    7.90    4.60
   2 -13 -14   17.50   12.00
  -2  13  14   23.20    4.90
   1 -13 -14    1.50    9.50
  -1  13  14    7.50    4.50
   0 -13 -14    9.40    9.70
   0  13  14    4.20    4.20
  -1 -13 -14   63.39   12.60
   1  13  14   76.19    6.90
  -2 -13 -14   99.69   13.50
   2  13  14   97.49    8.40
  -3 -13 -14   26.20    8.60
   3  13  14   15.00    4.80
   3  13  14   13.60    6.20
  -4 -13 -14   10.80    7.00
   4  13  14   11.60    4.80
   4  13  14    6.50    5.00
   5  13  14   19.90    5.30
   6  13  14   22.40    9.30
   2 -14 -14    6.90   12.40
  -2  14  14   -5.00    4.60
   1 -14 -14    5.60   11.00
  -1  14  14   -8.00    4.60
   0 -14 -14   81.69   15.20
   0  14  14   96.89    8.50
  -1 -14 -14   68.29   13.70
   1  14  14   92.69    8.20
  -2 -14 -14   19.30    9.90
   2  14  14   35.40    5.70
  -3 -14 -14   -1.00    7.90
   3  14  14   10.30    4.70
  -4 -14 -14   29.20    8.80
   4  14  14   43.20    6.20
  -1   7 -15    3.60    4.30
  -1   7 -15    2.50    5.20
  -1   7 -15   -1.50    9.60
  -2   7 -15   -5.30    4.00
  -2   7 -15    3.40    4.80
  -2   7 -15    5.90   10.40
  -3   7 -15   -0.70    4.50
   3  -7  15   14.20   15.00
   2   6 -15   22.50   11.30
   2   6 -15   21.50    4.50
   1   6 -15   21.10    4.40
   1   6 -15    6.70   10.90
   0   6 -15   -0.90    9.30
   0   6 -15    4.00    4.70
   0   6 -15   -4.30    3.70
  -1   6 -15   11.40    5.10
  -1   6 -15    7.60    9.70
  -1   6 -15    8.90    4.20
  -2   6 -15    7.80    9.10
  -2   6 -15   17.10   17.90
  -2   6 -15   11.00    4.10
  -3   6 -15    4.10    4.20
  -4   6 -15   -8.60    4.20
   4  -6  15   -3.40   27.90
  -5   6 -15    5.80    4.90
  -6   6 -15   29.20    6.10
   6  -6  15   25.00   18.30
   3   5 -15   38.90    4.90
   3   5 -15   56.29   13.30
   2   5 -15    2.30    3.50
   2   5 -15    0.80    9.30
   1   5 -15    3.10    3.60
   0   5 -15   -1.60    3.30
   0   5 -15    5.20    8.60
  -1   5 -15   47.50    6.30
  -1   5 -15   45.50    5.30
  -1   5 -15   35.10   11.40
  -2   5 -15   -5.10    8.20
  -2   5 -15    0.90    3.60
  -2   5 -15    0.10    4.40
  -3   5 -15    0.00    3.80
   3  -5  15   12.80   12.80
  -4   5 -15   49.40    6.00
   4  -5  15   33.80   15.00
  -5   5 -15    1.00    4.20
   5  -5  15   -6.20   12.50
  -6   5 -15   -0.60    4.50
   6  -5  15   -7.60   13.30
  -7   5 -15   -1.10    5.10
   7  -5  15    5.70   15.10
   4   4 -15   16.90    3.90
   4   4 -15   32.60   12.20
   3   4 -15    7.60   13.70
   2   4 -15    2.70    9.30
   2   4 -15   -2.30    3.20
   1   4 -15    3.70    3.40
   1   4 -15   14.30    9.40
   0   4 -15   50.39    5.10
   0   4 -15   42.50   11.30
  -1   4 -15   11.70    4.50
  -1   4 -15   25.30   10.10
  -1   4 -15   30.20    4.30
  -2   4 -15    3.50    3.30
  -2   4 -15    8.80    8.50
  -2   4 -15   -0.80    4.00
  -3   4 -15   66.99   11.90
  -3   4 -15   63.39    6.20
  -3   4 -15   66.19    6.70
  -4   4 -15    7.70    3.90
   4  -4  15   16.20   12.20
  -5   4 -15    5.40    4.10
   5  -4  15   -2.90   11.00
  -6   4 -15    0.70    4.30
   6  -4  15    7.30   12.00
  -7   4 -15   14.80    5.00
   7  -4  15   28.80   15.40
  -8   4 -15    6.20    5.40
   8  -4  15   21.50   16.60
   5   3 -15    2.90   10.90
   5   3 -15    2.20    2.80
   4   3 -15   -4.00    2.80
   4   3 -15    2.00    3.50
   4   3 -15   13.00   17.20
   3   3 -15    5.90    3.60
   3   3 -15   -0.40    8.60
   3   3 -15    4.40    3.10
   2   3 -15   20.50    3.50
   2   3 -15   33.70   10.60
   1   3 -15   31.10   10.40
   1   3 -15   28.60    4.00
   0   3 -15    9.80    8.20
   0   3 -15   -1.20    6.50
  -1   3 -15    7.60    7.80
  -1   3 -15    5.90    3.20
  -2   3 -15    7.50    8.10
  -2   3 -15    2.20    3.90
  -2   3 -15    8.80    3.20
  -3   3 -15   34.50    4.60
  -3   3 -15   34.00   10.00
  -3   3 -15   36.30    5.30
  -4   3 -15    3.70    3.30
   4  -3  15    6.30   10.10
  -5   3 -15   21.00    4.60
   5  -3  15   17.20   12.00
  -6   3 -15   31.70    5.10
   6  -3  15   30.50   13.40
  -7   3 -15   -4.30    4.40
   7  -3  15   -1.20   12.30
  -8   3 -15   -0.90    4.80
   8  -3  15   -0.50   13.30
  -9   3 -15    2.10    5.80
   9  -3  15   -8.00   13.20
   6   2 -15   19.90   11.60
   6   2 -15   20.10    4.90
   6   2 -15   22.90    2.60
   5   2 -15   -3.20    2.20
   5   2 -15    5.70   11.40
   5   2 -15    1.70    2.90
   4   2 -15   27.40   11.30
   4   2 -15   24.50    3.10
   4   2 -15   21.30    3.60
   3   2 -15   59.99    4.70
   3   2 -15   37.00    4.30
   3   2 -15   47.10   11.80
   2   2 -15   50.59   11.30
   2   2 -15   45.10    4.10
   2   2 -15   40.00    4.90
   1   2 -15   10.40    8.50
   1   2 -15    0.20    2.70
   1   2 -15    6.70    3.00
   0   2 -15   27.10    4.50
   0   2 -15   32.30    9.40
   0   2 -15   28.80    3.80
  -1   2 -15   13.80    3.40
  -1   2 -15   18.00    8.50
  -2   2 -15   62.29    6.10
  -2   2 -15   63.29   11.30
  -2   2 -15   64.89    5.50
  -3   2 -15   29.00    4.70
  -3   2 -15   36.20    8.80
  -3   2 -15   35.40    4.40
  -4   2 -15   10.70    3.70
  -4   2 -15    6.70    7.20
  -4   2 -15    0.70    3.30
  -5   2 -15   51.29    5.30
   5  -2  15   49.90   13.90
  -6   2 -15   14.50    4.40
   6  -2  15   12.50   10.50
  -7   2 -15    4.80    4.30
   7  -2  15   16.20   12.20
  -8   2 -15   17.70    5.40
   8  -2  15   23.30   13.60
  -9   2 -15   49.70   11.50
   9  -2  15   35.90   14.90
  10  -2  15    5.30   14.30
  10  -2  15    7.80    6.40
   6   1 -15    4.90   10.20
   5   1 -15    4.90    9.50
   4   1 -15   81.99    5.40
   4   1 -15   90.49   14.10
   4   1 -15   78.09    5.00
   3   1 -15   57.09    4.50
   3   1 -15   55.79    4.80
   3   1 -15   66.59   12.60
   2   1 -15    1.10    2.40
   2   1 -15   -3.00    2.30
   2   1 -15   -6.50    7.50
   1   1 -15   29.10    3.70
   1   1 -15   42.70    3.80
   1   1 -15   29.10    9.00
   0   1 -15   51.09    4.30
   0   1 -15   47.50   10.40
   0   1 -15   38.90    4.10
  -1   1 -15   14.90    3.10
  -1   1 -15   10.20    3.00
  -1   1 -15    4.20    7.40
  -2   1 -15    0.80    6.40
  -2   1 -15   -0.90    2.70
  -3   1 -15    5.00    6.50
  -3   1 -15    1.50    3.20
  -3   1 -15    7.20    2.90
  -4   1 -15   51.09    9.20
  -4   1 -15   51.29    5.10
  -4   1 -15   51.59    5.30
  -5   1 -15   26.00    4.20
  -6   1 -15   11.30    4.10
   6  -1  15   25.60   10.50
   7  -1  15   33.60   12.20
   7  -1  15   37.50    6.20
   8  -1  15   50.69    7.00
   8  -1  15   57.49   13.50
   9  -1  15   12.80   11.70
   9  -1  15   17.80    6.10
  10  -1  15   -0.10   11.90
  10  -1  15    7.10    6.10
   7   0 -15    2.00   10.50
   6   0 -15    3.00   17.30
   5   0 -15   16.70    9.70
   4   0 -15   29.60   10.50
   3   0 -15    5.50    8.20
   3   0 -15    9.40    2.20
   2   0 -15   48.50    4.10
   2   0 -15   45.60   10.30
   2   0 -15   55.39    4.00
   1   0 -15   68.39   11.50
   1   0 -15   54.09    4.60
   1   0 -15   58.09    4.60
   0   0 -15    4.80    2.40
   0   0 -15   10.80    2.60
   0   0 -15    9.30    7.10
  -1   0 -15   10.50    7.70
  -1   0 -15   10.30    2.60
  -1   0 -15    8.80    2.70
  -2   0 -15    8.90    2.50
  -2   0 -15    1.80    6.00
  -2   0 -15    4.40    2.50
  -3   0 -15   11.20    3.00
  -3   0 -15   10.60    6.60
  -4   0 -15   54.09    5.00
  -4   0 -15   51.79    5.10
  -4   0 -15   49.70    9.40
  -5   0 -15   17.20    3.50
  -5   0 -15   10.40    6.80
   5   0  15    9.60    4.20
   6   0  15   67.19    6.90
   7   0  15    7.50   10.50
   7   0  15    6.70    4.70
   8   0  15    7.80    5.10
   8   0  15   12.70   11.20
   9   0  15   14.00    5.70
   9   0  15   20.00   18.00
  10   0  15   15.50   18.20
  11   0  15    2.80   11.20
  11   0  15    0.00    6.00
   7  -1 -15    8.90   11.30
   6  -1 -15    0.00    9.30
   5  -1 -15   -0.40    9.70
   4  -1 -15    8.70    9.30
   3  -1 -15  169.88   17.50
   2  -1 -15   -2.10    7.00
   2  -1 -15   11.10    2.20
   1  -1 -15   -3.30    6.50
   1  -1 -15    5.90    1.90
   1  -1 -15    5.70    2.00
   0  -1 -15   31.90    8.80
   0  -1 -15   34.70    3.30
   0  -1 -15   37.60    3.30
  -1  -1 -15   64.19    4.90
  -1  -1 -15   74.59   10.70
  -1  -1 -15   58.69    4.60
  -2  -1 -15   20.60    3.10
  -2  -1 -15   17.40    2.90
  -2  -1 -15   24.10    7.80
  -3  -1 -15    3.30   10.20
  -4  -1 -15   18.70    7.20
  -5  -1 -15   56.99    9.20
   5   1  15   51.99    5.70
  -6  -1 -15   21.40    6.80
  -6  -1 -15   22.00    3.50
  -6  -1 -15   15.60    8.80
   6   1  15   15.20    4.50
  -7  -1 -15   -1.90    3.00
  -7  -1 -15   10.00    7.80
  -7  -1 -15   -2.50    5.30
   7   1  15    1.10    4.30
  -8  -1 -15   85.79   12.40
   8   1  15   82.79    8.20
  -9  -1 -15    9.00    7.50
   9   1  15   12.40    9.10
   9   1  15   14.90    5.40
 -10  -1 -15    8.80    8.10
  10   1  15    4.90    8.70
  10   1  15   -5.00    5.40
  11   1  15   -2.20    5.80
  11   1  15   -2.00    8.30
   7  -2 -15    0.60   11.00
   6  -2 -15   -0.40    9.90
   5  -2 -15   10.60   10.20
   4  -2 -15  196.58   19.10
   3  -2 -15   49.20   10.70
   2  -2 -15   -4.30    7.20
   1  -2 -15   36.00    2.80
   1  -2 -15   31.50    2.90
   1  -2 -15   30.60    8.60
   0  -2 -15   68.89    4.70
   0  -2 -15   74.39   11.00
   0  -2 -15   72.39    4.60
  -1  -2 -15   37.50    8.30
  -1  -2 -15   20.30    2.80
  -1  -2 -15   22.20    2.90
  -2  -2 -15    1.90    6.10
  -2  -2 -15    1.20    2.20
   2   2  15   -3.30    2.70
  -3  -2 -15   27.00    3.50
  -3  -2 -15   37.20    8.50
   3   2  15   34.30    4.20
  -4  -2 -15   98.49   13.40
  -4  -2 -15  129.39   12.20
   4   2  15  123.29    8.30
  -5  -2 -15   18.20    7.70
  -5  -2 -15   20.90    6.90
   5   2  15   27.10    4.40
  -6  -2 -15   11.70    7.20
  -6  -2 -15   -0.90    5.60
   6   2  15   -7.00    3.80
  -7  -2 -15  108.59   11.40
  -7  -2 -15   99.39   19.80
   7   2  15  101.09    8.80
  -8  -2 -15  115.09   17.70
  -8  -2 -15  120.89    7.90
  -8  -2 -15  132.39   12.20
   8   2  15  142.19   10.30
  -9  -2 -15    2.20    2.80
  -9  -2 -15    7.00    5.60
  -9  -2 -15    9.20    6.70
   9   2  15   -2.30    4.80
 -10  -2 -15    3.30    6.50
  10   2  15   -4.10    5.00
  11   2  15   14.60    6.00
   8  -3 -15    4.30   12.60
   7  -3 -15   -3.20   10.10
   6  -3 -15   -8.80    9.60
   5  -3 -15  102.89   15.50
   4  -3 -15   34.70   11.00
   3  -3 -15   -3.70    7.00
   2  -3 -15    3.70    7.40
   1  -3 -15  167.98   15.70
   1  -3 -15  170.68    8.80
   0  -3 -15    8.90    2.00
   0  -3 -15    4.40    6.70
   0  -3 -15    6.20    1.80
  -1  -3 -15    7.70    7.30
  -1  -3 -15    4.00    2.10
  -2  -3 -15   11.40    2.90
  -2  -3 -15   21.20    7.50
   2   3  15    9.70    3.00
  -3  -3 -15   93.09   10.90
  -3  -3 -15   78.49   11.30
  -3  -3 -15   67.19    5.30
   3   3  15   72.89    6.10
  -4  -3 -15   60.59    8.60
  -4  -3 -15   38.20    8.70
   4   3  15   40.00    4.80
  -5  -3 -15   -4.60    5.30
  -5  -3 -15    0.00    6.10
   5   3  15   -2.00    3.30
  -6  -3 -15   15.60    6.70
  -6  -3 -15   24.40    6.70
   6   3  15   17.10    4.50
  -7  -3 -15  150.58   11.80
  -7  -3 -15  123.39   12.60
   7   3  15  133.79   10.00
  -8  -3 -15    1.50    5.80
  -8  -3 -15    9.40    5.90
   8   3  15   11.30    4.70
  -9  -3 -15   -2.20    5.30
  -9  -3 -15    5.80    5.20
   9   3  15    3.90    4.90
 -10  -3 -15   17.10    5.70
 -10  -3 -15   21.60    5.30
  10   3  15   11.20    5.60
 -11  -3 -15    4.40    5.70
  11   3  15   -2.80    5.50
   8  -4 -15    0.60   11.10
   7  -4 -15   10.50   11.30
   6  -4 -15   26.00   12.00
   5  -4 -15  -11.50    8.40
   4  -4 -15    6.90    9.40
   3  -4 -15   -7.70    7.40
   2  -4 -15   71.19   11.90
   1  -4 -15    0.00    6.90
   1  -4 -15   -2.20    1.30
   1  -4 -15   -0.30    1.20
   0  -4 -15   53.09   10.10
   0  -4 -15   36.70    3.00
  -1  -4 -15   39.00    8.80
  -1  -4 -15   27.20    2.90
   1   4  15   28.60    3.40
  -2  -4 -15   23.70    7.50
  -2  -4 -15   22.00    3.10
  -2  -4 -15   23.20    7.60
   2   4  15   29.50    3.70
  -3  -4 -15   28.70    3.40
  -3  -4 -15   37.10    7.90
  -3  -4 -15   31.60    8.00
   3   4  15   35.00    4.10
  -4  -4 -15   21.90    6.20
  -4  -4 -15   29.80    7.90
   4   4  15   23.60    4.10
  -5  -4 -15   28.80    6.60
  -5  -4 -15   35.00    7.40
   5   4  15   21.30    4.30
  -6  -4 -15   47.00    7.10
  -6  -4 -15   38.60    7.40
   6   4  15   48.00    5.60
  -7  -4 -15    8.40    5.40
  -7  -4 -15    7.30    4.80
   7   4  15    6.30    4.40
  -8  -4 -15   -2.00    4.20
  -8  -4 -15    7.00    4.40
   8   4  15   -2.60    4.20
   9   4  15   27.40    5.70
  10   4  15   30.60    6.20
  11   4  15    1.30    5.70
   8  -5 -15   -7.40   11.90
   7  -5 -15  -12.40   11.20
   6  -5 -15  -13.90    9.20
   5  -5 -15   41.30   11.80
   4  -5 -15   17.30    9.60
   3  -5 -15  102.99   14.50
   2  -5 -15   17.80    8.50
   1  -5 -15   56.89    3.50
   1  -5 -15   39.50    9.50
   0  -5 -15   35.90    3.00
   0   5  15   40.10    3.40
  -1  -5 -15  153.28    8.80
  -1  -5 -15  190.28   14.90
   1   5  15  165.78    9.20
  -2  -5 -15    2.30    2.60
  -2  -5 -15    2.30    6.20
  -2  -5 -15   -1.80    5.50
   2   5  15    1.10    2.90
  -3  -5 -15  102.19    6.80
  -3  -5 -15   87.49   14.70
  -3  -5 -15  113.79   11.20
   3   5  15  117.69    7.40
  -4  -5 -15   39.70    7.90
  -4  -5 -15   40.40    7.20
   4   5  15   46.20    4.80
  -5  -5 -15   98.69   10.60
  -5  -5 -15  105.59    9.60
   5   5  15   94.29    7.50
  -6  -5 -15   26.90    6.00
  -6  -5 -15   41.80    6.00
   6   5  15   28.20    4.60
  -7  -5 -15   55.09    5.80
  -7  -5 -15   55.39    6.90
   7   5  15   62.69    6.50
   8   5  15   24.40    5.00
   9   5  15  106.89    9.50
  10   5  15   13.70    5.60
  11   5  15   -0.80    5.60
   7  -6 -15    2.90   11.50
   6  -6 -15    1.00   10.10
   5  -6 -15   58.49   13.40
   4  -6 -15  132.69   16.60
   3  -6 -15    2.90    8.50
   2  -6 -15   58.89   11.60
   1  -6 -15   38.70    9.60
  -1   6  15   31.70    2.70
   0  -6 -15   53.09   11.50
   0  -6 -15   43.50    3.70
   0   6  15   50.79    4.20
  -1  -6 -15    0.60    2.00
  -1  -6 -15    1.60    6.50
   1   6  15   -3.20    5.40
   1   6  15    0.90    2.70
   1   6  15    5.30    2.50
  -2  -6 -15   11.80    3.10
  -2  -6 -15   21.90    7.10
   2   6  15   26.50    3.60
  -3  -6 -15   41.00    7.70
  -3  -6 -15   39.40    4.10
  -3  -6 -15   51.09    8.10
   3   6  15   49.90    4.80
  -4  -6 -15   91.89   10.30
  -4  -6 -15  124.89   10.50
   4   6  15  120.79    7.90
  -5  -6 -15   -4.60    4.10
  -5  -6 -15    2.40    4.10
   5   6  15   -4.90    3.20
  -6  -6 -15   71.19    6.40
  -6  -6 -15   64.69    7.40
   6   6  15   82.89    6.90
   7   6  15  159.88   10.70
   8   6  15   79.79    7.60
   9   6  15    3.20    4.60
  10   6  15   11.30    5.40
  11   6  15    4.70    5.60
   7  -7 -15   -3.50   11.60
   6  -7 -15   19.50   12.10
   5  -7 -15   31.40   11.90
   4  -7 -15   20.70   10.30
   3  -7 -15   23.00    9.80
   2  -7 -15   94.49   13.50
   1  -7 -15   -3.60    7.40
   1  -7 -15   -0.40    1.80
  -1   7  15    4.50    2.20
   0  -7 -15   14.60    2.50
   0  -7 -15   14.60    8.70
   0   7  15   14.20    2.80
  -1  -7 -15   34.30    3.50
  -1  -7 -15   51.59    9.10
   1   7  15   38.20    7.00
   1   7  15   36.40    3.80
  -2  -7 -15    8.20    6.00
  -2  -7 -15   -1.60    2.30
   2   7  15    7.20    4.90
   2   7  15   -0.40    2.90
   2   7  15   -0.30    2.20
  -3  -7 -15   80.79   10.20
  -3  -7 -15   93.29    9.90
   3   7  15   96.49    6.90
  -4  -7 -15   19.00    5.60
  -4  -7 -15   22.40    5.70
   4   7  15   33.20    7.40
  -5  -7 -15  107.79    9.40
  -5  -7 -15   87.49    8.60
   5   7  15  104.69    7.70
   6   7  15   72.29    6.70
   7   7  15    6.80    4.20
   8   7  15    1.20    4.30
   9   7  15   34.50    5.80
  10   7  15  -13.30    8.70
   7  -8 -15    2.00   12.20
   6  -8 -15    1.70   11.30
   5  -8 -15   -2.50   10.50
   4  -8 -15   98.89   15.80
   3  -8 -15   53.39   12.60
   2  -8 -15   13.20    9.30
   2  -8 -15   14.10    2.90
  -2   8  15   13.50    2.50
   1  -8 -15   -2.30    7.40
   1  -8 -15    5.10    2.20
  -1   8  15   11.50    2.50
   0  -8 -15   82.89    5.80
   0   8  15   96.29    6.20
  -1  -8 -15   33.10    4.10
  -1  -8 -15   64.69   10.30
   1   8  15   48.30    4.30
   1   8  15   37.40    8.80
  -2  -8 -15   -6.00    2.30
  -2  -8 -15    8.80    6.30
   2   8  15    1.30    3.00
   2   8  15   -0.90    4.50
  -3  -8 -15   -2.70    5.30
   3   8  15    2.40    3.40
  -4  -8 -15   78.39    8.30
  -4  -8 -15   51.09    7.70
   4   8  15   68.29    6.10
  -5  -8 -15   13.20    5.20
  -5  -8 -15    7.40    4.10
   5   8  15   13.80    4.10
   6   8  15   58.89    6.20
   7   8  15   93.09    7.90
   8   8  15  152.58   10.80
   9   8  15    4.60    4.80
  10   8  15    6.20    5.00
   6  -9 -15   10.80   20.10
   5  -9 -15   26.60   12.70
   4  -9 -15   18.10   12.20
   3  -9 -15   13.60   10.20
   2  -9 -15    3.40    2.10
   2  -9 -15   -3.20    8.20
  -2   9  15    4.00    2.40
   1  -9 -15   85.99    6.10
   1  -9 -15   83.39   13.70
  -1   9  15  102.89    6.40
   0  -9 -15   82.39   12.80
   0  -9 -15   76.89    7.80
   0   9  15   84.39    6.20
  -1  -9 -15   -2.80    2.60
  -1  -9 -15   -2.70    6.70
   1   9  15    0.10    3.10
  -2  -9 -15   39.60    8.40
   2   9  15   36.90    6.80
   2   9  15   44.40    4.70
  -3  -9 -15  210.68   14.60
   3   9  15  190.28   11.20
   3   9  15  173.88   12.60
  -4  -9 -15    0.00    5.20
   4   9  15   -3.70    3.50
   5   9  15    0.40    3.80
   6   9  15  103.69    8.70
   7   9  15   81.59    7.60
   8   9  15   29.10    5.50
   9   9  15    1.20    8.00
  10   9  15    4.00    5.30
   6 -10 -15   16.70   13.10
   5 -10 -15    5.70   11.60
   4 -10 -15    5.00   10.90
   3 -10 -15   -7.80    9.20
  -3  10  15    5.30    2.50
   2 -10 -15   23.40    3.20
   2 -10 -15   18.70   11.00
  -2  10  15   28.80    3.50
   1 -10 -15  135.39   16.80
  -1  10  15  146.09    8.70
   0 -10 -15   21.10    9.60
   0 -10 -15   19.00    3.50
   0  10  15   19.40    3.60
  -1 -10 -15    6.20    7.50
   1  10  15    0.40    3.20
  -2 -10 -15   86.19   11.30
   2  10  15   81.49    7.30
   2  10  15   76.59    9.20
  -3 -10 -15   54.29    9.00
   3  10  15   54.49    7.40
   3  10  15   79.49    6.30
  -4 -10 -15   23.90    6.20
   4  10  15   20.20    4.70
   5  10  15   43.40    5.70
   6  10  15   26.50    5.00
   7  10  15    5.40    4.80
   8  10  15    8.80    5.10
   9  10  15   -5.00    4.80
   4 -11 -15   23.00   12.30
  -4  11  15    9.70    3.00
  -4  11  15   10.10    3.40
   3 -11 -15    4.40    2.90
   3 -11 -15    8.40   10.40
  -3  11  15   11.80    3.30
   2 -11 -15   16.80    3.60
   2 -11 -15   21.20   11.60
  -2  11  15   24.40    3.90
   1 -11 -15    3.40    8.80
   1 -11 -15   10.10    3.40
  -1  11  15    7.10    3.50
   0 -11 -15   27.50   10.20
   0  11  15   43.50    4.70
  -1 -11 -15   86.99   19.20
   1  11  15   83.89    7.30
  -2 -11 -15   21.00    8.50
   2  11  15   13.40    6.60
   2  11  15   30.90    4.70
  -3 -11 -15   23.00    7.50
   3  11  15   12.40    5.50
   3  11  15   24.90    4.50
  -4 -11 -15    9.70    5.70
   4  11  15   19.60    4.50
   4  11  15   13.90    4.50
   5  11  15   31.20    5.20
   6  11  15    3.90    4.70
   7  11  15   13.40    5.00
   8  11  15   18.40    6.20
   4 -12 -15   19.10   13.70
  -4  12  15   19.70    3.90
   3 -12 -15   10.50   12.00
   3 -12 -15   10.60    3.70
  -3  12  15   21.30    4.00
   2 -12 -15    4.20   10.80
  -2  12  15   22.60    4.30
   1 -12 -15   18.70   10.10
  -1  12  15   25.10    4.80
   0 -12 -15   51.09   12.30
   0  12  15   42.30    5.20
  -1 -12 -15    6.40    8.50
   1  12  15   17.20    4.40
  -2 -12 -15   47.60   10.30
   2  12  15   51.49    5.70
  -3 -12 -15   23.50    8.20
   3  12  15    3.70    8.60
   3  12  15   17.60    4.80
  -4 -12 -15   27.50    7.00
   4  12  15   17.00    4.90
   4  12  15   27.70    5.00
   5  12  15    5.80    4.60
   6  12  15   68.99    7.30
   3 -13 -15    9.10   12.20
  -3  13  15   14.80    4.50
   2 -13 -15   34.80   13.50
   1 -13 -15    8.80   11.10
  -1  13  15    8.60    4.60
   0 -13 -15   20.00   10.60
   0  13  15    7.00    4.50
  -1 -13 -15   24.10   10.30
   1  13  15   30.40    5.00
  -2 -13 -15   32.50   12.70
   2  13  15   48.30    5.80
  -3 -13 -15   11.20    7.80
   3  13  15    3.10    5.90
   3  13  15    5.40    4.40
  -4 -13 -15    6.70    6.90
   4  13  15   -4.40    4.60
   4  13  15    2.80    4.50
   5  13  15   45.10    6.20
   0 -14 -15   30.70   12.00
   0  14  15   53.59    6.30
  -1 -14 -15   28.90   11.50
   1  14  15   34.10    5.50
  -2 -14 -15   10.30    8.90
   2  14  15   19.50    5.10
  -3 -14 -15    9.00    8.90
   3  14  15   -0.30    4.60
  -1   6 -16   -0.90    4.10
  -1   6 -16   -1.60   10.80
  -1   6 -16   12.80    5.20
  -2   6 -16   -0.80    4.10
  -2   6 -16    8.40    5.10
  -2   6 -16   -0.80    9.40
  -3   6 -16    0.30    4.80
  -3   6 -16   -4.20    9.20
  -3   6 -16   -3.70    4.00
   2   5 -16   10.30   10.70
   2   5 -16    3.40    3.80
   1   5 -16    0.00    3.60
   1   5 -16    9.70   10.30
   0   5 -16   -1.00    9.10
   0   5 -16    9.50    4.00
  -1   5 -16    2.50   10.50
  -1   5 -16   13.30    4.10
  -1   5 -16   18.40    5.60
  -2   5 -16    3.70    3.90
  -3   5 -16    0.00   10.70
  -3   5 -16    1.10    5.20
  -3   5 -16    8.10    4.10
  -4   5 -16   20.80    4.70
   4  -5  16   10.60   14.90
  -5   5 -16    0.40    4.40
   5  -5  16  -13.10   13.70
  -6   5 -16   13.80    5.80
   6  -5  16    8.30   16.40
   3   4 -16    2.40    9.20
   3   4 -16    6.60    3.50
   2   4 -16   16.10   11.10
   2   4 -16   -1.80    3.30
   1   4 -16    5.80    3.50
   0   4 -16   54.39   12.50
   0   4 -16   56.59    5.70
  -1   4 -16   40.70   11.30
  -1   4 -16   46.80    5.20
  -2   4 -16   11.20    3.90
  -2   4 -16   11.90    4.70
  -2   4 -16   11.00    9.30
  -3   4 -16   26.10   10.70
  -3   4 -16   22.10    4.60
  -3   4 -16   24.40    5.40
  -4   4 -16    0.20    3.80
  -5   4 -16    6.70    4.40
   5  -4  16  -11.50   11.70
  -6   4 -16   10.80    4.80
   6  -4  16    9.70   13.80
  -7   4 -16    4.20    9.00
   7  -4  16   34.90   16.00
   4   3 -16    3.50    3.10
   4   3 -16   -3.50    9.30
   3   3 -16   -1.30    3.80
   3   3 -16    1.00    3.00
   3   3 -16   -0.50    8.80
   2   3 -16   23.30    3.80
   2   3 -16   24.20   10.40
   1   3 -16   76.79   13.90
   0   3 -16   39.10   11.00
   0   3 -16   40.50    4.60
  -1   3 -16   12.20    3.60
  -1   3 -16   10.30    8.30
  -2   3 -16    6.30    4.20
  -2   3 -16    0.40    7.90
  -2   3 -16   -0.20    3.10
  -3   3 -16    5.80    3.50
  -3   3 -16   11.50    4.30
  -3   3 -16   -5.30    7.40
  -4   3 -16    6.70    4.20
  -4   3 -16    4.10    7.60
  -4   3 -16    3.20    3.50
  -5   3 -16   28.00    4.90
   5  -3  16   19.80   12.60
  -6   3 -16   39.20    5.60
   6  -3  16   37.70   14.40
  -7   3 -16    3.00    4.70
   7  -3  16   -4.20   12.00
  -8   3 -16    3.00    5.20
   8  -3  16    6.30   13.10
   5   2 -16    7.30    2.30
   5   2 -16    0.60    9.90
   4   2 -16    3.90    3.00
   4   2 -16   -2.40    9.60
   4   2 -16    1.60    2.50
   3   2 -16   44.90   12.00
   3   2 -16   26.60    4.40
   3   2 -16   38.40    3.80
   2   2 -16   61.69    4.80
   2   2 -16   53.69   12.50
   2   2 -16   48.50    4.90
   1   2 -16   11.50    3.30
   1   2 -16   11.50    9.10
   1   2 -16   11.40    3.10
   0   2 -16   -0.50    8.50
   0   2 -16    1.80    3.00
  -1   2 -16   -2.80    7.60
  -1   2 -16   -1.70    3.10
  -2   2 -16   20.00    9.50
  -2   2 -16   17.80    3.90
  -3   2 -16   36.90    5.20
  -3   2 -16   43.50   10.40
  -3   2 -16   46.80    4.90
  -4   2 -16    3.90    7.80
  -4   2 -16    6.00    3.80
  -4   2 -16    6.10    3.30
  -5   2 -16   16.60    8.40
  -5   2 -16   34.20    4.90
  -5   2 -16   27.40    4.70
  -6   2 -16    8.80    4.20
   6  -2  16   10.40   11.60
  -7   2 -16    2.30    4.70
   7  -2  16    3.70   11.50
  -8   2 -16   -3.70    4.70
   8  -2  16    9.40   12.90
  -9   2 -16   15.60    5.90
   9  -2  16    5.20   12.90
   6   1 -16   -7.30   10.10
   5   1 -16    3.70   10.20
   4   1 -16   53.79   13.50
   4   1 -16   42.20    3.90
   4   1 -16   54.99    4.20
   3   1 -16   42.40   11.50
   3   1 -16   41.30    3.80
   3   1 -16   43.60    3.60
   2   1 -16   -1.40    2.40
   2   1 -16    4.60    8.30
   2   1 -16    5.50    2.80
   1   1 -16   15.00    8.90
   1   1 -16   12.30    2.90
   0   1 -16   59.09   11.60
   0   1 -16   55.39    5.10
   0   1 -16   77.79    5.70
  -1   1 -16   29.70    3.80
  -1   1 -16   32.40    9.50
  -2   1 -16   -3.00    6.60
  -2   1 -16   12.80    6.10
  -3   1 -16   -2.10    2.90
  -3   1 -16    0.30    6.70
  -4   1 -16    6.00    3.70
  -4   1 -16   16.90    8.40
  -4   1 -16    5.60    3.20
  -5   1 -16    3.10    3.40
  -5   1 -16    2.00    3.50
  -5   1 -16    7.70    7.30
  -6   1 -16   18.70    4.60
  -7   1 -16   27.20    5.20
   7  -1  16    8.30   11.30
   8  -1  16   54.29   13.90
   8  -1  16   52.29    7.20
   9  -1  16  -20.60   10.30
  10  -1  16   12.80   12.50
  10  -1  16   12.70    6.60
   6   0 -16    5.00   10.80
   5   0 -16   27.80   18.90
   4   0 -16   36.40   12.30
   3   0 -16   -1.90    8.50
   3   0 -16   11.10    3.00
   2   0 -16   32.30    3.00
   2   0 -16   29.80    3.00
   2   0 -16   30.30   10.10
   1   0 -16  133.19    8.70
   1   0 -16  174.18    8.90
   1   0 -16  198.28   17.20
   0   0 -16  144.89    7.90
   0   0 -16  115.99    9.50
   0   0 -16  111.99   14.10
  -1   0 -16    9.40    2.80
  -1   0 -16   15.00    2.90
  -1   0 -16    3.20    7.40
  -2   0 -16   22.80    3.50
  -2   0 -16   31.80    8.50
  -3   0 -16   14.90    3.30
  -3   0 -16    7.80    6.90
  -4   0 -16    3.10    7.00
  -4   0 -16    3.10    3.00
  -5   0 -16  113.29    8.10
  -5   0 -16  118.89   13.80
  -6   0 -16   92.69    7.10
  -6   0 -16   76.49   11.10
   6   0  16   74.19    7.60
  -7   0 -16   19.30    4.30
  -7   0 -16   11.70    7.30
   7   0  16    5.50    4.80
   8   0  16    5.50    5.40
   9   0  16   14.80   10.90
   9   0  16   13.90    6.10
  10   0  16    7.50    6.40
  10   0  16    8.10   11.00
   6  -1 -16   14.30   11.80
   5  -1 -16   16.90   10.70
   4  -1 -16    4.70    9.50
   3  -1 -16   57.69   12.10
   2  -1 -16   74.49    4.90
   2  -1 -16   65.59   12.20
   1  -1 -16   99.09    5.90
   1  -1 -16   90.09   12.90
   1  -1 -16   91.49    5.60
   0  -1 -16   29.80    9.40
   0  -1 -16   25.10    3.10
   0  -1 -16   28.30    3.00
  -1  -1 -16    6.60    2.90
  -1  -1 -16    3.40    6.80
  -1  -1 -16   -0.90    2.30
  -2  -1 -16    4.00    6.60
  -2  -1 -16   -1.30    2.40
  -2  -1 -16    4.00    2.40
  -3  -1 -16   47.80    9.50
  -3  -1 -16   33.60    4.10
  -4  -1 -16  104.89   12.60
   4   1  16   86.99    7.60
  -5  -1 -16   84.99   13.80
   5   1  16   64.39    6.70
  -6  -1 -16   36.90    9.30
   6   1  16   30.20    5.40
  -7  -1 -16    4.20    6.60
  -7  -1 -16    3.60    3.50
   7   1  16    8.40    4.80
  -8  -1 -16   35.70    4.50
  -8  -1 -16   41.60    8.40
   8   1  16   32.40    6.00
   9   1  16    7.40    5.50
  10   1  16   -2.40    5.80
   7  -2 -16   36.00   13.40
   6  -2 -16   -2.90   10.60
   5  -2 -16    6.30   10.00
   4  -2 -16   77.69   13.70
   3  -2 -16   41.40   11.20
   2  -2 -16   36.70   10.90
   1  -2 -16    8.20    1.80
   1  -2 -16   10.50    2.10
   1  -2 -16    8.10    7.80
   0  -2 -16   19.80    2.50
   0  -2 -16   19.50    2.70
   0  -2 -16   18.60    8.00
  -1  -2 -16   31.00    3.10
  -1  -2 -16   33.90    8.50
  -1  -2 -16   31.10    3.30
  -2  -2 -16   13.30    7.40
  -2  -2 -16    3.90    2.20
  -2  -2 -16    0.60    2.30
  -3  -2 -16   57.89   17.80
   3   2  16   64.29    5.70
  -4  -2 -16   27.60    7.80
   4   2  16   28.80    5.30
  -5  -2 -16    0.90    6.00
   5   2  16   -0.70    3.80
  -6  -2 -16   -1.70    7.20
  -6  -2 -16   -6.70    6.30
   6   2  16    1.10    4.30
  -7  -2 -16   90.19   10.80
  -7  -2 -16   62.99   11.50
   7   2  16   82.49    7.70
  -8  -2 -16   40.70    9.70
  -8  -2 -16   49.90    8.60
   8   2  16   38.50    6.10
  -9  -2 -16   10.20    7.40
  -9  -2 -16    6.20    6.70
   9   2  16    7.20    5.20
 -10  -2 -16   -1.00    6.60
 -10  -2 -16   -0.80    3.10
  10   2  16   -1.50   10.30
   7  -3 -16    8.80   11.80
   6  -3 -16    1.60   13.70
   5  -3 -16   75.89   14.80
   4  -3 -16   39.10   12.00
   3  -3 -16    2.00    8.50
   2  -3 -16   19.00    8.70
   1  -3 -16  192.18   17.30
   1  -3 -16  189.88   10.00
   0  -3 -16  158.18   14.80
   0  -3 -16  151.58    8.00
   0  -3 -16  137.59    7.80
  -1  -3 -16   91.19    5.80
  -1  -3 -16  117.29   12.50
  -2  -3 -16    1.80    2.10
   2   3  16    0.10    2.80
  -3  -3 -16   -3.10    5.50
  -3  -3 -16    0.20    2.20
   3   3  16    2.50    3.20
  -4  -3 -16   47.60   10.10
  -4  -3 -16   73.89    9.80
   4   3  16   59.99    6.50
  -5  -3 -16   78.59   11.80
  -5  -3 -16   70.99    9.90
   5   3  16   70.09    6.60
  -6  -3 -16   32.20   10.40
  -6  -3 -16   49.10    8.40
   6   3  16   37.60    5.50
  -7  -3 -16   82.59    9.60
  -7  -3 -16   55.49   10.10
   7   3  16   75.29    7.20
  -8  -3 -16   -2.50    5.80
  -8  -3 -16    2.20    6.60
   8   3  16    4.20    4.70
  -9  -3 -16    3.40    6.00
  -9  -3 -16    9.00    6.40
   9   3  16    8.60    5.10
 -10  -3 -16   39.30    7.30
 -10  -3 -16   40.90    7.00
 -11  -3 -16   -0.70    5.60
  11   3  16    3.90    5.90
   7  -4 -16   19.00   12.90
   5  -4 -16   13.60   11.00
   4  -4 -16    1.50    9.70
   3  -4 -16    8.40    8.80
   2  -4 -16  152.18   16.40
   1  -4 -16  189.58   17.20
   0  -4 -16   94.89    5.30
   0  -4 -16   72.99    5.10
   0  -4 -16  113.09   13.40
  -1  -4 -16   -3.70    1.90
  -1  -4 -16    5.20    6.90
   1   4  16    1.20    2.50
  -2  -4 -16   -3.20    2.40
  -2  -4 -16    2.10    6.20
   2   4  16    2.00    2.70
  -3  -4 -16   24.60    7.60
  -3  -4 -16   27.20    8.40
  -3  -4 -16   19.80    3.10
   3   4  16   21.40    3.80
  -4  -4 -16  150.98   14.80
  -4  -4 -16  182.28   13.90
   4   4  16  168.68   10.40
  -5  -4 -16  167.48   13.00
  -5  -4 -16  137.39   14.20
   5   4  16  164.18   10.30
  -6  -4 -16   40.50    8.80
  -6  -4 -16   50.09    7.90
   6   4  16   50.49    5.80
  -7  -4 -16   -3.20    5.10
  -7  -4 -16    1.80    5.70
   7   4  16    4.40    4.30
  -8  -4 -16    1.80    4.90
  -8  -4 -16    9.40    5.20
   8   4  16   -6.70    4.20
   9   4  16   55.69    7.10
  11   4  16   -4.70    5.70
   7  -5 -16    7.40   11.60
   5  -5 -16    3.70    9.60
   4  -5 -16   25.80   11.10
   3  -5 -16   97.79   14.60
   2  -5 -16   62.79   11.60
   1  -5 -16   16.40    8.20
   0  -5 -16   -1.40    1.80
   0  -5 -16   -8.30    6.90
   0   5  16    0.90    2.20
  -1  -5 -16   92.59   19.60
  -1  -5 -16   62.69    4.80
   1   5  16   77.49    5.40
  -2  -5 -16   20.30    7.30
  -2  -5 -16   13.20    3.10
   2   5  16   26.50    3.60
  -3  -5 -16  167.48   10.00
  -3  -5 -16  156.58   15.00
  -3  -5 -16  203.68   14.90
   3   5  16  203.58   10.70
  -4  -5 -16   96.69   13.50
  -4  -5 -16  111.69   11.40
   4   5  16   99.09    7.60
  -5  -5 -16   55.89    8.10
  -5  -5 -16   38.00    8.00
   5   5  16   56.59    5.80
  -6  -5 -16   39.70    7.60
  -6  -5 -16   37.00    6.70
   6   5  16   44.80    5.60
  -7  -5 -16   15.50    5.10
  -7  -5 -16   16.20    4.70
   7   5  16   19.50    4.90
   8   5  16   10.40    4.80
   9   5  16   52.99    6.70
   7  -6 -16   21.80   13.30
   6  -6 -16   -0.80   18.50
   5  -6 -16   17.50   11.00
   4  -6 -16  104.79   15.90
   3  -6 -16    5.80    8.60
   2  -6 -16   38.80   10.50
   1  -6 -16   34.10    9.80
   1  -6 -16   43.10    3.50
   0  -6 -16  171.08    9.30
   0  -6 -16  201.18   16.50
   0   6  16  176.68    9.50
  -1  -6 -16   17.50    2.70
  -1  -6 -16   21.50    7.80
   1   6  16   22.70    3.20
  -2  -6 -16   -0.10    5.80
  -2  -6 -16   -2.40    2.20
  -2  -6 -16   -7.40    5.70
   2   6  16    3.60    2.80
  -3  -6 -16   -2.90    5.60
  -3  -6 -16   -5.00    5.50
   3   6  16    4.50    3.20
  -4  -6 -16   -0.30    5.60
  -4  -6 -16    0.50    5.30
  -5  -6 -16   53.59    8.30
  -5  -6 -16   63.19    7.90
   5   6  16   52.39    5.70
  -6  -6 -16   37.90    5.50
  -6  -6 -16   30.20    5.80
   6   6  16   33.30    5.20
   7   6  16   81.79    7.40
   8   6  16   34.10    5.60
   9   6  16   10.30    5.20
  10   6  16   22.40    6.50
   6  -7 -16   16.20   13.70
   5  -7 -16   56.19   13.20
   4  -7 -16   16.50   10.60
   3  -7 -16   24.90   10.50
   2  -7 -16  155.18   16.70
   1  -7 -16  122.39    6.70
   1  -7 -16  126.99   15.10
   0  -7 -16   21.20    7.80
   0  -7 -16   10.50    2.40
   0   7  16   20.90    2.90
  -1  -7 -16    4.90    2.40
  -1  -7 -16    7.10    7.00
   1   7  16    2.50    2.80
  -2  -7 -16   60.49    4.90
  -2  -7 -16   82.09   10.40
   2   7  16   69.39    5.50
  -3  -7 -16    0.00    5.40
   3   7  16    0.00    3.10
  -4  -7 -16   30.60    7.10
  -4  -7 -16   53.19    7.50
   4   7  16   39.00    4.80
  -5  -7 -16  157.38   11.40
  -5  -7 -16  145.19   11.80
   5   7  16  163.58   10.10
   6   7  16  105.19    8.30
   7   7  16   -3.60    4.10
   8   7  16    8.70    4.70
   9   7  16   39.80    6.20
  10   7  16    7.20    5.20
   6  -8 -16   19.20   12.80
   5  -8 -16    9.30   11.40
   4  -8 -16   51.49   13.50
   3  -8 -16   79.99   14.50
   2  -8 -16    7.40    9.50
   1  -8 -16   47.30   11.20
   1  -8 -16   34.20    3.20
  -1   8  16   43.20    3.50
   0  -8 -16    6.70    7.90
   0  -8 -16    1.20    2.30
   0   8  16   -0.90    2.60
  -1  -8 -16    2.00    2.80
  -1  -8 -16    9.80    7.10
   1   8  16   10.30    3.10
  -2  -8 -16    2.90    6.00
  -2  -8 -16    4.70    2.80
   2   8  16    3.60    2.60
   2   8  16    1.90    5.00
   2   8  16   12.20    3.40
  -3  -8 -16   96.69   11.00
   3   8  16   91.29    7.10
  -4  -8 -16   87.69   10.30
  -4  -8 -16  111.89   10.60
   4   8  16  116.59    8.10
  -5  -8 -16   26.10    5.50
  -5  -8 -16   34.90    6.40
   5   8  16   27.40    4.70
   6   8  16   79.49    7.30
   7   8  16   50.09    6.20
   8   8  16  143.59   10.50
   9   8  16    6.70    4.80
  10   8  16    4.30    5.20
   6  -9 -16    6.20   12.70
   5  -9 -16   34.20   13.00
   4  -9 -16   17.20   11.50
   3  -9 -16   17.80   10.80
   2  -9 -16    5.50    2.00
   2  -9 -16    0.60    9.20
  -2   9  16    7.40    4.10
   1  -9 -16   39.90   11.30
   1  -9 -16   41.00    3.80
  -1   9  16   54.49    4.70
   0  -9 -16   21.00    9.10
   0  -9 -16   19.70    3.30
   0   9  16   23.00    3.60
  -1  -9 -16   20.40    3.50
  -1  -9 -16   21.50    8.80
   1   9  16   34.60    4.10
  -2  -9 -16   26.90    8.20
   2   9  16   17.30    6.20
   2   9  16   32.80    4.20
  -3  -9 -16  103.99   11.30
   3   9  16   89.79    9.80
   3   9  16   77.49    6.10
   3   9  16  119.39    7.60
  -4  -9 -16   10.00    5.80
  -4  -9 -16   -1.40    4.80
   4   9  16    7.40    4.00
   5   9  16   -4.40    3.90
   6   9  16   89.89    7.80
   7   9  16   78.79    7.50
   8   9  16   13.30    5.10
   9   9  16    6.00    5.80
   5 -10 -16   23.90   20.90
   4 -10 -16   13.30   11.60
   3 -10 -16   14.10   10.70
   2 -10 -16   63.39   13.50
   2 -10 -16   39.30    3.90
  -2  10  16   60.39    4.90
   1 -10 -16  123.49    8.20
   1 -10 -16  130.89   16.60
  -1  10  16  152.38    8.40
   0 -10 -16    1.20    8.40
   0 -10 -16    8.20    3.20
   0  10  16   13.70    3.60
   1  10  16    4.10    3.50
  -2 -10 -16    5.60    7.10
   2  10  16    4.80    5.70
   2  10  16    3.40    4.40
  -3 -10 -16   -4.00    6.00
   3  10  16   -0.30    6.50
   3  10  16   -3.40    3.70
  -4 -10 -16   21.90    6.50
   4  10  16   24.80    4.50
   5  10  16  113.49    8.80
   6  10  16   57.39    6.40
   7  10  16    3.30    4.60
   8  10  16   -2.50    4.80
   4 -11 -16    4.00   11.70
   3 -11 -16   12.20   12.00
  -3  11  16   33.00    3.70
   2 -11 -16   65.79   13.90
   2 -11 -16   40.10    4.50
  -2  11  16   69.69    5.40
   1 -11 -16   24.30   10.10
   1 -11 -16   13.20    3.60
  -1  11  16   19.10    3.70
   0 -11 -16    7.40    8.90
   0  11  16    0.30    3.40
  -1 -11 -16    6.50    8.20
   1  11  16    5.90    4.30
  -2 -11 -16    2.70    7.40
   2  11  16    8.00    3.80
  -3 -11 -16   39.00    8.90
   3  11  16   32.10   10.80
   3  11  16   57.09    5.90
  -4 -11 -16   68.69    8.90
   4  11  16   62.39    6.60
   5  11  16   91.39    8.10
   6  11  16    9.10    4.60
   7  11  16   -2.70    4.60
   8  11  16   17.00    5.70
   3 -12 -16   31.90   12.90
  -3  12  16   24.00    3.90
   2 -12 -16    6.00    3.70
   2 -12 -16    7.20   10.70
  -2  12  16    2.10    3.60
   1 -12 -16   -0.10    9.70
  -1  12  16    0.00    3.70
   0 -12 -16   29.20   10.80
   0  12  16   15.10    4.20
  -1 -12 -16    4.50    8.80
   1  12  16    1.30    3.90
  -2 -12 -16   32.80    9.80
   2  12  16   31.30    4.90
  -3 -12 -16   11.50    7.50
   3  12  16    4.90    5.70
   3  12  16   19.80    4.70
  -4 -12 -16   27.60    7.60
   4  12  16   47.10    5.70
   4  12  16   28.10    5.70
   5  12  16    1.80    4.60
   6  12  16   22.30    5.20
   2 -13 -16    0.50   11.10
   1 -13 -16   13.40   11.80
  -1  13  16   26.90    4.70
   0 -13 -16   12.20   10.80
   0  13  16   27.10    4.80
  -1 -13 -16    1.70    9.20
   1  13  16    3.80    4.30
  -2 -13 -16   -8.10   11.40
   2  13  16    4.50    4.50
  -3 -13 -16    5.80    7.80
   3  13  16   -1.20    4.30
   3  13  16   -5.20    5.80
  -4 -13 -16   -9.10    6.00
   4  13  16   -2.80    4.50
   4  13  16    1.00    4.40
   5  13  16   41.80    5.90
  -2   5 -17    3.20   10.40
  -2   5 -17    4.70    4.20
  -2   5 -17   -6.10    4.50
  -3   5 -17    3.90    9.80
  -3   5 -17    2.20    4.80
  -3   5 -17    2.20    4.20
   1   4 -17    5.10   10.40
   1   4 -17   -2.50    3.50
   0   4 -17    3.60    3.60
   0   4 -17    5.70   10.10
  -1   4 -17    7.90    9.90
  -1   4 -17    5.80    3.80
  -2   4 -17   -8.40   16.20
  -2   4 -17   10.30    7.80
  -2   4 -17   -0.80    3.80
  -3   4 -17   54.29    7.00
  -3   4 -17   52.49   12.50
  -3   4 -17   37.50    5.40
  -4   4 -17    9.50    9.00
  -4   4 -17    7.20    4.40
  -4   4 -17    5.30    4.70
  -5   4 -17   10.00    4.50
   6  -4  17   -2.90   13.70
   3   3 -17   -2.30    3.20
   3   3 -17    2.50   10.60
   2   3 -17   19.90    4.50
   2   3 -17   25.10   11.50
   1   3 -17   32.50   14.30
   1   3 -17   24.80    4.00
   0   3 -17    7.90    8.70
   0   3 -17    0.30    3.40
  -1   3 -17   -8.00    8.10
  -1   3 -17    0.30    3.50
  -2   3 -17   23.60    4.30
  -2   3 -17   16.60   10.00
  -3   3 -17    3.40    4.30
  -3   3 -17   15.60    4.10
  -3   3 -17   14.20    9.00
  -4   3 -17   11.20    8.00
  -4   3 -17    9.60    3.90
  -4   3 -17    8.80    4.40
  -5   3 -17    5.30    4.60
  -5   3 -17   -0.40    8.20
  -5   3 -17    5.40    4.10
  -6   3 -17   22.40    5.40
   7  -3  17    9.90   13.90
   4   2 -17   -8.00   10.40
   4   2 -17   -3.20    2.50
   3   2 -17   27.70    3.60
   3   2 -17   29.30   11.60
   2   2 -17   43.70    4.20
   2   2 -17   37.80    4.50
   1   2 -17    0.40    8.50
   1   2 -17    3.70    3.10
   0   2 -17    3.40    8.70
  -1   2 -17  -12.20    7.20
  -1   2 -17   -3.90    3.10
  -2   2 -17   16.60    3.80
  -2   2 -17   10.00    8.20
  -3   2 -17   -3.80    7.60
  -3   2 -17   -0.20    3.30
  -4   2 -17    8.70    4.20
  -4   2 -17   -2.00    3.40
  -4   2 -17   -1.90    7.60
  -5   2 -17    7.70    8.00
  -5   2 -17    9.70    3.90
  -5   2 -17    9.80    4.20
  -6   2 -17   11.00    8.70
  -6   2 -17    4.90    4.10
  -6   2 -17   13.20    4.40
  -7   2 -17    4.60    4.40
   7  -2  17  -10.20   11.20
  -8   2 -17   -3.20    5.20
   8  -2  17    2.50   12.90
   4   1 -17   62.49   13.80
   3   1 -17   18.80    2.80
   3   1 -17   21.70    3.00
   2   1 -17    7.50    2.90
   2   1 -17   -3.00    8.10
   2   1 -17   -1.50    2.50
   1   1 -17   -5.70    7.80
   1   1 -17    6.10    3.10
   1   1 -17    4.70    2.90
   0   1 -17   13.90    3.40
   0   1 -17   12.40    3.20
   0   1 -17    9.70    8.70
  -1   1 -17   -0.60    7.90
  -1   1 -17   -0.90    3.00
  -2   1 -17    2.70    3.20
  -2   1 -17   12.20    8.40
  -3   1 -17    7.90    3.30
  -3   1 -17   -8.10    7.50
  -4   1 -17   13.70    3.70
  -4   1 -17   13.60    8.10
  -5   1 -17   -1.00    3.90
  -5   1 -17    3.10    7.80
  -5   1 -17    5.20    3.50
  -6   1 -17   14.00    8.40
  -6   1 -17    1.30    4.00
  -6   1 -17   -2.30    4.00
  -7   1 -17    0.70    3.90
  -7   1 -17    5.90    4.50
  -7   1 -17    4.30    7.80
  -8   1 -17   70.49    7.70
   9  -1  17  -12.90   11.30
   5   0 -17   19.40   12.00
   4   0 -17   12.80   11.40
   3   0 -17   -1.90    9.70
   2   0 -17   20.40    9.60
   2   0 -17   18.90    2.60
   2   0 -17   21.10    2.60
   1   0 -17   59.59   12.10
   1   0 -17   76.99    5.40
   1   0 -17   62.69    5.20
   0   0 -17    7.80    8.00
   0   0 -17   10.00    2.80
   0   0 -17    9.10    2.90
  -1   0 -17   40.20    4.30
  -1   0 -17   45.30   10.50
  -1   0 -17   55.89    4.60
  -2   0 -17   11.40    3.50
  -2   0 -17    9.80    7.90
  -3   0 -17   13.00    3.40
  -3   0 -17   16.90    8.60
  -4   0 -17   31.00    9.40
  -4   0 -17   42.20    4.80
  -5   0 -17    6.50    3.60
  -5   0 -17    3.50    8.10
  -6   0 -17   53.89    5.80
  -6   0 -17   55.59   10.90
  -7   0 -17   40.40    9.70
  -7   0 -17   46.30    5.20
   7   0  17   28.10    6.10
  -8   0 -17    6.30    7.80
  -8   0 -17   12.30    4.10
   8   0  17    1.70    5.30
   9   0  17   -1.80    7.80
   5  -1 -17   26.20   11.20
   4  -1 -17   -7.00    9.30
   3  -1 -17   44.50   12.00
   2  -1 -17   78.69    6.20
   2  -1 -17   82.49   13.80
   1  -1 -17   36.00    3.20
   1  -1 -17   36.10    3.40
   1  -1 -17   50.09   11.20
   0  -1 -17   -5.90    6.80
   0  -1 -17    7.50    2.30
   0  -1 -17   -0.50    2.40
  -1  -1 -17    1.40    7.00
  -1  -1 -17    5.70    2.40
  -1  -1 -17    7.40    2.60
  -2  -1 -17   14.00    3.10
  -2  -1 -17   26.00    8.60
  -3  -1 -17   27.00    4.50
  -3  -1 -17   28.30    9.10
  -4  -1 -17    5.10    3.30
  -4  -1 -17    3.50    6.90
  -5  -1 -17    9.30    7.60
   5   1  17   13.90    4.50
  -6  -1 -17   59.49   10.40
   6   1  17   49.60    6.60
  -7  -1 -17   18.90    8.10
   7   1  17   17.80    5.30
  -8  -1 -17   13.10    4.00
  -8  -1 -17    9.00    7.70
   8   1  17   15.50    5.30
  -9  -1 -17    8.10    4.70
  -9  -1 -17    7.80    8.50
   9   1  17    1.00    5.70
 -10  -1 -17    9.20    7.70
 -10  -1 -17   25.20   15.00
   6  -2 -17   15.70   12.20
   5  -2 -17   -1.30   10.10
   4  -2 -17   45.20   12.00
   3  -2 -17   47.40   12.10
   2  -2 -17    2.40    8.70
   1  -2 -17   25.20    2.40
   1  -2 -17   22.70    9.50
   1  -2 -17   33.30    2.80
   0  -2 -17    4.50    2.00
   0  -2 -17    4.40    2.30
   0  -2 -17   -3.50    7.30
  -1  -2 -17   -0.70    2.40
  -1  -2 -17    0.10    7.10
  -1  -2 -17    2.10    3.40
  -2  -2 -17   -1.90    6.70
  -2  -2 -17    3.50    2.70
  -2  -2 -17   10.80    2.50
  -3  -2 -17   -8.10    6.30
  -4  -2 -17   -5.50    6.90
   4   2  17   -3.90    3.50
  -5  -2 -17    1.50   15.00
   5   2  17   -1.70    3.70
  -6  -2 -17   32.90    8.60
   6   2  17   29.20    5.40
  -7  -2 -17   57.89    9.90
   7   2  17   53.79    6.60
  -8  -2 -17   23.60    9.80
  -8  -2 -17   22.00    7.90
   8   2  17   24.60    5.80
  -9  -2 -17    6.10    7.20
  -9  -2 -17   12.60    8.60
   9   2  17    1.80    5.20
 -10  -2 -17    0.60    7.20
  10   2  17   -6.40    5.30
   6  -3 -17    5.70   11.60
   4  -3 -17   26.60   12.00
   3  -3 -17    4.10    8.80
   2  -3 -17   61.99   12.10
   1  -3 -17   32.70    2.80
   1  -3 -17   19.60    8.90
   0  -3 -17    4.60    1.90
   0  -3 -17   -5.00    6.80
   0  -3 -17    7.20    2.20
  -1  -3 -17    2.30    2.10
  -1  -3 -17   -4.10    6.50
  -1  -3 -17    3.60    2.30
  -2  -3 -17   28.80    8.40
  -2  -3 -17   14.20    2.70
  -3  -3 -17    9.20    7.20
   3   3  17   12.50    3.70
  -4  -3 -17   -5.40    5.90
   4   3  17    4.20    3.40
  -5  -3 -17   -1.20    6.30
   5   3  17   -3.10    3.70
  -6  -3 -17   34.50   10.00
  -6  -3 -17   59.29    9.50
   6   3  17   50.39    6.20
  -7  -3 -17   75.49   11.80
  -7  -3 -17   81.29   10.30
   7   3  17   75.79    7.60
  -8  -3 -17    9.80    7.00
  -8  -3 -17   12.70   11.50
   8   3  17    5.00    4.70
  -9  -3 -17   12.70    6.90
  -9  -3 -17    8.40    7.10
   9   3  17   -5.00    4.70
 -10  -3 -17   19.00    7.10
  10   3  17   25.70    6.20
   6  -4 -17   35.40   13.20
   5  -4 -17    1.10   12.10
   4  -4 -17    1.30    9.40
   3  -4 -17   56.19   12.10
   2  -4 -17  127.09   16.20
   1  -4 -17   34.40   10.00
   0  -4 -17   -4.90    1.80
   0  -4 -17   -1.00    7.30
   0  -4 -17    0.50    1.90
  -1  -4 -17   38.80    3.50
  -1  -4 -17   60.39   10.40
  -2  -4 -17   16.80    7.50
  -2  -4 -17   11.80    2.70
   2   4  17   17.90    3.30
  -3  -4 -17   67.69   10.40
   3   4  17   57.29    5.40
  -4  -4 -17    7.20    7.50
  -4  -4 -17    0.70    6.00
   4   4  17   -0.10    3.50
  -5  -4 -17   82.69   10.40
  -5  -4 -17   73.59   11.40
   5   4  17   92.69    7.50
  -6  -4 -17   84.99    9.80
  -6  -4 -17   61.39   16.00
   6   4  17   83.39    7.40
  -7  -4 -17   17.90    6.20
  -7  -4 -17   15.10    7.20
   7   4  17   12.40    5.00
  -8  -4 -17    7.40    6.20
  -8  -4 -17    6.30    5.30
   8   4  17   -4.80    4.40
  -9  -4 -17   42.20    6.80
  -9  -4 -17   34.30    5.80
   9   4  17   37.90    6.40
  10   4  17   13.30    6.00
   6  -5 -17    0.60   11.50
   5  -5 -17    2.40   10.90
   4  -5 -17   19.50   10.70
   3  -5 -17   67.39   13.90
   2  -5 -17   31.20   10.40
   1  -5 -17   -2.30    7.20
   0  -5 -17    6.60    7.50
   0  -5 -17   -0.70    1.80
  -1  -5 -17    8.30    7.50
  -1  -5 -17   14.10    2.50
   1   5  17   18.40    3.10
  -2  -5 -17    2.80    2.40
  -2  -5 -17    4.70   12.40
   2   5  17   14.30    3.20
  -3  -5 -17   -6.40    5.60
   3   5  17    1.70    3.10
  -4  -5 -17    2.30    6.00
  -4  -5 -17    6.90    6.90
   4   5  17    2.00    3.60
  -5  -5 -17   34.40    7.30
  -5  -5 -17   29.90    8.50
   5   5  17   34.70    5.10
  -6  -5 -17   -5.80    5.10
  -6  -5 -17   -1.70    6.00
   6   5  17    3.10    4.00
  -7  -5 -17    5.40    5.70
  -7  -5 -17    0.90    4.80
   7   5  17  -11.70    4.00
  -8  -5 -17   12.60    6.60
   8   5  17    7.80    5.00
   9   5  17   54.69    7.30
  10   5  17    0.30    5.40
   6  -6 -17    7.00   12.40
   5  -6 -17   -0.10   12.10
   4  -6 -17   51.79   13.50
   3  -6 -17   -9.70    8.30
   2  -6 -17   36.60   10.60
   1  -6 -17   12.00    8.20
   0  -6 -17   15.70    8.40
   0  -6 -17    4.70    2.00
   0   6  17    4.50    2.40
  -1  -6 -17    4.20    2.30
  -1  -6 -17   24.50    8.30
   1   6  17   15.70    3.10
  -2  -6 -17    3.40    6.40
  -2  -6 -17   -5.70    2.30
   2   6  17   -0.30    3.00
  -3  -6 -17   -1.00    5.60
  -3  -6 -17    2.10    6.40
   3   6  17   -0.80    3.20
  -4  -6 -17    6.00    5.80
  -4  -6 -17   -1.30   10.30
   4   6  17   13.60    3.90
  -5  -6 -17    6.30    6.20
  -5  -6 -17   23.30    6.40
   5   6  17   10.50    4.10
  -6  -6 -17    2.90    5.50
  -6  -6 -17    7.20    5.00
   6   6  17    9.00    4.40
   7   6  17   96.99    8.40
   8   6  17   41.90    6.20
   9   6  17   -0.60    5.10
  10   6  17    1.50    5.30
   6  -7 -17    4.30   11.40
   5  -7 -17   36.10   16.30
   4  -7 -17    0.70   10.00
   3  -7 -17   47.80   11.90
   2  -7 -17  111.49   15.80
   1  -7 -17   61.29    4.70
   1  -7 -17   49.40   11.30
   0  -7 -17   42.30    3.60
   0  -7 -17   60.99   11.30
   0   7  17   47.80    3.90
  -1  -7 -17   21.40    3.20
  -1  -7 -17   48.70    9.70
   1   7  17   36.30    4.00
  -2  -7 -17    4.50    6.70
  -2  -7 -17   -3.70    2.40
   2   7  17    5.30    3.10
  -3  -7 -17   30.80    8.10
  -3  -7 -17   60.29    9.30
   3   7  17   55.59    5.10
  -4  -7 -17    4.60    5.40
  -4  -7 -17    0.20    5.70
   4   7  17    0.50    3.60
  -5  -7 -17   67.19    7.90
  -5  -7 -17   37.70    7.60
   5   7  17   57.79    5.80
   6   7  17  185.78   11.80
   7   7  17   28.30    5.20
   8   7  17    1.10    4.60
   9   7  17   27.60    6.00
   5  -8 -17    1.00   17.00
   4  -8 -17   28.20   12.20
   3  -8 -17  119.99   16.70
   2  -8 -17   28.60   10.80
   1  -8 -17    4.90    8.10
   1  -8 -17    4.10    2.10
  -1   8  17    7.10    2.70
   0  -8 -17   17.70    8.40
   0  -8 -17    7.90    2.50
   0   8  17   12.50    2.90
  -1  -8 -17   -0.20    3.00
  -1  -8 -17   14.70    7.80
   1   8  17    0.30    3.00
  -2  -8 -17   26.00    4.20
  -2  -8 -17   49.80    9.20
   2   8  17   43.10    4.50
  -3  -8 -17    0.70    5.90
  -3  -8 -17    4.60    6.40
   3   8  17   -0.50    6.00
  -4  -8 -17   -3.00    5.50
  -4  -8 -17    7.10    5.70
   4   8  17    3.20    3.50
  -5  -8 -17   36.20    6.40
  -5  -8 -17   34.50    6.80
   5   8  17   42.40    5.30
   6   8  17  119.59    9.10
   7   8  17    9.60    4.50
   8   8  17  128.29   10.10
   9   8  17   12.80    9.50
   5  -9 -17   10.80   11.40
   4  -9 -17   13.20   11.50
   3  -9 -17   32.40   12.30
   2  -9 -17   -7.50    8.20
   1  -9 -17   13.80    9.10
   1  -9 -17   11.20    2.60
  -1   9  17   15.10    2.80
   0  -9 -17   -3.40    7.70
   0  -9 -17   -1.80    2.50
   0   9  17    0.40    2.90
  -1  -9 -17   27.30    3.80
  -1  -9 -17   39.50    9.90
   1   9  17   44.80    4.70
  -2  -9 -17    1.30    7.10
   2   9  17    3.60    3.50
  -3  -9 -17   27.20    7.80
   3   9  17   22.20    4.30
  -4  -9 -17   21.50    6.60
  -4  -9 -17   13.30    6.30
   4   9  17   12.80    4.10
  -5  -9 -17   19.70    6.60
  -5  -9 -17   18.00    5.40
   5   9  17   19.70    4.50
   6   9  17   35.00    5.60
   7   9  17   62.99    6.90
   8   9  17    8.70    4.90
   4 -10 -17   20.20   11.70
   3 -10 -17    1.60   10.90
   2 -10 -17   36.20    3.30
   2 -10 -17   35.20   11.80
  -2  10  17   49.50    4.20
   1 -10 -17   19.60    3.30
   1 -10 -17   31.50   11.10
  -1  10  17   26.60    3.60
   0 -10 -17    2.30    3.10
   0 -10 -17   -1.70    8.40
   0  10  17    2.10    3.30
  -1 -10 -17   -0.90    7.60
   1  10  17    8.30    3.60
  -2 -10 -17   41.10    9.60
   2  10  17   30.80    4.60
  -3 -10 -17   11.50    7.10
   3  10  17    2.60    3.60
   3  10  17    0.20    2.60
   3  10  17    9.80    5.30
  -4 -10 -17   -1.70    5.90
  -4 -10 -17   -2.20    5.50
   4  10  17    0.20    4.10
   5  10  17   78.39    7.20
   6  10  17   56.39    6.30
   7  10  17    1.30    4.50
   3 -11 -17   49.10   14.30
   2 -11 -17   17.30   10.60
   2 -11 -17   23.00    3.40
   1 -11 -17   15.00   10.50
   1 -11 -17    9.80    3.50
  -1  11  17   15.50    3.60
   0 -11 -17    0.00    8.50
   0  11  17    2.60    3.60
  -1 -11 -17   44.80   10.60
  -2 -11 -17   10.50    8.20
   2  11  17    6.00    4.00
  -3 -11 -17    5.00    7.20
   3  11  17    2.70    4.00
   3  11  17    3.60    5.30
  -4 -11 -17   33.90    7.30
   4  11  17   31.30    5.30
   5  11  17   84.49    7.70
   6  11  17    2.50    4.80
   7  11  17    4.10    5.00
   2 -12 -17   -3.00   10.20
  -2  12  17   10.10    3.50
   1 -12 -17   -6.40   10.10
  -1  12  17    1.80    3.50
   0 -12 -17   27.60   11.00
   0  12  17   17.50    5.70
  -1 -12 -17   13.10    9.40
   1  12  17    2.00    3.90
  -2 -12 -17   22.60   17.40
   2  12  17    8.30    4.30
  -3 -12 -17    3.30    7.30
   3  12  17    7.10    4.40
   3  12  17   -0.20    5.50
  -4 -12 -17   28.00    7.70
   4  12  17   37.50    5.60
   5  12  17    1.60    4.50
   0 -13 -17    0.40   10.00
   0  13  17    6.30    4.30
  -1 -13 -17    2.30    9.60
   1  13  17   -6.20    4.00
  -2 -13 -17   12.90    9.30
   2  13  17    2.60    4.40
  -3 -13 -17   10.20    8.10
   3  13  17    3.80    4.50
   1   3 -18    8.00    3.60
   1   3 -18    6.30   10.10
   0   3 -18   10.50   11.00
   0   3 -18    6.00    3.60
  -1   3 -18   -2.90    3.50
  -1   3 -18  -12.10    8.80
  -2   3 -18   16.70    4.30
  -2   3 -18   19.20   18.40
  -3   3 -18    2.40    3.90
  -3   3 -18    1.30    9.20
  -4   3 -18    4.80    4.60
  -4   3 -18    6.50    4.30
  -4   3 -18   -2.30    8.70
  -5   3 -18    2.40    4.50
  -5   3 -18   12.90   10.00
  -5   3 -18   11.00    4.50
   2   2 -18   27.50    3.80
   2   2 -18   20.30   11.00
   1   2 -18    7.00    9.80
   1   2 -18    4.40    3.40
   0   2 -18   -2.40   13.50
   0   2 -18   -4.10    3.20
  -1   2 -18    1.80    9.50
  -1   2 -18    9.60    3.70
  -2   2 -18   12.70    9.60
  -2   2 -18   14.00    4.00
  -3   2 -18   -7.90    3.30
  -3   2 -18    2.40    8.50
  -4   2 -18   10.40    9.10
  -4   2 -18    5.90    3.80
  -5   2 -18   11.30    9.30
  -5   2 -18    8.70    4.20
  -5   2 -18   13.10    4.80
  -6   2 -18    5.00    4.30
  -6   2 -18   15.20    4.70
  -6   2 -18   11.20    8.80
  -7   2 -18   -1.40    8.60
  -7   2 -18   -3.20    4.20
   3   1 -18   45.90   13.30
   3   1 -18   20.40    2.80
   2   1 -18    9.90    9.70
   2   1 -18   13.90    3.10
   2   1 -18   -2.80    2.60
   1   1 -18   -2.20    2.90
   1   1 -18   11.10    3.10
   1   1 -18   -1.90    9.30
   0   1 -18   15.90    9.20
   0   1 -18   19.20    3.70
  -1   1 -18   22.70    4.10
  -1   1 -18   27.60    9.90
  -2   1 -18   10.30    3.60
  -2   1 -18    5.80    8.30
  -3   1 -18    1.00    3.40
  -3   1 -18    0.60    7.90
  -4   1 -18   33.20    4.70
  -4   1 -18   47.00   10.60
  -5   1 -18   -4.70    3.40
  -5   1 -18    2.10    8.00
  -6   1 -18   -4.10    3.70
  -6   1 -18   -1.50    4.30
  -6   1 -18    2.60    8.70
  -7   1 -18  -14.50    7.40
  -7   1 -18   -0.70    4.40
  -7   1 -18    8.90    4.40
  -8   1 -18   35.80   10.60
  -8   1 -18   44.20    6.70
  -8   1 -18   31.30    5.50
   4   0 -18   11.40   11.30
   3   0 -18   21.00   11.10
   2   0 -18    6.60    9.80
   2   0 -18    5.90    2.20
   2   0 -18   -4.70    2.10
   1   0 -18   40.30    3.80
   1   0 -18   29.50    3.50
   1   0 -18   40.30   11.50
   0   0 -18   10.30    9.10
   0   0 -18   25.80    3.40
   0   0 -18   21.10    3.40
  -1   0 -18    6.70    3.00
  -1   0 -18   -2.90    7.80
  -2   0 -18   -5.80    7.70
  -2   0 -18    0.40    3.10
  -3   0 -18   16.80    3.70
  -3   0 -18   17.50    8.90
  -4   0 -18   16.00    3.70
  -4   0 -18   10.80    8.50
  -5   0 -18    5.90    3.90
  -5   0 -18    5.50    8.00
  -6   0 -18    9.30    8.30
  -6   0 -18    9.40    4.20
  -7   0 -18   10.60    4.50
  -7   0 -18    8.70    8.80
  -8   0 -18   -1.10    7.90
  -8   0 -18   -3.20    4.00
   8   0  18   13.20    5.60
   4  -1 -18    6.30   10.90
   3  -1 -18   -4.20   16.00
   2  -1 -18   36.20   11.20
   1  -1 -18   67.29   12.50
   1  -1 -18   39.70    3.60
   1  -1 -18   42.20    3.90
   0  -1 -18   -9.80    7.70
   0  -1 -18   -1.40    2.60
   0  -1 -18    6.50    2.40
  -1  -1 -18   14.80    2.80
  -1  -1 -18    6.30    3.00
  -1  -1 -18   15.20    8.30
  -2  -1 -18   20.50    3.60
  -2  -1 -18   10.70    8.30
  -3  -1 -18  -10.70    6.80
  -3  -1 -18   -3.40    2.80
  -4  -1 -18   16.70    3.80
  -4  -1 -18    7.60    8.40
  -5  -1 -18    0.00    7.30
  -6  -1 -18    7.10    7.80
   6   1  18    4.30    4.50
  -7  -1 -18   -3.60    7.60
   7   1  18   -5.80    4.70
  -8  -1 -18   16.40    8.50
   8   1  18   13.20    5.70
  -9  -1 -18   -1.50    7.70
   9   1  18   -1.50    5.60
   5  -2 -18   -3.40   10.40
   4  -2 -18   13.20   11.40
   3  -2 -18   56.59   13.10
   2  -2 -18   44.20   12.50
   1  -2 -18    5.30    1.80
   1  -2 -18    5.60    2.10
   1  -2 -18    6.60    8.30
   0  -2 -18    8.80    8.40
   0  -2 -18    1.60    2.50
   0  -2 -18    7.20    2.20
  -1  -2 -18   44.20    4.40
  -1  -2 -18   63.99    4.90
  -1  -2 -18   80.39   12.50
  -2  -2 -18   14.70    8.30
  -2  -2 -18   11.90    4.40
  -2  -2 -18   12.20    3.10
  -3  -2 -18   19.80    4.00
  -3  -2 -18    1.30    7.20
  -4  -2 -18   10.60    8.20
  -5  -2 -18   -1.50    7.20
   5   2  18    2.30    4.00
  -6  -2 -18   -2.90    7.20
   6   2  18   -3.50    4.20
  -7  -2 -18   51.09   12.60
   7   2  18   38.10    6.20
  -8  -2 -18   18.40    9.40
   8   2  18   29.00    6.20
  -9  -2 -18    5.50    7.60
   5  -3 -18   16.90   11.50
   3  -3 -18   18.40   10.50
   2  -3 -18   -8.40    8.10
   1  -3 -18    2.10    8.10
   0  -3 -18   34.80    3.40
   0  -3 -18   27.70   10.10
  -1  -3 -18   29.60    9.40
  -1  -3 -18   26.00    3.20
  -1  -3 -18   22.00    3.00
  -2  -3 -18   32.20    8.80
  -2  -3 -18   23.40    3.40
  -2  -3 -18   24.60    3.30
  -3  -3 -18   58.79   10.60
   3   3  18   59.99    5.70
  -4  -3 -18    3.70    7.20
   4   3  18    6.30    3.90
  -5  -3 -18  -31.00   13.50
   5   3  18   -0.60    3.80
  -6  -3 -18   27.80    8.50
   6   3  18   31.20    5.40
  -7  -3 -18   17.90    9.20
  -7  -3 -18   20.50    7.80
   7   3  18   29.60    5.70
  -8  -3 -18   11.80    8.60
  -8  -3 -18    7.20    7.30
   8   3  18   11.70    5.30
  -9  -3 -18    3.70    7.10
   9   3  18    2.20    8.20
   5  -4 -18    4.70   10.70
   4  -4 -18   -8.70   10.70
   3  -4 -18    3.60    9.90
   2  -4 -18    4.20    8.80
   1  -4 -18   35.50   10.30
   0  -4 -18   32.90   10.00
   0  -4 -18   32.10    2.90
   0  -4 -18   25.00    2.80
  -1  -4 -18   31.90    3.20
  -1  -4 -18   33.40   10.10
  -1  -4 -18   16.30    2.80
  -2  -4 -18    7.20    2.70
  -2  -4 -18   32.40    8.90
   2   4  18   18.30    3.70
  -3  -4 -18    7.70    6.80
   3   4  18    6.90    3.60
  -4  -4 -18   10.20    7.60
   4   4  18    3.60    3.80
  -5  -4 -18   69.09    9.90
   5   4  18   64.29    6.50
  -6  -4 -18    1.80    6.30
  -6  -4 -18    4.80    7.80
   6   4  18   -0.40    4.20
  -7  -4 -18   -7.30    5.50
   7   4  18   -6.70    4.30
  -8  -4 -18   13.40    7.40
  -8  -4 -18   -2.00    5.50
   8   4  18    2.00    4.80
  -9  -4 -18   11.40    5.50
  -9  -4 -18   11.40    7.80
   9   4  18   16.50    6.50
   5  -5 -18    8.00   10.80
   4  -5 -18   11.20   10.70
   3  -5 -18   31.90   11.50
   2  -5 -18   58.29   12.10
   1  -5 -18   33.50   10.40
   0  -5 -18   22.80    2.60
   0  -5 -18   23.10    9.00
   0  -5 -18   18.20    2.50
  -1  -5 -18   86.19   12.10
  -1  -5 -18   53.99    4.50
  -2  -5 -18    7.80    2.70
  -2  -5 -18   29.00    8.20
   2   5  18   23.60    3.70
   3   5  18   26.00    4.10
  -4  -5 -18   79.09   10.70
   4   5  18   80.99    7.10
  -5  -5 -18    7.50    7.50
  -5  -5 -18    6.40    6.50
   5   5  18    8.40    4.10
  -6  -5 -18   20.10    8.10
  -6  -5 -18   21.20    6.70
   6   5  18   28.10    5.20
  -7  -5 -18   10.50    5.70
  -7  -5 -18   16.70    7.20
   7   5  18   17.70    5.30
  -8  -5 -18   18.20    5.70
  -8  -5 -18   19.80    5.10
   8   5  18   15.00    5.50
   9   5  18   -7.90    5.90
   5  -6 -18    7.50   11.00
   4  -6 -18   23.00   11.00
   3  -6 -18    5.20   10.00
   2  -6 -18   -2.00    8.70
   1  -6 -18    7.80    8.80
   0  -6 -18   72.09   12.30
   0  -6 -18   58.09    4.30
  -1  -6 -18    2.30    8.00
  -1  -6 -18    1.80    2.40
   1   6  18    9.00    2.90
  -2  -6 -18   -2.80    6.40
  -2  -6 -18   -1.80    2.40
   2   6  18    5.30    3.10
  -3  -6 -18   56.99   10.20
   3   6  18   74.19    6.20
  -4  -6 -18   37.70    8.50
  -4  -6 -18   26.20    8.70
   4   6  18   33.40    4.80
  -5  -6 -18   13.60    6.40
  -5  -6 -18    6.80    8.10
   5   6  18   13.30    4.20
  -6  -6 -18   18.30    5.80
  -6  -6 -18   -0.40    6.00
   6   6  18    5.20    4.30
  -7  -6 -18   58.59    7.50
  -7  -6 -18   65.59    7.80
   7   6  18   54.79    6.70
   8   6  18   13.60    5.40
   5  -7 -18   22.80   11.90
   4  -7 -18    5.60   10.60
   3  -7 -18   22.50   10.80
   2  -7 -18   29.80   11.20
   1  -7 -18   64.09   12.20
   0  -7 -18    4.50    2.20
   0  -7 -18   11.60    8.50
   0   7  18    6.00    2.50
  -1  -7 -18   15.20    7.90
  -1  -7 -18    2.50    2.50
   1   7  18    5.10    3.00
  -2  -7 -18   -3.30    2.70
  -2  -7 -18    5.90    7.40
   2   7  18    5.20    3.40
  -3  -7 -18   32.90    8.40
   3   7  18   38.70    4.80
  -4  -7 -18    7.30    7.10
  -4  -7 -18    7.70    6.00
   4   7  18    6.70    4.00
  -5  -7 -18   17.30    6.10
  -5  -7 -18    8.70    6.50
   5   7  18   14.50    4.30
  -6  -7 -18   81.99    9.40
  -6  -7 -18  106.49    9.10
   6   7  18   96.79    8.40
   7   7  18    2.20    4.30
   8   7  18    4.20    4.80
   9   7  18    4.80    6.00
   4  -8 -18   13.50   11.80
   3  -8 -18   67.19   14.20
   2  -8 -18   14.10   10.10
   1  -8 -18   -9.60    7.60
   0  -8 -18   11.90    2.60
   0  -8 -18   25.30    9.40
   0   8  18   17.00    3.10
  -1  -8 -18   10.20    8.20
  -1  -8 -18   -0.20    4.30
   1   8  18    6.70    3.20
  -2  -8 -18   32.30   15.20
   2   8  18   15.70    3.90
  -3  -8 -18    5.90    6.60
  -3  -8 -18   -2.50    6.60
   3   8  18   -0.90    4.40
  -4  -8 -18   20.10    6.90
   4   8  18    8.30    4.00
  -5  -8 -18   26.70    6.50
  -5  -8 -18   18.60    6.70
   5   8  18   21.30    4.70
   6   8  18    4.10    4.30
   7   8  18   11.60    4.80
   8   8  18   59.49    7.00
   4  -9 -18   25.20   22.40
   3  -9 -18   22.10   11.30
   2  -9 -18    7.10   10.00
   1  -9 -18    9.50    2.40
   1  -9 -18   21.50   10.30
  -1   9  18   14.20    2.80
   0  -9 -18   12.60    3.00
   0  -9 -18    8.20    8.60
   0   9  18   16.90    3.30
  -1  -9 -18   56.59    5.10
  -1  -9 -18   78.39   12.60
   1   9  18   84.09    6.30
  -2  -9 -18   20.30   14.60
   2   9  18   15.40    3.80
  -3  -9 -18   32.50    8.90
  -3  -9 -18   61.59   10.60
   3   9  18   62.79    5.60
  -4  -9 -18    1.00    6.20
  -4  -9 -18    5.90    6.30
   4   9  18   -2.40    3.70
  -5  -9 -18    2.80    5.40
  -5  -9 -18    6.00    5.00
   5   9  18   10.50    4.20
   6   9  18   43.30    5.90
   7   9  18   45.40    6.10
   8   9  18   15.90    6.30
   3 -10 -18   -0.60   10.40
   2 -10 -18   22.10   11.40
   1 -10 -18   18.80   10.40
   1 -10 -18   12.00    2.90
  -1  10  18   21.70    3.20
   0 -10 -18   12.90    4.00
   0 -10 -18   17.10   10.00
   0  10  18   24.50    3.70
  -1 -10 -18   -4.60    7.80
   1  10  18    8.20    3.50
   2  10  18   52.89    5.50
  -3 -10 -18   12.40    7.50
   3  10  18   13.10    4.10
  -4 -10 -18   -2.40    6.00
  -4 -10 -18    6.80    6.40
   4  10  18    2.60    3.90
  -5 -10 -18   32.60    6.90
   5  10  18   43.40    5.80
   6  10  18   26.30    5.30
   7  10  18    9.60    4.90
   2 -11 -18   14.70   11.40
  -2  11  18   17.40    3.00
   1 -11 -18    3.40   10.70
  -1  11  18   22.70    3.70
   0 -11 -18    4.30    4.30
   0 -11 -18    6.90    9.10
   0  11  18    6.10    3.60
  -1 -11 -18   21.50    9.70
  -2 -11 -18   11.10   10.10
   2  11  18    9.00    4.10
  -3 -11 -18    4.80    7.70
   3  11  18    3.80    5.50
   3  11  18    2.40    4.00
   3  11  18    9.50    3.00
  -4 -11 -18   36.50    8.30
  -4 -11 -18   15.40    6.80
   4  11  18   32.70    5.20
   5  11  18   27.20    5.30
   6  11  18   -1.70    4.60
   0 -12 -18   32.40   11.80
   0  12  18   52.19    7.30
  -1 -12 -18    5.70    9.40
   1  12  18    9.00    4.10
  -2 -12 -18   -1.40    8.90
   2  12  18   -0.50    4.00
  -3 -12 -18    7.90    8.30
   3  12  18    2.30    4.20
  -4 -12 -18   36.40    8.20
   4  12  18   40.60    5.80
  -1   2 -19   -0.20    3.50
  -1   2 -19   11.60   10.10
  -2   2 -19   11.50    4.00
  -2   2 -19   18.00   19.00
  -3   2 -19    7.80   10.80
  -3   2 -19   -0.80    3.70
  -4   2 -19    2.80    4.00
  -4   2 -19   12.60   10.00
   1   1 -19   -8.40    3.00
   1   1 -19    0.40    9.40
   0   1 -19   13.40    3.80
   0   1 -19   23.70   14.10
  -1   1 -19   30.00   11.00
  -1   1 -19   27.70    4.30
  -2   1 -19    2.60    8.90
  -2   1 -19    7.40    3.60
  -3   1 -19    4.90    3.60
  -3   1 -19    8.40    9.10
  -4   1 -19   13.10    9.30
  -4   1 -19   19.90    4.30
  -5   1 -19    5.10    9.40
  -5   1 -19    1.10    3.80
  -6   1 -19   -6.70    3.70
  -6   1 -19   -0.30    8.80
   2   0 -19   -3.80    9.30
   2   0 -19   -1.70    2.30
   1   0 -19   36.10    3.80
   1   0 -19   30.20    4.00
   0   0 -19   36.40    4.10
   0   0 -19   35.20   11.90
   0   0 -19   31.10    3.80
  -1   0 -19    3.00    8.60
  -1   0 -19   -0.90    3.60
  -2   0 -19    4.80    3.30
  -2   0 -19    1.10    7.90
  -3   0 -19   12.80    3.90
  -3   0 -19   15.40    9.50
  -4   0 -19    6.70    3.80
  -4   0 -19   15.20    9.00
  -5   0 -19   -3.70    3.60
  -5   0 -19    0.00    8.10
  -6   0 -19   14.20    9.90
  -6   0 -19   15.90    4.60
  -7   0 -19   17.70   10.20
  -7   0 -19   22.80    5.20
   3  -1 -19   -1.90   10.80
   2  -1 -19   47.20   15.60
   1  -1 -19   25.50    3.00
   1  -1 -19   45.30   12.10
   1  -1 -19   35.20    3.40
   0  -1 -19    3.00    9.00
   0  -1 -19    1.90    2.70
  -1  -1 -19    7.70    3.00
  -1  -1 -19    0.60    8.00
  -1  -1 -19   11.40    3.20
  -2  -1 -19    1.10    3.90
  -2  -1 -19   -0.60    8.20
  -3  -1 -19    1.20    3.30
  -3  -1 -19   -1.30    7.80
  -4  -1 -19    3.20    8.20
  -4  -1 -19    5.90    3.40
  -5  -1 -19   34.20   10.10
  -5  -1 -19   39.30    4.90
  -6  -1 -19   34.80   10.00
  -7  -1 -19    0.30    8.20
   7   1  19   -4.70    4.60
   3  -2 -19   32.10   11.60
   2  -2 -19   54.49   13.50
   1  -2 -19   -2.80    1.80
   1  -2 -19   -0.70    2.40
   1  -2 -19    2.80    8.60
   0  -2 -19    8.20    2.30
   0  -2 -19    8.40    2.70
   0  -2 -19    4.60    8.60
  -1  -2 -19   40.80    4.00
  -1  -2 -19   30.00    3.70
  -1  -2 -19   55.09   11.80
  -2  -2 -19    1.20    8.10
  -2  -2 -19    8.60    3.10
  -3  -2 -19   -2.70    7.60
  -3  -2 -19    5.80    3.40
  -4  -2 -19   17.10    8.90
  -4  -2 -19   22.20    4.10
  -5  -2 -19   26.20    9.50
   5   2  19   23.80    5.10
  -6  -2 -19    7.40    8.10
   6   2  19    0.70    4.40
  -7  -2 -19   33.10   10.00
   7   2  19   32.00    6.10
  -8  -2 -19   13.30    8.60
   8   2  19   15.80    5.70
   4  -3 -19   49.99   13.70
   3  -3 -19   65.89   22.10
   2  -3 -19    6.90    9.80
   1  -3 -19   12.20    8.90
   0  -3 -19   38.50   10.80
   0  -3 -19   39.20    3.60
  -1  -3 -19   24.00    3.30
  -1  -3 -19   24.10    9.40
  -2  -3 -19    1.30    3.00
  -2  -3 -19    2.10    2.70
  -2  -3 -19   -6.10    6.60
  -3  -3 -19   24.60    8.70
  -4  -3 -19    9.20    7.80
   4   3  19   16.00    4.40
  -5  -3 -19   -2.10    6.70
   5   3  19    0.10    4.00
  -6  -3 -19   18.90    8.20
   6   3  19   24.30    5.30
  -7  -3 -19   32.60   10.20
   7   3  19   22.90    5.60
  -8  -3 -19   10.40    7.60
   8   3  19    9.80    5.50
   4  -4 -19   27.80   12.10
   3  -4 -19    3.50   11.40
   2  -4 -19   13.20    9.80
   1  -4 -19   37.40   10.90
   0  -4 -19   19.10    9.80
   0  -4 -19   11.10    2.20
  -1  -4 -19   10.50    8.50
  -1  -4 -19    6.20    2.60
  -1  -4 -19   -3.90    2.20
  -2  -4 -19   12.00    8.20
  -3  -4 -19    0.10    7.20
   3   4  19   10.00    4.10
  -4  -4 -19   -1.60    6.80
   4   4  19    8.50    4.00
  -5  -4 -19  102.39   20.00
   5   4  19   78.99    7.30
  -6  -4 -19    6.90    6.90
   6   4  19   14.40    4.80
  -7  -4 -19    0.70    8.00
  -7  -4 -19    3.80    6.50
   7   4  19    5.50    4.90
  -8  -4 -19    9.90    6.70
   8   4  19   14.00    5.40
   4  -5 -19    6.00   10.80
   3  -5 -19   23.60   11.00
   2  -5 -19   43.70   11.60
   1  -5 -19   36.10   11.10
   0  -5 -19   10.80    9.20
   0  -5 -19   15.50    2.40
   0  -5 -19   15.70    2.40
  -1  -5 -19   46.90   10.60
  -1  -5 -19   24.10    3.10
  -2  -5 -19    9.60    3.00
  -2  -5 -19   31.90    9.10
   2   5  19   23.60    3.90
  -3  -5 -19    8.30    7.10
   3   5  19    6.30    3.60
  -4  -5 -19   86.39   16.10
   4   5  19   84.69    7.50
  -5  -5 -19   26.40    8.00
   5   5  19   30.90    5.20
  -6  -5 -19    0.40    7.60
  -6  -5 -19   -7.70    5.80
   6   5  19    1.40    4.40
  -7  -5 -19   20.60    8.20
  -7  -5 -19   37.10    7.40
   7   5  19   27.50    5.60
  -8  -5 -19   32.40    6.40
   4  -6 -19   30.10   12.20
   3  -6 -19   44.30   12.70
   2  -6 -19   -2.20    8.50
   1  -6 -19   18.60   10.10
   0  -6 -19   58.59    4.00
   0  -6 -19   42.50    3.90
   0  -6 -19   65.89   12.20
  -1  -6 -19   19.90    8.90
  -1  -6 -19   12.10    2.80
   1   6  19   18.80    3.30
  -2  -6 -19    0.90    7.00
  -2  -6 -19   -6.70    2.50
   2   6  19    2.50    3.10
  -3  -6 -19   58.09   10.20
   3   6  19   63.29    5.80
  -4  -6 -19   32.80    8.00
   4   6  19   34.40    4.90
  -5  -6 -19   -1.40    7.50
  -5  -6 -19    4.80    6.40
   5   6  19    3.60    4.00
  -6  -6 -19   12.60    7.60
  -6  -6 -19    8.60    5.90
   6   6  19   10.80    4.80
  -7  -6 -19   50.59    8.30
  -7  -6 -19   50.29    7.00
   7   6  19   53.69    6.60
   8   6  19   18.30    5.60
   3  -7 -19   17.70   11.40
   2  -7 -19   15.50   10.00
   1  -7 -19   81.49   13.90
   0  -7 -19    1.90    2.10
   0  -7 -19    2.10    8.10
  -1  -7 -19   -1.10    2.50
  -1  -7 -19    6.70    8.20
   1   7  19   -2.60    2.80
  -2  -7 -19    6.10    7.60
  -2  -7 -19   -5.60    2.70
   2   7  19    1.50    3.30
  -4  -7 -19   -7.70    7.00
  -4  -7 -19    1.10    6.20
   4   7  19    5.20    4.00
  -5  -7 -19   11.20    5.80
   5   7  19    4.50    4.30
  -6  -7 -19  117.39   10.80
  -6  -7 -19  104.19   11.60
   6   7  19  126.19    9.60
   7   7  19    5.90    4.80
   8   7  19    6.60    5.10
   3  -8 -19   21.20   11.30
   2  -8 -19   36.10   11.70
   1  -8 -19    4.30    9.30
   0  -8 -19    5.00    8.50
   0  -8 -19    4.00    2.50
   0   8  19   10.70    2.70
  -1  -8 -19   30.30    9.80
   1   8  19   10.10    3.50
  -2  -8 -19    6.90    7.60
   2   8  19    7.80    3.70
  -3  -8 -19   -5.40    6.20
   3   8  19    5.80    3.90
  -4  -8 -19   22.10    7.20
  -4  -8 -19    0.80    7.20
   4   8  19   12.60    4.40
  -5  -8 -19   40.90    9.00
  -5  -8 -19   80.79    9.30
   5   8  19   64.09    6.60
  -6  -8 -19    0.70    5.70
   6   8  19    4.90    4.50
   7   8  19   16.40    5.40
   2  -9 -19   16.70   10.60
   1  -9 -19    7.30    9.70
   0  -9 -19   11.20    2.90
   0  -9 -19    7.50    9.30
   0   9  19   15.60    3.30
  -1  -9 -19   77.89   12.40
  -1  -9 -19   47.10    4.60
  -2  -9 -19    3.40    7.60
   2   9  19   12.90    3.90
  -3  -9 -19   44.80    9.50
   3   9  19   41.60    5.20
  -4  -9 -19   14.50    8.10
  -4  -9 -19   25.80    7.90
   4   9  19   21.50    4.60
  -5  -9 -19   14.70    6.00
  -5  -9 -19    3.70    6.30
   5   9  19    1.20    4.30
   6   9  19   22.60    5.00
   7   9  19   57.29    6.90
   2 -10 -19   14.90   10.40
   1 -10 -19   20.10   11.90
   1 -10 -19   19.80    4.30
  -1  10  19   25.40    3.20
   0 -10 -19   47.70   11.70
   0  10  19   44.90    4.50
  -1 -10 -19   -3.50    8.80
   1  10  19    5.20    3.40
  -2 -10 -19   39.00   10.40
   2  10  19   34.90    5.00
  -3 -10 -19   22.40    8.60
   3  10  19   20.50    4.40
  -4 -10 -19    1.90    6.80
   4  10  19    7.20    4.20
  -5 -10 -19   30.10    7.60
  -5 -10 -19   32.70    6.80
   5  10  19   36.50    5.40
   6  10  19   47.20    6.20
   0 -11 -19   -8.50    9.50
   0  11  19    7.00    3.40
  -1 -11 -19   28.30   10.90
   1  11  19   23.00    4.90
  -2 -11 -19   25.80    9.30
   2  11  19   19.10    4.40
  -3 -11 -19   -3.40    7.50
   3  11  19    9.60    4.30
  -4 -11 -19   40.70    9.10
   4  11  19   44.20    5.80
   0   0 -20   48.00    4.80
   0   0 -20   31.70   12.10
  -1   0 -20    8.70    3.90
  -1   0 -20    7.90   17.10
  -2   0 -20   -9.60    8.50
  -2   0 -20   -1.90    3.40
  -3   0 -20   33.10    4.80
  -3   0 -20   28.70   10.30
  -4   0 -20   12.30    9.70
  -4   0 -20    9.10    4.00
  -5   0 -20   -3.90    3.70
  -5   0 -20    4.10    9.40
   1  -1 -20   25.40    3.10
   1  -1 -20   26.80   11.50
   0  -1 -20   15.20    3.30
   0  -1 -20   12.40   11.90
  -1  -1 -20   13.00    9.60
  -1  -1 -20   16.50    3.60
  -2  -1 -20   38.30    4.50
  -2  -1 -20   29.60   10.70
  -3  -1 -20   17.30    3.90
  -3  -1 -20    6.30    9.00
  -4  -1 -20    2.80    8.60
  -4  -1 -20   -3.20    3.40
  -5  -1 -20   26.60   10.80
  -5  -1 -20   33.50    4.90
  -6  -1 -20   48.40   12.20
  -6  -1 -20   52.79    6.00
   1  -2 -20   -2.70   15.10
   0  -2 -20   15.20    2.70
   0  -2 -20    5.30    9.40
   0  -2 -20   16.40    3.00
  -1  -2 -20   40.80    4.30
  -1  -2 -20   66.09    5.40
  -1  -2 -20   84.49   13.40
  -2  -2 -20    6.50    8.90
  -2  -2 -20    6.40    5.60
  -3  -2 -20    8.30    8.90
  -3  -2 -20   -0.20    3.20
  -4  -2 -20   22.60    9.60
  -4  -2 -20   29.50    4.60
  -5  -2 -20   46.00    5.50
  -5  -2 -20   50.19   11.80
  -6  -2 -20   23.70    9.70
   6   2  20    5.60    4.80
   2  -3 -20   17.50   11.30
   1  -3 -20   52.59   12.90
   0  -3 -20   57.69    4.80
   0  -3 -20   75.99   13.50
  -1  -3 -20   40.40   11.30
  -1  -3 -20   14.70    5.10
  -1  -3 -20   25.90    3.50
  -2  -3 -20    0.40    3.10
  -2  -3 -20   11.70    8.60
  -3  -3 -20   70.29    6.10
  -3  -3 -20   41.50   10.60
  -4  -3 -20    6.50    8.20
  -5  -3 -20   -4.40    7.10
   5   3  20    1.70    4.50
  -6  -3 -20   23.20    8.90
   6   3  20    9.30    5.20
  -7  -3 -20    9.40    8.20
   7   3  20    9.90    5.40
   2  -4 -20   23.90   20.10
   1  -4 -20   64.39   13.50
   0  -4 -20   60.89   12.50
   0  -4 -20   30.60    2.90
  -1  -4 -20    4.60    2.70
  -1  -4 -20    5.20    8.90
  -1  -4 -20   -6.00    2.50
  -2  -4 -20   51.99   11.30
  -2  -4 -20   52.89    4.70
  -2  -4 -20   30.50    4.80
  -3  -4 -20   48.10   10.60
  -4  -4 -20    5.50    8.10
   4   4  20    2.40    4.20
  -5  -4 -20   77.59   11.70
   5   4  20   69.59    7.10
  -6  -4 -20   33.10    8.80
   6   4  20   33.60    5.80
  -7  -4 -20   34.10    8.70
   7   4  20   27.70    5.70
   2  -5 -20   10.90   10.20
   1  -5 -20   25.40   11.10
   0  -5 -20   -1.20    2.00
   0  -5 -20    2.50    9.00
   0  -5 -20    4.30    2.50
  -1  -5 -20   33.70    3.70
  -1  -5 -20   76.89   12.90
  -1  -5 -20   48.30    4.00
  -2  -5 -20   83.79   12.90
  -2  -5 -20   40.10    4.40
  -3  -5 -20    6.00    8.10
  -4  -5 -20  121.39   14.20
   4   5  20  109.09    8.70
  -5  -5 -20   36.10   10.70
   5   5  20   48.80    5.90
  -6  -5 -20   15.10    7.40
   6   5  20    9.70    4.80
  -7  -5 -20    3.20    6.50
   7   5  20   -3.50    4.40
   2  -6 -20   17.20   10.60
   1  -6 -20   27.40   11.00
   0  -6 -20   52.49   11.80
   0  -6 -20   42.80    3.80
   0  -6 -20   48.80    4.10
  -1  -6 -20   23.20    3.30
  -1  -6 -20   49.90   11.30
  -2  -6 -20   -6.90    2.80
  -2  -6 -20    7.70    8.00
   2   6  20    7.90    3.50
  -3  -6 -20  104.79   13.30
  -4  -6 -20   32.00    8.70
   4   6  20   41.80    5.30
  -5  -6 -20    3.50    6.70
   5   6  20    9.00    4.40
  -6  -6 -20   11.60    6.40
   6   6  20   -2.90    4.40
  -7  -6 -20    7.50    5.80
   7   6  20   -0.70    4.70
   2  -7 -20   58.49   13.50
   1  -7 -20  147.09   18.10
   0  -7 -20    7.90    2.30
   0  -7 -20   14.20    9.20
  -1  -7 -20   10.80    8.70
  -1  -7 -20   -2.40    2.50
   1   7  20    6.50    3.10
  -2  -7 -20   62.69   12.00
   2   7  20   48.20    5.00
  -3  -7 -20   24.90    8.90
   3   7  20   16.70    4.40
  -4  -7 -20   17.40    7.80
   4   7  20    0.20    4.10
  -5  -7 -20   22.20    7.20
  -5  -7 -20   11.00    8.90
   5   7  20   17.60    5.00
  -6  -7 -20  114.29   11.50
   6   7  20  118.19    9.70
   1  -8 -20    3.60    9.30
   0  -8 -20   -2.50    8.70
   0  -8 -20    1.50    2.30
  -1  -8 -20   68.39   12.40
   1   8  20   47.20    4.70
  -2  -8 -20   26.50    9.00
   2   8  20   22.20    4.20
  -3  -8 -20    5.60    7.30
   3   8  20    3.10    4.00
  -4  -8 -20    9.60    7.20
   4   8  20   11.40    4.40
  -5  -8 -20  137.19   13.30
   5   8  20  145.89   10.30
  -6  -8 -20   40.90    7.00
   6   8  20   35.80    5.70
   1  -9 -20   11.00   10.00
   0  -9 -20   51.59   12.30
   0   9  20   25.80    3.30
  -1  -9 -20   79.39   13.20
   1   9  20   70.59    5.90
  -2  -9 -20    9.00    8.40
   2   9  20    5.40    3.80
  -3  -9 -20   54.09   12.10
   3   9  20   44.90    5.40
  -4  -9 -20   77.29   11.20
   4   9  20   70.79    6.90
  -5  -9 -20   21.10    7.20
   5   9  20   20.50    5.10
  -1 -10 -20    5.70    9.20
   1  10  20    7.10    3.60
  -2 -10 -20   45.90   10.90
   2  10  20   40.60    5.30
   3  10  20   40.10    5.40
  -2  -2 -21    3.60    9.10
  -2  -2 -21    7.30    3.40
  -3  -2 -21    4.90    9.10
  -3  -2 -21    3.90    3.60
  -1  -3 -21    4.50    9.50
  -1  -3 -21    6.50    3.00
  -2  -3 -21   -0.90    3.40
  -2  -3 -21    4.50    8.50
  -3  -3 -21   38.20    4.60
  -3  -3 -21   36.70   10.30
  -4  -3 -21   30.90    9.90
  -4  -3 -21   28.90    4.60
   0  -4 -21   14.80   10.00
   0  -4 -21    5.30    2.70
  -1  -4 -21    7.00    2.90
  -1  -4 -21    0.50    8.40
  -2  -4 -21   53.39   11.30
  -2  -4 -21   35.80    4.40
  -3  -4 -21   50.99    5.20
  -3  -4 -21   61.79   11.70
  -4  -4 -21   12.80    8.90
  -5  -4 -21    3.00    8.60
   5   4  21    7.50    4.70
   0  -5 -21   20.80   10.50
  -1  -5 -21   54.09    4.60
  -1  -5 -21   74.49   13.60
  -2  -5 -21   68.39    6.00
  -2  -5 -21   74.99   13.40
  -3  -5 -21    4.70    8.20
  -4  -5 -21   47.40   10.70
   4   5  21   57.49    6.20
  -5  -5 -21   22.50    8.70
   5   5  21   16.10    4.90
   0  -6 -21   33.10   11.20
  -1  -6 -21   45.60    4.20
  -1  -6 -21   52.99   12.40
  -2  -6 -21    6.70    8.20
  -3  -6 -21   57.89   10.80
   3   6  21   63.79    6.10
  -4  -6 -21   52.19   10.30
   4   6  21   56.89    6.00
  -5  -6 -21   14.10    8.00
   5   6  21    9.00    4.60
   0  -7 -21    5.40    9.30
  -1  -7 -21    2.60    8.50
  -2  -7 -21   49.80   11.10
   2   7  21   38.80    4.70
  -3  -7 -21   23.20    8.90
   3   7  21   25.50    4.60
  -4  -7 -21   36.50    9.00
   4   7  21   26.90    5.00
  -1  -8 -21   79.29   13.80
   1   8  21   67.69    6.00
  -2  -8 -21   13.50    9.00
   2   8  21   11.70    3.80
  -3  -8 -21    8.70    7.90
   3   8  21    3.90    4.10
   0   0   0    0.00    0.00

_computing_structure_solution     'SHELXT 2018/2 (Sheldrick, 2018)'
;
_shelx_hkl_checksum   30781

