 
data_nai-32
 
_audit_creation_method            'SHELXL-2019/3'
_shelx_SHELXL_version_number      '2019/3'
_chemical_name_systematic         ?
_chemical_name_common             ?
_chemical_melting_point           ?
_chemical_formula_moiety          ?
_chemical_formula_sum
 'C18 H18 Br N5 O5 Zn' 
_chemical_formula_weight          529.65

loop_
 _atom_type_symbol
 _atom_type_description
 _atom_type_scat_dispersion_real
 _atom_type_scat_dispersion_imag
 _atom_type_scat_source
 'C'  'C'   0.0033   0.0016
 'International Tables Vol C Tables 4.2.6.8 and 6.1.1.4'
 'H'  'H'   0.0000   0.0000
 'International Tables Vol C Tables 4.2.6.8 and 6.1.1.4'
 'N'  'N'   0.0061   0.0033
 'International Tables Vol C Tables 4.2.6.8 and 6.1.1.4'
 'O'  'O'   0.0106   0.0060
 'International Tables Vol C Tables 4.2.6.8 and 6.1.1.4'
 'Zn'  'Zn'   0.2839   1.4301
 'International Tables Vol C Tables 4.2.6.8 and 6.1.1.4'
 'Br'  'Br'  -0.2901   2.4595
 'International Tables Vol C Tables 4.2.6.8 and 6.1.1.4'
 
_space_group_crystal_system       orthorhombic
_space_group_IT_number            61
_space_group_name_H-M_alt         'P b c a'
_space_group_name_Hall            '-P 2ac 2ab'
 
_shelx_space_group_comment
;
The symmetry employed for this shelxl refinement is uniquely defined
by the following loop, which should always be used as a source of
symmetry information in preference to the above space-group names.
They are only intended as comments.
;
 
loop_
 _space_group_symop_operation_xyz
 'x, y, z'
 '-x+1/2, -y, z+1/2'
 '-x, y+1/2, -z+1/2'
 'x+1/2, -y+1/2, -z'
 '-x, -y, -z'
 'x-1/2, y, -z-1/2'
 'x, -y-1/2, z-1/2'
 '-x-1/2, y-1/2, z'
 
_cell_length_a                    14.5757(7)
_cell_length_b                    15.4775(8)
_cell_length_c                    18.4229(8)
_cell_angle_alpha                 90
_cell_angle_beta                  90
_cell_angle_gamma                 90
_cell_volume                      4156.1(3)
_cell_formula_units_Z             8
_cell_measurement_temperature     130(2)
_cell_measurement_reflns_used     ?
_cell_measurement_theta_min       ?
_cell_measurement_theta_max       ?
 
_exptl_crystal_description        ?
_exptl_crystal_colour             ?
_exptl_crystal_density_meas       ?
_exptl_crystal_density_method     ?
_exptl_crystal_density_diffrn     1.693          
_exptl_crystal_F_000              2128
_exptl_transmission_factor_min    ?
_exptl_transmission_factor_max    ?
_exptl_crystal_size_max           ?
_exptl_crystal_size_mid           ?
_exptl_crystal_size_min           ?
_exptl_absorpt_coefficient_mu     3.145
_shelx_estimated_absorpt_T_min    ?
_shelx_estimated_absorpt_T_max    ?
_exptl_absorpt_correction_type    ?
_exptl_absorpt_correction_T_min   ?
_exptl_absorpt_correction_T_max   ?
_exptl_absorpt_process_details    ?
_exptl_absorpt_special_details    ?
_diffrn_ambient_temperature       130(2)
_diffrn_radiation_wavelength      0.71073
_diffrn_radiation_type            MoK\a
_diffrn_source                    ?
_diffrn_measurement_device_type   ?
_diffrn_measurement_method        ?
_diffrn_detector_area_resol_mean  ?
_diffrn_reflns_number             13698
_diffrn_reflns_av_unetI/netI      0.0369
_diffrn_reflns_av_R_equivalents   0.0298
_diffrn_reflns_limit_h_min        -14
_diffrn_reflns_limit_h_max        19
_diffrn_reflns_limit_k_min        -20
_diffrn_reflns_limit_k_max        19
_diffrn_reflns_limit_l_min        -16
_diffrn_reflns_limit_l_max        24
_diffrn_reflns_theta_min          2.211
_diffrn_reflns_theta_max          29.043
_diffrn_reflns_theta_full         25.242
_diffrn_measured_fraction_theta_max   0.846
_diffrn_measured_fraction_theta_full  1.000
_diffrn_reflns_Laue_measured_fraction_max    0.846
_diffrn_reflns_Laue_measured_fraction_full   1.000
_diffrn_reflns_point_group_measured_fraction_max   0.846
_diffrn_reflns_point_group_measured_fraction_full  1.000
_reflns_number_total              4692
_reflns_number_gt                 3865
_reflns_threshold_expression      'I > 2\s(I)'
_reflns_Friedel_coverage          0.000
_reflns_Friedel_fraction_max      .
_reflns_Friedel_fraction_full     .
 
_reflns_special_details
;
 Reflections were merged by SHELXL according to the crystal
 class for the calculation of statistics and refinement.
 
 _reflns_Friedel_fraction is defined as the number of unique
 Friedel pairs measured divided by the number that would be
 possible theoretically, ignoring centric projections and
 systematic absences.
;
 
_computing_data_collection        ?
_computing_cell_refinement        ?
_computing_data_reduction         ?
_computing_structure_solution     'SHELXT 2018/2 (Sheldrick, 2018)'
_computing_structure_refinement 'SHELXL-2019/2 (Sheldrick, 2019)'
_computing_molecular_graphics     ?
_computing_publication_material   ?
_refine_special_details           ?
_refine_ls_structure_factor_coef  Fsqd
_refine_ls_matrix_type            full
_refine_ls_weighting_scheme       calc
_refine_ls_weighting_details
'w=1/[\s^2^(Fo^2^)+(0.0352P)^2^+44.6352P] where P=(Fo^2^+2Fc^2^)/3'
_atom_sites_solution_primary      ?
_atom_sites_solution_secondary    ?
_atom_sites_solution_hydrogens    geom
_refine_ls_hydrogen_treatment     constr
_refine_ls_extinction_method      none
_refine_ls_extinction_coef        .
_refine_ls_number_reflns          4692
_refine_ls_number_parameters      309
_refine_ls_number_restraints      43
_refine_ls_R_factor_all           0.0833
_refine_ls_R_factor_gt            0.0671
_refine_ls_wR_factor_ref          0.1660
_refine_ls_wR_factor_gt           0.1594
_refine_ls_goodness_of_fit_ref    1.190
_refine_ls_restrained_S_all       1.188
_refine_ls_shift/su_max           0.000
_refine_ls_shift/su_mean          0.000
 
loop_
 _atom_site_label
 _atom_site_type_symbol
 _atom_site_fract_x
 _atom_site_fract_y
 _atom_site_fract_z
 _atom_site_U_iso_or_equiv
 _atom_site_adp_type
 _atom_site_occupancy
 _atom_site_site_symmetry_order  
 _atom_site_calc_flag
 _atom_site_refinement_flags_posn
 _atom_site_refinement_flags_adp
 _atom_site_refinement_flags_occupancy
 _atom_site_disorder_assembly
 _atom_site_disorder_group
C5 C 0.7221(4) 0.6628(4) 0.4609(3) 0.0193(12) Uani 1 1 d . . . . .
H5 H 0.728681 0.681474 0.509756 0.023 Uiso 1 1 calc R U . . .
C6 C 0.6682(5) 0.6398(4) 0.3541(3) 0.0248(14) Uani 1 1 d . . . . .
H6 H 0.628202 0.640454 0.313377 0.030 Uiso 1 1 calc R U . . .
C7 C 0.7512(5) 0.6039(4) 0.3551(3) 0.0242(14) Uani 1 1 d . . . . .
H7 H 0.780375 0.573619 0.316652 0.029 Uiso 1 1 calc R U . . .
C8 C 0.8786(4) 0.5976(4) 0.4492(3) 0.0174(12) Uani 1 1 d . . . . .
H8A H 0.922932 0.606909 0.409285 0.021 Uiso 1 1 calc R U . . .
H8B H 0.895738 0.636275 0.489805 0.021 Uiso 1 1 calc R U . . .
C9 C 0.8520(5) 0.4764(4) 0.5385(3) 0.0260(14) Uani 1 1 d . . . . .
H9 H 0.822220 0.507725 0.576009 0.031 Uiso 1 1 calc R U . . .
C10 C 0.9209(4) 0.4420(4) 0.4360(3) 0.0179(12) Uani 1 1 d . . . . .
H10 H 0.947715 0.446444 0.389152 0.022 Uiso 1 1 calc R U . . .
C11 C 0.8720(5) 0.3905(4) 0.5379(3) 0.0261(14) Uani 1 1 d . . . . .
H11 H 0.858482 0.351084 0.575975 0.031 Uiso 1 1 calc R U . . .
C12 C 0.9663(6) 0.5188(5) 0.2225(4) 0.0328(16) Uani 1 1 d . . . . .
H12 H 1.020997 0.485798 0.218306 0.039 Uiso 1 1 calc R U . . .
C13 C 0.9587(7) 0.5143(5) 0.0903(4) 0.048(2) Uani 1 1 d . . . . .
H13A H 0.960064 0.562974 0.056294 0.072 Uiso 1 1 calc R U . . .
H13B H 0.917244 0.469559 0.071749 0.072 Uiso 1 1 calc R U . . .
H13C H 1.020558 0.490329 0.095413 0.072 Uiso 1 1 calc R U . . .
C14 C 0.8409(5) 0.5933(5) 0.1634(4) 0.0364(17) Uani 1 1 d . . . . .
H14A H 0.838882 0.633524 0.122326 0.055 Uiso 1 1 calc R U . . .
H14B H 0.837963 0.625925 0.208955 0.055 Uiso 1 1 calc R U . . .
H14C H 0.788609 0.553687 0.160602 0.055 Uiso 1 1 calc R U . . .
C15 C 0.4233(4) 0.8072(4) 0.3359(3) 0.0187(12) Uani 1 1 d . . . . .
C16 C 0.3833(4) 0.8150(4) 0.2598(3) 0.0160(11) Uani 1 1 d . . . . .
C17 C 0.4419(4) 0.8032(4) 0.2002(3) 0.0170(12) Uani 1 1 d . . . . .
H17 H 0.503939 0.786981 0.208325 0.020 Uiso 1 1 calc R U . . .
C18 C 0.4758(5) 0.7980(4) 0.0676(3) 0.0205(13) Uani 1 1 d . . . . .
N2 N 0.8839(3) 0.5088(3) 0.4732(3) 0.0181(10) Uani 1 1 d . . . . .
N3 N 0.9148(3) 0.3696(3) 0.4738(3) 0.0172(10) Uani 1 1 d . . . . .
N4 N 0.7865(3) 0.6197(3) 0.4241(3) 0.0171(10) Uani 1 1 d . . . . .
N5 N 0.6486(4) 0.6760(3) 0.4212(3) 0.0189(10) Uani 1 1 d . . . . .
N6 N 0.9261(5) 0.5441(4) 0.1609(3) 0.0297(13) Uani 1 1 d . . . . .
O1 O 0.4941(3) 0.7598(3) 0.3414(2) 0.0243(10) Uani 1 1 d . . . . .
O2 O 0.4402(3) 0.7925(3) 0.0041(2) 0.0208(9) Uani 1 1 d . . . . .
O3 O 0.5592(3) 0.7886(3) 0.0790(2) 0.0285(11) Uani 1 1 d . . . . .
O4 O 0.3887(4) 0.8481(4) 0.3852(2) 0.0349(13) Uani 1 1 d . . . . .
O5 O 0.9386(4) 0.5346(4) 0.2838(3) 0.0362(12) Uani 1 1 d . . . . .
Zn1 Zn 0.53996(5) 0.75245(5) 0.44159(3) 0.01617(17) Uani 1 1 d . . . . .
C4 C 0.4108(4) 0.8150(4) 0.1290(3) 0.0178(12) Uani 1 1 d . . . . .
Br1' Br 0.3014(5) 0.9112(5) 0.0371(4) 0.0363(16) Uani 0.1 1 d D U P A 1
C3' C 0.343(4) 0.860(2) 0.124(2) 0.036(4) Uani 0.1 1 d D U P A 1
C2' C 0.285(5) 0.882(5) 0.179(3) 0.035(5) Uani 0.1 1 d D U P A 1
H2' H 0.232893 0.917356 0.170796 0.043 Uiso 0.1 1 calc R U P A 1
C1' C 0.305(8) 0.851(6) 0.248(4) 0.035(6) Uani 0.1 1 d D U P A 1
H1' H 0.261094 0.855357 0.285455 0.042 Uiso 0.1 1 calc R U P A 1
Br1 Br 0.20012(5) 0.83155(6) 0.31813(4) 0.0304(2) Uani 0.9 1 d D U P A 2
C2 C 0.2597(5) 0.8440(5) 0.1740(4) 0.0236(13) Uani 0.9 1 d D U P A 2
H2 H 0.196917 0.856553 0.165067 0.028 Uiso 0.9 1 calc R U P A 2
C1 C 0.2897(6) 0.8338(6) 0.2446(5) 0.0243(15) Uani 0.9 1 d D U P A 2
C3 C 0.3189(5) 0.8364(5) 0.1165(4) 0.0245(14) Uani 0.9 1 d D U P A 2
H3 H 0.297610 0.845625 0.068409 0.029 Uiso 0.9 1 calc R U P A 2
 
loop_
 _atom_site_aniso_label
 _atom_site_aniso_U_11
 _atom_site_aniso_U_22
 _atom_site_aniso_U_33
 _atom_site_aniso_U_23
 _atom_site_aniso_U_13
 _atom_site_aniso_U_12
C5 0.031(3) 0.017(3) 0.011(3) -0.001(2) 0.002(2) 0.004(3)
C6 0.029(3) 0.031(3) 0.014(3) -0.003(3) -0.004(3) 0.005(3)
C7 0.032(3) 0.029(3) 0.011(3) -0.005(2) -0.003(3) 0.010(3)
C8 0.019(3) 0.016(3) 0.017(3) 0.001(2) 0.000(2) 0.002(2)
C9 0.033(4) 0.030(3) 0.015(3) 0.000(3) 0.008(3) 0.008(3)
C10 0.023(3) 0.019(3) 0.012(3) 0.002(2) 0.001(2) 0.001(3)
C11 0.034(3) 0.027(3) 0.017(3) 0.003(3) 0.011(3) 0.007(3)
C12 0.045(4) 0.026(3) 0.028(4) 0.007(3) 0.010(3) 0.008(3)
C13 0.095(7) 0.026(4) 0.022(4) -0.001(3) 0.018(4) -0.002(4)
C14 0.041(4) 0.042(4) 0.026(4) 0.000(3) -0.001(3) -0.005(4)
C15 0.021(3) 0.020(3) 0.015(3) 0.002(2) -0.005(2) -0.001(3)
C16 0.021(3) 0.019(3) 0.008(2) 0.000(2) -0.001(2) 0.000(2)
C17 0.016(3) 0.018(3) 0.016(3) -0.002(2) 0.000(2) 0.001(2)
C18 0.031(3) 0.017(3) 0.014(3) 0.001(2) 0.003(2) 0.000(3)
N2 0.021(2) 0.019(2) 0.014(2) 0.000(2) -0.001(2) 0.001(2)
N3 0.021(2) 0.019(2) 0.011(2) 0.0011(19) 0.002(2) 0.003(2)
N4 0.023(2) 0.018(2) 0.011(2) -0.0017(19) -0.001(2) 0.002(2)
N5 0.025(3) 0.020(2) 0.012(2) 0.0003(19) 0.000(2) 0.005(2)
N6 0.049(4) 0.021(3) 0.019(3) 0.000(2) 0.006(3) 0.001(3)
O1 0.025(2) 0.033(3) 0.015(2) 0.0037(19) -0.0008(18) 0.005(2)
O2 0.027(2) 0.024(2) 0.0117(19) -0.0021(17) 0.0042(17) 0.0016(19)
O3 0.037(3) 0.031(2) 0.018(2) -0.0056(19) 0.005(2) 0.004(2)
O4 0.039(3) 0.054(3) 0.012(2) -0.013(2) -0.009(2) 0.020(3)
O5 0.042(3) 0.046(3) 0.021(2) 0.004(2) 0.002(2) 0.009(3)
Zn1 0.0187(3) 0.0180(3) 0.0118(3) 0.0013(3) 0.0005(3) 0.0016(3)
C4 0.027(3) 0.017(3) 0.010(3) -0.001(2) 0.003(2) 0.000(3)
Br1' 0.031(3) 0.050(4) 0.028(3) 0.004(3) 0.000(3) 0.011(3)
C3' 0.031(8) 0.049(8) 0.027(8) 0.005(8) 0.001(7) 0.008(8)
C2' 0.032(9) 0.048(10) 0.026(9) 0.006(9) 0.001(9) 0.007(9)
C1' 0.032(10) 0.048(11) 0.026(10) 0.006(10) 0.001(10) 0.006(10)
Br1 0.0240(3) 0.0478(5) 0.0195(4) -0.0011(3) 0.0019(3) 0.0044(3)
C2 0.016(3) 0.039(3) 0.016(3) 0.006(3) 0.002(2) 0.001(3)
C1 0.019(3) 0.040(4) 0.013(3) 0.002(3) 0.005(2) 0.002(3)
C3 0.026(3) 0.033(3) 0.015(3) 0.005(3) -0.001(3) 0.001(3)
 
_geom_special_details
;
 All esds (except the esd in the dihedral angle between two l.s. planes)
 are estimated using the full covariance matrix.  The cell esds are taken
 into account individually in the estimation of esds in distances, angles
 and torsion angles; correlations between esds in cell parameters are only
 used when they are defined by crystal symmetry.  An approximate (isotropic)
 treatment of cell esds is used for estimating esds involving l.s. planes.
;
 
loop_
 _geom_bond_atom_site_label_1
 _geom_bond_atom_site_label_2
 _geom_bond_distance
 _geom_bond_site_symmetry_2
 _geom_bond_publ_flag
C5 N5 1.314(8) . ?
C5 N4 1.336(8) . ?
C6 C7 1.332(9) . ?
C6 N5 1.387(8) . ?
C7 N4 1.392(7) . ?
C8 N2 1.446(7) . ?
C8 N4 1.460(7) . ?
C9 C11 1.361(9) . ?
C9 N2 1.383(8) . ?
C10 N3 1.322(8) . ?
C10 N2 1.353(8) . ?
C11 N3 1.374(8) . ?
C12 O5 1.224(8) . ?
C12 N6 1.335(9) . ?
C13 N6 1.460(9) . ?
C14 N6 1.457(10) . ?
C15 O4 1.216(8) . ?
C15 O1 1.270(7) . ?
C15 C16 1.523(8) . ?
C16 C1' 1.29(12) . ?
C16 C17 1.404(8) . ?
C16 C1 1.422(11) . ?
C17 C4 1.400(8) . ?
C18 O3 1.242(8) . ?
C18 O2 1.282(7) . ?
C18 C4 1.499(8) . ?
N3 Zn1 2.019(5) 8_755 ?
N5 Zn1 2.012(5) . ?
O1 Zn1 1.966(4) . ?
O2 Zn1 1.981(4) 7_575 ?
C4 C3' 1.21(5) . ?
C4 C3 1.399(9) . ?
Br1' C3' 1.884(14) . ?
C3' C2' 1.371(14) . ?
C2' C1' 1.382(13) . ?
Br1 C1 1.883(9) . ?
C2 C3 1.370(9) . ?
C2 C1 1.382(9) . ?
 
loop_
 _geom_angle_atom_site_label_1
 _geom_angle_atom_site_label_2
 _geom_angle_atom_site_label_3
 _geom_angle
 _geom_angle_site_symmetry_1
 _geom_angle_site_symmetry_3
 _geom_angle_publ_flag
N5 C5 N4 111.5(5) . . ?
C7 C6 N5 110.1(6) . . ?
C6 C7 N4 106.0(5) . . ?
N2 C8 N4 111.7(5) . . ?
C11 C9 N2 106.0(5) . . ?
N3 C10 N2 110.7(5) . . ?
C9 C11 N3 109.5(6) . . ?
O5 C12 N6 125.5(7) . . ?
O4 C15 O1 125.3(6) . . ?
O4 C15 C16 119.1(5) . . ?
O1 C15 C16 115.5(5) . . ?
C1' C16 C17 117(4) . . ?
C17 C16 C1 117.1(6) . . ?
C1' C16 C15 122(4) . . ?
C17 C16 C15 118.4(5) . . ?
C1 C16 C15 124.4(6) . . ?
C4 C17 C16 121.3(5) . . ?
O3 C18 O2 122.9(6) . . ?
O3 C18 C4 120.7(6) . . ?
O2 C18 C4 116.4(6) . . ?
C10 N2 C9 107.3(5) . . ?
C10 N2 C8 126.4(5) . . ?
C9 N2 C8 126.3(5) . . ?
C10 N3 C11 106.5(5) . . ?
C10 N3 Zn1 125.8(4) . 8_755 ?
C11 N3 Zn1 127.8(4) . 8_755 ?
C5 N4 C7 107.0(5) . . ?
C5 N4 C8 126.9(5) . . ?
C7 N4 C8 126.0(5) . . ?
C5 N5 C6 105.4(5) . . ?
C5 N5 Zn1 129.0(4) . . ?
C6 N5 Zn1 124.5(4) . . ?
C12 N6 C14 120.1(6) . . ?
C12 N6 C13 121.4(7) . . ?
C14 N6 C13 118.1(6) . . ?
C15 O1 Zn1 112.6(4) . . ?
C18 O2 Zn1 104.8(4) . 7_575 ?
O1 Zn1 O2 108.46(18) . 7_576 ?
O1 Zn1 N5 97.22(19) . . ?
O2 Zn1 N5 118.7(2) 7_576 . ?
O1 Zn1 N3 109.6(2) . 8_765 ?
O2 Zn1 N3 112.60(19) 7_576 8_765 ?
N5 Zn1 N3 109.0(2) . 8_765 ?
C3' C4 C17 114.4(19) . . ?
C3 C4 C17 119.7(6) . . ?
C3' C4 C18 124(2) . . ?
C3 C4 C18 121.5(6) . . ?
C17 C4 C18 118.7(5) . . ?
C4 C3' C2' 126(3) . . ?
C4 C3' Br1' 125(4) . . ?
C2' C3' Br1' 109(4) . . ?
C3' C2' C1' 118(7) . . ?
C16 C1' C2' 120(9) . . ?
C3 C2 C1 121.2(7) . . ?
C2 C1 C16 120.9(8) . . ?
C2 C1 Br1 117.4(6) . . ?
C16 C1 Br1 121.3(5) . . ?
C2 C3 C4 119.8(6) . . ?
 
_refine_diff_density_max    0.963
_refine_diff_density_min   -1.468
_refine_diff_density_rms    0.139

_shelx_res_file
;
TITL nqi-32_auto_a.res in Pbca
    nai-32.res
    created by SHELXL-2019/3 at 18:42:41 on 11-Apr-2024
CELL  0.71073  14.5757  15.4775  18.4229   90.000   90.000   90.000
ZERR   8   0.0007   0.0008   0.0008    0.000    0.000    0.000
LATT  1
SYMM 1/2-X, -Y, 1/2+Z
SYMM -X, 1/2+Y, 1/2-Z
SYMM 1/2+X, 1/2-Y, -Z
SFAC C H N O ZN BR
UNIT 144 144 40 40 8 8
LIST 4
FLAT 0.1 C3 C2 C1 BR1 C4
FLAT 0.1 C3' BR1' C2' C1' C4
SIMU 0.005 0.007 2 BR1 C1 C2 C3
SIMU 0.005 0.007 2 C1' C2' C3' BR1'
SADI 0.01 BR1 C1 BR1' C3'
SADI 0.01 C1 C2 C1' C2'
SADI 0.01 C2 C3 C2' C3'
ACTA
REM LIST 4
TEMP -143
L.S. 10
BOND
FMAP 2
PLAN 40
WGHT    0.035200   44.635197
FVAR       0.16367
C5    1    0.722113    0.662769    0.460919    11.00000    0.03074    0.01670 =
         0.01054   -0.00095    0.00221    0.00381
AFIX  43
H5    2    0.728681    0.681474    0.509756    11.00000   -1.20000
AFIX   0
C6    1    0.668169    0.639766    0.354106    11.00000    0.02903    0.03132 =
         0.01394   -0.00262   -0.00396    0.00465
AFIX  43
H6    2    0.628202    0.640454    0.313377    11.00000   -1.20000
AFIX   0
C7    1    0.751193    0.603873    0.355123    11.00000    0.03222    0.02913 =
         0.01125   -0.00507   -0.00251    0.01020
AFIX  43
H7    2    0.780375    0.573619    0.316652    11.00000   -1.20000
AFIX   0
C8    1    0.878565    0.597603    0.449215    11.00000    0.01941    0.01577 =
         0.01710    0.00093    0.00001    0.00175
AFIX  23
H8A   2    0.922932    0.606909    0.409285    11.00000   -1.20000
H8B   2    0.895738    0.636275    0.489805    11.00000   -1.20000
AFIX   0
C9    1    0.852015    0.476395    0.538451    11.00000    0.03293    0.03024 =
         0.01481   -0.00014    0.00820    0.00804
AFIX  43
H9    2    0.822220    0.507725    0.576009    11.00000   -1.20000
AFIX   0
C10   1    0.920938    0.441961    0.436015    11.00000    0.02270    0.01940 =
         0.01173    0.00151    0.00103    0.00063
AFIX  43
H10   2    0.947715    0.446444    0.389152    11.00000   -1.20000
AFIX   0
C11   1    0.872004    0.390492    0.537915    11.00000    0.03445    0.02652 =
         0.01719    0.00334    0.01116    0.00728
AFIX  43
H11   2    0.858482    0.351084    0.575975    11.00000   -1.20000
AFIX   0
C12   1    0.966297    0.518805    0.222454    11.00000    0.04472    0.02587 =
         0.02789    0.00667    0.00969    0.00847
AFIX  43
H12   2    1.020997    0.485798    0.218306    11.00000   -1.20000
AFIX   0
C13   1    0.958661    0.514290    0.090287    11.00000    0.09490    0.02642 =
         0.02228   -0.00056    0.01850   -0.00222
AFIX 137
H13A  2    0.960064    0.562974    0.056294    11.00000   -1.50000
H13B  2    0.917244    0.469559    0.071749    11.00000   -1.50000
H13C  2    1.020558    0.490329    0.095413    11.00000   -1.50000
AFIX   0
C14   1    0.840907    0.593340    0.163405    11.00000    0.04099    0.04177 =
         0.02633    0.00031   -0.00149   -0.00459
AFIX 137
H14A  2    0.838882    0.633524    0.122326    11.00000   -1.50000
H14B  2    0.837963    0.625925    0.208955    11.00000   -1.50000
H14C  2    0.788609    0.553687    0.160602    11.00000   -1.50000
AFIX   0
C15   1    0.423303    0.807172    0.335909    11.00000    0.02073    0.02033 =
         0.01491    0.00174   -0.00529   -0.00147
C16   1    0.383265    0.815027    0.259834    11.00000    0.02107    0.01915 =
         0.00783   -0.00022   -0.00078    0.00036
C17   1    0.441937    0.803243    0.200196    11.00000    0.01637    0.01818 =
         0.01643   -0.00192    0.00026    0.00103
AFIX  43
H17   2    0.503939    0.786981    0.208325    11.00000   -1.20000
AFIX   0
C18   1    0.475789    0.797969    0.067570    11.00000    0.03057    0.01692 =
         0.01413    0.00070    0.00335   -0.00032
N2    3    0.883898    0.508784    0.473205    11.00000    0.02096    0.01923 =
         0.01397   -0.00025   -0.00053    0.00110
N3    3    0.914780    0.369590    0.473790    11.00000    0.02136    0.01899 =
         0.01130    0.00110    0.00204    0.00301
N4    3    0.786497    0.619728    0.424057    11.00000    0.02263    0.01779 =
         0.01090   -0.00165   -0.00106    0.00193
N5    3    0.648578    0.675987    0.421173    11.00000    0.02482    0.01973 =
         0.01206    0.00034    0.00017    0.00505
N6    3    0.926057    0.544101    0.160922    11.00000    0.04885    0.02139 =
         0.01890    0.00002    0.00598    0.00077
O1    4    0.494127    0.759781    0.341400    11.00000    0.02516    0.03261 =
         0.01512    0.00366   -0.00075    0.00544
O2    4    0.440176    0.792472    0.004114    11.00000    0.02661    0.02416 =
         0.01172   -0.00205    0.00417    0.00162
O3    4    0.559199    0.788630    0.079032    11.00000    0.03692    0.03083 =
         0.01767   -0.00560    0.00463    0.00409
O4    4    0.388724    0.848111    0.385151    11.00000    0.03949    0.05359 =
         0.01175   -0.01255   -0.00893    0.02046
O5    4    0.938613    0.534580    0.283777    11.00000    0.04194    0.04602 =
         0.02054    0.00361    0.00248    0.00917
ZN1   5    0.539957    0.752451    0.441591    11.00000    0.01872    0.01803 =
         0.01177    0.00130    0.00054    0.00161
C4    1    0.410814    0.815000    0.128987    11.00000    0.02726    0.01668 =
         0.00956   -0.00104    0.00346    0.00007
PART 1 10.1
BR1'  6    0.301367    0.911151    0.037089    10.10000    0.03082    0.05038 =
         0.02778    0.00384    0.00005    0.01143
C3'   1    0.343432    0.860034    0.123724    10.10000    0.03144    0.04943 =
         0.02653    0.00521    0.00072    0.00788
C2'   1    0.285079    0.881953    0.179146    10.10000    0.03159    0.04847 =
         0.02642    0.00565    0.00072    0.00716
AFIX  43
H2'   2    0.232893    0.917356    0.170796    10.10000   -1.20000
AFIX   0
C1'   1    0.305024    0.850625    0.247570    10.10000    0.03174    0.04832 =
         0.02578    0.00571    0.00138    0.00634
AFIX  43
H1'   2    0.261094    0.855357    0.285455    10.10000   -1.20000
AFIX   0
PART 0
PART 2 10.9
BR1   6    0.200121    0.831545    0.318135    10.90000    0.02400    0.04782 =
         0.01951   -0.00109    0.00190    0.00439
C2    1    0.259720    0.844006    0.173961    10.90000    0.01588    0.03875 =
         0.01618    0.00573    0.00212    0.00087
AFIX  43
H2    2    0.196917    0.856553    0.165067    10.90000   -1.20000
AFIX   0
C1    1    0.289743    0.833756    0.244578    10.90000    0.01950    0.03983 =
         0.01347    0.00195    0.00522    0.00158
C3    1    0.318914    0.836399    0.116523    10.90000    0.02609    0.03277 =
         0.01475    0.00502   -0.00098    0.00117
AFIX  43
H3    2    0.297610    0.845625    0.068409    10.90000   -1.20000
AFIX   0
HKLF 4




REM  nqi-32_auto_a.res in Pbca
REM wR2 = 0.1660, GooF = S = 1.190, Restrained GooF = 1.188 for all data
REM R1 = 0.0671 for 3865 Fo > 4sig(Fo) and 0.0833 for all 4692 data
REM 309 parameters refined using 43 restraints

END

WGHT      0.0354     44.4852

REM Highest difference peak  0.963,  deepest hole -1.468,  1-sigma level  0.139
Q1    1   0.2355  0.8840  0.3018  11.00000  0.05    0.96
Q2    1   0.5635  0.7183  0.4546  11.00000  0.05    0.80
Q3    1   0.5030  0.7730  0.4511  11.00000  0.05    0.75
Q4    1   0.5711  0.7815  0.4499  11.00000  0.05    0.75
Q5    1   0.5030  0.7278  0.4571  11.00000  0.05    0.65
Q6    1   0.5421  0.7493  0.4222  11.00000  0.05    0.61
Q7    1   0.5178  0.7535  0.0685  11.00000  0.05    0.60
Q8    1   0.6127  0.7210  0.4169  11.00000  0.05    0.54
Q9    1   0.6789  0.6957  0.4404  11.00000  0.05    0.47
Q10   1   0.3648  0.8317  0.1263  11.00000  0.05    0.47
Q11   1   0.3395  0.8210  0.3908  11.00000  0.05    0.46
Q12   1   0.4588  0.7747  0.3451  11.00000  0.05    0.46
Q13   1   0.5169  0.7270  0.3200  11.00000  0.05    0.45
Q14   1   0.5023  0.7635  0.3664  11.00000  0.05    0.45
Q15   1   0.5986  0.6334  0.3210  11.00000  0.05    0.44
Q16   1   0.8847  0.5021  0.5063  11.00000  0.05    0.43
Q17   1   0.1772  0.8288  0.1884  11.00000  0.05    0.43
Q18   1   0.7206  0.6672  0.4911  11.00000  0.05    0.43
Q19   1   0.4336  0.8144  0.0986  11.00000  0.05    0.42
Q20   1   0.4698  0.7187  0.3424  11.00000  0.05    0.41
Q21   1   0.9165  0.6792  0.1716  11.00000  0.05    0.41
Q22   1   0.7588  0.6099  0.3892  11.00000  0.05    0.41
Q23   1   0.7178  0.6191  0.3427  11.00000  0.05    0.41
Q24   1   0.5213  0.7905  0.3296  11.00000  0.05    0.41
Q25   1   0.9357  0.3498  0.3984  11.00000  0.05    0.40
Q26   1   0.5982  0.5990  0.4633  11.00000  0.05    0.40
Q27   1   0.9589  0.3850  0.4984  11.00000  0.05    0.40
Q28   1   0.8610  0.4908  0.4675  11.00000  0.05    0.39
Q29   1   0.9822  0.5015  0.3076  11.00000  0.05    0.39
Q30   1   0.2541  0.8717  0.3445  11.00000  0.05    0.38
Q31   1   0.6527  0.6679  0.3955  11.00000  0.05    0.38
Q32   1   0.9444  0.3373  0.4642  11.00000  0.05    0.37
Q33   1   0.2984  0.8588  0.1499  11.00000  0.05    0.37
Q34   1   0.4992  0.7129  0.2315  11.00000  0.05    0.37
Q35   1   0.7770  0.6250  0.3767  11.00000  0.05    0.36
Q36   1   0.6747  0.6836  0.3133  11.00000  0.05    0.36
Q37   1   0.1608  0.8931  0.3006  11.00000  0.05    0.36
Q38   1   0.1361  0.8792  0.3319  11.00000  0.05    0.36
Q39   1   0.7784  0.5208  0.3323  11.00000  0.05    0.36
Q40   1   0.2252  0.7771  0.2836  11.00000  0.05    0.36
;
_shelx_res_checksum   15524

_shelx_hkl_file
;
   0   0   2 1219.14    6.85
   0   0  -2 1227.79    6.70
   0   0   3    0.20    0.81
   0   0  -3    0.33    0.70
   0   0  -4   84.03    2.59
   0   0   4   78.15    2.62
   0   0   5    5.21    1.39
   0   0  -5    6.21    1.28
   0   0  -6   62.18    2.85
   0   0   6   62.58    2.95
   0   0   7    0.80    1.44
   0   0  -7    0.19    1.14
   0   0   8 4520.86   26.72
   0   0  -8 4494.89   26.39
   0   0   9    8.70    2.01
   0   0  -9    6.21    1.64
   0   0  10 1034.81   14.52
   0   0 -10 1066.61   14.65
   0   0  11   -0.15    1.57
   0   0 -11    2.40    1.79
   0   0  12   88.50    4.89
   0   0 -12   91.80    4.92
   0   0  13   -2.41    2.22
   0   0 -13    1.15    1.75
   0   0  14   51.56    3.95
   0   0 -14   57.54    4.41
   0   0  15    0.62    2.00
   0   0  16  547.90   14.40
   0   0  17    2.16    2.34
   0   0  18  139.36    7.78
   0   0  19    5.42    3.30
   0   0  20   49.05    5.24
   0   0  21    0.24    2.88
   0   0  22    8.01    3.35
   0   1  -2   17.79    1.00
   0  -1   2   17.71    1.05
   0   1   2   20.83    1.05
   0  -1  -2   19.48    0.96
   0  -1   3    1.74    0.90
   0   1  -3    4.03    0.93
   0   1   3    1.92    0.87
   0  -1  -3    1.89    0.74
   0  -1   4    5.03    1.24
   0   1  -4    3.43    1.08
   0  -1  -4    4.32    1.06
   0   1   4    3.89    1.16
   0  -1   5   13.14    2.05
   0   1  -5    8.91    1.34
   0  -1  -5   11.62    1.43
   0   1   5   13.04    1.61
   0  -1   6    5.58    1.56
   0   1  -6    8.80    1.55
   0  -1  -6    8.40    1.47
   0   1   6    6.51    1.51
   0   1   7    2.37    1.31
   0  -1   7    2.56    1.42
   0   1  -7    1.94    1.33
   0  -1  -7    3.96    1.40
   0   1   8   18.41    2.10
   0  -1   8   15.91    1.98
   0   1  -8   19.10    2.05
   0  -1  -8   20.79    2.16
   0   1   9    9.84    1.81
   0  -1   9    5.83    1.68
   0   1  -9   11.94    1.87
   0  -1  -9   11.96    1.89
   0   1  10    3.76    1.47
   0  -1  10    1.68    1.66
   0  -1 -10    6.48    1.71
   0   1 -10    5.52    1.78
   0   1  11    2.57    1.64
   0  -1  11    2.61    1.87
   0  -1 -11    2.61    1.52
   0   1 -11    1.53    1.58
   0  -1  12   19.34    2.77
   0   1  12   19.20    2.72
   0   1 -12   20.53    2.64
   0  -1 -12   22.13    2.69
   0   1  13    1.86    1.82
   0  -1  13    1.58    1.77
   0  -1 -13    1.79    1.61
   0   1 -13    2.39    1.81
   0   1  14    3.00    1.97
   0  -1  14    8.87    2.85
   0  -1 -14    1.67    1.69
   0   1  15    1.58    1.99
   0  -1  15    1.87    2.02
   0  -1  16   26.03    3.76
   0   1  16   22.29    3.38
   0   1  17   -2.06    2.56
   0  -1  17    1.90    2.38
   0  -1  18    0.93    2.49
   0   1  18   -2.34    2.60
   0   1  19    3.24    2.96
   0  -1  19    5.09    2.81
   0   1  20   11.34    3.59
   0  -1  20    9.42    3.30
   0   1  21    0.26    2.75
   0   1  22    2.99    3.07
   0   1  23    5.46    3.78
   0  -2   0 4597.93   14.08
   0  -2  -1 1288.83    7.43
   0   2   1 1261.05    7.59
   0   2   2  227.73    3.65
   0   2   2  232.60    3.35
   0  -2  -3  428.59    5.10
   0   2  -3  418.22    5.54
   0   2   3  429.95    5.10
   0   2  -4  199.20    4.38
   0  -2  -4  204.37    4.04
   0   2   4  198.67    4.02
   0  -2   5  199.97    4.69
   0   2  -5  203.74    4.85
   0   2   5  203.23    4.48
   0  -2  -5  201.07    4.42
   0  -2   6   18.25    2.06
   0   2  -6   17.23    1.87
   0  -2  -6   17.73    1.78
   0   2   6   17.23    1.86
   0   2   7   61.50    3.02
   0   2  -7   61.85    3.29
   0  -2   7   66.76    3.32
   0  -2  -7   60.58    3.04
   0   2   8 1081.42   12.82
   0   2  -8 1087.72   13.74
   0  -2   8 1110.61   13.52
   0  -2  -8 1083.22   12.92
   0   2   9  158.95    5.38
   0   2  -9  161.14    5.61
   0  -2   9  171.91    5.94
   0  -2  -9  159.91    5.41
   0  -2  10  231.43    7.09
   0   2 -10  228.09    7.03
   0   2  10  223.45    6.77
   0  -2 -10  230.34    6.86
   0   2 -11  148.04    6.00
   0  -2  11  135.86    5.84
   0   2  11  136.67    5.66
   0  -2 -11  144.23    5.79
   0   2  12  184.78    6.91
   0   2 -12  186.49    7.10
   0  -2  12  178.68    6.94
   0  -2 -12  186.09    6.85
   0   2 -13  422.62   10.90
   0   2  13  422.18   10.72
   0  -2  13  401.48   10.78
   0  -2 -13  428.33   10.77
   0   2  14   12.73    2.53
   0  -2  14   12.93    2.77
   0  -2 -14   14.92    2.71
   0  -2  15  715.70   15.24
   0   2  15  743.06   15.41
   0   2  16 1314.51   21.14
   0  -2  16 1308.50   21.52
   0   2  17  211.59    9.06
   0  -2  17  211.50    9.26
   0  -2  18  145.03    7.96
   0   2  18  148.93    8.01
   0   2  19  144.04    8.36
   0   2  20   22.42    4.04
   0   2  21   29.14    4.67
   0   2  22    1.90    3.14
   0   2  23   20.78    4.48
   0  -3   0   21.14    1.42
   0   3   1   10.79    1.05
   0  -3  -1   14.86    1.31
   0  -3  -2    2.51    0.97
   0   3   2    2.13    0.95
   0   3   3    4.32    0.89
   0   3   3    5.31    1.05
   0   3   4   -2.85    1.44
   0   3   4    2.01    1.17
   0   3  -4    4.86    1.64
   0  -3  -5   12.67    1.60
   0   3  -5   14.32    1.71
   0   3   5   14.14    1.80
   0  -3  -6    0.93    1.13
   0   3  -6    0.63    1.23
   0   3   6    1.86    1.31
   0  -3  -7   12.56    1.82
   0   3  -7   14.22    2.03
   0   3   7   13.79    1.87
   0  -3  -8    6.86    1.60
   0  -3   8    6.97    2.13
   0   3  -8    6.03    1.60
   0   3   8    5.40    1.55
   0  -3  -9   10.37    1.88
   0   3  -9    9.69    1.79
   0  -3   9    7.50    1.71
   0   3   9   12.10    1.96
   0   3 -10    0.52    1.39
   0  -3  10    0.12    1.51
   0   3  10    2.17    1.58
   0  -3 -10    0.61    1.37
   0  -3  11   -1.33    1.66
   0  -3 -11    1.11    1.60
   0   3 -11   -0.54    1.68
   0   3  11    0.20    1.53
   0   3  12    0.86    1.58
   0  -3  12    2.75    1.83
   0   3 -12    1.11    1.49
   0  -3 -12    3.49    1.57
   0  -3  13   14.25    3.00
   0   3  13    5.90    2.12
   0   3 -13    6.52    2.11
   0  -3 -13    8.56    2.28
   0  -3  14    3.47    2.18
   0   3  14    1.31    1.84
   0  -3 -14    2.01    1.83
   0   3  15   16.55    2.94
   0   3  16    3.57    2.17
   0   3  17    4.74    2.60
   0   3  18    4.79    2.77
   0   3  19   -2.06    2.92
   0   3  20    1.34    2.73
   0   3  21   -1.27    3.71
   0   3  22    4.62    3.31
   0   3  23    6.49    3.73
   0  -4   0   47.00    2.30
   0  -4  -1 7132.47   25.41
   0   4   1 7114.39   25.51
   0  -4  -2  686.78    7.78
   0   4   2  628.07    7.98
   0  -4  -3   68.15    2.72
   0   4   3   63.07    2.53
   0   4   4  389.91    6.70
   0   4   4  393.91    6.21
   0   4   5  374.60    7.14
   0   4  -5  350.47    6.85
   0   4   5  361.88    6.32
   0   4   6  853.63   11.43
   0   4  -6  866.82   11.52
   0   4   6  869.15   10.44
   0  -4  -7  590.84    9.33
   0   4  -7  593.15   10.10
   0   4   7  588.58    9.14
   0   4  -8  461.33    9.56
   0  -4  -8  455.69    8.87
   0   4   8  450.27    8.55
   0   4  -9   73.17    4.08
   0  -4  -9   75.64    3.90
   0   4   9   75.03    3.78
   0   4  10  252.17    7.12
   0   4 -10  268.15    8.08
   0  -4 -10  248.34    7.26
   0  -4 -11   10.89    2.00
   0   4 -11    9.59    1.88
   0   4  11   10.65    2.04
   0  -4 -12   16.88    2.60
   0   4 -12   17.23    2.68
   0   4  12   15.98    2.49
   0   4  13  234.83    8.02
   0  -4 -13  242.22    8.18
   0   4  14  601.92   13.27
   0  -4 -14  622.81   13.66
   0   4  15  256.83    9.25
   0   4  16   10.21    2.70
   0   4  17   31.42    3.97
   0   4  18  375.75   12.39
   0   4  19   68.39    5.88
   0   4  20   94.10    6.98
   0   4  21   18.23    3.75
   0   4  22   50.81    5.79
   0   4  23    9.28    4.15
   0  -5   0   20.39    1.92
   0   5   1   19.00    2.29
   0  -5  -1   12.88    1.70
   0   5   2   -0.91    1.49
   0  -5  -2    0.74    1.10
   0  -5  -3    2.74    1.29
   0   5   3    2.59    1.03
   0  -5  -4    2.64    1.29
   0   5   4    1.68    1.07
   0   5   5    2.59    1.29
   0   5  -5    2.20    1.32
   0   5   5    1.17    1.02
   0   5   6    8.93    1.37
   0   5   6   10.45    1.75
   0   5  -6   15.33    2.44
   0   5   7   16.47    2.09
   0   5  -7   12.57    1.89
   0   5   7   16.04    2.10
   0   5   8    6.84    1.81
   0   5  -8    3.04    1.50
   0   5   8    4.55    1.41
   0  -5  -9    2.38    1.40
   0   5  -9    1.24    1.46
   0   5   9    2.89    1.56
   0  -5 -10    0.46    1.47
   0   5 -10    0.20    1.51
   0   5  10    2.04    1.61
   0  -5 -11    1.98    1.56
   0   5 -11    1.91    1.56
   0   5  11    2.55    1.68
   0  -5 -12    6.33    2.02
   0   5 -12    6.02    2.12
   0   5  12    6.20    1.82
   0  -5 -13    4.01    1.90
   0   5  13    2.77    1.88
   0  -5 -14   23.40    3.22
   0   5  14   24.18    3.26
   0   5  15   11.18    2.70
   0   5  16   -0.54    2.17
   0   5  17    1.32    2.35
   0   5  18   -2.08    2.47
   0   5  19   -2.68    2.77
   0   5  20    3.84    3.06
   0   5  21   -1.35    3.46
   0   5  22    5.11    3.83
   0   5  23   -0.99    3.17
   0  -6   0  967.28   11.68
   0  -6  -1  171.76    5.08
   0  -6  -2 1720.45   15.10
   0   6   2 1650.78   15.51
   0  -6  -3  552.40    8.81
   0   6   3  503.70    8.91
   0  -6  -4    3.32    1.40
   0   6   4    3.13    1.03
   0   6   5   14.94    1.81
   0   6   5   15.78    1.66
   0   6   6  420.61    8.74
   0   6  -6  429.50    8.60
   0   6   6  434.48    8.02
   0   6   7   10.57    1.79
   0   6  -7   28.31    3.57
   0   6   7    9.91    1.70
   0   6   8  356.70    9.02
   0   6  -8  351.45    9.09
   0   6   8  354.37    8.10
   0   6   9   65.70    4.19
   0   6  -9   63.37    4.08
   0   6   9   63.25    3.63
   0   6  10 1494.73   19.75
   0   6 -10 1488.57   19.67
   0   6  10 1447.95   17.35
   0   6  11  360.39   10.27
   0   6 -11  367.59   10.35
   0   6  11  346.06    8.97
   0   6  12  120.74    5.63
   0   6  12  132.48    6.62
   0  -6 -13   54.38    4.26
   0   6  13   57.20    4.31
   0  -6 -14  843.84   16.13
   0   6  14  825.02   15.47
   0   6  15    2.10    2.17
   0   6  16   10.25    2.82
   0   6  17   76.28    5.78
   0   6  18  359.07   12.15
   0   6  19   -1.89    2.47
   0   6  20  325.31   12.49
   0   6  21   18.91    4.01
   0   6  22   97.35    7.44
   0   6  23    4.45    3.64
   0  -7   0   28.43    2.49
   0  -7   1    2.45    1.54
   0  -7  -1    1.03    1.38
   0   7   2    5.91    1.82
   0  -7  -2    2.88    1.50
   0   7   3    1.16    1.24
   0  -7  -3    4.85    1.45
   0   7   4    4.18    1.40
   0  -7  -4    1.62    1.27
   0   7   5    1.19    1.10
   0  -7  -5    1.16    1.32
   0   7   6   13.26    1.80
   0   7  -6   17.80    2.38
   0   7   6   13.01    1.88
   0   7   7    7.08    1.32
   0   7   7   11.26    1.89
   0   7  -7   12.37    2.19
   0   7   8    4.46    1.63
   0   7  -8    2.86    1.60
   0   7   8    4.05    1.54
   0   7   9    3.10    1.50
   0   7  -9    1.27    1.76
   0   7   9    1.41    1.46
   0   7  10    1.01    1.48
   0   7 -10    2.28    1.79
   0   7  10    1.05    1.43
   0   7  11    0.23    1.53
   0   7  11    0.65    1.58
   0   7  12    2.09    1.81
   0   7  12    2.87    1.93
   0   7  13    2.28    1.70
   0   7  14   24.07    3.23
   0   7  15    4.41    2.25
   0   7  16    2.08    2.30
   0   7  17   -1.09    2.32
   0   7  18    0.20    2.57
   0   7  19   -1.57    2.49
   0   7  20    4.43    2.99
   0   7  21    4.26    3.13
   0   7  22    6.53    3.28
   0   7  23   -0.42    3.57
   0  -8   0  162.46    6.00
   0  -8  -1   88.72    4.19
   0  -8   1   96.60    4.46
   0  -8  -2 1302.22   15.50
   0  -8  -3   68.52    3.62
   0   8   3   64.79    3.77
   0  -8  -4   25.47    2.55
   0   8   4   18.69    2.09
   0  -8  -5  510.59   10.07
   0   8   5  465.54   10.13
   0   8   6  265.11    6.92
   0   8   6  252.79    7.53
   0   8   7   33.16    3.10
   0   8  -7   31.92    3.02
   0   8   7   33.03    2.86
   0   8   8  115.31    5.58
   0   8  -8  120.53    5.71
   0   8   8  116.98    5.09
   0   8   9   35.06    3.14
   0   8  -9   35.25    3.23
   0   8   9   38.90    3.13
   0   8  10  557.57   12.94
   0   8 -10  548.14   12.75
   0   8  10  538.67   11.10
   0   8  11    7.38    2.00
   0   8  11    7.77    2.16
   0   8  12  224.96    7.89
   0   8  13  153.36    6.65
   0   8  14  120.78    6.23
   0   8  15  522.79   13.12
   0   8  16   20.43    3.33
   0   8  17   65.23    5.37
   0   8  18   66.51    5.58
   0   8  19   15.60    3.58
   0   8  20   53.42    5.63
   0   8  21   15.90    4.01
   0   8  22   31.06    4.94
   0   8  23   32.54    5.02
   0  -9   0    1.01    1.60
   0  -9   1   15.99    2.40
   0  -9  -1   16.80    2.35
   0  -9   2    7.84    2.10
   0  -9  -2    7.83    1.94
   0   9   3    3.44    1.80
   0  -9  -3    1.83    1.44
   0   9   4    0.75    1.27
   0  -9  -4    3.03    1.55
   0   9   5   -0.99    1.77
   0  -9  -5    2.20    1.56
   0   9   6    0.61    1.19
   0   9   6    1.32    1.36
   0   9   7   10.96    1.87
   0   9  -7   14.00    2.38
   0   9   7    9.49    2.02
   0   9   8   -1.38    1.90
   0   9   8    2.13    1.56
   0   9  -8    1.30    1.69
   0   9   9    1.43    1.62
   0   9  -9    2.39    1.85
   0   9   9    0.72    1.46
   0   9  10    0.94    1.51
   0   9  10    6.00    2.28
   0   9  11    1.05    1.71
   0   9  11   -1.33    1.87
   0   9  12   -0.28    1.71
   0   9  13    6.09    2.16
   0   9  14   -0.67    2.02
   0   9  15    7.02    2.58
   0   9  16    4.18    2.20
   0   9  17    1.18    2.24
   0   9  18    0.99    2.56
   0   9  19    3.33    2.69
   0   9  20    6.01    3.36
   0   9  21    1.99    3.09
   0   9  22    5.49    3.33
   0 -10   0  292.12    8.54
   0 -10  -1  658.00   12.33
   0 -10   1  622.13   12.43
   0 -10   2    5.29    2.00
   0 -10  -2    3.32    1.43
   0 -10  -3  129.41    5.58
   0  10   4   63.74    4.21
   0 -10  -4   67.09    4.06
   0  10   5   67.40    4.51
   0 -10  -5   70.49    4.45
   0  10   6   19.24    2.63
   0 -10  -6   26.21    3.07
   0  10   7   61.58    3.74
   0  10   7   55.29    4.00
   0  10  -7   63.90    4.22
   0  10   8  408.75   11.07
   0  10  -8  428.55   10.94
   0  10   8  424.67    9.94
   0  10   9   22.54    2.90
   0  10   9   18.80    2.32
   0  10  10  228.18    9.00
   0  10  10  236.19    7.88
   0  10  11    9.87    2.30
   0  10  12   19.87    2.81
   0  10  13   84.19    5.37
   0  10  14   13.66    2.93
   0  10  15  117.52    6.47
   0  10  16  210.13    8.89
   0  10  17   14.56    3.42
   0  10  18  213.08    9.69
   0  10  19    0.45    2.59
   0  10  20    5.58    3.04
   0  10  21   65.56    6.38
   0  10  22    6.09    3.34
   0 -11   0    3.89    1.75
   0 -11  -1    3.43    1.98
   0 -11   1    4.05    1.75
   0 -11  -2    1.99    1.55
   0 -11   2    2.22    2.07
   0 -11  -3   -1.35    1.54
   0 -11   3    1.85    2.18
   0 -11  -4    3.99    2.00
   0  11   4    6.00    2.27
   0 -11  -5    0.62    1.69
   0  11   5    0.58    1.72
   0 -11  -6    0.64    1.69
   0  11   6    1.18    1.48
   0  11   7    1.99    1.53
   0  11   7   -1.05    2.10
   0  11   8    0.86    1.66
   0  11   8    5.04    1.83
   0  11   9   -1.79    1.77
   0  11   9   -2.05    1.99
   0  11  10    1.63    1.76
   0  11  11    6.35    2.47
   0  11  12    2.54    1.79
   0  11  13   -0.85    2.19
   0  11  14   -0.09    2.16
   0  11  15    2.20    2.12
   0  11  16    2.44    2.19
   0  11  17   -2.80    2.54
   0  11  18   -3.69    2.60
   0  11  19   -1.34    2.74
   0  11  20   -1.38    2.88
   0 -12   0  756.74   15.08
   0 -12  -1   22.34    2.87
   0 -12   1   18.74    2.92
   0 -12  -2   14.02    2.45
   0 -12   2   10.04    2.63
   0 -12  -3  211.14    7.80
   0 -12   3  199.93    8.39
   0 -12  -4   14.15    2.63
   0 -12   4   11.55    2.77
   0 -12  -5  140.47    6.70
   0  12   5  146.18    7.22
   0 -12  -6    5.42    2.19
   0  12   6   10.47    2.85
   0  12   7    9.75    2.46
   0  12   7    9.97    2.06
   0  12   8  549.40   12.01
   0  12   9    1.32    1.60
   0  12  10  174.88    7.20
   0  12  11    9.11    2.64
   0  12  12   15.25    2.44
   0  12  13   10.67    2.80
   0  12  14  220.17    8.95
   0  12  15    5.64    2.67
   0  12  16  237.59    9.59
   0  12  17   25.78    3.96
   0  12  18   66.57    5.86
   0  12  19    5.52    3.08
   0 -13   0    1.85    2.10
   0 -13  -1    0.99    2.15
   0 -13   1   -2.25    2.34
   0 -13  -2    1.77    1.83
   0 -13   2    0.70    2.23
   0 -13  -3   -0.26    1.92
   0 -13   3    2.25    2.24
   0 -13  -4    3.32    2.18
   0 -13   4    3.07    2.50
   0 -13  -5    1.21    1.89
   0 -13  -6    1.43    2.04
   0  13   6    2.30    2.14
   0  13   7    0.08    1.54
   0  13   8    3.46    1.97
   0  13   9   -0.14    1.84
   0  13  10    2.13    1.79
   0  13  11    2.70    1.96
   0  13  12   -3.80    2.80
   0  13  13   -2.97    2.38
   0  13  14    6.15    2.87
   0  13  15    7.50    3.21
   0  13  16    0.61    2.46
   0  13  17    0.14    2.41
   0 -14   0  721.29   15.92
   0 -14  -1   20.26    3.23
   0 -14   1   13.08    2.37
   0 -14  -2    3.55    1.90
   0 -14   2    0.13    2.34
   0 -14  -3   10.06    2.64
   0 -14   3    8.24    2.59
   0 -14  -4    1.23    1.95
   0 -14   4    3.73    2.47
   0 -14  -5   97.85    5.98
   0 -14   5  103.59    6.75
   0 -14  -6   20.96    3.44
   0  14   7   16.57    2.65
   0  14   8  405.87   11.24
   0  14   9   38.70    3.84
   0  14  10  229.13    8.68
   0  14  11   14.01    2.80
   0  14  12    6.64    1.92
   0  14  13   17.89    2.54
   0  14  14    9.59    3.19
   0  14  15   90.31    6.48
   0 -15   0    4.68    2.64
   0 -15  -1    0.80    2.27
   0 -15   1    0.71    2.12
   0 -15  -2   -0.70    1.98
   0 -15   2   -1.07    2.30
   0 -15  -3    5.94    2.49
   0 -15   3    0.97    2.69
   0 -15  -4    1.94    2.04
   0 -15   4   -0.37    2.42
   0 -15  -5    4.79    2.49
   0 -15   5    8.42    3.37
   0 -15  -6    2.41    2.38
   0 -15   6    4.08    3.17
   0  15   7   -0.34    1.97
   0  15   8    0.60    1.81
   0  15   9   -0.06    1.89
   0  15  10    2.37    2.11
   0  15  11   -1.11    1.95
   0  15  12    0.90    2.17
   0  15  13   -0.41    2.52
   0  15  14    0.53    2.41
   0 -16   0  103.11    7.14
   0 -16  -1   42.63    4.48
   0 -16   1   42.24    4.55
   0 -16  -2  100.34    6.65
   0 -16   2   92.43    6.55
   0 -16  -3   19.29    3.34
   0 -16   3   16.01    3.23
   0 -16  -4    1.31    2.28
   0 -16   4    1.52    2.54
   0 -16  -5   11.14    2.69
   0 -16   5   12.12    3.67
   0 -16  -6   89.39    6.43
   0 -16   6   90.14    7.21
   0  16   7   13.16    2.83
   0 -16   7   15.95    4.04
   0  16   8   78.64    5.51
   0  16   9    6.28    2.32
   0  16  10   90.48    5.86
   0  16  11   -2.44    2.12
   0 -17   0    1.20    2.48
   0 -17   1    3.21    2.95
   0 -17  -1   -2.08    2.74
   0 -17   2    2.58    3.12
   0 -17  -2    2.04    2.68
   0 -17  -3    1.61    2.33
   0 -17   3    0.80    2.59
   0 -17  -4   -1.82    2.38
   0 -17   4   -2.00    2.89
   0 -17  -5    1.19    2.52
   0 -17   5   -2.80    2.86
   0 -17  -6    5.77    3.00
   0 -17   6    6.29    3.56
   0  17   7    0.67    2.01
   0 -17   7   -0.33    2.82
   0  17   8    0.69    2.00
   0 -17   8    0.87    2.97
   0 -17   9    2.65    3.61
   0  17   9    3.08    2.25
   0 -18   0   18.24    3.68
   0 -18   1   14.86    3.76
   0 -18  -1    7.91    2.99
   0 -18   2   47.71    5.44
   0 -18  -2   41.29    5.13
   0 -18   3    1.32    2.89
   0 -18  -3    1.19    2.45
   0 -18  -4   -1.26    2.84
   0 -18   4   -4.06    3.68
   0 -18  -5    1.83    2.81
   0 -18   5    3.22    3.00
   0 -18  -6   48.07    5.36
   0 -18   6   36.86    5.08
   0 -18   7   29.00    5.27
   0 -18   8   12.44    4.09
   0 -18   9   41.77    6.35
   0 -18  10   85.44    8.20
   0 -19   0   -0.44    2.74
   0 -19  -1    0.99    2.90
   0 -19   1   -4.36    3.46
   0 -19  -2    4.52    3.47
   0 -19   2    3.70    3.19
   0 -19   3    5.31    3.19
   0 -19  -3    1.41    2.68
   0 -19  -4   -0.75    2.96
   0 -19   4    2.78    3.29
   0 -19  -5   -1.23    2.71
   0 -19   5   -4.89    4.14
   0 -19   6   -1.37    3.32
   0 -19   7   -5.03    3.91
   0 -19   8    1.36    3.28
   0 -19   9    0.29    3.48
   0 -20   0   53.06    6.41
   0 -20  -1    1.59    2.92
   0 -20   1    3.61    3.30
   0 -20  -2   63.87    6.42
   0 -20   2   51.95    6.30
   0 -20   3   17.69    4.50
   0 -20  -3   12.61    3.62
   0 -20   4   -1.57    3.60
   0 -20  -4   -0.49    3.13
   0 -20   5   31.39    5.38
   0 -20   6    3.50    3.35
   0 -20   7   -2.30    4.14
   1   0  -2  142.98    2.34
   1   0   2  152.37    2.84
  -1   0  -2  154.48    2.80
  -1   0   3    0.75    0.80
   1   0  -3    0.71    0.71
  -1   0  -3    0.87    0.84
   1   0   3    1.52    0.97
   1   0   4 3246.58   16.45
   1   0  -4 3211.89   15.31
  -1   0   4 3253.80   15.17
  -1   0  -4 3251.56   16.44
   1   0  -5    1.18    1.03
  -1   0   5   -0.90    1.36
  -1   0  -5    3.24    1.24
   1   0   5    0.77    1.37
   1   0  -6   25.00    1.95
   1   0   6   22.96    2.23
  -1   0   7    0.06    1.36
   1   0   7    1.04    1.44
  -1   0  -7    1.25    1.29
   1   0  -7   -0.40    1.13
  -1   0   8   28.24    2.39
   1   0   8   25.94    2.42
  -1   0  -8   27.71    2.41
   1   0  -8   26.40    2.24
  -1   0   9    4.16    1.64
   1   0   9    2.12    1.43
  -1   0  -9    4.20    1.66
   1   0  -9    2.54    1.55
   1   0  10  454.69    9.99
   1   0 -10  449.09    9.36
  -1   0  10  443.74    9.43
  -1   0 -10  462.89    9.83
  -1   0  11    2.81    2.04
   1   0  11   -0.76    1.78
   1   0 -11   -0.66    1.46
  -1   0 -11    0.02    1.50
   1   0  12  770.33   14.12
  -1   0  12  759.61   13.66
   1   0 -12  789.62   13.74
  -1   0 -12  809.66   14.38
   1   0  13    0.58    1.81
  -1   0  13    2.38    1.98
   1   0 -13    0.77    1.75
  -1   0 -13    1.27    1.55
   1   0  14    5.74    2.26
  -1   0  14   10.66    2.58
   1   0 -14    8.14    2.34
  -1   0  15    4.69    2.42
   1   0  15    0.30    2.08
   1   0  16  206.80    8.73
  -1   0  16  212.33    8.59
   1   0  17   -2.46    2.66
  -1   0  17    4.29    2.68
  -1   0  18   99.71    6.48
   1   0  18   99.89    6.63
  -1   0  19    0.03    2.43
   1   0  19   -0.05    2.70
   1   0  20   79.23    6.74
   1   0  21    5.37    3.57
   1   0  22    9.77    3.51
   1   0  23    2.68    3.26
  -1   1   0    1.64    0.61
  -1   1   1   68.02    1.75
   1  -1   1   51.82    1.38
  -1  -1  -2  558.07    5.47
  -1   1   2  540.68    5.49
   1  -1  -2  524.07    3.77
  -1   1  -2  525.15    5.02
   1  -1   2  502.06    5.14
  -1   1   2  500.11    3.84
   1   1   2  543.93    5.51
  -1   1  -3 1089.24    8.48
  -1   1   3 1066.89    7.30
   1  -1   3 1073.86    8.67
   1  -1  -3 1072.78    7.02
  -1  -1  -3 1116.47    8.75
   1   1   3 1106.86    8.70
   1   1  -4  575.27    6.94
   1  -1   4  569.41    7.25
  -1   1  -4  582.72    7.03
  -1   1   4  579.89    6.32
   1  -1  -4  579.29    6.12
   1   1   4  584.56    7.18
  -1  -1  -4  587.62    7.08
  -1   1  -5   36.95    2.26
   1   1  -5   39.33    2.30
  -1   1   5   38.31    2.08
  -1  -1   5   37.79    2.22
   1  -1  -5   36.28    1.95
   1  -1   5   37.55    2.42
   1   1   5   38.28    2.36
  -1  -1  -5   39.24    2.28
   1  -1  -6   90.01    3.19
  -1   1   6   85.57    3.30
   1   1  -6   86.54    3.39
   1  -1   6   91.31    3.65
  -1  -1   6   84.74    3.28
  -1   1  -6   85.62    3.56
   1   1   6   91.75    3.56
  -1  -1  -6   91.10    3.50
   1   1  -7   15.30    1.85
  -1  -1   7   16.23    1.97
  -1   1   7   17.09    1.92
   1  -1   7   16.64    2.19
  -1   1  -7   14.39    1.82
   1  -1  -7   17.17    1.83
  -1  -1  -7   17.50    2.00
   1   1   7   16.41    2.01
  -1   1   8  488.80    8.60
   1  -1   8  482.37    9.26
   1   1  -8  495.46    9.04
  -1  -1   8  510.46    8.88
   1   1   8  497.35    9.09
  -1   1  -8  489.86    9.13
  -1  -1  -8  502.36    9.16
   1  -1  -8  486.10    8.53
   1   1  -9   10.28    1.82
  -1  -1   9   16.80    2.42
   1  -1   9    8.82    2.03
  -1   1   9   10.92    1.87
  -1   1  -9   11.32    1.90
  -1  -1  -9   10.63    1.85
   1   1   9   11.54    2.02
   1  -1  -9   11.41    1.82
   1   1 -10   79.44    4.18
  -1   1  10   80.58    4.20
   1  -1  10   80.88    4.46
   1   1  10   79.86    4.31
  -1  -1  10   81.72    4.37
  -1  -1 -10   82.28    4.25
  -1   1 -10   84.34    4.39
   1  -1 -10   83.25    4.17
   1  -1  11  211.20    7.27
   1   1  11  205.91    7.11
  -1   1  11  204.54    6.70
  -1  -1  11  207.19    6.96
   1   1 -11  213.76    6.98
  -1   1 -11  215.63    7.20
  -1  -1 -11  216.50    7.18
   1  -1 -11  213.19    6.83
   1   1  12  834.95   14.92
   1   1 -12  846.97   14.48
   1  -1  12  817.99   14.61
  -1   1  12  822.84   13.98
  -1  -1  12  798.50   14.05
  -1  -1 -12  839.31   14.60
   1  -1 -12  830.24   14.06
  -1   1 -12  851.40   14.82
   1   1 -13   79.35    4.86
  -1  -1  13   78.12    4.99
   1  -1  13   69.54    4.74
  -1   1  13   73.79    4.62
   1   1  13   73.52    4.83
  -1  -1 -13   79.07    5.09
   1  -1 -13   78.77    4.84
  -1   1 -13   83.63    5.10
   1  -1  14   49.08    4.20
  -1   1  14   46.43    3.99
  -1  -1  14   47.71    4.18
   1   1  14   44.62    4.11
   1   1 -14   54.24    4.43
  -1  -1 -14   51.07    4.33
   1  -1 -14   50.75    4.19
  -1  -1  15    5.01    2.27
  -1   1  15    0.82    2.31
   1   1  15    4.19    1.99
   1  -1  15    3.12    2.10
   1   1  16  182.44    8.37
   1  -1  16  174.64    8.31
  -1   1  16  182.01    8.21
  -1  -1  16  174.18    7.91
   1   1  17    2.29    2.45
  -1   1  17    3.65    2.42
   1  -1  17    2.43    2.44
  -1  -1  17    6.28    2.71
  -1   1  18    8.12    2.87
   1  -1  18   17.64    3.80
   1   1  18    4.15    2.68
   1  -1  19    7.85    3.32
  -1   1  19    2.77    2.38
   1   1  19    6.59    2.82
  -1   1  20  266.02   11.03
   1  -1  20  262.03   11.51
   1   1  20  265.22   11.59
  -1   1  21   14.98    3.59
   1   1  21   14.58    3.89
   1  -1  21    9.72    3.74
   1  -1  22  137.21    9.20
   1   1  22  132.05    8.96
   1   1  23   10.65    3.78
   1  -2   0    8.47    1.05
  -1   2   0    7.93    1.11
  -1   2   1  304.70    4.49
   1  -2  -1  304.33    4.46
  -1  -2  -1  310.64    3.00
   1   2   1  297.44    2.98
  -1   2  -1  300.42    3.38
   1  -2  -2   19.58    1.47
  -1   2   2   19.46    1.48
  -1   2  -2   14.26    1.16
   1  -2   2   15.87    1.24
  -1   2   2   15.46    0.87
  -1   2   3  776.73    8.10
   1  -2   3  771.48    7.54
  -1   2  -3  742.51    7.55
  -1   2   3  753.44    5.81
   1  -2  -3  760.08    5.99
   1   2   3  783.77    7.83
  -1  -2  -4  595.85    7.40
  -1   2  -4  572.11    7.54
  -1   2   4  559.47    5.95
   1  -2   4  646.06    8.13
   1  -2  -4  565.83    6.15
   1   2   4  597.78    7.45
   1   2  -5   30.58    2.16
  -1   2  -5   30.35    2.09
  -1   2   5   29.15    1.85
   1  -2   5   28.84    2.31
   1   2   5   29.05    2.20
  -1  -2  -5   31.66    2.14
   1  -2  -5   28.29    1.80
  -1  -2  -6   18.35    1.90
   1   2  -6   17.28    1.76
   1  -2   6   12.64    1.78
  -1   2  -6   18.52    1.94
   1  -2  -6   17.33    1.66
   1   2   6   17.41    2.07
  -1   2   6   19.00    1.78
   1  -2   7  137.37    4.85
   1   2  -7  153.88    4.92
  -1   2   7  145.53    4.41
  -1   2  -7  141.52    4.81
  -1  -2  -7  151.18    4.83
   1   2   7  152.13    4.87
   1  -2  -7  145.63    4.39
   1   2  -8   13.92    2.00
  -1   2   8    8.79    1.62
   1  -2   8   10.10    1.73
  -1   2  -8   12.10    1.96
   1   2   8   11.59    1.90
  -1  -2  -8   12.31    1.87
   1  -2  -8   12.98    1.75
   1   2  -9  163.00    5.74
  -1   2   9  159.95    5.33
  -1   2  -9  154.87    5.59
   1  -2   9  141.29    5.29
   1   2   9  159.62    5.49
   1  -2  -9  159.02    5.23
  -1  -2  -9  159.00    5.55
   1  -2  10   16.48    2.32
   1   2 -10   19.98    2.34
  -1  -2  10   17.83    2.35
  -1   2  10   21.73    2.40
  -1  -2 -10   23.47    2.51
   1  -2 -10   19.11    2.28
   1   2  10   20.29    2.45
  -1   2 -10   23.42    2.52
   1   2 -11  289.65    8.31
   1  -2  11  277.74    8.35
  -1  -2  11  272.08    7.95
  -1   2 -11  298.42    8.46
   1   2  11  282.15    8.08
  -1   2  11  281.61    7.77
   1  -2 -11  286.00    7.83
  -1  -2 -11  286.22    8.13
  -1  -2  12  201.10    7.25
  -1   2  12  208.55    7.11
   1   2  12  216.17    7.55
   1   2 -12  210.13    7.40
   1  -2  12  209.94    7.66
  -1  -2 -12  216.07    7.48
   1  -2 -12  210.61    7.13
  -1   2 -12  220.54    7.61
  -1  -2  13    8.51    2.30
   1  -2  13    1.99    2.10
  -1   2  13    8.87    2.13
   1   2  13    4.03    1.76
   1  -2 -13    5.95    1.83
  -1  -2 -13    7.19    2.25
  -1   2 -13    9.86    2.40
   1   2 -13    7.68    2.15
   1   2  14   18.19    3.04
   1  -2  14   11.28    2.72
  -1   2  14   15.62    2.69
   1  -2 -14   13.97    2.51
  -1  -2 -14   15.76    2.80
   1  -2  15   18.98    3.25
  -1   2  15   10.63    2.04
   1   2  15   19.57    3.11
   1  -2  16    4.21    2.46
   1   2  16    7.41    2.58
  -1   2  16    6.70    2.35
   1  -2  17   41.05    4.54
   1   2  17   40.80    4.45
  -1   2  17   37.06    4.03
   1  -2  18   48.02    5.07
  -1   2  18   45.96    4.69
   1   2  18   45.69    4.75
   1   2  19  113.75    7.31
  -1   2  19  120.15    7.47
   1  -2  19  114.63    7.49
   1   2  20   39.11    4.95
   1  -2  20   47.34    5.29
  -1   2  20   38.90    4.95
   1   2  21   45.64    5.65
   1  -2  21   48.50    5.64
  -1   2  21   45.34    5.66
   1   2  22    1.15    3.29
  -1   2  22    3.40    3.24
   1   2  23    5.54    3.79
  -1   2  23    8.42    3.74
  -1  -3   0    3.03    0.86
   1  -3   0    3.00    1.13
   1  -3  -1  312.44    5.18
   1   3   1  319.24    4.10
  -1   3   1  300.91    5.37
  -1  -3  -1  330.20    4.00
  -1   3   2  182.18    4.17
   1  -3  -2  186.41    4.11
   1   3   2  171.33    3.20
  -1  -3  -2  172.60    3.20
  -1   3  -2  167.61    3.41
  -1   3   3   22.17    1.89
   1   3   3   17.37    1.46
   1  -3  -3   19.50    1.80
  -1   3  -3   16.87    1.47
  -1   3   3   19.63    1.44
   1  -3  -4  715.94    7.11
  -1   3   4  746.09    9.26
  -1   3  -4  713.00    8.63
   1  -3   4  701.21    8.47
   1   3   4  748.74    8.84
  -1   3   4  705.05    7.04
  -1  -3  -5  183.88    4.72
  -1   3   5  180.96    5.03
  -1   3  -5  173.23    4.73
   1   3  -5  176.36    4.73
   1  -3   5  173.28    4.58
   1   3   5  179.35    4.74
  -1   3   5  193.59    4.25
   1  -3  -5  174.55    4.04
  -1  -3  -6  877.80   10.85
  -1   3  -6  863.89   11.20
   1  -3   6  848.21   10.89
   1   3  -6  845.69   10.95
  -1   3   6  859.24    9.33
   1   3   6  856.91   10.87
   1  -3  -6  871.13    9.67
  -1   3   7   58.29    2.83
   1   3  -7   55.89    3.20
  -1   3  -7   58.31    3.27
   1  -3   7   63.59    3.57
   1   3   7   61.78    3.29
  -1  -3  -7   61.82    3.22
   1  -3  -7   60.50    2.92
  -1   3  -8  177.01    5.81
   1   3  -8  173.69    5.72
  -1   3   8  168.59    5.02
   1  -3   8  222.83    7.01
   1  -3  -8  169.48    5.08
  -1  -3  -8  175.33    5.71
   1   3   8  173.09    5.59
  -1  -3  -9   12.85    1.89
   1   3  -9   11.83    2.02
  -1   3   9   13.92    1.92
   1  -3  -9   12.58    1.88
  -1   3  -9   15.47    2.23
   1   3   9   15.30    2.16
   1   3 -10   71.09    4.19
   1  -3  10   68.75    4.17
  -1   3  10   65.65    3.67
   1   3  10   66.58    3.94
  -1   3 -10   68.01    4.05
  -1  -3 -10   70.03    3.98
   1  -3 -10   66.79    3.67
   1  -3  11   65.79    4.36
   1   3  11   62.05    4.04
   1   3 -11   66.16    4.32
  -1   3 -11   62.00    4.13
  -1   3  11   63.83    3.99
  -1  -3 -11   61.92    3.96
   1  -3 -11   64.87    3.90
  -1   3  12  531.86   11.19
   1   3 -12  550.34   12.28
  -1   3 -12  551.63   12.23
   1   3  12  528.31   11.55
   1  -3  12  516.80   12.01
   1  -3 -12  529.18   11.16
  -1  -3 -12  533.54   11.81
  -1  -3 -13   13.31    2.33
   1   3  13   14.03    2.53
  -1   3  13   15.40    2.47
   1  -3  13   18.97    3.11
  -1   3 -13   11.03    2.34
   1   3 -13   16.49    2.60
   1  -3 -13   17.01    2.55
   1   3  14  319.86   10.04
  -1   3  14  312.16    9.47
   1  -3  14  295.91    9.87
   1  -3 -14  308.25    9.45
  -1  -3 -14  322.37   10.19
   1  -3  15  192.50    8.53
  -1   3  15  169.76    7.43
   1   3  15  175.52    7.79
   1  -3 -15  174.08    7.55
   1  -3  16  174.52    8.43
  -1   3  16  175.92    7.80
   1   3  16  177.26    8.19
   1   3  17    7.93    2.87
   1  -3  17    4.25    2.93
  -1   3  17    5.19    2.18
  -1   3  18    2.07    2.32
   1   3  18    6.68    2.67
   1  -3  18    2.70    2.72
  -1   3  19   52.39    5.30
   1   3  19   53.69    5.43
  -1   3  20   83.06    6.55
   1   3  20   83.87    6.62
  -1   3  21    8.23    4.04
   1   3  21   -1.14    3.02
  -1   3  22   80.14    6.72
   1   3  22   84.27    7.29
  -1   3  23    8.62    3.77
   1   3  23    7.08    3.56
  -1  -4   0    2.54    1.21
   1  -4   0    1.55    1.21
   1  -4  -1  457.52    7.29
   1   4   1  486.73    5.95
  -1   4   1  472.21    7.32
  -1  -4  -1  481.93    5.89
  -1   4   2   85.23    3.49
   1   4   2   81.25    2.82
  -1  -4  -2   90.32    2.75
   1  -4  -2   93.87    3.36
   1  -4  -3  381.76    6.67
   1   4   3  362.13    5.57
  -1   4   3  374.48    6.71
  -1   4  -3  351.77    5.84
   1   4   4  208.45    4.96
  -1   4   4  200.27    5.17
   1   4   4  204.47    4.71
   1  -4  -4  198.59    5.10
  -1   4  -4  196.96    4.87
  -1   4   4  204.80    4.19
   1   4   5  255.85    5.57
  -1   4   5  256.76    6.20
  -1   4  -5  253.56    5.85
  -1   4   5  252.18    4.75
   1   4   5  257.97    5.90
   1  -4  -6  101.53    3.51
  -1   4   6  103.25    4.34
  -1   4  -6  103.98    4.11
   1   4  -6   99.55    4.11
   1   4   6   98.27    4.01
  -1   4   6   92.10    3.22
  -1   4   7   62.25    3.59
   1   4  -7   61.09    3.54
  -1   4  -7   62.35    3.48
   1  -4  -7   61.92    3.00
   1   4   7   61.61    3.35
  -1   4   7   65.49    3.09
  -1  -4  -8   13.89    2.02
   1  -4  -8   12.44    1.83
   1   4  -8   13.28    1.92
  -1   4  -8   10.67    1.89
   1  -4   8   14.15    2.19
   1   4   8   13.50    2.02
  -1   4   8   12.66    1.71
  -1  -4  -9  506.45   10.05
   1   4  -9  521.22   10.57
  -1   4   9  512.12    9.11
  -1   4  -9  530.16   10.69
   1  -4   9  494.55   10.08
   1   4   9  508.20    9.95
   1  -4  -9  492.69    9.23
   1   4 -10   41.44    3.44
  -1   4 -10   39.56    3.38
  -1   4  10   33.53    2.83
   1  -4  10   36.77    3.17
  -1  -4 -10   38.16    3.14
   1  -4 -10   35.70    2.87
   1   4  10   37.44    3.11
   1  -4  11  271.81    8.37
   1   4  11  277.56    8.10
  -1   4 -11  291.69    8.65
  -1   4  11  289.74    7.82
   1   4 -11  298.36    8.82
   1  -4 -11  273.60    7.72
  -1  -4 -11  287.84    8.36
  -1   4 -12   87.85    5.09
  -1   4  12   82.96    4.54
   1  -4  12   89.64    5.53
   1   4  12   86.93    4.93
   1   4 -12   89.23    5.15
   1  -4 -12   87.67    4.78
  -1  -4 -12   86.54    4.93
   1  -4  13   80.01    5.26
  -1   4  13   77.64    4.71
   1   4  13   80.93    4.96
   1  -4 -13   81.45    4.75
  -1  -4 -13   82.30    5.04
  -1   4  14   82.41    5.05
   1  -4  14   83.82    5.49
   1   4  14   81.01    5.19
  -1  -4 -14   80.75    5.36
   1  -4 -14   82.03    5.15
  -1   4  15   92.62    5.59
   1   4  15   94.53    5.80
   1  -4 -15   98.26    5.78
   1   4  16   55.28    4.83
  -1   4  16   59.51    4.86
   1   4  17   45.77    4.66
  -1   4  17   51.64    4.62
   1   4  18   73.93    5.90
  -1   4  18   68.05    5.37
   1   4  19  124.73    7.78
  -1   4  19  123.62    7.53
  -1   4  20    8.73    3.18
   1   4  20   21.07    4.31
   1   4  21    8.42    3.30
  -1   4  21   18.27    4.29
   1   4  22   10.87    3.28
  -1   4  22   16.23    3.93
  -1   4  23   11.98    3.84
   1   4  23    8.73    3.22
  -1  -5   0    0.63    1.11
   1  -5   0    3.34    1.52
  -1   5   1  817.07   10.63
   1  -5  -1  778.80   10.43
  -1  -5  -1  834.44    9.00
   1   5   2  893.20    9.68
  -1   5   2  884.67   11.32
  -1  -5  -2  959.50    9.29
   1  -5  -2  908.63   10.86
   1   5   3   45.97    2.55
  -1   5   3   50.25    2.99
   1  -5  -3   45.90    2.77
  -1  -5  -3   48.73    2.55
  -1   5   4  265.78    4.97
   1  -5  -4  268.35    6.45
   1   5   4  258.43    5.63
  -1   5   4  254.45    6.31
  -1   5  -4  245.44    5.65
   1   5   5   28.59    2.36
  -1   5   5   27.54    2.46
   1   5   5   28.91    2.24
  -1   5  -5   25.94    2.28
  -1   5   5   32.22    2.26
   1   5   6  321.05    7.10
  -1   5   6  315.08    7.52
  -1   5  -6  313.36    7.32
   1   5   6  322.41    7.24
  -1   5   6  314.86    6.02
  -1   5   7  221.68    6.67
   1   5   7  217.52    6.22
  -1   5  -7  219.16    6.45
   1   5  -7  216.62    6.50
  -1   5   7  210.20    5.29
   1   5   7  219.09    6.22
   1  -5  -8  203.07    5.75
  -1   5   8  225.26    7.21
  -1   5  -8  214.49    6.78
   1   5  -8  215.11    6.86
  -1   5   8  214.97    5.75
   1   5   8  213.09    6.48
   1  -5  -9   38.41    2.87
  -1   5   9   44.80    3.59
   1   5  -9   40.92    3.37
  -1   5  -9   44.81    3.45
   1   5   9   41.84    3.19
  -1   5   9   41.78    2.90
   1  -5 -10  785.18   12.47
  -1  -5 -10  799.40   13.51
  -1   5  10  830.81   14.64
  -1   5 -10  817.32   14.19
  -1   5  10  797.93   12.17
   1   5 -10  800.39   14.11
   1   5  10  804.44   13.24
  -1  -5 -11  130.46    5.84
   1   5 -11  142.65    6.41
  -1   5  11  129.76    5.28
  -1   5 -11  135.12    6.22
   1   5  11  129.87    5.74
   1  -5 -11  131.91    5.51
  -1  -5 -12  511.14   11.91
  -1   5 -12  495.01   12.01
  -1   5  12  492.66   10.65
   1   5 -12  502.87   12.28
   1   5  12  491.70   11.30
   1  -5 -12  491.78   11.07
  -1  -5 -13    8.44    2.29
   1  -5 -13    8.51    2.19
  -1   5  13    6.12    1.96
   1   5  13    8.51    2.32
  -1  -5 -14  292.24    9.80
  -1   5  14  300.06    9.36
   1   5  14  295.73    9.64
   1  -5 -14  305.98    9.58
  -1   5  15  117.65    6.30
   1   5  15  122.98    6.52
   1  -5 -15  121.39    6.52
  -1   5  16  121.82    6.63
   1   5  16  115.35    6.79
  -1   5  17    9.62    2.88
   1   5  17    4.75    2.29
  -1   5  18   65.60    5.37
   1   5  18   68.41    5.77
  -1   5  19   16.81    3.20
   1   5  19   28.48    4.39
  -1   5  20  125.17    7.89
   1   5  20  127.72    8.10
   1   5  21    1.28    2.89
  -1   5  21    0.49    2.87
  -1   5  22  131.92    8.59
   1   5  22  131.37    8.65
   1   5  23    9.98    3.63
  -1   5  23   15.61    4.54
  -1  -6   0    1.93    1.33
   1  -6   0    1.67    1.37
   1  -6  -1   67.63    3.57
  -1  -6  -1   74.09    3.18
   1  -6   1   80.57    3.77
  -1   6   1   72.51    3.65
  -1  -6  -2  261.12    5.42
   1  -6  -2  245.44    6.27
   1   6   2  248.30    5.62
  -1   6   2  240.68    6.35
  -1   6   3    7.07    1.73
   1  -6  -3    7.32    1.65
  -1  -6  -3    6.33    1.34
   1   6   3    5.73    1.26
   1  -6  -4  162.04    5.27
  -1  -6  -4  152.12    4.48
   1   6   4  155.37    4.71
  -1   6   4  155.20    5.21
   1   6   5   62.36    3.18
  -1   6   5   65.20    3.61
   1  -6  -5   59.04    3.48
  -1   6  -5   69.54    3.48
  -1   6   5   61.24    2.73
  -1   6   6  261.05    7.20
   1   6   6  259.36    6.66
  -1   6  -6  273.65    6.94
   1   6   6  258.41    6.69
  -1   6   6  268.26    5.81
   1   6   7   11.13    1.80
  -1   6   7   16.34    2.30
   1   6   7   14.68    1.92
  -1   6  -7    9.59    1.55
   1   6  -7   14.18    2.10
  -1   6   7   13.88    1.73
  -1   6   8   13.41    2.13
   1   6   8   12.93    2.03
  -1   6  -8   12.12    2.18
   1   6  -8   12.76    2.29
  -1   6   8    9.69    1.44
   1   6   8   13.87    2.06
   1   6   9    3.67    1.56
  -1   6   9    3.34    1.57
   1   6  -9    1.46    1.51
  -1   6  -9    3.36    1.70
  -1   6   9    5.81    1.75
   1   6   9    3.84    1.54
   1   6  10  396.75   10.01
  -1   6  10  414.86   10.79
   1   6 -10  394.78   10.31
  -1   6 -10  400.97   10.26
  -1   6  10  377.64    8.44
   1   6  10  391.03    9.46
   1   6  11   19.06    2.72
  -1   6  11   20.94    3.00
  -1   6 -11   20.68    2.92
   1   6 -11   22.16    2.90
  -1   6  11   17.90    2.31
   1   6  11   21.61    2.81
   1  -6 -12   55.34    3.81
  -1   6  12   59.75    4.72
  -1   6  12   57.88    3.80
   1   6  12   59.04    4.24
   1  -6 -13   14.47    2.45
   1   6  13    8.11    2.14
  -1   6  13   14.34    2.61
   1  -6 -14  130.89    6.33
   1   6  14  134.41    6.70
  -1   6  14  136.26    6.46
   1  -6 -15   62.83    4.79
  -1   6  15   58.91    4.53
   1   6  15   58.41    4.84
  -1   6  16   86.70    5.74
   1   6  16   83.02    5.74
  -1   6  17   -0.14    2.22
   1   6  17    1.67    2.23
   1   6  18  133.03    7.76
  -1   6  18  122.60    7.17
   1   6  19   14.09    3.71
  -1   6  19   14.11    3.20
  -1   6  20   22.51    3.69
   1   6  20   25.48    4.27
   1   6  21    5.31    3.04
  -1   6  21    3.35    2.96
  -1   6  22   33.49    4.94
   1   6  22   45.55    5.80
   1   6  23   -4.52    3.69
  -1   6  23    2.41    3.23
   1  -7   0    0.99    1.48
  -1  -7   0    1.26    1.23
  -1  -7   1  175.75    5.16
  -1  -7  -1  176.21    5.12
   1  -7  -1  167.47    5.67
   1  -7   1  186.14    5.98
   1   7   2  509.38    8.57
  -1   7   2  487.40    9.58
   1  -7  -2  495.92    9.56
  -1  -7  -2  519.36    8.40
   1   7   3  256.55    6.44
  -1   7   3  238.83    6.95
  -1  -7  -3  267.42    6.15
   1  -7  -3  262.89    6.87
   1   7   4  106.41    4.35
  -1   7   4  111.16    5.03
  -1  -7  -4  114.64    4.31
   1  -7  -4  110.90    4.74
  -1   7   5   17.31    1.88
   1   7   5   14.69    2.09
   1  -7  -5   15.33    2.22
  -1   7   5   15.06    2.15
  -1   7  -5   13.92    1.84
   1   7   6  572.52   10.45
  -1   7   6  570.60   11.24
   1   7   6  537.13    9.97
  -1   7  -6  586.26   10.40
  -1   7   6  581.91    8.99
   1   7   7   32.36    2.76
  -1   7   7   31.66    3.06
  -1   7  -7   31.26    2.84
  -1   7   7   28.42    2.24
   1   7   7   29.84    2.84
  -1   7   8   84.72    4.79
   1   7   8   85.23    4.59
   1   7  -8   89.63    4.70
  -1   7  -8   84.23    4.67
   1   7   8   79.49    4.38
  -1   7   8   84.24    3.91
   1   7   9   80.98    4.56
  -1   7   9   91.46    5.18
   1   7  -9   84.74    4.91
  -1   7  -9   88.26    4.96
  -1   7   9   78.94    3.95
   1   7   9   77.97    4.42
  -1   7  10   87.00    5.19
   1   7  10   83.81    4.85
   1   7 -10   83.38    4.94
  -1   7 -10   86.44    5.04
  -1   7  10   88.67    4.39
   1   7  10   86.87    4.65
  -1   7  11   26.69    3.33
   1   7  11   25.70    3.16
  -1   7 -11   28.69    3.54
   1   7  11   24.42    3.01
  -1   7  11   23.57    2.72
   1   7  12  148.06    7.04
  -1   7  12  136.39    5.82
   1   7  12  147.00    6.58
   1   7  13    0.44    1.83
  -1   7  13    1.91    1.84
  -1   7  14  373.94   10.37
   1   7  14  373.59   11.00
  -1   7  15    6.97    2.15
   1   7  15    9.64    2.73
  -1   7  16    4.42    2.08
   1   7  16    8.46    2.64
  -1   7  17   12.53    2.65
   1   7  17   17.48    3.51
   1   7  18   65.04    5.61
  -1   7  18   61.30    5.20
  -1   7  19   12.50    3.38
   1   7  19   10.88    3.11
  -1   7  20   89.04    6.45
   1   7  20   94.94    7.11
  -1   7  21   10.14    3.16
   1   7  21   18.24    4.02
   1   7  22   65.21    6.66
  -1   7  22   64.52    6.30
  -1   7  23    0.05    3.06
  -1  -8   0    1.74    1.35
   1  -8   0    1.23    1.71
  -1  -8   1   87.08    4.12
  -1  -8  -1   86.85    3.86
   1  -8  -1   82.88    4.34
   1  -8   1   89.23    4.58
   1  -8  -2  200.05    6.55
  -1   8   2  203.94    6.65
  -1  -8  -2  208.06    5.81
  -1   8   3   69.18    4.04
   1   8   3   75.75    3.74
   1  -8  -3   73.84    4.01
  -1  -8  -3   80.40    3.70
  -1   8   4   61.06    3.84
   1   8   4   61.71    3.56
   1  -8  -4   67.44    3.87
  -1  -8  -4   69.06    3.59
   1   8   5  288.20    7.58
  -1   8   5  306.20    8.59
   1  -8  -5  320.41    8.44
  -1   8  -5  326.26    7.73
   1   8   6   97.17    4.58
   1   8   6   98.05    4.51
  -1   8   6   98.51    4.96
   1  -8  -6  101.12    4.98
  -1   8  -6  104.47    4.59
  -1   8   6  100.96    4.03
   1   8   7    6.42    1.76
  -1   8   7    9.46    1.83
  -1   8   7    5.52    1.74
   1   8   7    5.52    1.67
  -1   8  -7    4.74    1.67
  -1   8   8  104.72    5.48
   1   8   8  103.18    5.02
   1   8  -8  114.36    5.58
  -1   8  -8  109.67    5.31
  -1   8   8   98.01    4.20
   1   8   8  103.29    5.03
   1   8   9   40.17    3.33
  -1   8   9   41.16    3.61
   1   8  -9   46.69    4.36
  -1   8  -9   38.14    3.47
  -1   8   9   30.62    2.36
   1   8   9   39.67    3.26
  -1   8  10  165.70    7.22
   1   8  10  166.33    6.89
  -1   8 -10  169.51    7.12
   1   8  10  163.33    6.54
  -1   8  10  166.84    5.92
   1   8  11  125.78    6.24
  -1   8  11  120.55    6.55
   1   8  11  124.53    5.94
  -1   8  11  126.71    5.54
   1   8  12    4.51    2.09
   1   8  12    4.50    2.07
  -1   8  12    5.97    1.81
  -1   8  13  109.11    5.46
   1   8  13  102.62    5.84
   1   8  14    3.40    2.27
  -1   8  14    2.49    1.83
  -1   8  15    9.12    2.46
   1   8  15   10.72    2.75
  -1   8  16   10.92    2.65
   1   8  16   15.09    3.09
  -1   8  17   27.11    3.80
   1   8  17   29.64    3.99
  -1   8  18   55.21    5.07
   1   8  18   56.36    5.35
  -1   8  19   41.15    4.71
   1   8  19   35.18    4.40
  -1   8  20    7.35    3.13
   1   8  20    4.51    3.26
  -1   8  21    6.02    2.88
   1   8  21    2.43    2.91
  -1   8  22    8.57    3.17
   1   8  22   19.96    4.66
  -1   8  23    7.98    3.81
   1  -9   0   -0.14    1.66
  -1  -9   0   -0.90    1.50
   1  -9  -1   49.04    3.76
  -1  -9   1   47.22    3.36
   1  -9   1   49.94    3.89
  -1  -9  -1   47.88    3.24
   1  -9   2  880.27   14.62
   1  -9  -2  855.30   14.09
  -1  -9  -2  873.53   12.60
   1   9   3   14.04    1.70
  -1   9   3   22.13    2.82
  -1  -9  -3   20.28    2.24
   1  -9  -3   17.49    2.34
   1   9   4  609.33   11.43
  -1   9   4  576.61   12.25
  -1  -9  -4  643.86   11.13
   1  -9  -4  629.22   12.16
  -1   9   5   43.93    3.56
   1   9   5   51.35    3.70
  -1  -9  -5   48.83    3.31
   1  -9  -5   48.19    3.64
   1   9   6  245.21    7.76
  -1   9   6  254.73    6.71
  -1   9   6  256.87    8.62
   1  -9  -6  267.34    8.29
  -1   9  -6  276.51    7.99
  -1   9   7   31.27    3.36
   1   9   7   33.58    3.10
   1   9   7   33.54    3.26
  -1   9  -7   33.04    3.21
  -1   9   7   32.66    2.72
  -1   9   8   35.80    3.66
   1   9   8   42.72    3.78
   1   9  -8   38.33    3.27
  -1   9  -8   38.03    3.53
   1   9   8   44.48    3.74
  -1   9   8   39.87    2.95
  -1   9   9  200.34    8.11
   1   9   9  184.57    7.27
  -1   9  -9  209.60    7.82
   1   9   9  194.80    7.21
  -1   9   9  201.61    6.50
   1   9  10   94.33    5.37
  -1   9  10   93.67    5.81
  -1   9  10   86.98    4.28
   1   9  10   90.54    5.09
   1   9  11   15.94    2.84
  -1   9  11   23.11    2.97
   1   9  11   18.40    2.95
   1   9  12  244.70    8.61
  -1   9  12  260.51    8.28
  -1   9  13   65.23    4.37
   1   9  13   65.48    4.90
  -1   9  14  237.61    8.43
   1   9  14  239.29    9.17
  -1   9  15   23.66    3.33
   1   9  15   19.56    3.16
  -1   9  16    2.01    2.16
   1   9  16    1.28    2.16
  -1   9  17   -2.78    2.69
   1   9  17    3.86    2.55
  -1   9  18   21.11    3.65
   1   9  18   19.67    3.73
   1   9  19    8.94    3.08
  -1   9  19   12.59    3.48
  -1   9  20   92.41    6.86
   1   9  20   91.19    7.07
   1   9  21    0.04    2.94
  -1   9  21    4.53    3.14
   1   9  22   99.00    7.86
  -1   9  22   80.94    6.99
   1 -10   0    1.38    1.88
  -1 -10   0   -0.51    1.71
   1 -10  -1   55.94    4.07
  -1 -10  -1   63.28    3.97
   1 -10   1   57.58    4.34
  -1 -10   1   54.81    3.80
  -1 -10   2    3.71    1.69
   1 -10   2    2.48    1.83
  -1 -10  -2    2.07    1.34
   1 -10  -2    2.69    1.88
  -1  10   3   53.05    4.07
  -1 -10  -3   50.79    3.45
   1 -10  -3   47.43    3.56
   1  10   4   73.58    4.03
  -1  10   4   73.94    4.81
  -1 -10  -4   75.26    4.15
   1 -10  -4   74.50    4.60
  -1  10   5  228.76    8.10
   1  10   5  239.40    7.73
   1 -10  -5  251.05    8.17
  -1 -10  -5  249.83    7.45
  -1  10   6    6.70    1.61
   1  10   6   13.38    2.59
  -1  10   6   12.31    2.16
  -1  10  -6   11.17    2.27
   1 -10  -6   13.79    2.70
   1  10   7    6.66    1.46
  -1  10   7    7.93    1.64
  -1  10  -7   10.77    2.23
   1  10   7    7.75    2.25
  -1  10   7   14.46    2.46
   1  10   8    4.86    2.10
  -1  10   8    5.36    1.77
  -1  10   8    5.69    2.02
   1  10   8    3.68    1.79
  -1  10  -8    3.44    1.87
   1  10   9   94.42    5.54
  -1  10   9   99.65    5.89
  -1  10   9   92.99    4.51
   1  10   9   92.47    5.05
   1  10  10    1.84    1.57
   1  10  10    3.76    1.99
  -1  10  10    0.03    1.75
   1  10  11  126.63    6.50
   1  10  11  131.10    6.38
  -1  10  11  127.66    5.58
   1  10  12   74.80    4.99
  -1  10  12   84.20    5.06
  -1  10  13   86.85    5.18
   1  10  13   90.51    5.72
  -1  10  14    0.81    1.94
   1  10  14    0.80    2.15
  -1  10  15   28.31    3.48
   1  10  15   25.73    3.77
   1  10  16    7.43    2.54
  -1  10  16   12.80    2.92
  -1  10  17   44.02    4.63
   1  10  17   44.57    4.77
  -1  10  18    7.08    2.69
   1  10  18   10.52    3.23
   1  10  19   38.89    4.79
  -1  10  19   49.23    5.00
   1  10  20   22.45    4.11
  -1  10  20   14.98    3.61
  -1  10  21   18.83    4.11
   1  10  21   18.08    4.10
   1  10  22    6.62    3.88
   1 -11   0    0.87    2.07
  -1 -11   0   -0.30    1.66
  -1 -11   1   57.23    4.11
   1 -11  -1   57.54    4.35
  -1 -11  -1   64.36    4.20
   1 -11   1   57.50    4.47
  -1 -11   2  384.19   10.29
   1 -11   2  401.84   11.32
  -1 -11  -2  444.75   10.16
   1 -11  -2  427.31   10.97
   1 -11   3   22.12    3.23
  -1 -11   3   19.77    2.89
   1 -11  -3   15.97    2.41
  -1 -11  -3   18.70    2.38
  -1  11   4  913.74   16.56
   1 -11  -4  927.30   16.24
  -1 -11  -4  941.24   15.00
  -1  11   5    6.81    2.23
   1  11   5    5.66    1.59
   1 -11  -5    4.41    1.77
  -1 -11  -5    4.60    1.57
   1  11   6  385.24   10.65
  -1  11   6  360.93   11.09
   1 -11  -6  412.14   11.19
  -1  11  -6  409.48   10.44
  -1  11   7   38.11    3.78
   1  11   7   35.92    3.86
   1  11   7   35.83    3.27
  -1  11  -7   44.27    4.02
  -1  11   7   37.28    3.02
   1  11   8    9.54    1.94
  -1  11   8   16.12    3.05
  -1  11   8   18.71    2.61
   1  11   8   16.22    2.69
   1  11   9    0.24    1.83
   1  11   9    5.99    2.10
  -1  11   9    3.11    1.52
   1  11  10   52.04    4.50
  -1  11  10   55.26    3.73
   1  11  10   50.51    4.16
   1  11  11    3.38    2.13
  -1  11  11   -2.30    1.97
  -1  11  12  336.59    9.59
   1  11  12  338.30   10.52
  -1  11  13   24.24    3.58
   1  11  13   13.45    2.86
  -1  11  14  198.28    7.95
   1  11  14  196.25    8.62
  -1  11  15   23.02    3.31
   1  11  15   18.06    3.39
  -1  11  16    4.90    2.51
   1  11  16    3.49    2.46
  -1  11  17    1.92    2.41
   1  11  17    5.64    2.68
  -1  11  18    2.47    2.53
   1  11  18    0.90    2.59
  -1  11  19   -1.04    2.61
   1  11  19    1.89    3.10
   1  11  20  121.93    8.21
   1  11  21    5.16    3.38
  -1 -12   0   -0.30    1.69
   1 -12   0    0.79    1.85
  -1 -12   1    9.20    2.21
   1 -12   1    4.46    1.98
   1 -12  -1    7.61    2.48
  -1 -12  -1    8.16    2.17
   1 -12   2   10.89    2.72
  -1 -12   2   14.45    2.63
   1 -12  -2   14.28    2.46
  -1 -12  -2   17.34    2.46
   1 -12   3    6.38    2.44
  -1 -12   3    5.04    1.95
   1 -12  -3    1.25    1.83
  -1 -12  -3    6.06    1.93
   1 -12   4  386.07   11.56
   1 -12  -4  394.41   11.06
  -1 -12  -4  400.32   10.23
   1  12   5    0.65    2.04
  -1  12   5    4.58    2.69
  -1 -12  -5   -0.38    1.69
   1 -12  -5   -0.01    1.83
  -1  12   6    4.04    2.46
   1  12   6   -2.42    2.26
  -1  12  -6    0.83    1.69
   1 -12  -6    4.40    2.23
   1  12   7   16.05    2.82
  -1  12   7   14.76    2.32
   1  12   7   12.23    2.07
  -1  12   8    3.85    1.59
   1  12   8    8.71    2.77
   1  12   8    5.97    2.00
   1  12   9   22.72    3.40
   1  12   9   12.50    2.39
  -1  12   9   20.72    2.68
  -1  12  10  100.39    5.16
   1  12  10   98.23    5.59
  -1  12  11    6.17    1.62
   1  12  11   12.45    2.79
   1  12  12  114.68    6.63
  -1  12  12  107.91    5.58
   1  12  13   16.58    2.99
  -1  12  13   24.18    3.42
   1  12  14    3.17    2.29
  -1  12  14    0.31    1.91
   1  12  15    2.22    2.38
  -1  12  15   -0.83    2.08
   1  12  16    8.34    2.93
  -1  12  16    1.75    2.17
  -1  12  17   13.90    3.38
   1  12  17   10.10    2.96
  -1  12  18   57.99    5.19
   1  12  18   48.67    5.40
   1  12  19    7.11    3.42
   1  12  20   21.35    4.36
  -1 -13   0   -0.02    1.81
   1 -13   0   -1.76    2.09
  -1 -13   1   21.93    3.12
   1 -13   1   24.21    3.54
  -1 -13  -1   31.23    3.57
   1 -13  -1   24.20    3.41
  -1 -13  -2   90.76    5.24
   1 -13  -2   93.04    5.65
   1 -13   2   84.02    5.96
  -1 -13   2   84.54    5.57
  -1 -13  -3    1.55    1.93
   1 -13  -3    1.57    2.11
   1 -13   3   -1.20    2.36
  -1 -13   3    1.38    1.95
   1 -13  -4  297.21   10.16
  -1 -13  -4  304.15    9.49
  -1 -13   4  285.61   10.27
   1 -13   4  287.59   10.69
   1 -13  -5   10.34    2.59
  -1 -13  -5    6.55    1.93
   1 -13   5   12.99    3.25
   1 -13  -6   92.08    5.95
   1  13   6   80.14    5.27
   1 -13  -7    4.05    2.28
   1  13   7   -2.25    2.51
  -1  13   7    3.22    1.90
   1  13   8   37.39    3.68
  -1  13   8   35.63    3.24
  -1  13   9   11.90    2.51
   1  13   9   12.32    2.89
   1  13  10   90.78    5.51
  -1  13  10  111.88    5.59
   1  13  11    4.89    2.44
  -1  13  11    2.02    1.73
   1  13  12  251.58    9.80
  -1  13  12  251.22    8.58
  -1  13  13    3.90    2.06
   1  13  13   -2.01    2.38
  -1  13  14   26.47    3.70
   1  13  14   11.54    3.03
  -1  13  15   31.14    3.65
   1  13  15   35.06    4.47
  -1  13  16    4.79    2.55
   1  13  16   10.72    3.39
   1  13  17    3.93    2.79
   1  13  18    6.70    2.99
  -1 -14   0    1.18    1.98
   1 -14   0    0.74    2.26
  -1 -14   1   11.62    2.68
   1 -14   1   11.24    2.99
  -1 -14  -1   13.22    2.62
   1 -14  -1   17.50    3.51
   1 -14  -2    0.75    2.16
  -1 -14  -2   -1.19    1.95
  -1 -14   2   -0.27    2.10
   1 -14   2   -2.03    2.90
   1 -14  -3   18.35    3.33
  -1 -14  -3   17.91    2.77
  -1 -14   3   11.81    2.63
   1 -14   3   13.37    3.03
   1 -14  -4  157.44    7.83
  -1 -14  -4  155.04    7.09
   1 -14   4  149.78    8.22
  -1 -14   4  136.06    7.49
   1 -14  -5   60.03    5.03
  -1 -14  -5   58.71    4.64
   1 -14   5   61.09    5.60
  -1 -14   5   56.35    5.08
   1 -14  -6   10.72    2.85
   1 -14   6   17.99    3.77
   1 -14  -7    0.24    2.16
  -1  14   7    6.62    2.38
   1  14   8   43.47    4.01
  -1  14   8   43.43    3.54
   1  14   9   11.38    2.87
  -1  14   9   11.56    2.52
   1  14  10   -2.85    2.93
  -1  14  10    7.13    2.24
  -1  14  11   20.55    2.66
   1  14  11   21.52    3.20
  -1  14  12   81.99    5.25
   1  14  12   92.01    6.22
   1  14  13   39.79    4.25
  -1  14  13   38.76    3.86
  -1  14  14   15.69    3.21
   1  14  14    6.76    2.46
   1  14  15    4.04    2.82
   1  14  16   19.55    4.11
   1  14  17   -2.48    2.92
  -1 -15   0   -0.74    1.95
   1 -15   0    1.25    2.16
   1 -15   1   13.02    3.16
   1 -15  -1   10.70    2.71
  -1 -15   1   17.77    3.19
  -1 -15  -1   17.04    2.96
   1 -15  -2   91.59    6.19
  -1 -15  -2   94.43    5.90
   1 -15   2   83.42    6.49
  -1 -15   2   85.84    6.08
   1 -15  -3   14.72    3.17
  -1 -15  -3   12.13    2.86
   1 -15   3   10.46    3.10
  -1 -15   3    9.60    2.81
   1 -15  -4  241.14    9.94
  -1 -15  -4  248.79    9.43
  -1 -15   4  213.76    9.77
   1 -15   4  216.70   10.25
   1 -15  -5    1.93    2.18
  -1 -15  -5    3.19    2.03
  -1 -15   5    7.54    2.92
   1 -15   5    2.30    2.86
   1 -15  -6  171.53    8.60
   1 -15   6  172.44    9.58
  -1 -15   6  165.85    8.95
  -1  15   7   27.30    3.36
   1 -15   7   35.54    5.06
   1  15   8   39.21    4.17
  -1  15   8   41.12    3.85
  -1  15   9    7.56    2.49
   1  15   9    2.84    2.29
  -1  15  10   82.83    5.16
   1  15  10   74.66    5.20
   1  15  11   12.06    2.43
  -1  15  11   15.94    2.51
   1  15  12  134.38    7.56
  -1  15  12  135.14    6.61
   1  15  13   -2.11    2.36
   1  15  14   13.89    3.29
   1  15  15   38.95    4.87
  -1 -16   0    2.58    2.28
   1 -16   0    3.45    2.83
   1 -16   1   17.23    3.54
   1 -16  -1   15.00    3.02
  -1 -16   1   18.99    3.38
  -1 -16  -1   18.96    3.29
   1 -16   2   21.95    3.89
   1 -16  -2   23.25    3.95
  -1 -16  -2   26.71    3.82
  -1 -16   2   19.22    3.47
   1 -16  -3   21.45    3.74
  -1 -16  -3   40.42    5.92
   1 -16   3   15.66    3.54
  -1 -16   3   17.91    3.49
   1 -16  -4    9.35    2.94
  -1 -16  -4    9.73    3.80
  -1 -16   4    5.51    2.69
   1 -16   4    5.57    2.71
  -1 -16  -5   38.74    4.60
   1 -16  -5   36.06    4.59
  -1 -16   5   33.19    4.50
   1 -16   5   39.71    5.26
   1 -16  -6    7.56    3.09
   1 -16   6    5.27    3.04
  -1 -16   6    9.55    3.16
   1 -16   7   13.98    4.22
  -1  16   7   13.08    2.82
  -1 -16   7   16.60    4.15
  -1  16   8    1.16    1.85
   1  16   8   -0.07    2.01
  -1  16   9   17.16    3.16
   1  16   9   15.65    3.01
   1  16  10   14.01    2.42
  -1  16  10   22.51    3.11
   1  16  11   42.01    4.39
   1  16  12    3.13    2.63
   1  16  13    1.84    2.39
   1 -17   0    2.73    2.72
  -1 -17   0   -2.93    3.06
   1 -17  -1   44.98    5.05
   1 -17   1   49.24    5.44
  -1 -17  -1   42.60    4.72
  -1 -17   1   48.65    5.11
  -1 -17  -2   89.87    6.33
   1 -17  -2   80.72    6.44
   1 -17   2   81.51    6.84
  -1 -17   2   86.75    6.63
  -1 -17  -3   21.38    3.32
   1 -17  -3   22.11    4.04
   1 -17   3   15.00    3.52
  -1 -17   3   21.36    3.88
  -1 -17  -4   93.57    6.42
   1 -17  -4   93.75    6.91
  -1 -17   4   90.78    7.32
   1 -17   4   90.10    7.44
  -1 -17  -5   -2.03    2.26
   1 -17  -5    0.30    2.51
  -1 -17   5    3.08    2.84
   1 -17   5    0.66    2.97
   1 -17  -6  109.84    7.61
  -1 -17   6   93.20    7.56
   1 -17   6  108.20    8.38
  -1 -17   7    8.58    3.74
   1  17   7    7.49    2.89
  -1  17   7    7.12    2.33
   1 -17   7    8.98    4.51
   1 -17   8    5.78    3.71
   1  17   8    0.61    2.00
  -1 -17   8    4.73    3.60
  -1 -17   9   13.60    4.08
   1 -17   9   19.73    4.78
   1  17   9   15.08    3.30
   1  17  10   22.02    3.42
   1  17  11    0.74    2.58
  -1 -18   0   -0.83    2.39
   1 -18   0    1.32    2.81
   1 -18   1    2.03    2.91
  -1 -18   1    1.18    2.57
  -1 -18  -1    3.71    2.72
   1 -18  -1    4.41    3.12
   1 -18   2   13.35    4.15
  -1 -18   2    9.82    3.46
  -1 -18  -2   10.09    3.24
   1 -18  -2    9.66    3.62
  -1 -18   3    5.84    2.79
   1 -18  -3    8.99    3.47
   1 -18   3    4.51    2.95
  -1 -18  -3    6.82    2.98
  -1 -18   4   20.01    4.11
  -1 -18  -4   23.69    4.06
   1 -18  -4   21.81    4.10
   1 -18   4   14.52    3.79
   1 -18  -5    3.61    2.69
  -1 -18  -5    6.92    3.21
  -1 -18   5    2.60    2.87
   1 -18   5    3.45    3.01
   1 -18  -6   13.52    3.93
  -1 -18   6   12.16    3.78
   1 -18   6   16.98    4.30
   1 -18   7    0.05    3.21
  -1 -18   7   -1.17    3.23
   1  18   7   -3.16    2.55
   1 -18   8    9.29    4.40
  -1 -18   8    5.63    3.71
   1  18   8    0.87    2.16
   1 -18   9    4.69    3.65
  -1 -18   9   10.49    4.25
  -1 -18  10   24.07    5.38
   1 -18  10   20.63    5.21
  -1 -19   0   -3.66    2.87
   1 -19   0   -0.34    3.07
  -1 -19  -1   13.76    3.82
   1 -19  -1    9.17    3.51
   1 -19   1   11.24    3.51
  -1 -19   1   10.57    3.40
   1 -19   2   38.73    5.54
   1 -19  -2   42.76    5.69
  -1 -19  -2   47.07    5.17
  -1 -19   2   47.31    5.70
  -1 -19   3   -0.23    2.83
   1 -19   3    2.27    3.48
   1 -19  -3    3.76    2.98
  -1 -19  -3   -0.37    2.58
   1 -19   4   12.76    4.04
  -1 -19  -4   21.87    4.19
  -1 -19   4   19.52    4.43
   1 -19  -4   17.07    4.01
   1 -19  -5    6.71    3.47
  -1 -19  -5    5.58    3.06
  -1 -19   5    1.20    3.49
   1 -19   5    1.26    3.26
   1 -19  -6   16.41    3.89
   1 -19   6   10.03    3.69
  -1 -19   6   11.12    3.82
   1 -19   7   -5.75    3.79
  -1 -19   7   -0.20    3.78
   1 -19   8   43.69    6.30
  -1 -19   8   41.91    6.15
  -1 -19   9   13.17    4.45
  -1 -19  10   18.44    5.40
   1 -20   0    0.73    3.22
   1 -20   1    4.75    3.47
   1 -20  -1    5.76    3.53
   1 -20  -2   16.62    4.44
   1 -20   2    8.66    4.05
  -1 -20   2    5.11    3.23
  -1 -20   3    7.11    3.95
   1 -20   3    3.05    4.11
   1 -20  -3   -1.63    3.16
   1 -20  -4    3.07    3.74
   1 -20   4    3.54    3.54
  -1 -20   4    2.26    3.25
   1 -20  -5    5.87    4.07
   1 -20   5    3.87    3.51
  -1 -20   5    3.96    4.01
  -1 -20   6    9.23    3.54
   1 -20   6    9.47    3.89
  -1 -20   7    2.34    3.46
   2   0   0  922.36    5.93
  -2   0   0  911.88    5.81
  -2   0   1    1.39    0.61
   2   0  -1    0.73    0.58
   2   0   1    0.15    0.71
  -2   0  -2 1720.87   10.47
   2   0   2 1713.64   10.67
  -2   0  -3    3.63    1.11
   2   0   3    1.25    1.09
   2   0  -4  184.54    3.95
  -2   0  -4  183.76    4.28
   2   0   4  186.35    4.40
   2   0  -5    2.22    1.14
   2   0   5    2.95    1.46
  -2   0  -5    2.70    1.32
   2   0  -6 1497.72   12.88
   2   0   6 1501.42   14.21
  -2   0  -6 1528.08   14.18
   2   0  -7   -0.56    1.24
  -2   0   7    1.26    1.28
  -2   0  -7    0.26    1.25
   2   0   7    0.56    1.41
  -2   0   8  130.85    4.76
   2   0  -8  115.26    4.36
   2   0   8  106.52    4.64
  -2   0  -8  109.55    4.60
  -2   0   9    2.76    1.70
   2   0  -9    1.04    1.24
   2   0   9   -1.03    1.51
  -2   0  -9    2.29    1.37
   2   0 -10  228.77    6.75
  -2   0  10  224.37    6.69
   2   0  10  228.71    7.30
  -2   0 -10  242.22    7.38
  -2   0  11    0.02    1.52
   2   0  11   -0.72    1.78
   2   0 -11    3.25    1.77
  -2   0 -11   -0.86    1.63
   2   0  12   70.07    4.69
  -2   0  12   68.65    4.26
   2   0 -12   73.77    4.40
  -2   0 -12   73.59    4.94
   2   0  13    0.01    1.80
  -2   0  13   -2.17    1.88
  -2   0 -13    1.65    1.58
   2   0 -13    2.50    1.74
  -2   0  14 1178.74   18.11
   2   0  14 1209.06   19.64
   2   0 -14 1234.95   18.64
   2   0  15    1.19    2.38
  -2   0  15   18.13    3.94
  -2   0  16   -0.45    2.08
   2   0  16    0.70    2.37
   2   0  17   -1.56    2.32
   2   0  18  486.18   14.65
   2   0  19   -2.28    3.12
   2   0  20  134.08    8.47
   2   0  21   -0.69    2.94
   2   0  22  209.32   11.13
   2  -1   0   35.03    1.70
  -2   1   0   34.80    1.70
   2  -1  -1  245.69    3.91
  -2   1   1  251.25    4.00
   2  -1   1  246.99    3.22
  -2   1  -1  245.07    3.21
  -2   1   2  659.18    6.95
   2  -1  -2  670.88    6.97
   2   1   2  660.69    7.16
  -2   1  -2  652.70    6.19
   2  -1   2  655.43    6.23
  -2  -1  -3   15.08    1.48
   2   1   3   14.20    1.54
  -2   1   3   13.44    1.44
   2  -1  -3   13.42    1.05
   2  -1   3   16.65    1.52
  -2   1  -3   14.53    1.33
  -2  -1  -4   14.48    1.66
  -2   1   4   13.01    1.28
   2  -1  -4   11.29    1.21
   2  -1   4   11.37    1.59
  -2   1  -4   11.13    1.47
   2   1   4   14.85    1.76
  -2  -1  -5   18.25    1.93
   2  -1  -5   15.28    1.48
  -2   1   5   18.51    1.59
   2   1  -5   21.51    2.14
   2  -1   5   13.49    1.73
  -2   1  -5   15.31    1.74
   2   1   5   16.06    1.92
  -2   1   6   38.50    2.25
   2  -1  -6   32.51    2.08
   2   1  -6   34.21    2.30
   2  -1   6   32.56    2.59
   2   1   6   36.75    2.65
  -2   1  -6   36.94    2.61
  -2  -1  -6   35.68    2.51
  -2   1   7  449.19    7.44
   2   1  -7  455.10    8.01
   2  -1  -7  442.37    7.39
   2  -1   7  440.34    8.51
  -2  -1  -7  466.63    8.46
   2   1   7  461.32    8.51
  -2   1  -7  449.61    8.40
   2  -1   8 2107.35   19.39
   2   1  -8 2096.07   18.49
   2  -1  -8 2092.60   17.30
   2   1   8 2128.29   19.28
  -2   1   8 2098.50   17.23
  -2   1  -8 2144.04   19.22
  -2  -1  -8 2107.46   19.17
   2   1   9  157.84    5.70
   2   1  -9  157.27    5.54
   2  -1  -9  159.22    5.24
   2  -1   9  161.59    5.99
  -2   1   9  151.89    5.07
  -2   1  -9  160.85    5.70
  -2  -1  -9  151.83    5.54
   2  -1 -10   76.44    4.01
   2   1 -10   80.06    4.28
   2  -1  10   76.87    4.42
   2   1  10   79.39    4.36
  -2   1  10   80.60    4.10
  -2   1 -10   82.13    4.44
  -2  -1 -10   79.31    4.30
   2  -1  11   15.63    2.48
   2   1 -11   17.31    2.44
  -2   1  11   17.31    2.31
   2   1  11   18.33    2.56
  -2   1 -11   19.81    2.54
   2  -1 -11   18.07    2.29
  -2  -1 -11   17.21    2.50
   2   1  12    4.49    1.95
  -2   1  12    6.48    1.93
   2  -1  12    5.75    2.14
   2   1 -12    6.12    1.91
  -2   1 -12    5.89    1.91
  -2  -1 -12    7.50    2.01
   2  -1 -12    2.85    1.58
   2   1  13   29.54    3.51
   2  -1  13   30.10    3.53
  -2   1  13   30.00    3.25
  -2   1 -13   32.08    3.50
   2   1 -13   28.74    3.14
   2  -1 -13   28.55    3.10
  -2  -1 -13   29.16    3.28
   2   1  14   14.98    3.00
   2  -1  14   13.65    2.92
  -2   1  14   16.86    2.87
   2   1 -14   13.53    2.80
   2  -1 -14   13.47    2.65
   2  -1  15   22.44    3.45
  -2   1  15   21.92    3.23
   2   1  15   25.60    3.65
  -2   1  16   45.27    4.06
   2   1  16   49.10    4.67
   2  -1  16   44.27    4.20
   2   1  17    3.14    2.46
  -2   1  17    0.55    2.20
   2  -1  17   -0.94    2.77
   2  -1  18    9.57    3.09
   2   1  18   11.49    3.33
  -2   1  18   11.86    3.14
   2  -1  19   39.00    4.87
   2   1  19   36.22    4.53
   2   1  20   20.81    3.95
   2  -1  20   22.24    4.16
   2  -1  21    4.68    3.34
   2   1  21   -2.13    3.36
   2  -1  22   63.66    6.51
   2   1  22   67.01    6.76
  -2   2   0  488.94    6.50
   2  -2   0  532.94    6.69
   2  -2  -1  128.20    3.43
  -2   2   1  135.29    3.59
  -2   2  -1  139.09    2.45
   2  -2   1  142.48    2.51
  -2   2   2 2045.46   13.19
   2  -2  -2 2043.52   13.26
   2  -2   2 1990.23   11.15
  -2   2  -2 1995.30   10.81
   2   2   3 1345.36   11.50
   2  -2  -3 1363.71   11.59
  -2   2   3 1350.68   11.54
   2  -2   3 1341.67   10.56
  -2   2   3 1310.87    6.82
  -2   2  -3 1338.52   10.16
   2  -2  -3 1320.66    6.85
   2   2   4   11.88    1.81
  -2   2   4   12.29    1.67
   2  -2   4   12.88    1.65
  -2   2   4   16.31    1.32
  -2   2  -4   11.99    1.53
   2  -2  -4   11.63    1.11
  -2  -2  -5  205.53    5.09
  -2   2  -5  193.49    4.85
   2  -2   5  199.14    5.04
  -2   2   5  190.49    3.89
   2  -2  -5  195.18    3.92
   2   2   5  201.34    5.18
   2  -2   6   99.54    3.98
  -2   2   6  102.68    3.30
   2   2  -6  102.37    3.72
  -2   2  -6  105.37    3.92
  -2  -2  -6  100.16    3.94
   2  -2  -6  104.33    3.22
   2   2   6   99.33    4.03
  -2   2  -7  150.18    4.97
   2   2  -7  152.67    4.95
  -2   2   7  155.13    4.37
   2  -2   7  156.10    5.19
   2   2   7  162.51    5.24
   2  -2  -7  162.62    4.35
  -2  -2  -7  159.45    5.17
   2   2  -8  321.46    7.55
   2  -2   8  308.02    7.72
  -2   2   8  311.69    6.64
  -2   2  -8  310.57    7.52
   2   2   8  319.04    7.67
   2  -2  -8  304.25    6.58
  -2  -2  -8  318.94    7.73
  -2   2   9  164.34    5.20
   2   2  -9  162.50    5.71
   2  -2   9  158.23    5.89
   2   2   9  163.86    5.80
  -2   2  -9  161.74    5.79
   2  -2  -9  160.19    5.17
  -2  -2  -9  164.02    5.87
   2   2 -10  765.82   12.91
   2   2  10  757.08   12.88
   2  -2  10  733.43   13.07
  -2   2  10  751.29   11.63
  -2  -2 -10  768.00   13.13
   2  -2 -10  750.41   11.70
  -2   2 -10  750.34   12.95
   2  -2  11   32.94    3.26
  -2   2  11   38.94    3.15
   2   2 -11   37.35    3.22
   2   2  11   34.77    3.33
   2  -2 -11   35.24    2.93
  -2   2 -11   41.06    3.41
  -2  -2 -11   37.63    3.37
  -2  -2 -12   12.86    2.35
  -2   2  12    9.30    1.77
   2  -2  12   12.88    2.46
   2   2 -12   17.45    2.57
  -2   2 -12   16.17    2.57
   2   2  12   14.65    2.52
   2  -2 -12   17.16    2.49
  -2   2  13  246.79    8.01
   2   2 -13  262.34    8.62
   2   2  13  252.18    8.56
   2  -2  13  245.81    8.72
  -2   2 -13  263.27    8.86
   2  -2 -13  261.39    8.25
  -2  -2 -13  257.23    8.78
   2   2  14  353.01   10.68
  -2   2  14  344.79    9.86
   2  -2  14  347.68   10.77
   2  -2 -14  362.87   10.14
  -2   2  15  380.62   10.77
   2  -2  15  376.43   11.67
   2   2  15  381.94   11.52
   2  -2 -15  392.81   11.13
   2   2  16  136.26    7.50
   2  -2  16  135.80    7.50
  -2   2  16  132.90    6.86
   2   2  17    3.24    2.23
  -2   2  17    6.87    2.78
   2  -2  17    2.39    2.60
  -2   2  18  137.59    7.43
   2  -2  18  148.05    8.56
   2   2  18  150.58    8.31
  -2   2  19   17.78    3.44
   2   2  19   19.56    3.83
   2  -2  19   26.19    4.60
   2   2  20  121.43    8.06
  -2   2  20  116.73    7.54
   2  -2  20  120.77    8.24
   2  -2  21   70.53    6.79
   2   2  21   65.90    6.23
   2  -2  22   85.99    7.52
   2   2  22   90.66    7.59
   2  -3   0  512.35    7.43
  -2   3   0  481.21    3.84
  -2   3   1  884.75    9.93
   2  -3  -1  871.02    9.51
   2   3   1  880.71    5.53
  -2  -3  -1  897.70    5.10
  -2   3  -1  863.72    6.59
   2  -3  -2   20.42    1.79
  -2   3   2   22.09    1.96
   2   3   2   19.46    1.13
  -2   3  -2   18.80    1.43
   2  -3   2   30.14    1.81
  -2   3   3  154.53    4.35
   2  -3  -3  155.60    4.43
  -2   3  -3  139.05    3.62
   2  -3   3  139.77    3.57
  -2   3   3  139.44    2.28
   2   3   4  127.48    4.20
  -2   3   4  126.50    4.21
  -2   3  -4  130.96    3.85
  -2   3   4  119.04    2.54
   2  -3   4  141.16    4.18
   2  -3  -4  120.51    2.73
  -2   3   5   34.26    2.62
   2  -3   5   30.26    2.25
  -2   3  -5   34.21    2.28
  -2   3   5   50.37    2.32
   2  -3  -5   31.93    1.76
   2   3   5   33.16    2.59
  -2  -3  -6  279.09    6.69
  -2   3   6  275.76    6.80
   2  -3   6  260.81    6.36
  -2   3   6  262.49    5.06
  -2   3  -6  265.56    6.26
   2  -3  -6  262.96    5.12
   2   3   6  271.49    6.59
  -2  -3  -7  699.83   11.01
   2  -3   7  700.95   10.93
  -2   3  -7  698.09   10.68
   2   3  -7  715.97   10.76
  -2   3   7  700.20    8.92
   2  -3  -7  706.59    9.04
   2   3   7  712.00   10.98
  -2  -3  -8  461.75    9.46
   2   3  -8  463.21    9.34
   2  -3   8  442.33    9.26
  -2   3  -8  451.13    9.22
  -2   3   8  455.08    7.88
   2  -3  -8  447.27    7.85
   2   3   8  460.39    9.35
   2  -3   9  324.03    8.38
   2   3  -9  329.74    8.34
  -2   3  -9  336.32    8.39
  -2   3   9  329.82    7.23
   2   3   9  334.77    8.38
  -2  -3  -9  336.91    8.42
   2  -3  -9  335.17    7.31
  -2   3 -10  104.81    5.06
   2   3 -10  102.47    5.00
  -2   3  10   98.91    4.37
   2  -3  10   97.48    5.01
   2   3  10  104.85    5.02
  -2  -3 -10  103.25    5.04
   2  -3 -10  101.47    4.40
  -2  -3 -11    3.89    1.89
   2   3 -11    3.43    1.57
   2  -3  11    0.21    1.86
  -2   3  11    3.51    1.55
   2  -3 -11    1.87    1.38
  -2   3 -11    4.21    1.83
   2   3  11    2.74    1.73
  -2  -3 -12   14.75    2.53
  -2   3  12   14.35    2.23
   2   3 -12   11.89    2.43
   2  -3  12   10.37    2.17
   2  -3 -12   11.70    2.14
  -2   3 -12   11.94    2.34
   2   3  12   12.67    2.41
  -2   3  13   59.75    4.13
   2  -3  13   56.63    4.54
   2   3  13   62.79    4.60
   2   3 -13   59.07    4.60
   2  -3 -13   64.05    4.24
  -2  -3 -13   62.36    4.56
   2  -3  14   27.96    3.78
  -2   3  14   20.52    2.64
   2  -3 -14   27.68    3.21
   2   3  14   26.96    3.49
  -2   3  15   92.23    5.48
   2  -3  15  103.41    6.83
   2   3  15   93.35    6.01
   2  -3 -15   95.69    5.58
   2  -3  16   24.70    3.72
   2   3  16   27.88    4.02
  -2   3  16   23.09    3.19
   2  -3  17   13.08    3.34
   2   3  17   14.74    3.43
  -2   3  17   15.46    3.16
   2   3  18   83.81    6.34
  -2   3  18   85.10    6.09
   2  -3  18   83.19    6.42
   2  -3  19    7.14    3.11
  -2   3  19    0.48    2.70
   2   3  19    2.98    2.63
  -2   3  20    5.99    2.87
   2   3  20    4.55    2.65
   2  -3  20    5.93    3.17
   2  -3  21   66.32    6.55
   2   3  21   64.24    6.15
  -2   3  21   63.11    5.93
   2   3  22    3.84    3.03
   2  -4   0 9999.00   36.29
  -2  -4   0 9899.14   23.52
  -2   4   1   47.12    2.86
   2  -4  -1   43.26    2.77
  -2   4  -1   50.58    1.95
  -2  -4  -1   48.03    1.76
   2   4   2   27.08    1.56
  -2   4   2   32.51    2.51
  -2  -4  -2   28.08    1.48
   2  -4  -2   30.38    2.26
  -2   4  -2   31.75    1.81
  -2   4   3  265.42    6.16
   2  -4  -3  257.02    5.91
   2   4   3  256.04    4.36
  -2   4  -3  259.03    5.07
  -2   4   3  247.88    3.36
   2  -4  -4   79.81    3.67
   2   4   4   77.48    2.83
  -2   4   4   79.99    3.66
   2  -4   4   74.16    3.10
  -2   4  -4   75.36    3.10
  -2   4   4   79.73    2.36
   2   4   5  433.53    8.14
   2  -4  -5  425.42    5.80
  -2   4   5  435.76    8.50
  -2   4  -5  444.64    7.82
   2  -4   5  417.93    7.39
  -2   4   5  409.45    5.44
  -2   4   6   61.08    3.69
   2  -4   6   51.57    3.12
  -2   4   6   44.03    1.93
  -2   4  -6   56.04    3.23
   2  -4  -6   55.92    2.61
   2   4   6   55.75    3.38
  -2   4   7  103.24    4.66
  -2   4  -7  103.42    4.35
   2  -4   7  108.90    4.56
   2   4  -7  100.83    4.49
  -2   4   7  101.59    3.47
   2   4   7  103.56    4.44
   2  -4  -7   98.12    3.49
  -2   4   8 1538.76   18.17
   2   4  -8 1461.03   17.11
   2  -4   8 1499.56   16.88
  -2   4   8 1473.19   13.82
  -2   4  -8 1468.39   16.74
   2  -4  -8 1456.93   14.13
   2   4   8 1501.22   17.09
  -2  -4  -9   67.63    4.01
  -2   4   9   69.09    4.16
  -2   4  -9   67.24    4.06
   2  -4   9   72.64    4.05
   2   4  -9   65.50    4.00
  -2   4   9   64.88    3.33
   2   4   9   70.33    4.09
   2  -4  -9   64.17    3.33
  -2  -4 -10  432.18   10.29
  -2   4  10  450.97    9.08
   2  -4  10  427.46   10.00
  -2   4 -10  437.64   10.21
   2   4 -10  437.36   10.41
   2   4  10  433.41   10.07
   2  -4 -10  417.43    8.83
  -2  -4 -11    1.95    1.61
  -2   4  11    3.43    1.50
   2   4 -11    3.27    2.96
   2  -4  11    8.15    2.64
   2   4  11    2.92    1.70
  -2   4 -11    3.53    1.77
   2  -4 -11    3.11    1.48
  -2  -4 -12   45.39    3.89
   2  -4  12   47.45    4.29
  -2   4 -12   44.43    3.82
  -2   4  12   43.21    3.42
   2   4 -12   46.48    3.94
   2   4  12   46.03    3.75
   2  -4 -12   44.58    3.45
   2  -4  13  211.02    8.25
   2   4  13  204.12    7.86
  -2   4  13  206.37    7.20
   2  -4 -13  203.14    7.24
  -2  -4 -13  215.18    8.19
   2  -4  14   73.83    5.36
   2   4  14   73.83    5.16
  -2   4  14   67.67    4.56
   2  -4 -14   68.42    4.64
  -2   4  15  329.79    9.93
   2   4  15  329.62   10.71
   2  -4  15  309.79   10.58
   2  -4 -15  337.48   10.23
  -2   4  16  171.78    7.53
   2   4  16  175.35    8.26
   2  -4  16  175.30    8.48
   2  -4  17   61.94    5.46
  -2   4  17   54.50    4.67
   2   4  17   60.82    5.33
   2  -4  18  138.90    8.20
   2   4  18  147.21    8.41
  -2   4  18  132.76    7.45
   2   4  19   10.88    3.36
  -2   4  19   11.16    3.23
   2   4  20   11.55    3.42
  -2   4  20   12.63    3.57
   2   4  21   36.97    5.11
  -2   4  21   37.92    4.85
   2   4  22    8.11    3.82
  -2   4  22    0.75    2.91
   2  -5   0   24.04    2.71
  -2  -5   0   27.30    1.71
  -2   5   1   89.66    4.15
   2  -5  -1   86.25    3.90
  -2  -5  -1   90.54    2.82
   2  -5   1   95.90    4.03
  -2   5   2  357.93    7.83
   2   5   2  377.92    5.72
  -2   5  -2  381.48    5.77
   2  -5  -2  364.23    7.52
  -2  -5  -2  382.69    5.39
   2   5   3   36.04    2.06
  -2   5   3   38.36    2.86
   2  -5  -3   38.33    2.77
  -2   5  -3   38.43    2.24
   2   5   4   44.13    2.31
  -2   5   4   46.37    3.14
   2  -5  -4   43.48    3.18
  -2   5  -4   45.01    2.62
  -2   5   4   38.83    1.82
   2   5   5    7.96    1.78
   2   5   5    9.79    1.46
   2  -5  -5    7.16    1.62
  -2   5   5    7.95    1.65
  -2   5  -5    9.26    1.55
  -2   5   5   11.26    1.36
   2   5   6 1155.81   12.82
  -2   5   6 1204.92   15.41
  -2   5  -6 1175.02   13.95
  -2   5   6 1159.34   10.50
   2   5   6 1166.53   14.37
  -2   5   7   88.70    4.48
  -2   5  -7   92.92    4.35
  -2   5   7   78.11    2.90
   2   5   7   82.88    4.16
   2  -5  -8   45.41    2.72
  -2   5   8   45.69    3.47
  -2   5   8   44.28    2.54
  -2   5  -8   48.29    3.37
   2   5  -8   48.28    3.47
   2   5   8   44.58    3.33
  -2   5   9   31.61    3.17
   2   5  -9   29.70    2.85
  -2   5  -9   32.74    3.08
  -2   5   9   30.61    2.44
   2  -5   9   30.87    2.96
   2   5   9   31.25    2.89
   2  -5  -9   29.92    2.44
  -2   5  10  148.17    6.55
  -2   5 -10  148.78    6.06
   2  -5  10  135.14    5.85
  -2   5  10  144.86    5.09
   2   5 -10  140.55    6.21
   2   5  10  139.37    5.93
   2  -5 -10  138.14    5.15
  -2   5  11   46.39    4.01
   2  -5  11   42.63    3.70
  -2   5 -11   42.60    3.70
   2   5 -11   43.80    3.63
  -2   5  11   40.59    3.09
   2  -5 -11   43.12    3.17
   2   5  11   47.03    3.75
  -2  -5 -12  108.33    5.73
  -2   5  12  119.31    6.37
  -2   5  12  112.38    5.16
   2   5 -12  111.95    6.05
  -2   5 -12  104.85    5.64
   2  -5  12   96.69    5.54
   2   5  12  109.98    5.78
   2  -5 -12  109.25    5.27
  -2  -5 -13   14.78    2.70
   2  -5 -13   17.04    2.52
  -2   5  13   14.86    2.49
   2  -5  13   13.64    2.57
   2   5  13   12.30    2.34
   2   5  14   46.98    4.30
  -2   5  14   43.57    3.72
   2  -5 -14   46.66    3.90
   2  -5 -15    4.11    1.82
  -2   5  15    4.26    2.19
   2   5  15    2.64    2.18
   2   5  16  154.94    7.85
  -2   5  16  160.48    7.33
  -2   5  17   -2.62    2.75
   2   5  17    0.52    2.33
  -2   5  18  101.54    6.48
   2   5  18  106.94    7.21
   2   5  19    2.87    2.92
  -2   5  19    4.12    2.69
   2   5  20   43.34    5.32
  -2   5  20   44.10    5.11
  -2   5  21   48.06    5.41
   2   5  21   49.41    5.62
  -2   5  22   55.97    5.74
   2   5  22   71.29    6.88
  -2   5  23   23.61    4.47
  -2  -6   0 2409.36   15.68
   2  -6   0 2403.12   20.85
   2  -6   1   12.13    2.53
  -2   6   1    9.04    1.84
   2  -6  -1    8.38    1.91
  -2  -6  -1    9.61    1.38
  -2   6   2   94.93    4.66
   2   6   2  108.90    3.58
  -2  -6  -2  110.89    3.44
   2  -6  -2   99.66    4.69
   2   6   3   60.62    2.78
  -2   6   3   60.14    3.60
  -2   6  -3   70.01    3.15
  -2  -6  -3   64.73    2.74
   2  -6  -3   69.17    3.76
  -2   6   4    3.32    0.96
   2  -6  -4    4.30    1.64
   2   6   4    4.86    1.46
  -2   6   4    4.07    1.56
  -2   6  -4    2.52    1.19
   2   6   5   24.76    2.11
   2  -6  -5   26.36    2.69
  -2   6   5   25.72    2.63
  -2   6  -5   25.54    2.26
  -2   6   5   26.65    1.83
   2   6   6   35.40    2.98
  -2   6   6   33.65    3.00
   2   6   6   31.22    2.37
  -2   6  -6   36.58    2.77
  -2   6   6   35.18    2.19
   2   6   7   21.20    2.61
  -2   6   7   19.11    2.39
   2   6   7   19.32    2.13
  -2   6  -7   17.38    2.23
  -2   6   7   16.26    1.60
  -2   6   8 1571.90   19.67
   2   6   8 1506.45   17.05
  -2   6  -8 1556.56   18.39
   2   6  -8 1501.60   18.42
   2   6   8 1521.36   18.30
  -2   6   8 1510.61   14.22
   2   6   9   34.50    2.96
  -2   6   9   39.06    3.51
   2   6  -9   39.23    3.48
  -2   6  -9   34.48    3.15
  -2   6   9   35.60    2.50
   2   6   9   35.12    3.14
  -2   6  10  341.38   10.16
  -2   6  10  330.76    7.72
  -2   6 -10  348.93    9.75
   2   6 -10  340.62    9.75
   2   6  10  330.24    9.28
   2  -6 -11   17.61    2.22
  -2   6  11   20.75    3.20
   2   6 -11   19.21    2.95
  -2   6 -11   16.51    2.37
  -2   6  11   18.89    2.35
   2   6  11   20.09    2.81
   2  -6 -12   34.70    3.10
  -2   6  12   32.71    2.99
   2   6  12   35.68    3.52
   2  -6 -13    2.50    1.74
  -2   6  13    0.98    1.62
   2   6  13    1.63    1.93
   2  -6 -14  104.38    5.63
  -2   6  14  111.43    5.65
   2   6  14  103.67    5.96
   2  -6 -15   29.31    3.51
  -2   6  15   31.17    3.49
   2   6  15   28.04    3.69
   2   6  16  599.24   15.08
  -2   6  16  602.96   13.79
  -2   6  17   17.94    3.59
   2   6  17   13.70    3.25
  -2   6  18  127.51    7.09
   2   6  18  135.63    8.11
  -2   6  19    5.00    2.44
   2   6  19    3.55    2.73
   2   6  20   11.53    3.57
  -2   6  20    4.23    2.85
   2   6  21   14.22    3.96
  -2   6  21   17.23    3.94
  -2   6  22   13.81    3.92
   2   6  22   22.77    4.80
  -2   6  23    3.39    3.44
  -2   6  24   63.61    6.43
  -2  -7   0  304.34    6.32
   2  -7   0  306.15    8.13
   2  -7   1    4.35    1.65
   2  -7  -1    3.69    1.60
  -2  -7  -1    4.61    1.29
  -2   7   2   13.58    2.32
  -2  -7  -2   16.46    1.71
   2  -7  -2   15.05    2.39
  -2   7   3  167.57    6.25
   2   7   3  171.68    4.90
  -2   7  -3  184.14    4.92
   2  -7  -3  175.02    5.97
  -2  -7  -3  179.59    4.72
   2   7   4   43.49    2.77
  -2   7   4   47.99    3.55
  -2   7  -4   51.40    3.05
   2  -7  -4   47.42    3.41
  -2   7   5   10.46    1.42
   2   7   5    9.23    1.63
  -2   7   5    9.99    1.86
   2  -7  -5    9.91    1.93
  -2   7   6  102.40    5.10
   2   7   6   96.31    4.54
   2   7   6   93.57    3.99
   2  -7  -6   98.11    4.87
  -2   7  -6  105.56    4.54
  -2   7   6  100.15    3.47
  -2   7   7  140.30    6.04
   2   7   7  141.32    5.21
  -2   7  -7  143.05    5.65
  -2   7   7  153.04    4.56
   2   7   7  139.04    5.69
  -2   7   8  206.33    7.45
   2   7   8  198.52    6.46
  -2   7  -8  204.23    7.01
   2   7   8  204.31    6.95
  -2   7   8  200.20    5.34
  -2   7   9    2.68    1.70
   2   7   9    2.16    1.55
  -2   7  -9    2.90    1.81
   2   7  -9    3.63    2.19
  -2   7   9    5.60    1.58
   2   7   9    2.40    1.87
   2   7  10  119.70    5.65
  -2   7  10  120.39    6.33
  -2   7  10  107.70    4.42
  -2   7 -10  119.45    5.84
   2   7 -10  113.76    6.06
   2   7  10  111.94    5.59
  -2   7  11   76.29    5.41
   2   7  11   80.17    4.87
  -2   7  11   73.50    4.03
  -2   7 -11   80.81    5.13
   2   7  11   73.01    4.70
   2   7  12   89.16    5.36
  -2   7  12   89.50    4.69
   2   7  12   85.21    5.36
   2   7  13   74.23    5.15
  -2   7  13   77.63    4.63
   2   7  13   77.65    5.19
  -2   7  14   63.56    4.40
   2   7  14   60.88    4.98
  -2   7  15    7.33    2.45
   2   7  15    7.48    2.49
  -2   7  16    2.78    2.11
   2   7  16    7.60    2.71
  -2   7  17   13.89    2.93
   2   7  17   13.43    3.16
  -2   7  18   60.47    5.10
   2   7  18   59.85    5.68
   2   7  19    1.97    2.81
  -2   7  19   -3.91    3.14
   2   7  20   37.51    5.06
  -2   7  20   26.89    4.11
   2   7  21   19.97    4.32
  -2   7  21   20.77    4.02
  -2   7  22   68.55    6.45
   2   7  22   78.25    7.33
  -2   7  23    9.45    3.90
   2  -8   0  548.66   11.41
  -2  -8   0  568.52    9.31
  -2  -8   1 1047.54   12.87
   2  -8   1 1136.31   16.20
  -2  -8  -1 1141.33   12.71
   2  -8  -1 1057.96   15.54
   2  -8  -2   84.68    4.73
   2  -8   2   88.86    4.96
  -2   8   2   86.67    4.90
  -2  -8  -2   97.10    3.84
  -2   8   3   22.16    2.71
   2   8   3   21.95    2.15
   2  -8  -3   21.81    2.48
  -2  -8  -3   22.88    1.98
   2   8   4   23.16    2.28
  -2   8   4   24.37    2.94
  -2   8  -4   24.22    2.21
  -2  -8  -4   24.07    2.15
   2  -8  -4   24.13    2.83
  -2   8   5   84.45    4.82
   2   8   5   77.98    3.85
  -2   8   5   82.67    3.15
  -2   8  -5   87.99    4.10
   2  -8  -5   86.37    4.65
  -2   8   6   18.69    1.95
  -2   8   6   20.32    2.92
   2   8   6   17.41    2.20
   2  -8  -6   19.74    2.77
  -2   8  -6   18.66    2.32
  -2   8   7  116.80    5.77
   2   8   7  114.40    5.30
   2   8   7  108.64    4.74
  -2   8  -7  118.81    5.19
  -2   8   7  114.00    4.01
  -2   8   8  444.89   11.37
   2   8   8  437.12    9.85
  -2   8  -8  475.05   10.81
   2   8   8  444.51   10.56
  -2   8   8  462.63    8.47
  -2   8   9  196.64    7.66
   2   8   9  196.30    6.90
  -2   8  -9  209.26    7.57
   2   8  -9  202.88    7.45
  -2   8   9  194.65    5.68
   2   8   9  197.96    7.30
  -2   8  10  161.10    7.46
   2   8  10  153.46    6.53
  -2   8 -10  167.32    7.14
  -2   8  10  152.55    5.48
   2   8  10  148.25    6.64
   2   8  11   76.45    4.93
  -2   8  11   72.25    3.88
   2   8  11   74.57    4.96
   2   8  12   18.85    3.09
   2   8  12   17.84    3.06
  -2   8  12   17.62    2.47
  -2   8  13   51.89    3.82
   2   8  13   53.05    4.53
  -2   8  14   64.98    4.45
   2   8  14   61.58    4.95
  -2   8  15   19.86    3.04
   2   8  15   21.33    3.58
  -2   8  16  106.84    5.99
   2   8  16  106.20    6.77
  -2   8  17   29.71    3.80
   2   8  17   29.29    4.08
  -2   8  18  105.91    6.66
   2   8  18   97.09    7.04
   2   8  19   44.53    4.93
  -2   8  19   51.94    5.11
  -2   8  20    1.06    2.90
   2   8  20    6.23    3.59
   2   8  21    4.05    3.19
  -2   8  21   10.68    3.20
  -2   8  22   13.32    3.82
   2   8  22   19.87    4.59
   2  -9   0  334.88    9.47
  -2  -9   0  339.38    7.90
  -2  -9   1   10.69    1.87
   2  -9   1   14.78    2.64
   2  -9  -1   13.62    2.55
  -2  -9  -1   13.34    1.98
   2  -9   2  144.84    6.39
   2  -9  -2  138.68    6.06
  -2  -9  -2  150.81    4.94
  -2   9   3  188.24    7.25
   2  -9  -3  188.46    6.94
  -2  -9  -3  192.53    5.68
   2   9   4   48.07    3.16
  -2   9   4   43.63    3.79
  -2   9  -4   54.65    3.24
   2  -9  -4   47.81    3.80
  -2  -9  -4   47.81    3.01
   2   9   5  148.37    5.65
  -2   9   5  146.50    6.64
  -2   9  -5  163.77    5.70
   2  -9  -5  150.99    6.41
  -2   9   6    9.18    1.65
  -2   9   6   10.94    2.38
   2  -9  -6   10.06    2.38
   2   9   6   10.77    2.14
  -2   9  -6    6.93    1.55
   2   9   7  246.74    7.49
   2   9   7  259.10    8.15
  -2   9   7  257.00    8.87
  -2   9  -7  275.92    8.18
  -2   9   7  265.48    6.43
  -2   9   8   62.16    4.72
   2   9   8   54.51    3.83
  -2   9  -8   58.85    4.16
  -2   9   8   54.87    3.05
   2   9   8   58.00    4.20
  -2   9   9   63.31    4.85
   2   9   9   54.05    3.87
  -2   9  -9   65.15    4.48
   2   9   9   56.16    4.14
  -2   9   9   60.86    3.50
   2   9  10  248.75    8.39
  -2   9  10  256.14    7.04
   2   9  10  253.99    8.73
   2   9  11    2.68    2.04
   2   9  11    0.96    1.81
  -2   9  11   -2.21    1.79
   2   9  12   24.37    3.25
   2   9  12   22.73    3.22
  -2   9  12   23.40    2.62
   2   9  13   10.85    2.79
  -2   9  13   12.84    2.45
  -2   9  14    5.81    2.22
   2   9  14    3.43    2.24
  -2   9  15   37.51    3.63
   2   9  15   41.78    4.54
  -2   9  16   42.68    4.13
   2   9  16   35.44    4.21
  -2   9  17    1.61    2.28
   2   9  17   -1.00    2.53
  -2   9  18   19.88    3.44
   2   9  18   15.10    3.82
  -2   9  19    0.47    2.53
   2   9  19    0.75    2.74
  -2   9  20   42.45    4.77
   2   9  20   49.40    5.44
  -2   9  21    6.04    2.91
   2   9  21    9.78    3.83
  -2 -10   0   43.57    3.14
   2 -10   0   42.93    3.91
   2 -10   1  148.65    6.70
  -2 -10   1  142.90    5.55
  -2 -10  -1  155.26    5.46
   2 -10  -1  139.78    6.27
  -2 -10   2  205.25    6.86
   2 -10   2  218.68    8.17
  -2 -10  -2  227.55    6.50
   2 -10  -2  211.50    7.76
   2 -10   3   32.89    3.85
  -2  10   3   30.19    3.53
  -2 -10  -3   32.95    2.78
   2 -10  -3   28.78    3.23
   2  10   4    5.06    1.64
  -2  10   4    5.04    2.08
  -2  10  -4    4.69    1.55
   2 -10  -4    6.59    2.22
  -2 -10  -4    5.68    1.56
  -2  10   5   14.98    2.64
   2  10   5   14.93    2.24
   2 -10  -5   19.37    2.78
  -2  10  -5   18.27    2.27
   2  10   6  117.38    5.50
  -2  10   6  112.27    6.27
   2 -10  -6  119.82    6.13
  -2  10  -6  114.76    5.33
  -2  10   6  121.11    4.55
   2  10   7  176.60    7.03
  -2  10   7  184.49    7.99
   2  10   7  179.81    6.77
   2 -10  -7  187.22    7.59
  -2  10  -7  187.41    7.12
  -2  10   7  180.43    5.62
   2  10   8  126.15    6.29
  -2  10   8  123.75    7.03
   2  10   8  121.92    5.96
  -2  10  -8  134.70    6.35
  -2  10   8  126.51    4.88
   2  10   9   34.91    3.44
   2  10   9   30.18    3.55
  -2  10   9   36.22    2.91
   2  10  10  394.83   11.07
   2  10  10  425.35   11.58
  -2  10  10  435.29    9.40
   2  10  11   22.54    3.34
  -2  10  11   29.63    2.91
   2  10  11   24.84    3.44
  -2  10  12   45.80    3.22
   2  10  12   60.01    4.85
  -2  10  13   59.65    4.11
   2  10  13   55.63    4.71
  -2  10  14   91.83    5.35
   2  10  14   83.79    5.93
  -2  10  15   92.69    5.56
   2  10  15   89.52    6.21
  -2  10  16    8.24    2.45
   2  10  16   13.50    3.37
  -2  10  17   45.83    4.33
   2  10  17   40.98    4.74
  -2  10  18  100.53    6.44
   2  10  18  107.38    7.49
  -2  10  19    9.38    3.12
   2  10  19    5.27    2.86
   2  10  20   37.25    5.08
   2  10  21    6.36    2.98
  -2 -11   0  513.90   10.92
   2 -11   0  479.55   12.37
   2 -11   1   16.00    2.93
  -2 -11   1   15.63    2.50
  -2 -11  -1   11.84    1.96
   2 -11  -1   13.44    2.60
   2 -11   2    5.13    2.14
  -2 -11   2    1.66    1.58
  -2 -11  -2    6.20    1.71
   2 -11  -2    0.02    1.93
  -2 -11   3   18.81    2.69
   2 -11   3   21.51    3.37
  -2 -11  -3   22.20    2.59
   2 -11  -3   17.05    2.67
  -2  11   4   12.90    2.79
  -2 -11  -4   12.19    2.03
   2 -11  -4   11.20    2.60
  -2  11   5   78.10    5.34
   2  11   5   88.16    4.86
  -2  11  -5   84.82    4.66
  -2 -11  -5   81.31    4.42
   2 -11  -5   82.15    5.19
  -2  11   6    6.87    1.69
   2  11   6    7.65    2.12
  -2  11   6    5.94    2.45
   2 -11  -6    8.54    2.43
  -2  11  -6    7.94    2.18
   2  11   7   38.70    3.67
   2 -11  -7   38.46    4.01
  -2  11  -7   36.76    3.59
  -2  11   7   37.77    2.91
   2  11   8  315.25    9.72
   2  11   8  306.64    9.71
  -2  11   8  324.45    7.94
   2  11   9    8.36    2.15
   2  11   9    7.42    2.30
  -2  11   9    1.58    1.79
   2  11  10   12.40    2.66
   2  11  10    7.41    2.32
  -2  11  10   11.78    2.16
   2  11  11   10.08    2.66
   2  11  11    9.86    2.49
  -2  11  11    9.48    1.80
   2  11  12   19.21    3.15
  -2  11  12   20.21    2.36
  -2  11  13    4.37    1.90
   2  11  13    8.67    2.50
  -2  11  14   45.66    4.12
   2  11  14   36.95    4.35
   2  11  15   15.06    3.26
  -2  11  15   18.56    3.27
  -2  11  16  104.57    6.06
   2  11  16   86.09    6.52
  -2  11  17    6.71    2.72
   2  11  17    3.03    2.61
  -2  11  18   29.57    3.90
   2  11  18   24.89    4.34
   2  11  19    3.70    3.16
   2  11  20    4.07    3.17
   2  11  21    4.03    3.33
  -2 -12   0   70.16    4.43
   2 -12   0   60.76    4.82
  -2 -12   1    1.60    1.83
   2 -12   1    2.18    2.21
  -2 -12  -1    5.47    1.97
   2 -12  -1    1.99    1.84
   2 -12   2  232.28    9.34
  -2 -12   2  222.51    8.00
  -2 -12  -2  252.56    7.75
   2 -12  -2  228.27    8.70
  -2 -12   3    4.06    1.95
   2 -12   3    5.42    2.55
   2 -12  -3    5.72    2.26
  -2 -12  -3    7.07    1.97
   2 -12   4   10.88    2.90
  -2 -12  -4    6.99    1.90
   2 -12  -4    5.40    2.43
  -2  12  -5   35.31    3.33
   2 -12  -5   32.37    3.63
  -2 -12  -5   35.38    3.28
   2  12   6  320.81    9.65
  -2  12   6  324.05    7.99
  -2  12  -6  317.50    9.36
   2 -12  -6  334.26   10.87
   2 -12  -7    4.57    2.45
   2  12   7    3.71    1.92
  -2  12   7    2.04    1.47
   2  12   8   23.64    3.38
   2  12   8   22.19    3.38
  -2  12   8   29.02    3.04
   2  12   9   -0.08    2.19
   2  12   9    1.29    1.94
  -2  12   9   -0.20    1.56
   2  12  10  205.79    8.75
   2  12  10  209.91    8.60
  -2  12  10  221.51    7.24
   2  12  11   -0.92    2.16
  -2  12  11    1.24    1.48
  -2  12  12   43.15    3.50
   2  12  12   41.28    4.39
   2  12  13    1.21    2.24
  -2  12  13   -8.21    2.88
  -2  12  14  167.80    6.98
   2  12  14  165.57    8.18
   2  12  15   -2.46    2.44
  -2  12  15    8.79    2.85
  -2  12  16   13.07    3.12
   2  12  16    4.99    2.98
   2  12  17    1.96    2.82
   2  12  18   61.42    5.89
   2  12  19   -0.66    3.02
   2  12  20   46.00    5.52
  -2 -13   0   49.60    3.99
   2 -13   0   40.35    4.19
  -2 -13  -1   10.21    2.06
   2 -13   1    7.95    2.34
   2 -13  -1    7.95    2.39
  -2 -13   1   11.45    2.38
  -2 -13   2   11.25    2.70
   2 -13   2    9.45    2.90
  -2 -13  -2   16.92    2.71
   2 -13  -2   11.28    2.67
   2 -13   3    1.17    2.38
  -2 -13   3    2.12    1.97
   2 -13  -3    1.26    2.03
  -2 -13  -3    2.81    1.64
   2 -13   4    1.43    2.56
  -2 -13   4    0.97    2.06
   2 -13  -4   -0.22    2.14
  -2 -13  -4    0.55    1.54
   2 -13   5    8.61    2.98
  -2  13  -5   10.65    2.33
  -2 -13  -5    7.70    2.17
   2 -13  -5    5.95    2.29
   2 -13  -6   10.93    2.93
  -2  13   6   12.59    2.14
   2 -13  -7   38.66    4.47
   2  13   7   37.17    3.81
  -2  13   7   38.98    3.18
   2  13   8  177.30    7.96
   2  13   8  189.37    8.06
  -2  13   8  179.49    6.47
   2  13   9    0.61    2.14
   2  13   9    3.44    2.33
  -2  13   9    3.04    1.69
   2  13  10    2.16    2.09
  -2  13  10    7.04    2.11
   2  13  11    0.73    2.25
  -2  13  11    0.64    1.57
   2  13  12    1.58    2.42
  -2  13  12    0.31    1.79
  -2  13  13   -7.65    2.74
   2  13  13    5.15    2.69
   2  13  14    4.18    2.62
  -2  13  14   -0.91    2.28
   2  13  15    7.78    2.83
   2  13  16   83.63    6.56
   2  13  17    9.38    3.64
   2  13  18   16.60    3.86
   2  13  19   -0.36    2.93
   2 -14   0   13.42    3.00
  -2 -14   0   18.97    2.98
  -2 -14   1  116.74    6.22
   2 -14   1   97.01    6.50
   2 -14  -1  110.34    6.81
  -2 -14  -1  122.39    6.07
  -2 -14   2   39.18    3.97
   2 -14   2   35.71    4.39
   2 -14  -2   41.54    4.47
  -2 -14  -2   42.29    3.77
  -2 -14   3    1.29    2.02
   2 -14   3   -1.88    2.72
   2 -14  -3    2.12    2.32
  -2 -14  -3    3.36    1.70
   2 -14   4    1.70    2.40
  -2 -14   4    0.33    1.97
  -2  14  -4    4.04    1.94
  -2 -14  -4    0.04    1.70
   2 -14  -4   -0.52    2.24
   2 -14  -5    4.03    2.53
  -2 -14  -5    1.78    1.87
  -2 -14   5    3.16    2.45
   2 -14   5    1.46    2.35
   2 -14  -6   56.71    5.34
  -2  14   6   57.17    3.90
   2 -14   6   57.36    5.72
   2 -14  -7   11.47    3.06
  -2  14   7   11.72    2.26
   2  14   8   39.19    4.29
  -2  14   8   45.57    3.76
   2  14   9   64.65    5.37
  -2  14   9   69.53    4.22
   2  14  10  164.78    8.33
  -2  14  10  156.64    6.36
   2  14  11   -2.45    2.81
  -2  14  11    6.99    2.38
   2  14  12   47.31    5.04
  -2  14  12   43.84    3.69
   2  14  13   34.66    4.68
   2  14  14   34.14    4.47
   2  14  15    6.15    2.88
   2  14  16    9.38    3.45
   2  14  17   43.34    5.50
   2  14  18   82.19    6.82
  -2 -15   0   73.59    5.27
   2 -15   0   60.71    5.44
  -2 -15  -1   58.12    4.41
   2 -15  -1   56.15    5.40
  -2 -15   1   60.91    4.88
   2 -15   1   52.30    5.33
   2 -15  -2   94.23    6.47
  -2 -15  -2  100.25    5.82
  -2 -15   2   90.63    6.06
   2 -15   2   91.61    6.90
   2 -15  -3   23.63    3.62
  -2 -15  -3   23.45    3.12
  -2 -15   3   23.15    3.52
   2 -15   3   17.71    3.72
   2 -15  -4   10.23    3.24
  -2 -15  -4    8.88    2.22
  -2 -15   4    9.11    2.93
   2 -15   4   10.66    3.46
  -2 -15  -5   55.62    4.52
   2 -15  -5   51.85    5.25
   2 -15   5   56.23    5.74
  -2 -15   5   56.28    5.09
   2 -15  -6   15.56    3.54
  -2 -15   6    9.06    3.09
  -2  15   6   11.02    2.32
   2 -15   6   19.45    4.30
   2 -15  -7   41.98    4.97
   2 -15   7   38.47    5.29
  -2  15   7   38.89    3.56
   2  15   8   40.92    4.35
  -2  15   8   52.89    4.01
   2  15   9   30.16    4.01
  -2  15   9   30.25    3.30
   2  15  10    7.00    2.76
  -2  15  10   -4.24    2.39
   2  15  11   11.56    2.83
   2  15  12    9.36    3.05
   2  15  13    8.20    3.20
   2  15  14    0.99    2.91
   2  15  15   19.09    3.79
   2  15  16   15.61    3.74
  -2 -16   0  311.28   10.63
   2 -16   0  276.17   11.49
  -2 -16  -1   27.29    3.37
  -2 -16   1   29.59    3.84
   2 -16  -1   24.70    3.69
   2 -16   1   19.51    3.59
  -2 -16  -2   36.25    4.05
   2 -16  -2   37.13    4.55
  -2 -16   2   38.23    4.26
   2 -16   2   39.46    5.02
  -2 -16  -3   25.72    3.51
   2 -16  -3   26.65    4.07
   2 -16   3   24.82    4.34
  -2 -16   3   23.65    3.50
   2 -16  -4    0.57    2.59
  -2 -16  -4    0.13    2.03
  -2 -16   4    6.02    3.78
   2 -16   4    1.07    2.79
  -2 -16  -5   30.40    3.77
   2 -16  -5   26.55    3.91
  -2 -16   5   29.74    4.35
   2 -16   5   33.25    4.94
   2 -16  -6    1.83    2.91
  -2  16   6    0.96    1.79
  -2 -16   6    4.45    2.62
   2 -16   6   -2.81    3.36
   2 -16  -7   21.00    3.97
  -2  16   7   20.58    2.79
  -2 -16   7   24.67    4.35
   2 -16   7   28.07    5.02
   2  16   8  123.52    7.30
   2 -16   8  147.90   10.10
  -2  16   8  128.43    6.13
   2  16   9   18.67    3.36
   2  16  10  123.53    7.62
   2  16  11   -0.33    2.84
   2  16  12    7.47    3.05
   2  16  13   37.57    5.20
   2  16  14   -0.69    3.08
  -2 -17   0    1.82    2.12
   2 -17   0    5.19    2.66
  -2 -17  -1    3.24    2.33
   2 -17   1    2.06    2.72
   2 -17  -1    2.44    2.61
  -2 -17   1    7.45    2.98
  -2 -17  -2   46.67    4.77
   2 -17   2   39.94    5.14
   2 -17  -2   46.34    5.50
  -2 -17   2   46.08    4.98
   2 -17   3    5.69    3.49
   2 -17  -3    8.83    3.38
  -2 -17  -3    5.86    2.41
  -2 -17   3    6.36    2.90
   2 -17  -4    1.09    2.72
  -2 -17  -4   -1.56    2.06
  -2 -17   4   -0.05    2.68
   2 -17   4    0.75    3.01
  -2 -17  -5    3.78    2.29
   2 -17  -5    1.96    2.58
   2 -17   5    2.06    3.15
  -2 -17   5    0.26    2.75
   2 -17  -6   14.25    3.81
  -2 -17   6   15.13    3.69
   2 -17   6   11.50    3.77
   2 -17  -7   45.75    5.50
  -2 -17   7   31.68    4.75
   2 -17   7   42.17    5.78
   2  17   8    1.66    2.37
   2 -17   8    7.95    3.94
  -2 -17   8    8.25    3.78
   2  17   9    0.81    2.29
   2 -17   9    5.88    3.97
   2  17  10   36.52    4.51
   2 -17  10   37.36    5.91
   2  17  11   -6.50    3.54
   2  17  12   10.34    3.32
   2 -18   0  329.83   13.37
  -2 -18   0  376.71   12.66
  -2 -18  -1   -0.81    2.77
   2 -18  -1   -0.49    2.97
  -2 -18   1    0.85    2.62
   2 -18   2    5.94    3.42
  -2 -18   2    9.15    3.33
  -2 -18  -2    4.34    2.33
   2 -18  -2    2.35    3.01
   2 -18  -3   -1.13    2.87
  -2 -18  -3    8.20    2.99
  -2 -18   3    4.67    3.01
   2 -18   3    0.71    3.34
   2 -18  -4   -1.64    3.31
  -2 -18  -4    2.92    2.66
   2 -18   4   -3.74    3.28
  -2 -18   4    0.37    2.76
   2 -18  -5    0.27    2.86
  -2 -18   5    0.44    2.99
   2 -18   5    2.47    3.29
   2 -18  -6    6.84    3.76
   2 -18   6   -2.21    3.47
  -2 -18   6    2.39    2.87
  -2 -18   7    6.20    3.56
   2  18   7   -1.82    2.92
   2 -18   7    8.36    4.03
  -2 -18   8  125.15    8.86
   2  18   8  134.27    8.05
   2 -18   8  126.53    9.58
  -2 -18   9   11.17    4.45
   2  18   9    5.12    2.82
   2 -18   9   -0.03    3.76
   2  18  10   20.27    3.83
  -2 -18  10   26.98    5.42
   2 -18  10   34.04    6.40
   2 -19   0   11.65    3.73
  -2 -19   0    9.68    3.53
   2 -19  -1    4.44    3.15
   2 -19   1    5.77    3.07
  -2 -19   1    4.91    2.96
  -2 -19   2   25.71    4.60
   2 -19   2   18.18    4.44
   2 -19  -2   20.27    4.52
   2 -19   3    2.30    3.52
   2 -19  -3    3.00    2.84
  -2 -19   3    4.20    3.23
   2 -19  -4   -2.63    3.54
  -2 -19   4    0.00    2.76
   2 -19   4    3.73    3.56
  -2 -19   5    0.60    2.99
   2 -19  -5    6.07    3.69
   2 -19   5    1.48    3.51
   2 -19  -6   31.95    5.12
   2 -19   6   25.91    5.25
  -2 -19   6   33.68    5.11
   2  19   7   -6.10    2.99
   2 -19   7   -5.34    4.23
  -2 -19   7   -2.84    3.64
  -2 -19   8    3.27    4.18
  -2 -19   9   -3.22    3.66
  -2 -19  10    2.38    3.60
   2 -20   0  134.90    9.32
   2 -20   1   18.15    3.89
   2 -20  -1   20.34    4.36
   2 -20   2   27.24    5.50
   2 -20  -2   22.04    5.01
   2 -20   3    4.21    3.48
   2 -20  -3    0.52    3.22
   2 -20  -4    1.44    3.06
   2 -20   4   11.06    4.03
   2 -20  -5   13.31    4.10
   2 -20  -6   16.22    4.74
   3   0   0    2.00    0.81
  -3   0   0    1.20    0.85
   3   0  -1    1.57    0.89
  -3   0   1    1.26    0.86
  -3   0   2   21.74    1.56
   3   0   2   22.78    1.75
  -3   0  -3    0.60    1.11
   3   0   3   -0.26    1.17
   3   0   4  171.19    4.69
  -3   0  -4  161.09    4.45
  -3   0  -5   -0.70    1.31
   3   0  -5    0.64    1.06
   3   0   5   -1.20    1.51
   3   0  -6 2064.07   15.36
   3   0   6 2097.75   17.54
  -3   0  -6 2092.86   17.37
   3   0  -7    5.12    1.53
   3   0   7    0.72    1.51
  -3   0  -7    0.65    1.34
   3   0  -8   27.01    2.33
   3   0   8   26.46    2.57
  -3   0  -8   24.87    2.44
   3   0  -9   -2.26    1.66
   3   0   9    1.17    1.54
  -3   0  -9    1.88    1.56
   3   0  10   69.07    4.19
   3   0 -10   69.33    3.85
  -3   0 -10   65.33    4.11
  -3   0 -11    1.49    1.65
   3   0  11    1.20    1.66
   3   0 -11    0.62    1.40
   3   0  12    9.20    2.27
   3   0 -12    9.72    2.17
  -3   0 -12    9.97    2.22
   3   0  13   -2.37    2.17
   3   0 -13   -1.57    1.59
  -3   0 -13   -0.07    1.86
   3   0  14  671.91   15.13
   3   0 -14  670.35   13.92
   3   0  15    0.21    2.17
   3   0  16    6.58    2.71
   3   0  17    2.01    2.60
   3   0  18  248.02   10.70
   3   0  19   -1.20    2.59
   3   0  20   46.94    5.30
   3   0  21   -2.66    3.69
   3   0  22  106.31    8.28
   3   1   0    2.31    0.63
  -3  -1   0    0.98    0.64
  -3   1   0    3.54    1.14
   3  -1   0    2.42    1.07
  -3  -1   1  109.24    2.30
   3  -1  -1  105.16    2.99
  -3   1  -1  113.39    2.68
  -3   1   1  101.78    3.14
   3  -1   1  109.52    2.70
  -3   1   2  852.56    8.54
   3  -1  -2  859.89    8.79
  -3   1  -2  840.93    7.81
   3  -1   2  839.08    7.84
  -3   1   3  992.45    9.95
  -3   1  -3  976.38    9.25
   3  -1   3  992.04    9.48
   3   1   3  952.56   10.26
   3   1   4   18.09    2.06
  -3  -1  -4   16.94    1.83
  -3   1   4   18.12    1.93
   3  -1  -4   27.51    1.80
  -3   1  -4   18.62    1.79
   3  -1   4   19.44    1.95
   3  -1  -5   90.38    2.91
   3   1   5   95.92    3.85
   3  -1   5   96.28    3.58
  -3   1  -5   98.39    3.64
  -3  -1  -5   98.32    3.79
   3   1  -6  752.18    9.52
   3  -1   6  740.21   10.56
   3  -1  -6  742.30    8.67
   3   1   6  751.59   10.80
  -3  -1  -6  756.11   10.78
  -3   1  -6  747.07   10.42
   3  -1   7   87.80    4.03
   3  -1  -7   87.61    3.46
   3   1  -7   91.37    3.75
  -3   1  -7   87.95    4.02
  -3  -1  -7   94.89    4.17
   3   1   7   94.51    4.28
   3  -1   8  458.79    9.38
   3   1  -8  460.65    8.81
   3  -1  -8  456.32    8.16
   3   1   8  465.08    9.54
  -3  -1  -8  472.97    9.49
  -3   1  -8  468.38    9.38
   3  -1  -9   61.51    3.35
   3   1  -9   60.75    3.58
   3  -1   9   64.03    3.89
   3   1   9   67.23    3.99
  -3   1  -9   63.26    3.77
  -3  -1  -9   65.11    3.90
   3   1 -10  443.65    9.57
   3   1  10  448.62   10.21
  -3   1  10  430.30    8.77
   3  -1  10  440.48   10.21
   3  -1 -10  441.44    8.97
  -3  -1 -10  456.15   10.29
  -3   1 -10  459.43   10.18
   3  -1  11   81.33    4.82
   3   1 -11   84.83    4.54
   3   1  11   80.41    4.72
  -3   1  11   86.04    4.33
   3  -1 -11   88.97    4.38
  -3  -1 -11   89.88    4.92
  -3   1 -11   87.73    4.75
  -3   1  12   11.95    2.26
   3   1 -12   12.17    2.22
   3  -1  12   10.53    2.46
   3  -1 -12   11.91    2.22
   3   1  12   11.47    2.52
  -3  -1 -12   10.19    2.40
  -3   1 -12   12.62    2.45
   3   1  13   17.87    2.89
  -3   1  13   16.38    2.61
   3  -1  13   13.75    2.67
  -3   1 -13   17.66    2.80
   3  -1 -13   18.93    2.63
   3   1 -13   14.15    2.34
  -3  -1 -13   15.82    2.68
   3   1  14  328.56   10.58
   3   1 -14  320.82    9.86
   3  -1  14  309.05   10.27
   3  -1 -14  326.33    9.73
   3   1  15    3.41    2.29
   3  -1  15    6.33    2.56
   3  -1 -15    3.45    2.00
   3   1  16  313.54   11.21
   3  -1  16  308.77   11.15
   3   1  17   31.22    4.32
   3  -1  17   32.30    4.25
   3   1  18  118.84    7.50
   3  -1  18  122.86    7.62
   3  -1  19    7.06    3.00
   3   1  19   14.78    3.63
   3   1  20   11.10    3.54
   3  -1  20    5.46    2.72
   3  -1  21   -0.91    3.10
   3   1  21   -3.30    3.64
   3   1  22   39.65    5.36
   3  -1  22   44.04    6.09
  -3   2   0    2.32    1.30
   3  -2   0   -0.15    1.21
  -3   2   0    0.44    0.60
   3  -2   0    1.01    0.62
  -3   2   1  581.09    8.19
   3  -2  -1  582.23    7.74
  -3   2  -1  609.30    5.53
   3  -2   1  621.53    5.59
  -3   2   2  435.01    6.93
   3  -2  -2  422.49    6.78
   3  -2   2  443.96    5.50
  -3   2  -2  427.76    5.41
  -3   2   3   32.69    2.33
   3  -2  -3   38.84    2.48
   3  -2  -3   34.03    1.23
   3  -2   3   38.37    2.14
  -3   2  -3   32.31    1.97
  -3   2   4   60.36    3.13
   3  -2   4   60.90    2.91
   3  -2  -4   57.26    1.90
   3   2   4   61.91    3.27
  -3   2  -4   59.29    2.75
  -3   2   5  377.24    7.49
   3  -2  -5  360.55    5.11
   3  -2   5  360.77    6.91
   3   2   5  375.33    7.56
  -3   2  -5  353.95    6.82
  -3  -2  -6  195.95    5.68
   3  -2  -6  180.82    4.14
  -3   2   6  181.55    4.14
   3  -2   6  182.21    5.40
  -3   2  -6  187.75    5.34
   3   2   6  188.78    5.63
  -3  -2  -7   37.78    2.84
  -3   2   7   34.54    2.19
   3  -2   7   33.22    2.79
   3   2  -7   33.36    2.57
   3  -2  -7   36.64    2.22
  -3   2  -7   36.51    2.77
   3   2   7   38.50    2.95
  -3   2   8  105.93    3.89
   3  -2   8  105.27    4.83
   3   2  -8  112.19    4.66
   3  -2  -8  110.80    3.90
  -3  -2  -8  113.93    4.98
   3   2   8  110.91    4.88
  -3   2  -8  118.54    4.76
   3  -2  -9  173.22    5.17
   3  -2   9  174.43    6.35
  -3   2   9  165.59    5.10
   3   2  -9  167.02    5.78
  -3   2  -9  176.76    6.10
   3   2   9  170.93    6.17
  -3  -2  -9  177.94    6.30
   3  -2  10  246.75    7.75
  -3   2  10  240.77    6.53
   3   2 -10  259.61    7.61
   3  -2 -10  253.24    6.68
   3   2  10  255.42    7.82
  -3   2 -10  268.08    7.87
  -3  -2 -10  259.47    7.93
   3   2  11   57.86    4.08
  -3   2  11   53.50    3.52
   3  -2  11   54.35    4.08
   3   2 -11   58.14    4.03
  -3   2 -11   56.90    3.97
   3  -2 -11   56.73    3.55
  -3  -2 -11   61.54    4.20
   3   2 -12   66.04    4.56
  -3   2  12   61.37    3.97
   3  -2  12   61.51    4.53
   3   2  12   62.97    4.50
   3  -2 -12   62.73    3.98
  -3   2 -12   63.45    4.35
  -3  -2 -12   67.52    4.65
  -3  -2 -13   24.49    3.10
   3  -2  13   23.61    3.28
  -3   2  13   21.00    2.67
   3   2 -13   23.77    3.12
   3  -2 -13   24.58    2.79
   3   2  13   26.37    3.23
   3   2  14  274.88    9.66
   3  -2  14  263.83    9.56
  -3   2  14  258.80    8.35
   3  -2 -14  271.04    8.73
   3  -2  15   23.95    3.43
  -3   2  15   35.91    3.81
   3   2  15   32.47    4.00
   3  -2 -15   31.29    3.53
   3   2  16   17.90    3.38
   3  -2  16   10.06    2.66
  -3   2  16   15.01    2.90
   3  -2  17    9.06    2.84
   3   2  17   10.92    3.29
   3   2  18   30.98    4.34
   3  -2  18   33.65    4.35
   3  -2  19   54.57    5.90
   3   2  19   57.44    5.63
   3   2  20   12.56    3.55
   3  -2  20    9.62    3.78
   3   2  21   15.14    3.98
   3  -2  21   11.40    3.81
   3   2  22   69.02    6.76
   3  -2  22   71.59    7.04
   3  -3   0    1.69    1.29
   3  -3   0    1.86    0.70
  -3   3   0    2.99    0.63
   3  -3  -1  600.28    8.52
  -3   3   1  613.77    8.96
   3  -3   1  604.91    8.92
   3  -3   1  633.25    5.76
  -3   3  -1  605.95    5.66
  -3   3   2  246.58    5.82
   3  -3  -2  240.15    5.57
   3   3   2  238.33    2.71
   3  -3   2  243.81    4.30
  -3   3  -2  244.73    4.17
  -3   3   3  827.70   10.54
   3  -3  -3  826.64   10.58
  -3   3  -3  804.44    8.40
   3  -3   3  806.46    8.65
   3   3   4   57.30    3.20
   3  -3  -4   60.70    3.25
  -3   3   4   59.88    3.20
  -3   3   4   53.31    1.55
   3  -3   4   59.48    2.92
  -3   3  -4   57.12    2.66
   3  -3  -4   56.94    1.71
  -3   3   5  303.89    6.96
  -3   3   5  281.50    4.17
  -3   3  -5  302.53    6.30
   3  -3   5  294.47    6.35
   3   3   5  298.65    6.96
   3  -3  -5  292.49    4.42
   3   3   6   14.24    2.08
  -3   3   6   13.04    2.01
   3  -3   6   14.94    2.10
  -3   3   6    7.27    1.08
  -3   3  -6   13.99    1.85
   3  -3  -6   13.68    1.34
  -3   3   7    2.78    1.47
  -3   3   7   -0.57    1.23
   3  -3   7    3.22    1.60
  -3   3  -7    3.56    1.47
   3   3   7    3.85    1.66
   3  -3  -7    4.04    1.11
  -3  -3  -8  158.19    5.87
  -3   3   8  154.98    5.84
   3   3  -8  143.11    5.36
  -3   3   8  147.68    4.45
   3  -3   8  141.41    5.52
   3   3   8  149.51    5.77
  -3   3  -8  161.32    5.65
   3  -3  -8  146.90    4.51
  -3  -3  -9  259.80    7.67
   3   3  -9  253.02    7.47
  -3   3   9  250.93    6.20
   3  -3   9  249.06    7.59
  -3   3  -9  262.86    7.52
   3  -3  -9  254.78    6.27
   3   3   9  255.79    7.69
  -3  -3 -10  133.31    5.81
   3   3 -10  131.79    5.61
  -3   3  10  127.99    4.78
   3  -3  10  125.24    5.65
   3  -3 -10  126.90    4.75
  -3   3 -10  132.43    5.68
   3   3  10  128.80    5.72
   3  -3  11  155.47    6.50
   3   3 -11  157.64    6.39
  -3   3  11  154.82    5.51
  -3   3 -11  155.87    6.37
   3  -3 -11  154.12    5.58
   3   3  11  154.26    6.47
  -3  -3 -11  163.43    6.65
  -3   3  12  292.46    8.08
   3  -3  12  276.97    9.12
   3   3 -12  297.94    9.19
  -3   3 -12  296.14    9.14
   3   3  12  289.53    9.15
  -3  -3 -12  308.79    9.53
   3  -3 -12  288.86    8.12
   3   3 -13  138.94    6.59
  -3   3  13  134.13    5.84
   3  -3  13  124.22    6.42
   3   3  13  132.26    6.56
  -3  -3 -13  136.74    6.58
   3  -3 -13  129.68    5.74
  -3   3  14   74.85    4.75
   3  -3  14   67.24    5.03
   3   3  14   78.43    5.42
   3  -3 -14   80.68    5.00
  -3   3  15   61.88    4.54
   3  -3  15   59.73    5.15
   3   3  15   65.57    5.20
   3  -3 -15   68.26    4.63
   3   3  16   43.25    4.54
   3  -3  16   46.08    4.83
  -3   3  16   42.23    4.01
  -3   3  17   35.33    3.91
   3   3  17   32.18    4.21
   3  -3  17   33.58    4.39
  -3   3  18    4.44    2.60
   3  -3  18    9.45    3.24
   3   3  18   10.54    3.36
   3   3  19  132.45    8.31
   3  -3  19  130.53    8.37
   3  -3  20  162.43    9.44
   3   3  20  160.42    9.35
   3   3  21   22.36    4.75
   3  -3  21   17.87    4.31
   3   3  22   92.47    8.02
   3  -4   0   -0.55    1.57
  -3  -4   0    4.46    0.75
  -3   4   0    2.13    0.72
  -3   4   1   14.38    2.00
   3  -4   1   17.08    2.04
  -3   4  -1   13.94    1.20
  -3  -4  -1   12.60    0.77
   3  -4  -1   15.43    1.98
  -3   4   2  329.20    7.28
   3   4   2  317.60    3.78
  -3   4  -2  324.77    5.09
   3  -4   2  328.53    5.01
   3  -4  -2  313.44    6.82
  -3   4   3   62.61    3.57
   3  -4  -3   62.03    3.47
   3   4   3   53.93    2.01
   3  -4   3   54.04    2.53
  -3   4  -3   53.82    2.51
   3  -4  -4  643.76   10.39
  -3   4   4  639.79   10.30
  -3   4  -4  631.46    8.54
  -3   4   4  654.24    5.13
   3  -4   4  632.65    8.67
   3   4   5  782.48   11.70
  -3   4   5  789.36   11.76
  -3   4   5  785.88    6.84
  -3   4  -5  785.90   10.27
   3  -4   5  794.11   10.53
   3  -4  -5  770.27    7.11
  -3   4   6  192.12    6.17
   3  -4   6  179.57    5.53
  -3   4  -6  176.52    5.40
  -3   4   6  173.42    3.74
   3   4   6  186.93    6.11
   3  -4  -6  176.53    3.94
   3   4   7    2.49    1.66
  -3   4   7    4.71    1.72
   3  -4   7   -1.19    1.70
  -3   4   7    3.10    1.13
  -3   4  -7    2.93    1.42
   3  -4  -7    3.44    1.09
  -3   4   8   23.73    2.83
   3  -4   8   14.81    2.12
  -3   4   8   19.41    1.87
   3   4  -8   22.76    2.78
   3   4   8   21.24    2.67
   3  -4  -8   18.89    1.90
  -3   4  -8   22.24    2.40
  -3   4   9   32.51    3.18
  -3   4   9   29.89    2.41
  -3   4  -9   33.47    2.89
   3   4  -9   30.93    3.06
   3  -4  -9   29.53    2.39
   3   4   9   30.31    3.08
  -3  -4 -10   12.33    2.18
  -3   4  10   13.38    2.30
  -3   4  10   11.59    1.85
   3   4 -10   10.76    2.15
   3  -4  10    8.71    2.15
   3  -4 -10    9.43    1.62
   3   4  10   11.53    2.25
  -3   4 -10   11.72    2.15
  -3  -4 -11   34.39    3.25
  -3   4  11   38.42    3.66
   3   4 -11   32.55    3.02
  -3   4  11   34.50    2.80
   3  -4  11   30.38    3.10
   3  -4 -11   36.41    2.95
  -3   4 -11   34.58    3.38
   3   4  11   33.43    3.32
  -3  -4 -12  366.05   10.52
   3  -4  12  337.66   10.10
  -3   4  12  347.06    8.63
   3   4 -12  361.04   10.39
   3   4  12  356.64   10.24
  -3   4 -12  362.95   10.24
   3  -4 -12  338.03    8.62
   3  -4  13  235.81    8.87
  -3   4  13  236.38    7.59
   3  -4 -13  232.37    7.53
   3   4  13  229.81    8.52
   3  -4  14  182.31    8.23
  -3   4  14  183.18    7.04
   3   4  14  187.04    8.09
   3  -4 -14  183.89    7.20
   3  -4  15   50.92    4.83
   3   4  15   52.22    4.93
  -3   4  15   55.06    4.28
   3  -4 -15   57.76    4.40
   3  -4  16   22.02    3.90
  -3   4  16   19.64    3.25
   3   4  16   21.05    3.67
   3   4  17    9.03    2.82
   3  -4  17   11.97    3.12
  -3   4  17   15.74    3.26
   3  -4  18    1.24    2.55
  -3   4  18    4.20    2.52
   3   4  18    1.18    2.44
  -3   4  19   19.40    3.43
   3  -4  19   21.59    4.14
   3   4  19   21.95    4.03
   3   4  20  107.36    7.74
  -3   4  20   96.15    6.78
   3  -4  20  107.21    7.82
   3   4  21   29.35    4.80
   3   4  22   38.37    5.50
   3  -5   0    0.08    1.62
  -3  -5   0    1.44    0.79
  -3   5   0    0.41    0.70
  -3   5   1   17.88    2.21
   3  -5   1   18.52    2.26
  -3   5  -1   15.36    1.31
   3  -5  -1   16.33    2.11
  -3  -5  -1   16.30    1.08
  -3   5   2  228.72    6.73
   3   5   2  234.18    3.92
   3  -5  -2  224.29    6.40
  -3   5  -2  225.20    4.57
   3   5   3   89.49    2.65
  -3   5   3   97.68    4.38
   3  -5  -3   99.69    4.31
  -3   5  -3  103.44    3.44
  -3   5   3  100.86    1.88
  -3   5   4 1397.04   16.03
   3   5   4 1346.09   10.99
   3  -5  -4 1382.49   16.02
  -3   5  -4 1419.06   13.36
  -3   5   4 1375.78    7.75
  -3   5   5    5.68    1.70
   3  -5  -5    5.24    1.68
   3   5   5    3.82    1.19
   3  -5   5    3.83    1.40
  -3   5  -5    3.51    1.33
  -3   5   5    6.95    1.04
   3   5   6   67.45    4.01
  -3   5   6   71.67    4.20
   3  -5   6   63.94    3.50
  -3   5  -6   63.14    3.53
  -3   5   6   53.73    2.08
   3  -5  -7    4.31    1.09
   3   5   7    5.93    1.90
  -3   5   7    6.19    1.84
   3  -5   7    6.07    2.03
  -3   5   7    5.35    0.99
  -3   5  -7    3.91    1.41
  -3   5   8  115.67    5.53
  -3   5   8  106.67    3.67
   3  -5   8  110.85    5.04
  -3   5  -8  111.81    4.97
   3  -5  -8  107.08    3.90
   3   5   8  114.19    5.39
  -3   5   9  150.73    6.49
  -3   5   9  137.85    4.53
   3   5  -9  147.07    6.04
   3  -5   9  146.94    5.95
  -3   5  -9  145.47    5.84
   3   5   9  140.65    6.02
   3  -5  -9  137.55    4.68
   3  -5 -10   17.19    1.98
  -3   5  10   19.53    2.64
   3  -5  10   18.78    2.62
   3   5 -10   19.39    3.10
  -3   5  10   18.11    2.09
   3   5  10   18.50    2.72
  -3   5 -10   20.25    2.65
  -3   5  11   55.86    4.37
  -3   5 -11   58.04    4.16
   3   5 -11   49.65    3.73
  -3   5  11   52.80    3.37
   3  -5  11   52.37    4.07
   3  -5 -11   49.95    3.25
   3   5  11   53.79    4.10
   3  -5  12  748.26   14.97
  -3   5  12  796.54   12.88
   3  -5 -12  765.52   12.89
   3   5  12  780.03   15.26
  -3   5  13   53.53    3.78
   3  -5  13   52.57    4.57
   3  -5 -13   50.00    3.65
   3   5  13   50.20    4.36
   3  -5 -14   26.86    3.05
  -3   5  14   25.48    2.97
   3  -5  14   22.65    3.59
   3   5  14   25.83    3.48
   3  -5 -15    3.29    1.86
   3  -5  15    8.97    3.13
  -3   5  15   -0.25    2.02
   3   5  15    3.60    2.51
   3  -5 -16   10.51    2.71
   3  -5  16   11.68    3.32
  -3   5  16   10.54    2.43
   3   5  16   12.09    3.16
   3   5  17   50.61    5.09
  -3   5  17   52.86    4.79
   3  -5  17   52.85    5.23
  -3   5  18   99.59    6.26
   3   5  18   99.79    7.11
   3   5  19   16.69    3.48
  -3   5  19   19.49    3.43
  -3   5  20  133.38    7.67
   3   5  20  148.98    9.13
   3   5  21    9.55    3.56
  -3   5  21    3.26    2.98
   3   5  22   67.30    7.06
  -3  -6   0    0.71    0.87
   3  -6   0    0.96    1.59
   3  -6   1   19.67    2.65
  -3  -6  -1   16.24    1.45
  -3   6   1   15.60    2.32
  -3   6  -1   17.51    1.46
   3  -6  -1   14.48    2.25
  -3   6   2   46.41    3.48
  -3   6  -2   40.95    2.15
   3  -6  -2   47.86    3.43
  -3  -6  -2   46.81    2.05
  -3   6   3    7.02    1.76
   3   6   3    9.82    1.26
   3  -6  -3    8.94    1.89
  -3   6  -3    9.96    1.50
  -3   6   4 1182.27   15.95
   3   6   4 1086.27   10.82
   3  -6  -4 1143.31   15.16
  -3   6  -4 1174.11   12.68
  -3   6   4 1150.62    8.05
   3  -6  -5    4.42    1.68
   3   6   5    6.36    1.32
  -3   6   5    6.47    1.86
  -3   6  -5    7.42    1.53
  -3   6   5    5.68    0.97
   3   6   6   83.19    4.55
   3   6   6   80.90    3.58
  -3   6   6   84.08    4.67
  -3   6  -6   80.96    3.98
  -3   6   6   80.98    2.75
  -3   6   7   52.67    3.86
   3   6   7   49.16    2.99
  -3   6  -7   50.16    3.36
  -3   6   7   50.70    2.36
   3   6   7   47.96    3.60
   3   6   8   31.24    3.06
   3   6   8   31.22    2.59
  -3   6   8   37.03    3.39
  -3   6   8   35.70    2.23
  -3   6  -8   31.63    2.78
  -3   6   9    5.88    2.10
   3   6  -9    3.47    1.83
  -3   6   9    9.35    1.77
  -3   6  -9    3.98    1.66
   3   6   9    4.92    1.83
   3  -6 -10    4.71    1.34
  -3   6  10    6.15    1.96
   3   6 -10   10.06    2.66
  -3   6  10    6.05    1.51
  -3   6 -10    7.74    2.22
   3   6  10    5.43    1.94
   3  -6 -11    9.98    1.81
  -3   6  11    8.66    2.25
  -3   6  11    8.62    1.69
   3   6 -11    8.94    2.25
  -3   6 -11   10.73    2.43
   3   6  11    7.65    2.12
   3  -6 -12  511.17   10.46
  -3   6  12  531.42   10.48
   3   6  12  532.10   12.88
   3  -6 -13   16.41    2.46
  -3   6  13   13.61    2.20
   3   6  13   13.98    2.85
  -3   6  14   87.26    4.97
   3  -6 -14   82.68    5.03
   3   6  14   83.11    5.82
  -3   6  15   47.72    3.99
   3  -6 -15   49.43    4.13
   3   6  15   48.42    4.60
   3   6  16  104.13    6.85
  -3   6  16   92.87    5.49
   3  -6 -16   98.20    5.95
  -3   6  17  120.50    6.81
   3   6  17  107.35    7.06
  -3   6  18   10.13    3.00
   3   6  18    8.13    3.18
  -3   6  19   42.52    4.69
   3   6  19   42.35    5.22
   3   6  20  193.59   10.16
  -3   6  20  193.70    9.10
  -3   6  21   10.70    3.26
   3   6  21    9.58    3.28
  -3   6  22   68.56    6.20
   3   6  22   68.26    7.04
  -3  -7   0    1.60    1.01
   3  -7   0    1.58    1.65
   3  -7   1    3.79    1.77
  -3   7  -1   15.96    1.98
   3  -7  -1    4.31    1.76
  -3  -7  -1    5.13    1.11
  -3   7   2  102.57    5.16
   3  -7   2  107.01    5.20
   3  -7  -2  100.41    5.01
  -3   7  -2  101.38    3.56
  -3  -7  -2  107.15    3.34
   3   7   3   72.10    2.97
  -3   7   3   71.80    4.24
  -3  -7  -3   70.88    2.74
   3  -7  -3   69.59    4.01
  -3   7  -3   69.43    3.10
   3   7   4 1733.97   14.85
  -3   7   4 1745.63   20.58
   3  -7  -4 1705.07   19.62
  -3   7  -4 1775.02   16.20
  -3   7   4 1732.62   11.16
   3   7   5   35.98    2.47
  -3   7   5   37.92    3.36
   3  -7  -5   36.88    3.24
  -3   7  -5   40.51    2.87
  -3   7   5   36.00    1.82
  -3   7   6  222.01    7.65
   3  -7  -6  221.41    7.58
   3   7   6  197.96    5.61
  -3   7  -6  217.00    6.66
  -3   7   6  211.99    4.53
   3   7   7    3.56    1.76
   3   7   7    4.69    1.45
  -3   7   7    3.23    1.79
  -3   7  -7    1.74    1.40
  -3   7   7    1.35    1.04
   3   7   8    5.33    2.09
  -3   7   8    4.61    1.93
   3   7   8    5.74    1.52
  -3   7  -8    4.43    1.63
  -3   7   8    6.08    1.27
   3   7   9   13.56    2.50
   3   7   9   11.93    1.98
  -3   7   9   13.56    2.43
  -3   7  -9   13.65    2.26
  -3   7   9   11.22    1.55
   3   7  10    4.87    1.84
  -3   7  10    3.66    2.11
  -3   7  10   10.99    2.03
   3   7 -10    4.18    2.01
  -3   7 -10    2.11    1.54
   3   7  10    3.52    2.08
   3   7  11   58.66    4.10
  -3   7  11   55.02    3.36
   3   7  11   53.93    4.38
   3   7  12  788.07   15.17
  -3   7  12  805.56   12.97
   3   7  12  776.13   15.77
   3   7  13   -0.62    2.01
  -3   7  13    2.94    1.92
   3   7  13    1.31    2.20
  -3   7  14   64.85    4.40
   3   7  14   62.22    5.23
   3  -7 -15   40.63    3.78
  -3   7  15   41.65    3.79
   3   7  15   40.94    4.37
   3  -7 -16   17.60    2.85
  -3   7  16   15.12    2.63
   3   7  16   17.19    3.54
  -3   7  17   21.29    3.07
   3   7  17   25.45    4.09
  -3   7  18   30.50    3.70
   3   7  18   33.36    4.39
  -3   7  19   19.00    3.43
   3   7  19   15.08    4.16
   3   7  20  155.83    9.42
  -3   7  20  150.32    8.19
   3   7  21    3.53    3.06
  -3   7  21   13.10    3.78
  -3   7  22   44.95    5.38
  -3  -8   0    1.04    1.12
   3  -8   0   -0.34    1.87
  -3  -8   1   15.75    1.82
   3  -8   1   17.09    2.67
  -3  -8  -1   18.30    1.78
   3  -8  -1   18.31    2.62
  -3   8   2    3.58    1.89
   3  -8   2    3.02    2.09
  -3   8  -2    4.02    1.21
   3  -8  -2    4.84    1.88
  -3  -8  -2    3.04    1.08
  -3   8   3   30.04    3.17
   3   8   3   30.33    2.20
  -3   8  -3   28.39    2.26
   3  -8  -3   26.21    2.85
  -3  -8  -3   29.20    2.12
   3   8   4  370.94    7.42
  -3   8   4  379.75   10.20
  -3   8  -4  395.52    8.09
   3  -8  -4  382.72    9.87
  -3   8   5   12.59    1.38
  -3   8   5   11.51    2.36
   3   8   5   13.04    1.89
   3  -8  -5   10.69    2.10
  -3   8  -5   13.34    1.99
  -3   8   6  192.73    7.53
   3   8   6  172.43    5.54
   3  -8  -6  186.45    7.24
  -3   8  -6  187.87    6.24
  -3   8   6  182.24    4.36
   3   8   7   22.28    2.87
   3   8   7   20.68    2.19
  -3   8   7   20.95    2.91
  -3   8  -7   23.05    2.48
  -3   8   7   24.73    1.94
   3   8   8  129.77    5.32
  -3   8   8  145.97    7.00
  -3   8  -8  152.19    6.28
  -3   8   8  129.80    4.14
   3   8   8  130.27    6.20
   3   8   9  188.69    6.65
  -3   8   9  199.08    8.09
  -3   8  -9  203.94    7.40
  -3   8   9  195.93    5.35
   3   8   9  199.92    7.65
   3   8  10    3.72    1.69
  -3   8 -10    4.71    2.03
  -3   8  10    2.59    1.37
   3   8  10   -0.48    1.92
   3   8  11   42.97    3.77
  -3   8  11   52.58    3.58
   3   8  11   44.21    4.16
   3   8  12  129.60    6.46
  -3   8  12  126.66    5.29
   3   8  12  124.61    6.71
   3   8  13   31.22    3.59
  -3   8  13   32.48    3.07
   3   8  13   32.76    3.90
  -3   8  14    2.53    1.89
   3   8  14    4.09    2.56
  -3   8  15   38.68    3.58
   3   8  15   38.71    4.58
  -3   8  16   66.02    4.85
   3   8  16   57.44    5.34
  -3   8  17    1.23    2.07
   3   8  17    1.99    2.51
  -3   8  18    5.58    2.60
   3   8  18    7.75    3.04
  -3   8  19   36.03    4.11
   3   8  19   39.77    5.11
  -3   8  20   69.23    5.75
   3   8  20   69.03    6.63
   3   8  21    4.00    3.42
  -3   8  21    7.80    2.99
   3  -9   0   -2.37    2.18
  -3  -9   0   -0.79    1.36
  -3  -9   1  350.44    7.58
   3  -9  -1  334.96    9.55
  -3  -9  -1  377.50    7.42
   3  -9   1  346.71    9.96
   3  -9  -2  305.57    9.18
   3  -9   2  320.95    9.57
  -3   9  -2  326.87    6.83
  -3  -9  -2  339.71    6.93
   3  -9   3   49.37    3.97
  -3   9   3   47.67    3.93
  -3   9  -3   54.06    3.17
   3  -9  -3   44.17    3.67
  -3  -9  -3   50.47    2.81
  -3   9   4  392.35   11.00
   3   9   4  406.86    8.31
   3  -9  -4  395.82   10.59
  -3   9  -4  411.56    8.64
   3   9   5   91.82    4.23
  -3   9   5   89.59    5.42
   3  -9  -5   90.90    5.26
  -3   9  -5   97.80    4.49
  -3   9   5   96.97    3.33
   3   9   6  259.72    7.27
  -3   9   6  272.76    9.43
   3  -9  -6  267.01    9.07
  -3   9  -6  279.47    7.89
  -3   9   6  262.98    5.58
   3   9   7   88.06    4.39
   3   9   7   88.24    5.11
  -3   9   7   91.71    5.69
   3  -9  -7   89.74    5.36
  -3   9  -7   97.67    4.95
  -3   9   7   93.60    3.63
   3   9   8    4.58    2.16
  -3   9   8    3.73    2.13
   3   9   8    3.16    1.78
  -3   9  -8    4.84    1.89
  -3   9   8    5.24    1.31
   3   9   9   26.17    3.46
   3   9   9   23.51    2.66
  -3   9  -9   29.71    3.28
  -3   9   9   19.32    1.82
   3   9  10  121.41    5.69
  -3   9  10  124.65    4.61
   3   9  10  123.35    6.50
   3   9  11  144.87    6.55
  -3   9  11  154.33    5.52
   3   9  11  147.38    7.14
   3   9  12  200.47    8.09
  -3   9  12  216.92    6.95
   3   9  12  200.64    8.55
  -3   9  13   46.65    3.44
   3   9  13   48.97    4.63
  -3   9  14   17.39    2.55
   3   9  14   23.30    3.72
  -3   9  15    2.36    2.00
   3   9  15   -0.07    2.60
  -3   9  16    5.81    2.57
   3   9  16    7.41    2.94
  -3   9  17   28.60    3.73
   3   9  17   19.80    3.73
  -3   9  18   12.87    2.85
   3   9  18   19.07    3.86
  -3   9  19  123.11    7.09
   3   9  19  130.25    8.56
   3   9  20   67.56    6.63
   3   9  21    7.15    3.84
   3 -10   0   -1.04    1.87
  -3 -10   0   -1.37    1.31
   3 -10   1   14.50    2.57
  -3 -10   1   14.25    2.08
   3 -10  -1   15.26    2.83
  -3 -10  -1   18.12    2.09
   3 -10   2  111.47    6.17
  -3 -10   2  106.06    4.77
  -3 -10  -2  120.05    4.44
   3 -10  -2  115.10    5.97
   3 -10   3  134.08    6.77
  -3  10   3  119.32    6.22
  -3 -10  -3  131.94    4.73
   3 -10  -3  114.33    5.88
  -3  10   4  163.36    7.39
  -3  10  -4  164.54    5.76
  -3 -10  -4  170.23    5.44
   3 -10  -4  163.64    7.18
  -3  10   5   34.23    2.18
  -3  10   5   33.22    3.59
   3  10   5   36.80    3.00
   3 -10  -5   29.35    3.25
  -3  10  -5   34.61    2.97
  -3  10   6  202.47    8.50
   3  10   6  208.74    6.78
   3 -10  -6  213.76    8.36
  -3  10  -6  219.29    7.19
  -3  10   6  200.62    5.19
   3 -10  -7    2.11    1.99
  -3  10   7    2.01    2.08
   3  10   7    2.12    1.62
  -3  10  -7    3.42    1.74
  -3  10   7    2.00    1.24
   3  10   8    1.55    1.86
   3  10   8    1.02    1.62
  -3  10  -8    3.68    1.82
  -3  10   8    6.74    1.82
   3  10   9    8.03    2.16
   3  10   9    5.75    2.32
  -3  10   9    4.46    1.24
   3  10  10  142.21    6.53
   3  10  10  146.87    7.12
  -3  10  10  151.10    5.18
   3  10  11   34.93    3.52
  -3  10  11   35.40    2.75
   3  10  11   36.55    4.02
   3  10  12  151.77    7.40
  -3  10  12  171.00    6.13
   3  10  12  163.40    7.94
  -3  10  13   70.57    4.53
   3  10  13   53.64    4.87
  -3  10  14   29.50    3.09
   3  10  14   29.97    3.94
  -3  10  15    9.97    2.31
   3  10  15    7.90    2.98
  -3  10  16    3.76    2.15
   3  10  16    9.25    3.22
  -3  10  17   12.97    2.71
   3  10  17   13.11    3.44
  -3  10  18   19.54    3.45
   3  10  18   16.97    3.75
   3  10  19   22.86    4.29
   3  10  20    6.07    3.63
   3  10  21    4.24    3.64
   3 -11   0   -0.01    1.91
  -3 -11   0    0.76    1.39
  -3 -11   1    8.51    1.82
   3 -11   1    5.65    2.04
   3 -11  -1   10.30    2.56
  -3 -11  -1    7.71    1.76
   3 -11   2  263.85    9.57
  -3 -11   2  269.87    7.91
   3 -11  -2  252.51    9.08
  -3 -11  -2  291.14    7.35
   3 -11   3   34.79    3.95
  -3  11  -3   35.65    2.82
   3 -11  -3   33.93    3.64
  -3 -11  -3   38.96    2.94
  -3  11   4    5.99    2.23
   3 -11   4    7.00    2.40
  -3  11  -4    8.50    2.05
  -3 -11  -4    4.68    1.60
   3 -11  -4    6.54    2.36
   3  11   5   10.46    1.89
  -3  11   5    9.26    1.48
  -3  11   5    9.77    2.47
   3 -11  -5    8.19    2.14
  -3  11  -5    8.07    1.96
   3  11   6  150.24    6.04
   3 -11  -6  143.49    7.16
  -3  11  -6  153.83    6.31
  -3  11   6  144.71    4.74
   3  11   7    1.03    1.64
   3 -11  -7    2.91    2.19
  -3  11  -7    2.10    1.69
  -3  11   7    0.45    1.22
   3  11   8    9.11    2.60
   3  11   8    9.33    2.14
  -3  11  -8    9.34    2.43
  -3  11   8   10.51    1.94
   3  11   9   11.70    2.50
   3  11   9   11.31    2.77
  -3  11   9   13.82    2.05
   3  11  10  270.29    9.08
  -3  11  10  279.68    7.14
   3  11  10  282.11   10.06
   3  11  11  118.75    6.51
  -3  11  11  126.91    5.11
   3  11  11  123.69    6.94
  -3  11  12   31.09    2.94
   3  11  12   31.92    4.07
   3  11  13   17.07    3.41
  -3  11  13   22.53    3.03
  -3  11  14  140.34    6.18
   3  11  14  124.83    7.44
  -3  11  15   -0.03    2.09
   3  11  15    4.85    2.93
  -3  11  16   27.04    3.43
   3  11  16   24.30    4.09
   3  11  17   20.41    4.22
   3  11  18  124.37    8.09
   3  11  19   44.97    5.42
   3  11  20   53.22    5.79
   3 -12   0    2.66    2.14
  -3 -12   0   -0.21    1.50
   3 -12   1    1.20    2.15
  -3 -12   1    0.97    1.53
   3 -12  -1    3.76    2.34
  -3 -12  -1   -0.85    1.73
  -3 -12   2  188.23    7.03
   3 -12   2  188.18    8.58
   3 -12  -2  180.58    8.09
  -3 -12  -2  208.81    6.69
   3 -12   3   61.62    5.20
  -3 -12   3   59.98    4.16
  -3  12  -3   67.46    3.94
  -3 -12  -3   66.05    3.87
   3 -12  -3   64.17    4.99
   3 -12   4   55.33    5.22
  -3  12  -4   45.47    3.67
  -3 -12  -4   45.41    3.34
   3 -12  -4   46.94    4.68
   3 -12   5    9.54    3.04
   3 -12  -5    3.61    2.15
  -3  12  -5    7.06    2.03
   3  12   6   70.77    4.45
   3 -12  -6   68.89    5.42
  -3  12  -6   68.89    4.58
  -3  12   6   69.69    3.55
  -3  12   7   19.71    2.20
   3  12   7   22.05    3.12
   3 -12  -7   19.84    3.49
  -3  12  -7   26.28    3.35
   3  12   8   21.04    3.16
   3  12   8   21.75    3.04
  -3  12   8   23.83    2.35
   3  12   9   31.97    3.52
   3  12   9   32.89    3.86
  -3  12   9   37.93    3.04
   3  12  10  304.52   10.17
  -3  12  10  309.59    7.75
   3  12  10  310.49   10.87
   3  12  11   10.19    2.84
   3  12  11    7.29    2.77
  -3  12  11    7.01    1.63
  -3  12  12   33.60    2.92
   3  12  12   38.04    4.42
  -3  12  13    3.63    1.88
   3  12  13    5.92    2.90
  -3  12  14   54.27    4.24
   3  12  14   42.00    4.69
  -3  12  15    6.49    1.94
   3  12  15    6.65    3.11
   3  12  16   12.27    3.60
   3  12  17   11.06    3.51
   3  12  18   48.10    5.29
   3  12  19    3.79    3.12
   3  12  20    1.75    3.16
   3 -13   0   -1.83    2.57
  -3 -13   0    2.09    1.75
  -3 -13   1   79.03    4.89
   3 -13  -1   67.45    5.47
   3 -13   1   76.10    6.03
  -3 -13  -1   73.93    4.29
  -3 -13   2  381.39   10.57
   3 -13   2  380.01   12.65
   3 -13  -2  349.56   11.49
  -3 -13  -2  402.84    9.79
   3 -13   3    5.33    2.30
  -3 -13   3    6.80    2.08
  -3  13  -3   11.50    2.32
  -3 -13  -3    8.92    1.99
   3 -13  -3    5.95    2.15
  -3 -13   4   30.05    3.55
   3 -13   4   28.29    4.29
  -3  13  -4   31.00    3.30
   3 -13  -4   26.48    3.90
  -3 -13  -4   28.06    3.01
   3 -13   5   12.12    3.36
   3 -13  -5    9.78    2.59
  -3  13  -5   12.04    2.46
   3 -13  -6  268.31   10.53
  -3  13  -6  286.88    9.31
  -3  13   6  277.53    7.21
   3 -13  -7    4.59    2.46
   3  13   7   11.87    2.38
  -3  13   7    7.83    1.77
   3  13   8   49.59    4.30
   3  13   8   45.26    4.47
  -3  13   8   48.48    3.29
   3  13   9   64.65    4.99
   3  13   9   57.79    5.17
  -3  13   9   70.42    4.07
   3  13  10   58.84    5.07
  -3  13  10   64.29    3.83
   3  13  10   66.91    5.64
   3  13  11    3.24    2.36
  -3  13  11   -7.27    2.46
  -3  13  12    9.47    2.11
   3  13  12   10.37    2.88
  -3  13  13    1.23    1.61
   3  13  13   -0.74    2.46
   3  13  14   95.57    6.98
   3  13  15    2.36    2.67
   3  13  16   41.27    5.38
   3  13  17   14.28    4.22
   3  13  18   32.15    4.77
   3  13  19    2.49    3.27
  -3 -14   0    2.05    2.09
   3 -14   0    3.59    2.28
   3 -14   1   10.73    3.02
  -3 -14   1   12.59    2.48
   3 -14  -1   11.56    3.09
  -3 -14  -1   10.98    2.21
  -3 -14   2   93.79    5.61
   3 -14   2   82.90    6.49
   3 -14  -2   79.93    5.85
  -3 -14  -2   97.24    5.19
   3 -14   3   26.56    4.02
  -3 -14   3   24.48    3.13
  -3  14  -3   30.83    3.15
   3 -14  -3   21.74    3.40
  -3 -14  -3   30.54    3.18
   3 -14   4   40.36    4.98
  -3 -14   4   42.60    4.22
  -3  14  -4   56.34    4.45
   3 -14  -4   43.69    5.08
  -3 -14  -4   45.07    3.81
   3 -14  -5    1.19    2.42
  -3 -14   5    5.79    2.47
   3 -14   5    7.65    3.20
   3 -14  -6   39.80    4.83
   3 -14   6   50.16    5.47
  -3  14   6   42.29    3.26
   3 -14  -7    3.12    2.79
  -3  14   7    2.06    1.54
   3  14   8   14.41    2.86
   3  14   8   12.99    2.78
  -3  14   8   17.97    2.38
   3  14   9   20.64    3.59
  -3  14   9   21.39    2.76
   3  14  10   65.55    5.60
  -3  14  10   67.82    4.12
   3  14  11    5.84    2.59
   3  14  12   18.47    3.66
   3  14  13    2.82    2.66
   3  14  14  125.24    8.06
   3  14  15    6.17    2.71
   3  14  16    7.75    3.27
   3  14  17    8.10    3.82
   3  14  18   24.50    4.54
   3 -15   0   -1.05    2.57
  -3 -15   0   -3.68    2.32
  -3 -15   1   88.45    5.56
   3 -15   1   77.42    6.37
  -3 -15  -1   88.55    5.24
   3 -15  -1   73.58    6.07
  -3 -15   2   81.19    5.44
   3 -15   2   75.31    6.61
  -3  15  -2   79.32    4.63
   3 -15  -2   73.05    5.82
  -3 -15  -2   86.33    5.28
   3 -15   3   41.91    4.84
  -3 -15   3   49.31    4.68
  -3  15  -3   41.02    3.68
   3 -15  -3   39.33    4.53
  -3 -15  -3   48.52    4.00
   3 -15  -4   51.15    5.30
  -3 -15  -4   45.45    3.83
  -3 -15   4   44.36    4.34
   3 -15   4   42.79    5.10
   3 -15  -5   25.38    3.91
   3 -15   5   31.50    4.91
  -3 -15   5   29.92    3.89
   3 -15  -6   25.94    4.14
  -3  15   6   27.38    2.80
  -3 -15   6   27.52    3.89
   3 -15   6   29.09    4.93
   3 -15  -7   20.60    3.94
  -3  15   7   19.96    2.57
   3 -15   7   25.36    4.94
   3  15   8   18.00    3.16
  -3  15   8   22.51    2.65
   3  15   9   27.88    4.03
   3  15  10   74.01    6.29
   3  15  11   50.28    5.06
   3  15  12   47.09    5.21
   3  15  13    6.77    3.04
   3  15  14   52.70    5.68
   3  15  15    0.10    2.97
   3  15  16    2.31    2.97
   3  15  17   26.53    4.92
  -3 -16   0   -2.97    2.25
   3 -16   0    3.42    2.92
  -3 -16  -1   25.40    3.41
  -3 -16   1   29.66    3.85
   3 -16   1   29.18    4.45
   3 -16  -1   23.26    3.81
  -3 -16  -2   77.53    5.17
   3 -16  -2   68.44    6.14
  -3 -16   2   73.10    5.38
   3 -16   2   67.50    6.38
  -3 -16  -3   22.97    2.99
   3 -16   3   21.30    4.06
  -3 -16   3   24.08    3.51
   3 -16  -3   17.90    3.43
   3 -16  -4  139.62    8.56
  -3 -16  -4  151.47    6.97
  -3 -16   4  153.77    8.25
   3 -16   4  135.06    8.90
   3 -16  -5   -0.15    2.72
  -3 -16   5    2.73    2.39
   3 -16   5   -1.24    3.13
   3 -16  -6   31.82    4.81
   3 -16   6   37.56    5.67
  -3 -16   6   28.65    3.92
   3 -16  -7    0.60    2.78
  -3 -16   7    5.55    3.04
   3 -16   7    4.22    3.72
   3  16   8    6.77    2.60
   3 -16   8   19.01    4.58
   3  16   9   80.75    6.54
   3 -16   9   95.48    8.25
   3  16  10    5.75    3.38
   3  16  11   -5.86    3.21
   3  16  12   19.26    3.82
   3  16  13   10.60    3.81
   3  16  14   48.18    5.78
   3  16  15    0.98    2.86
  -3 -17   0   -2.80    2.33
   3 -17   0   -3.00    3.02
   3 -17  -1   31.27    4.71
   3 -17   1   29.65    4.52
  -3 -17  -1   32.76    4.09
  -3 -17   1   35.16    4.19
  -3 -17  -2    6.62    2.44
   3 -17   2    5.00    3.23
   3 -17  -2    7.23    3.05
  -3 -17   2   10.95    3.05
  -3 -17  -3    6.61    2.28
  -3 -17   3    7.72    2.63
   3 -17   3    3.09    3.65
   3 -17  -3   10.02    3.74
   3 -17  -4  134.87    8.58
  -3 -17  -4  144.19    7.07
  -3 -17   4  137.35    7.93
   3 -17   4  135.81    9.11
   3 -17  -5    2.94    2.78
   3 -17   5    2.43    3.32
  -3 -17   5    7.46    2.72
   3 -17  -6   21.91    4.14
  -3 -17   6   22.26    4.19
   3 -17   6   20.92    4.69
   3 -17  -7   12.88    3.96
   3 -17   7   16.64    4.81
  -3 -17   7   15.70    3.94
   3  17   8   -3.19    2.97
   3 -17   8    5.20    4.03
  -3 -17   8    2.80    2.97
   3 -17   9   24.45    5.41
   3  17   9   15.15    3.83
   3  17  10    3.66    3.28
   3 -17  10    0.73    3.47
   3  17  11    2.79    3.08
   3  17  12   51.38    5.42
   3  17  13    1.71    3.01
   3  17  14    4.29    3.07
  -3 -18   0    0.38    2.42
   3 -18   0   -5.71    3.65
  -3 -18   1   15.30    3.33
   3 -18  -1   14.03    3.91
  -3 -18  -1   13.74    3.40
   3 -18   1   11.90    3.80
  -3 -18   2   14.04    3.49
   3 -18  -2    7.65    3.67
   3 -18   2   11.27    3.70
   3 -18   3    7.82    3.55
  -3 -18   3    3.21    2.98
   3 -18  -3    5.92    3.54
   3 -18  -4   73.88    6.78
  -3 -18   4   83.30    6.65
   3 -18   4   78.43    7.63
   3 -18  -5   11.53    3.81
   3 -18   5    4.96    3.55
  -3 -18   5    7.89    3.04
   3 -18  -6   21.79    4.52
  -3 -18   6   18.51    3.91
   3 -18   6   17.74    4.36
   3 -18  -7   30.24    5.26
   3 -18   7   22.95    5.02
  -3 -18   7   18.91    3.96
   3 -18   8    1.79    3.96
   3  18   8   -0.58    2.79
  -3 -18   8    2.94    2.89
  -3 -18   9    4.26    3.19
   3  18   9    5.84    3.00
   3 -18   9    8.73    4.44
  -3 -18  10    4.91    3.72
   3  18  10    6.78    3.96
   3  18  11   -1.00    3.72
   3 -19   0   -0.82    3.19
   3 -19   1    9.94    3.49
   3 -19  -1   13.27    3.96
   3 -19  -2    5.26    3.58
   3 -19   2   -0.46    3.33
   3 -19  -3    5.14    3.55
   3 -19   3    4.76    3.23
   3 -19  -4   98.58    8.15
   3 -19   4  108.41    9.31
   3 -19  -5    1.94    3.26
   3 -19   5    7.40    4.24
   3 -19  -6   11.19    4.36
   3 -19   6   -5.03    4.22
   3  19   7   -8.76    3.87
   3  19   8    3.05    2.70
   3  19   9    6.31    2.97
   3 -20   0    0.18    3.38
   3 -20  -1    0.26    3.25
   3 -20   1    4.35    3.37
   3 -20   2    3.26    3.47
   3 -20  -2    9.52    3.93
   3 -20  -3   -3.42    3.94
   3 -20  -4   78.81    7.59
   4   0   0  146.41    3.28
  -4   0   0  136.90    3.32
  -4   0   1    0.08    0.99
   4   0  -1    0.02    1.00
   4   0   1    0.37    0.98
  -4   0   2  285.92    4.97
   4   0   2  299.04    5.60
  -4   0   3    0.08    1.16
   4   0   3   -0.67    1.37
  -4   0   4   33.10    2.22
  -4   0  -4   34.81    2.36
   4   0   4   37.84    2.51
  -4   0  -5    1.87    1.34
   4   0   5   -1.79    1.60
   4   0  -6   52.03    2.62
  -4   0  -6   54.49    3.25
   4   0   6   52.47    3.30
  -4   0  -7   -0.08    1.38
   4   0  -7    1.78    1.35
   4   0   7    1.99    1.65
   4   0  -8  939.77   12.16
  -4   0  -8 1018.40   14.23
   4   0   8  957.53   13.96
  -4   0  -9   -0.56    1.50
   4   0  -9   -1.12    1.36
   4   0   9    0.99    1.70
   4   0 -10   42.70    3.18
   4   0  10   44.27    3.67
  -4   0 -10   44.40    3.58
   4   0 -11    0.38    1.48
   4   0  11    0.13    1.68
  -4   0 -11    0.70    1.59
   4   0  12  115.10    5.92
   4   0 -12  121.95    5.47
  -4   0 -12  117.58    5.99
   4   0  13   -1.12    1.94
   4   0 -13    1.20    1.75
   4   0  14  125.28    6.91
   4   0 -14  130.22    6.36
   4   0  15   -0.13    2.26
   4   0  16  125.60    7.33
   4   0  17   -0.42    2.43
   4   0  18   73.30    6.13
   4   0  19    5.28    3.36
   4   0  20   14.16    3.83
   4   0  21    0.39    3.34
   4   0  22   24.15    4.68
   4   1   0  125.60    2.48
  -4  -1   0  116.69    2.55
  -4   1   0  121.85    3.57
   4  -1   0  125.40    3.60
   4  -1  -1   77.76    2.97
  -4  -1   1   77.81    2.32
   4   1   1   83.62    2.22
  -4   1   1   85.02    3.21
   4  -1   1   84.00    3.07
   4  -1   1   82.65    2.72
  -4   1   2 1708.30   13.35
  -4  -1   2 1704.86   11.09
   4  -1  -2 1701.59   13.33
  -4   1  -2 1713.72   12.29
   4  -1   2 1734.53   12.41
  -4   1   3  196.90    4.92
   4   1   3  190.24    5.15
   4  -1   3  207.97    4.87
  -4   1  -3  200.53    4.68
  -4   1   4   23.90    2.13
  -4   1  -4   22.95    1.98
   4   1   4   19.67    2.24
   4  -1   4   24.16    2.13
  -4  -1  -5  774.38   10.90
  -4   1   5  757.73   10.55
   4  -1  -5  877.83    8.61
   4   1   5  773.87   10.94
   4  -1   5  779.64   10.47
  -4   1  -5  775.51   10.37
  -4  -1  -6 3046.47   22.43
   4  -1  -6 2988.22   17.85
   4   1   6 3032.41   22.84
   4  -1   6 3006.42   21.78
  -4   1  -6 3010.67   21.64
   4   1  -7   59.64    3.06
   4  -1  -7   69.98    3.30
   4  -1   7   58.20    3.48
  -4  -1  -7   62.88    3.61
  -4   1  -7   60.58    3.44
   4   1   7   61.33    3.68
   4  -1  -8   80.43    3.62
   4  -1   8   86.80    4.50
   4   1  -8   90.15    4.28
  -4   1  -8   83.76    4.26
  -4  -1  -8   90.51    4.53
   4   1   8   87.83    4.59
   4  -1  -9  214.80    5.99
   4  -1   9  214.77    6.92
   4   1  -9  207.36    6.40
   4   1   9  220.09    7.15
  -4   1  -9  219.73    6.98
  -4  -1  -9  220.67    7.15
   4  -1  10  861.58   14.50
   4   1 -10  855.89   13.44
   4  -1 -10  848.75   12.47
   4   1  10  861.09   14.46
  -4  -1 -10  883.39   14.76
  -4   1 -10  882.03   14.52
  -4  -1 -11    7.35    2.17
   4   1 -11    3.95    1.48
   4  -1  11    5.09    1.97
   4  -1 -11    6.03    1.67
   4   1  11    4.58    1.98
  -4   1 -11    6.05    1.94
   4  -1  12  135.85    6.50
   4   1 -12  139.06    6.16
   4  -1 -12  132.15    5.58
   4   1  12  132.74    6.41
  -4   1 -12  131.45    6.22
  -4  -1 -12  137.83    6.48
   4  -1  13   64.25    4.97
   4  -1 -13   60.36    4.12
   4   1 -13   61.16    4.24
   4   1  13   65.67    4.86
   4  -1  14  229.78    9.00
   4  -1 -14  228.10    7.99
   4   1 -14  226.82    8.17
   4   1  14  219.01    8.76
   4   1  15  145.16    7.50
   4  -1  15  135.18    7.37
   4  -1 -15  142.65    6.77
   4  -1  16    4.95    2.69
   4   1  16    7.64    2.95
   4   1  17   71.68    5.96
   4  -1  17   77.80    6.23
   4   1  18   96.20    7.01
   4  -1  18   94.93    6.97
   4  -1  19    7.05    2.71
   4   1  19   15.19    3.84
   4  -1  20   45.56    5.24
   4   1  20   47.11    5.58
   4   1  21    9.19    3.77
   4  -1  21    4.38    3.49
   4   1  22  166.78   10.19
   4  -2   0 1241.46   12.37
  -4   2   0 1252.94   12.06
   4  -2   0 1314.86    8.09
  -4  -2   1   92.01    2.10
   4  -2  -1   93.75    3.44
  -4   2  -1   90.76    2.53
  -4   2   1   96.77    3.70
   4  -2   1   96.64    3.59
   4  -2   1   98.09    2.67
   4  -2  -2  679.98    9.39
  -4   2   2  702.94    9.49
   4  -2   2  707.93    7.71
  -4   2  -2  686.56    7.52
  -4   2   3    7.74    1.64
   4  -2  -3    7.60    1.64
   4  -2   3    7.48    1.39
  -4   2  -3    8.29    1.39
   4   2   4   76.86    3.73
  -4   2   4   75.96    3.64
   4  -2   4   77.46    3.30
   4  -2  -4   72.48    2.14
  -4   2  -4   73.50    3.11
   4   2   5    9.18    1.89
  -4   2   5   11.94    1.92
   4  -2  -5    7.55    1.09
   4  -2   5    9.64    1.79
  -4   2  -5    9.72    1.66
  -4   2   6  114.15    4.66
   4  -2  -6  113.84    3.34
   4  -2   6  119.03    4.53
  -4   2  -6  119.61    4.43
   4   2   6  109.41    4.62
  -4  -2  -7  614.33   10.93
  -4   2   7  607.29   10.90
   4  -2   7  590.72   10.40
   4  -2  -7  585.93    8.15
   4   2   7  596.33   10.89
  -4   2  -7  601.09   10.31
  -4  -2  -8  822.63   13.28
   4  -2  -8  789.93   10.18
   4   2  -8  798.68   12.16
   4  -2   8  807.71   12.80
   4   2   8  810.11   13.24
  -4   2  -8  807.46   12.59
  -4  -2  -9  122.68    5.51
   4  -2  -9  119.45    4.35
   4  -2   9  116.80    5.36
   4   2  -9  124.43    5.31
   4   2   9  120.14    5.49
  -4   2  -9  115.44    5.17
   4  -2 -10  457.65    8.99
   4  -2  10  459.00   10.86
   4   2 -10  474.56   10.44
   4   2  10  463.55   10.98
  -4  -2 -10  478.76   11.17
  -4   2 -10  479.06   10.76
   4  -2  11   62.17    4.48
   4   2 -11   62.85    4.23
   4  -2 -11   56.66    3.52
  -4   2 -11   61.21    4.25
  -4  -2 -11   57.58    4.21
   4   2  11   65.77    4.53
  -4  -2 -12    9.03    2.45
   4  -2  12    9.36    2.49
   4   2 -12    9.28    2.23
  -4   2 -12    6.85    2.01
   4  -2 -12   12.17    2.26
   4   2  12   10.30    2.49
   4   2 -13   33.01    3.40
   4  -2  13   30.60    3.48
   4   2  13   28.24    3.41
   4  -2 -13   30.21    3.01
   4  -2  14    8.22    2.58
   4   2  14    9.32    2.59
   4  -2 -14    7.68    2.09
   4  -2  15   34.29    4.32
   4  -2 -15   35.87    3.63
   4   2  15   36.85    4.21
   4  -2  16   44.20    4.75
   4   2  16   51.11    5.03
   4  -2  17   -2.95    3.06
   4   2  17   -1.42    2.56
   4  -2  18   57.08    5.64
   4   2  18   67.53    6.16
   4  -2  19   -0.20    2.80
   4   2  19    3.87    2.80
   4  -2  20    5.04    3.10
   4   2  20    9.59    3.72
   4  -2  21   16.15    4.21
   4   2  21   11.72    3.60
   4   2  22   16.09    4.37
  -4   3   0  151.77    2.58
   4  -3   0  143.52    4.76
   4  -3   0  147.56    2.53
  -4   3   1 1547.58   15.05
   4  -3  -1 1543.30   14.63
   4  -3   1 1582.99   14.87
   4  -3   1 1592.03    9.67
  -4   3  -1 1599.98    9.74
  -4   3   2   78.28    3.72
   4  -3  -2   72.44    3.47
   4  -3   2   72.47    2.58
  -4   3  -2   71.48    2.52
  -4   3   3  220.47    6.02
   4  -3  -3  214.35    5.83
   4  -3   3  219.42    4.78
  -4   3  -3  219.34    4.73
   4   3   4    7.89    1.86
   4  -3  -4    8.53    1.69
  -4   3   4    7.65    1.65
   4  -3   4    7.46    1.41
  -4   3  -4    5.70    1.31
   4  -3  -4    7.09    0.73
   4   3   5  374.61    8.25
  -4   3   5  381.06    8.24
   4  -3   5  372.01    7.34
   4  -3  -5  367.76    4.64
  -4   3  -5  368.82    7.15
  -4   3   6  534.16   10.06
   4  -3  -6  517.22    6.38
   4  -3   6  526.56    9.35
  -4   3  -6  533.66    9.19
   4   3   6  517.21   10.08
  -4   3   7  802.58   12.85
   4  -3   7  784.08   12.22
  -4   3  -7  759.98   11.63
   4  -3  -7  745.28    8.55
   4   3   7  767.65   12.64
  -4   3   8  421.85    9.86
   4  -3   8  391.84    9.12
   4   3   8  407.51    9.66
  -4   3  -8  405.20    9.06
   4  -3  -8  399.38    6.97
  -4  -3  -9  564.15   11.69
  -4   3   9  575.33   11.92
   4   3  -9  529.17   10.53
   4  -3   9  541.61   11.21
   4  -3  -9  535.40    8.85
  -4   3  -9  561.40   11.21
   4   3   9  547.18   11.56
  -4  -3 -10  311.27    9.08
  -4   3  10  317.17    9.29
   4   3 -10  305.26    8.63
   4  -3  10  299.25    8.82
   4  -3 -10  301.15    7.13
  -4   3 -10  304.25    8.69
   4   3  10  303.89    9.03
  -4  -3 -11   11.89    2.49
   4   3 -11   10.23    1.91
  -4   3  11   11.00    1.97
   4  -3  11    9.43    2.25
   4   3  11   13.35    2.54
   4  -3 -11   10.73    1.80
  -4   3 -11   11.40    2.35
  -4  -3 -12   80.52    5.27
   4   3 -12   81.97    5.08
   4  -3  12   73.79    5.11
  -4   3  12   69.47    3.97
   4   3  12   74.20    5.09
  -4   3 -12   79.13    5.05
   4  -3 -12   72.40    4.17
   4  -3  13   84.60    5.54
   4   3 -13   88.73    5.32
   4  -3 -13   87.10    4.69
   4   3  13   85.10    5.50
   4  -3  14   60.23    4.89
   4   3  14   66.50    5.07
   4  -3 -14   64.72    4.29
   4  -3  15  115.99    6.72
   4   3  15  119.95    7.02
   4  -3 -15  116.11    5.94
   4  -3  16   50.59    4.89
   4   3  16   51.30    5.01
   4   3  17   17.23    3.38
   4  -3  17   22.37    3.87
   4  -3  18  108.70    7.53
   4   3  18  119.17    7.77
   4   3  19   58.50    6.13
   4  -3  19   60.08    6.04
   4  -3  20   33.27    5.07
   4   3  20   36.67    5.46
   4  -3  21   76.37    7.15
   4   3  21   80.89    7.27
   4   3  22    4.63    3.88
   4  -4   0  736.37   11.24
  -4   4   0  727.80    5.40
   4  -4   1   55.33    3.47
   4  -4  -1   57.65    3.29
  -4   4   1   60.88    3.43
   4  -4   1   59.34    2.08
  -4   4  -1   57.47    2.00
  -4   4   2  156.99    5.47
   4  -4  -2  152.65    5.23
   4  -4   2  158.29    3.73
  -4   4  -2  153.40    3.60
   4  -4  -3    4.94    1.67
   4   4   3    5.12    0.78
  -4   4   3    5.88    1.73
   4  -4   3    5.95    1.31
  -4   4  -3    5.21    1.22
  -4   4   4   46.07    3.22
   4  -4  -4   40.07    3.07
   4  -4   4   43.50    2.59
  -4   4  -4   42.01    2.46
   4   4   5   25.10    2.61
   4  -4  -5   26.45    2.69
  -4   4   5   27.67    2.64
   4  -4   5   31.40    2.50
   4  -4  -5   22.93    1.20
  -4   4  -5   26.30    2.23
  -4   4   6  200.38    6.59
   4  -4   6  199.04    5.89
   4   4   6  187.64    6.39
  -4   4  -6  197.55    5.72
   4  -4  -6  180.29    3.71
  -4   4   7   36.31    3.15
  -4   4   7   55.32    2.59
   4  -4   7   40.74    3.24
   4  -4  -7   37.67    2.06
   4   4   7   35.33    3.16
  -4   4  -7   40.30    2.94
  -4   4   8   78.78    4.54
  -4   4   8   67.20    2.86
   4  -4   8   74.76    4.28
   4  -4  -8   70.00    3.03
   4   4   8   73.65    4.49
  -4   4  -8   75.21    4.13
  -4   4   9  397.76   10.22
   4   4  -9  370.05    9.23
  -4   4   9  359.82    6.89
   4  -4   9  355.86    9.19
  -4   4  -9  376.38    9.26
   4   4   9  371.70    9.69
   4  -4  -9  366.96    7.18
  -4   4  10  144.16    6.66
  -4   4  10  128.89    4.64
   4   4 -10  129.91    5.99
   4  -4  10  120.82    5.83
   4   4  10  135.75    6.35
  -4   4 -10  135.15    5.96
   4  -4 -10  127.55    4.75
  -4   4  11  104.48    5.84
  -4   4  11  100.00    4.39
   4   4 -11   99.29    5.43
   4  -4  11   91.33    5.33
   4  -4 -11   97.09    4.40
  -4   4 -11  104.57    5.54
   4   4  11   96.86    5.60
  -4  -4 -12   29.63    3.46
   4  -4  12   20.94    2.65
   4   4 -12   26.36    3.11
  -4   4  12   29.83    2.83
   4  -4 -12   26.99    2.67
   4   4  12   30.33    3.65
  -4   4 -12   29.77    3.38
   4  -4  13    4.11    2.05
  -4   4  13    5.39    1.84
   4  -4 -13    5.72    1.81
   4   4  13    4.48    2.15
  -4   4  14   55.79    3.98
   4  -4  14   54.71    4.82
   4  -4 -14   52.76    3.86
   4   4  14   56.78    4.68
  -4   4  15   18.35    2.89
   4  -4  15   18.56    3.45
   4   4  15   21.98    3.66
   4  -4 -15   22.53    3.10
  -4   4  16   29.01    3.45
   4  -4  16   28.50    4.21
   4   4  16   27.88    4.08
   4  -4 -16   25.33    3.28
   4   4  17   58.47    5.45
   4  -4  17   59.59    5.60
   4  -4  18  165.37    9.24
   4   4  18  167.70    9.19
   4  -4  19   19.71    4.46
   4   4  19   11.55    3.24
   4  -4  20   38.20    5.14
   4   4  20   40.11    5.26
   4   4  21    6.70    3.49
   4  -4  21    7.95    3.70
   4   4  22   15.94    4.50
  -4  -5   0 1203.22    6.90
   4  -5   0 1216.40   15.34
  -4   5   0 1234.24    7.60
   4  -5   1   33.37    2.94
  -4   5   1   38.38    3.00
  -4   5  -1   36.05    1.70
   4  -5  -1   35.46    2.77
  -4   5   2  218.89    6.89
  -4   5  -2  213.57    4.41
   4  -5  -2  220.64    6.58
   4   5   3  131.42    2.79
  -4   5   3  139.90    5.62
   4  -5   3  157.54    4.38
  -4   5  -3  137.67    3.92
   4  -5  -3  128.88    5.12
  -4   5   4  112.67    4.91
   4  -5  -4  107.33    4.83
   4   5   4  106.58    2.86
   4  -5   4  112.18    3.89
  -4   5  -4  112.93    3.90
  -4   5   5  284.29    7.96
   4  -5  -5  267.84    7.65
   4   5   5  256.97    5.08
  -4   5  -5  274.73    6.41
   4  -5   5  269.87    6.43
  -4   5   5  246.65    3.10
   4   5   6    8.47    2.02
  -4   5   6   12.05    2.19
   4  -5   6    7.88    1.74
  -4   5   6   -3.34    1.29
  -4   5  -6   10.22    1.78
  -4   5   7  433.62   10.15
   4  -5   7  430.54    9.18
  -4   5   7  418.99    5.97
  -4   5  -7  432.66    9.02
   4   5   7  434.34   10.04
   4  -5  -7  414.71    6.13
  -4   5   8 1857.55   21.94
   4  -5   8 1812.02   19.67
  -4   5   8 1788.03   13.78
  -4   5  -8 1789.06   19.25
   4  -5  -8 1760.37   14.07
   4   5   8 1732.20   20.76
   4  -5  -9   12.94    1.61
  -4   5   9   13.06    2.62
   4  -5   9   16.32    2.59
  -4   5   9   13.06    1.70
   4   5   9   11.16    2.23
  -4   5  -9   11.54    2.11
  -4   5  10  197.29    7.80
   4   5 -10  194.49    7.42
   4  -5  10  180.28    7.07
  -4   5  10  180.86    5.26
   4  -5 -10  167.97    5.27
   4   5  10  178.98    7.29
  -4   5 -10  179.27    6.94
  -4   5  11   55.26    4.47
  -4   5  11   55.77    3.27
   4  -5  11   58.51    4.42
   4   5 -11   57.19    4.38
  -4   5 -11   61.35    4.37
   4   5  11   53.12    4.24
   4  -5 -11   50.79    3.21
   4  -5 -12    8.09    1.93
  -4   5  12   13.39    2.15
   4  -5  12   14.29    3.03
   4   5  12   11.54    2.43
   4  -5  13   42.63    4.29
  -4   5  13   43.11    3.44
   4   5  13   34.96    3.86
   4  -5 -13   37.37    3.19
   4  -5 -14   17.98    2.44
  -4   5  14   23.17    2.90
   4  -5  14   18.41    3.28
   4   5  14   19.29    3.23
  -4   5  15  122.39    5.85
   4  -5  15  121.28    7.19
   4   5  15  122.19    6.96
   4  -5 -15  123.95    6.09
  -4   5  16  598.75   13.12
   4  -5  16  599.86   15.86
   4   5  16  611.88   15.88
   4  -5 -16  603.44   13.88
  -4   5  17   29.13    3.55
   4  -5  17   27.64    3.94
   4   5  17   30.17    4.29
  -4   5  18   50.32    4.57
   4  -5  18   50.36    5.49
   4   5  18   46.89    5.17
   4   5  19    2.29    2.92
   4  -5  19    4.02    3.15
   4  -5  20    8.61    3.30
   4   5  20    7.08    3.15
   4   5  21    9.54    4.00
  -4  -6   0  493.18    5.70
   4  -6   0  490.88   10.61
  -4   6   0  467.92    5.44
  -4   6   1    1.64    1.75
   4  -6   1    2.64    1.69
  -4   6  -1    0.79    0.86
  -4   6   1    0.89    0.62
   4  -6  -1    3.77    1.78
  -4  -6  -1    2.14    0.66
  -4   6   2  285.31    8.04
   4  -6   2  294.03    7.94
  -4   6  -2  293.29    5.43
   4  -6  -2  267.43    7.59
   4   6   3  131.15    3.27
  -4   6   3  135.34    5.86
  -4   6  -3  140.44    4.20
   4  -6  -3  132.29    5.53
  -4   6   4   61.97    4.19
   4   6   4   56.76    2.39
   4  -6  -4   57.22    3.87
  -4   6  -4   62.84    3.05
   4  -6  -5    2.52    1.72
   4   6   5    1.18    1.02
  -4   6   5    1.30    1.60
  -4   6   5    5.04    0.83
  -4   6  -5    1.39    1.27
   4   6   6  127.65    5.65
   4   6   6  123.08    3.99
   4  -6  -6  124.72    5.65
  -4   6   6  130.82    5.84
   4  -6   6  132.13    4.93
  -4   6  -6  127.92    4.88
  -4   6   6  121.26    2.73
   4   6   7    4.45    1.94
  -4   6   7    2.15    1.66
   4   6   7    3.05    1.26
   4  -6   7    1.01    1.45
  -4   6   7    1.60    0.78
  -4   6  -7    4.62    1.53
   4   6   8   25.72    3.17
  -4   6   8   25.63    3.01
   4  -6   8   20.12    2.47
  -4   6   8   33.84    2.17
  -4   6  -8   29.53    2.85
   4   6   9    2.02    1.88
  -4   6   9    1.93    1.96
   4  -6   9    4.26    1.84
  -4   6   9   10.48    1.85
  -4   6  -9    0.02    1.52
   4  -6 -10  153.60    4.94
  -4   6  10  169.50    7.56
   4   6 -10  163.02    7.07
   4  -6  10  157.79    6.56
  -4   6  10  158.19    4.96
  -4   6 -10  164.85    6.70
   4   6  10  155.77    6.94
   4  -6 -11   -0.48    1.17
  -4   6  11   -1.18    1.51
   4   6  11   -0.63    1.85
  -4   6 -11   -2.13    1.89
   4  -6  12   31.35    3.58
  -4   6  12   27.51    2.55
   4  -6 -12   32.04    2.78
   4   6  12   31.69    3.75
   4  -6 -13    0.53    1.49
   4  -6  13    0.63    2.07
  -4   6  13    0.63    1.59
   4   6  13    1.93    2.07
   4  -6  14  107.43    6.53
  -4   6  14  121.30    5.62
   4   6  14  109.60    6.63
   4  -6 -14  104.36    5.35
   4  -6 -15   20.16    2.90
   4  -6  15   23.51    3.69
  -4   6  15   18.40    2.76
   4   6  15   20.95    3.46
   4  -6 -16   19.20    3.11
   4  -6  16   22.31    3.82
  -4   6  16   25.44    3.51
   4   6  16   24.49    4.01
  -4   6  17    9.23    2.53
   4   6  17    8.86    3.13
  -4   6  18    8.08    2.64
   4   6  18    6.13    2.99
  -4   6  19    4.04    2.65
   4   6  19    0.29    2.71
   4   6  20   14.50    4.12
   4   6  21    4.13    3.28
  -4  -7   0 4656.49   19.99
   4  -7   0 4638.76   33.57
  -4   7   0 4713.68   18.73
   4  -7   1   10.80    2.32
  -4   7  -1   12.48    1.45
  -4   7   1    4.65    0.78
   4  -7  -1   11.80    2.29
  -4  -7  -1   10.64    1.14
  -4   7   2   26.05    3.12
   4  -7   2   29.12    3.19
  -4  -7  -2   23.79    1.53
   4  -7  -2   28.03    2.99
  -4   7  -2   26.25    1.97
  -4   7   3   29.69    3.22
   4   7   3   28.45    1.84
   4  -7  -3   26.02    2.84
  -4   7  -3   29.04    2.20
  -4   7   3   24.80    1.07
   4   7   4   11.10    1.43
  -4   7   4   11.34    2.40
   4  -7  -4    9.46    2.31
  -4   7  -4   10.97    1.74
  -4   7   4   11.17    0.87
  -4   7   5    7.94    2.05
   4   7   5    5.44    1.24
   4  -7  -5    5.09    2.00
  -4   7  -5    7.30    1.59
  -4   7   5    6.61    0.84
  -4   7   6   72.66    4.60
   4  -7  -6   70.05    4.51
   4   7   6   66.37    3.06
  -4   7  -6   82.66    4.08
  -4   7   6   68.16    2.18
   4   7   7   15.78    2.48
  -4   7   7   18.49    2.78
   4   7   7   14.49    1.93
  -4   7   7   15.74    1.29
  -4   7  -7   16.76    2.28
   4   7   8 1489.15   16.32
  -4   7   8 1555.90   21.37
  -4   7   8 1521.95   12.76
  -4   7  -8 1559.29   18.78
   4   7   8 1505.80   20.43
  -4   7   9  207.69    8.21
   4   7   9  211.38    6.72
  -4   7  -9  216.45    7.46
  -4   7   9  196.54    5.00
   4   7   9  202.57    7.93
   4   7  10   63.92    4.15
  -4   7 -10   72.00    4.69
  -4   7  10   75.93    3.60
   4   7  10   65.07    4.87
   4   7  11   42.59    3.65
  -4   7  11   45.27    3.12
   4   7  11   40.37    4.08
  -4   7  12   11.07    1.98
   4   7  12    8.34    2.62
  -4   7  13   -0.30    1.87
   4   7  13   -1.08    2.39
   4  -7 -14    9.55    1.99
  -4   7  14   13.51    2.34
   4   7  14    8.79    2.86
   4  -7 -15   56.49    4.10
  -4   7  15   56.29    4.08
   4   7  15   62.53    5.44
   4  -7 -16  168.63    7.22
  -4   7  16  179.14    7.31
   4   7  16  171.40    8.74
  -4   7  17   16.63    3.17
   4   7  17   13.86    3.29
   4   7  18   59.28    5.84
  -4   7  18   67.84    5.13
  -4   7  19   15.02    3.40
   4   7  19    8.93    3.34
  -4   7  20   21.31    3.68
   4   7  20   20.84    4.52
   4   7  21   15.88    3.81
  -4  -8   0  216.08    5.09
   4  -8   0  208.11    7.88
  -4   8   0  197.01    4.26
  -4  -8   1   10.54    1.49
   4  -8   1    5.22    1.89
  -4   8  -1    7.25    1.23
  -4   8   1    5.83    0.95
  -4  -8  -1   10.14    1.28
   4  -8  -1    8.81    2.18
  -4   8   2    6.55    1.98
   4  -8   2    3.20    1.94
  -4   8  -2    3.30    1.16
  -4  -8  -2    4.66    0.98
   4  -8  -2    4.41    1.87
  -4   8   3   82.08    4.99
   4  -8   3   92.10    5.20
   4  -8  -3   78.60    4.73
  -4   8  -3   84.65    3.60
   4   8   4   82.32    3.31
  -4   8   4   84.36    5.18
   4  -8  -4   73.93    4.80
  -4   8  -4   83.33    3.80
  -4   8   4   77.38    2.18
  -4   8   5   94.67    5.50
   4   8   5   91.37    3.67
   4  -8  -5   87.99    5.10
  -4   8  -5   99.17    4.49
  -4   8   5   92.13    2.48
  -4   8   6  216.14    8.25
   4   8   6  197.61    5.56
   4  -8  -6  207.69    7.89
  -4   8  -6  218.27    6.70
  -4   8   6  201.47    3.87
   4   8   7   16.31    2.48
  -4   8  -7   20.84    2.55
  -4   8   7   20.50    1.58
  -4   8   7   19.21    2.73
   4  -8  -7   18.71    2.85
   4   8   7   18.22    2.02
   4   8   8   82.39    5.35
  -4   8   8   91.45    5.87
   4   8   8   78.92    4.09
  -4   8   8   71.08    2.80
  -4   8  -8   94.51    5.02
   4   8   9   23.51    3.10
   4   8   9   21.73    2.46
  -4   8   9   15.59    1.35
  -4   8  -9   25.89    2.97
   4   8  10  124.95    5.61
  -4   8  10  120.31    4.19
  -4   8 -10  131.74    6.29
   4   8  10  127.00    6.67
   4   8  11    7.48    2.03
  -4   8  11    7.36    1.74
   4   8  11    8.14    2.41
   4   8  12   29.84    3.40
  -4   8  12   30.82    2.84
   4   8  12   32.04    3.95
   4   8  13   43.35    4.12
  -4   8  13   53.27    3.71
   4   8  13   41.61    4.43
  -4   8  14  115.09    5.21
   4   8  14  103.00    6.63
  -4   8  15    1.94    2.10
   4   8  15    3.34    2.75
  -4   8  16   45.21    4.05
   4   8  16   45.66    5.25
  -4   8  17   47.66    4.24
   4   8  17   44.72    5.00
  -4   8  18   67.38    5.22
   4   8  18   62.47    6.09
  -4   8  19    8.16    3.02
   4   8  19    0.05    2.89
   4   8  20   21.69    4.49
   4   8  21   21.29    4.77
  -4  -9   0  406.00    7.46
   4  -9   0  406.33   11.11
  -4   9   0  405.59    6.52
  -4  -9   1  104.20    3.92
   4  -9   1   98.41    5.66
   4  -9  -1   99.57    5.44
  -4   9  -1  102.76    3.61
  -4  -9  -1  103.01    3.47
   4  -9   2  316.24    9.84
   4  -9  -2  300.77    9.38
  -4   9  -2  320.03    6.72
  -4  -9  -2  301.69    5.92
  -4   9   3   14.41    2.63
   4  -9   3   16.53    2.68
  -4   9  -3   15.59    1.95
   4  -9  -3   11.50    2.40
  -4   9   4   14.61    2.52
  -4   9   4   14.55    1.29
   4  -9  -4   14.72    2.65
  -4   9  -4   16.83    2.09
   4   9   5   52.18    3.03
  -4   9   5   55.67    4.56
   4  -9  -5   48.20    3.93
  -4   9  -5   57.03    3.46
  -4   9   5   51.33    2.05
  -4   9   6   44.99    4.34
   4   9   6   42.42    2.98
   4  -9  -6   43.11    4.07
  -4   9  -6   42.59    3.35
  -4   9   6   39.96    1.93
  -4   9   7  242.28    9.30
   4   9   7  226.09    8.38
   4   9   7  242.52    6.71
   4  -9  -7  245.00    8.94
  -4   9  -7  257.05    7.83
  -4   9   7  247.34    4.90
   4   9   8  250.84    8.93
   4   9   8  244.69    7.18
  -4   9  -8  273.01    8.53
  -4   9   8  262.18    5.45
   4   9   9  113.65    5.07
  -4   9  -9  133.66    6.25
  -4   9   9  115.83    3.77
   4   9   9  114.25    6.30
   4   9  10   60.77    4.13
  -4   9  10   54.73    2.80
   4   9  10   62.61    4.95
   4   9  11   11.21    2.38
  -4   9  11    8.88    1.47
   4   9  11   14.44    2.98
   4   9  12    2.92    1.82
  -4   9  12    3.03    1.62
   4   9  12    0.81    2.28
   4   9  13   75.07    5.20
  -4   9  13   75.74    4.26
   4   9  13   67.52    5.41
  -4   9  14   28.88    3.13
   4   9  14   19.71    3.45
  -4   9  15  107.77    5.38
   4   9  15   96.38    6.72
  -4   9  16  370.93   10.30
   4   9  16  345.50   12.74
  -4   9  17   21.09    3.13
   4   9  17   23.47    4.25
   4   9  18   59.63    6.07
  -4   9  18   64.87    5.10
   4   9  19    4.02    3.06
   4   9  20   12.40    4.04
  -4 -10   0  329.44    7.18
   4 -10   0  320.65   10.44
  -4  10   0  328.48    6.29
  -4 -10   1   10.07    1.75
   4 -10   1   11.17    2.77
  -4  10  -1   12.46    1.67
  -4 -10  -1   11.15    1.60
   4 -10  -1    9.45    2.37
   4 -10   2   51.79    4.76
  -4 -10   2   48.30    3.40
  -4  10  -2   46.91    2.94
   4 -10  -2   50.29    4.41
  -4 -10  -2   50.60    2.84
  -4  10   3    8.38    2.39
   4 -10   3   10.24    2.70
  -4  10  -3    7.10    1.56
  -4 -10  -3    7.59    1.42
   4 -10  -3    8.35    2.53
  -4  10   4   65.74    5.08
   4 -10   4   71.45    5.26
  -4  10  -4   65.62    3.85
   4 -10  -4   61.10    4.75
  -4  10   5    7.46    2.35
  -4  10   5    8.02    1.27
   4  10   5    8.96    1.81
   4 -10  -5    4.97    2.14
  -4  10  -5    9.41    1.98
   4  10   6    3.09    1.43
   4 -10  -6    2.42    2.05
  -4  10  -6    4.75    1.81
  -4  10   6    3.44    1.07
   4  10   7    9.77    2.03
   4 -10  -7   15.99    3.37
  -4  10  -7   10.74    2.30
  -4  10   7   11.62    1.44
   4  10   8  176.21    7.90
   4  10   8  188.13    6.65
  -4  10  -8  206.61    7.61
  -4  10   8  192.87    4.84
   4  10   9  103.88    5.19
  -4  10   9  107.32    3.87
   4  10   9   99.98    6.23
   4  10  10  167.43    6.85
  -4  10  10  169.44    5.03
   4  10  10  168.71    8.04
   4  10  11    2.06    2.22
   4  10  11    3.07    1.83
  -4  10  11   -3.95    1.99
   4  10  12    3.84    2.09
  -4  10  12   -3.69    2.08
   4  10  12    2.23    2.19
   4  10  13   16.98    3.09
  -4  10  13   18.89    2.52
   4  10  13   16.29    3.47
  -4  10  14   36.04    3.39
   4  10  14   28.52    4.03
  -4  10  15    7.70    2.31
   4  10  15   -1.14    2.80
  -4  10  16   17.16    2.86
   4  10  16   21.75    4.03
   4  10  17   17.16    4.19
   4  10  18   31.42    4.61
   4  10  19    8.01    3.60
   4  10  20    4.91    3.55
   4 -11   0  254.12    9.60
  -4 -11   0  258.74    6.80
  -4  11   0  262.29    6.02
   4 -11   1  263.58    9.86
   4 -11  -1  256.19    9.42
  -4 -11   1  273.20    7.33
  -4  11  -1  274.41    6.58
  -4 -11  -1  271.05    6.57
   4 -11   2  218.80    9.04
  -4 -11   2  211.97    6.75
  -4  11  -2  217.78    6.20
   4 -11  -2  207.65    8.50
  -4 -11  -2  223.61    5.98
   4 -11   3    2.24    2.06
  -4  11  -3    1.96    1.38
   4 -11  -3    1.59    1.94
  -4 -11  -3    3.56    1.28
   4 -11   4   86.40    6.20
   4 -11  -4   70.73    5.24
  -4  11  -4   78.23    4.19
   4 -11  -5   52.24    4.53
  -4  11  -5   63.18    4.01
  -4  11   5   54.42    2.56
   4  11   6  230.50    7.01
   4 -11  -6  214.00    8.92
  -4  11  -6  230.01    7.61
  -4  11   6  216.92    4.94
   4  11   7  199.97    6.89
   4 -11  -7  201.63    8.90
  -4  11  -7  214.13    7.70
  -4  11   7  190.71    4.90
   4  11   8    6.62    1.94
   4  11   8    5.47    2.34
  -4  11  -8    6.69    2.14
  -4  11   8    5.59    1.40
   4  11   9    9.74    2.60
   4  11   9   13.80    2.39
  -4  11   9   24.00    2.38
   4  11  10  149.97    6.58
  -4  11  10  148.34    4.77
   4  11  10  146.84    7.71
   4  11  11   17.72    3.20
   4  11  11   17.67    2.99
  -4  11  11   11.81    1.56
   4  11  12   63.75    5.10
  -4  11  12   57.17    3.13
   4  11  12   61.55    5.39
  -4  11  13   -1.29    1.89
   4  11  13    3.85    2.85
  -4  11  14  150.16    6.05
   4  11  14  145.70    8.35
  -4  11  15   23.57    3.23
   4  11  15   21.06    3.92
   4  11  16   31.61    4.67
   4  11  17    9.57    3.61
   4  11  18  174.50    9.89
   4  11  19    8.62    3.44
   4 -12   0  154.24    7.88
  -4 -12   0  168.95    5.81
  -4  12  -1   24.93    2.40
  -4 -12   1   27.57    2.85
   4 -12   1   23.72    3.54
  -4 -12  -1   25.45    2.45
   4 -12  -1   21.96    3.60
  -4 -12   2    4.78    1.88
   4 -12   2    8.71    2.73
  -4  12  -2    6.31    1.93
  -4 -12  -2    6.64    1.71
   4 -12  -2    5.70    2.36
  -4 -12   3   36.05    3.27
   4 -12   3   40.63    4.54
  -4  12  -3   38.57    3.06
  -4 -12  -3   40.11    2.91
   4 -12  -3   35.18    3.93
   4 -12   4    2.93    2.68
   4 -12  -4    0.51    2.24
  -4  12  -4    2.40    1.70
   4 -12   5   65.44    5.62
   4 -12  -5   55.28    4.99
  -4  12  -5   68.25    4.35
  -4  12   5   60.34    2.93
   4 -12  -6   22.62    3.60
  -4  12  -6   24.33    3.04
  -4  12   6   22.98    1.99
   4  12   7   28.01    3.08
   4 -12  -7   28.75    4.16
  -4  12  -7   29.63    3.42
  -4  12   7   25.34    2.14
   4  12   8   99.01    5.35
   4  12   8   86.94    5.86
  -4  12   8   91.97    3.68
   4  12   9    0.79    2.19
   4  12   9   -0.67    1.94
  -4  12   9    1.71    1.48
   4  12  10   70.31    5.09
  -4  12  10   81.72    3.89
   4  12  10   79.39    6.22
   4  12  11   38.34    3.99
   4  12  11   37.78    4.33
  -4  12  11   35.42    2.55
  -4  12  12   -1.21    1.93
   4  12  12    3.93    2.64
  -4  12  13   -9.06    2.57
   4  12  13    3.99    2.64
   4  12  14   20.98    3.99
   4  12  15    3.05    2.70
   4  12  16   16.36    3.99
   4  12  17    3.70    3.21
   4  12  18   27.54    5.03
   4  12  19   -1.83    3.29
  -4  13   0    1.58    1.38
   4 -13   0    4.06    2.65
  -4 -13   0    2.92    1.45
   4 -13   1    2.33    2.56
  -4 -13   1    4.49    1.87
   4 -13  -1    4.72    2.14
  -4 -13  -1    4.49    1.62
  -4 -13   2  167.49    6.70
   4 -13   2  164.21    8.58
  -4  13  -2  160.54    5.84
   4 -13  -2  154.45    7.95
  -4 -13  -2  174.03    6.07
  -4 -13   3   51.11    4.09
   4 -13   3   45.32    4.94
  -4  13  -3   50.10    3.69
  -4 -13  -3   48.34    3.40
   4 -13  -3   46.37    4.63
   4 -13   4   13.08    3.35
  -4 -13   4   11.25    2.44
   4 -13  -4    7.36    2.90
  -4  13  -4    7.95    2.11
   4 -13   5   38.58    4.85
   4 -13  -5   25.17    3.69
  -4  13  -5   33.49    3.38
  -4  13   5   30.15    2.34
   4 -13   6   66.12    5.86
   4 -13  -6   63.54    5.62
  -4  13  -6   64.26    4.46
  -4  13   6   59.07    3.14
   4 -13  -7    8.16    2.93
  -4  13   7    5.76    1.32
   4 -13  -8    8.93    3.02
   4  13   8    9.59    2.46
   4  13   8    6.75    2.52
  -4  13   8    8.47    1.64
   4  13   9    6.68    2.39
   4  13   9    5.85    2.53
  -4  13   9    6.30    1.46
   4  13  10  165.35    7.77
  -4  13  10  176.47    5.60
   4  13  10  167.36    8.67
   4  13  11    6.84    2.83
  -4  13  11    6.78    1.61
   4  13  12   26.18    4.06
   4  13  13   14.61    3.40
   4  13  14   94.79    7.23
   4  13  15    1.72    3.03
   4  13  16   25.92    4.41
   4  13  17    3.09    3.30
   4  13  18  118.53    8.66
   4 -14   0   56.59    5.43
  -4  14   0   70.72    3.93
  -4 -14   0   69.81    4.29
  -4  14  -1   37.98    3.18
  -4 -14  -1   36.49    3.10
   4 -14   1   32.77    4.38
  -4 -14   1   34.30    3.29
   4 -14  -1   40.05    4.72
  -4  14  -2   18.19    2.53
   4 -14  -2   14.73    3.13
  -4 -14   2   17.15    2.83
   4 -14   2   11.51    3.18
  -4 -14  -2   16.24    2.45
   4 -14   3    4.41    2.67
  -4 -14   3    6.10    2.23
  -4  14  -3    4.64    1.89
  -4 -14  -3    4.16    1.73
   4 -14  -3    2.95    2.34
   4 -14   4    1.33    2.92
  -4 -14   4    3.18    1.99
  -4  14  -4    1.77    1.87
   4 -14  -4    3.67    2.77
  -4 -14   5    5.25    2.31
  -4  14   5    3.07    1.44
   4 -14   5    4.86    2.92
  -4  14  -5    3.89    2.13
   4 -14  -5   -0.24    2.77
   4 -14  -6    1.44    2.43
  -4  14   6    4.90    1.52
   4 -14   6    5.02    3.30
   4 -14  -7   61.48    5.79
   4 -14   7   69.02    6.33
  -4  14   7   55.60    3.16
   4 -14  -8   31.52    4.36
   4  14   8   19.07    3.44
  -4  14   8   27.74    2.44
   4  14   9    4.26    2.71
   4  14  10   16.14    3.63
   4  14  11   18.69    3.64
   4  14  12    3.47    2.88
   4  14  13   11.53    3.58
   4  14  14   13.74    4.04
   4  14  15    6.50    3.16
   4  14  16   14.28    3.96
   4  14  17   -0.13    2.94
   4 -15   0   85.35    6.76
  -4  15   0   96.74    4.69
  -4 -15   0   90.83    5.12
  -4  15  -1    6.09    2.02
  -4 -15   1    5.82    2.20
   4 -15   1    3.99    2.63
  -4 -15  -1    6.98    1.98
   4 -15  -1   -0.61    2.91
  -4 -15   2  168.08    7.48
   4 -15   2  157.26    9.31
  -4  15  -2  155.17    6.42
  -4 -15  -2  167.79    6.72
   4 -15  -2  144.68    8.36
  -4 -15   3    9.68    2.58
   4 -15   3    8.49    2.95
  -4  15  -3   16.27    2.84
   4 -15  -3    8.48    2.90
  -4 -15  -3   10.87    2.18
   4 -15   4   20.42    4.19
  -4 -15   4   26.38    3.56
  -4  15  -4   20.71    2.91
   4 -15  -4   25.48    4.26
   4 -15  -5   59.77    5.61
   4 -15   5   61.47    6.42
  -4  15   5   60.02    3.48
  -4 -15   5   63.86    5.07
   4 -15  -6   83.30    6.62
   4 -15   6   95.62    7.63
  -4 -15   6   98.74    6.41
  -4  15   6   86.63    4.01
   4 -15  -7   40.46    5.24
   4 -15   7   50.44    6.02
   4  15   8   49.87    5.23
   4 -15   8   54.03    6.16
   4  15   9   17.85    3.58
   4  15  10   39.74    5.02
   4  15  11   -4.94    2.98
   4  15  12   14.63    3.86
   4  15  13   52.79    5.91
   4  15  14   40.81    5.64
   4  15  15   -0.15    3.26
   4  15  16   36.12    5.15
  -4 -16   0    8.16    2.38
   4 -16   0    6.32    2.88
   4 -16   1   11.55    3.42
  -4 -16   1   14.08    2.68
  -4 -16  -1   14.10    2.62
   4 -16  -1    7.33    2.92
   4 -16  -2   30.84    4.41
   4 -16   2   40.84    5.32
  -4 -16  -2   41.81    3.81
  -4 -16   2   40.05    4.01
   4 -16  -3    3.98    3.12
  -4 -16   3    1.16    2.10
   4 -16   3    2.08    2.86
  -4 -16  -3    0.75    1.84
   4 -16  -4    4.44    2.81
   4 -16   4    2.42    3.17
  -4 -16   4    6.44    2.60
   4 -16  -5    0.10    3.39
  -4 -16   5    1.48    2.23
   4 -16   5    0.63    2.95
   4 -16  -6   18.97    4.21
   4 -16   6   26.90    5.02
  -4 -16   6   26.89    4.21
   4 -16  -7    7.93    3.83
  -4 -16   7    4.87    3.00
   4 -16   7    4.77    3.50
   4  16   8   48.49    5.20
   4 -16   8   71.02    7.24
   4  16   9    3.23    2.92
   4 -16   9   12.12    4.59
   4  16  10   11.22    3.25
   4  16  11   -5.59    3.50
   4  16  12    2.34    3.05
   4  16  13    7.66    3.68
   4  16  14   21.11    4.73
   4  16  15    3.28    3.57
  -4 -17   0   68.13    4.86
   4 -17   0   69.95    6.88
   4 -17  -1    9.33    4.00
  -4 -17  -1   11.23    2.62
   4 -17   1    9.85    3.42
  -4 -17   1   11.01    2.57
   4 -17  -2   34.27    5.81
  -4 -17  -2   41.77    3.86
   4 -17   2   45.71    5.90
  -4 -17   2   43.46    4.43
   4 -17   3    7.70    3.72
  -4 -17   3   13.08    3.06
   4 -17  -3   13.70    3.83
  -4 -17   4    6.67    2.36
   4 -17  -4   10.91    3.45
   4 -17   4    8.59    3.52
   4 -17  -5   25.87    4.66
  -4 -17   5   28.88    4.23
   4 -17   5   27.93    5.01
   4 -17  -6    1.02    2.86
  -4 -17   6    4.02    3.05
   4 -17   6   -4.32    3.63
   4 -17  -7   11.30    3.70
   4 -17   7    6.40    3.72
  -4 -17   7    8.30    3.25
   4 -17   8  152.86   10.56
   4  17   8  128.10    8.24
  -4 -17   8  145.72    8.72
   4  17   9    0.51    2.73
   4 -17   9    5.86    4.18
   4 -17  10   36.75    6.15
   4  17  10   32.87    5.01
   4  17  11   -5.35    3.39
   4  17  12    0.83    2.88
   4  17  13    9.79    3.51
   4  17  14    9.63    3.98
   4 -18   0    3.81    2.97
   4 -18  -1    4.06    3.29
   4 -18   1    0.62    2.93
   4 -18  -2   42.16    5.93
   4 -18   2   44.76    6.19
   4 -18   3    5.59    3.89
   4 -18  -3    6.58    3.73
   4 -18  -4   -2.32    3.50
   4 -18   4    5.95    3.83
   4 -18  -5    1.99    3.03
   4 -18   5    1.02    3.28
   4 -18  -6   34.65    5.51
   4 -18   6   30.17    5.31
   4 -18  -7    8.58    3.92
   4 -18   7   -4.66    4.16
   4  18   8   21.42    4.01
   4  18   9    3.01    3.07
   4  18  10    7.42    3.66
   4  18  11    0.19    3.21
   4  18  12    0.39    3.12
   4 -19   0   42.41    5.98
   4 -19   1    0.01    3.11
   4 -19  -1   -2.42    3.05
   4 -19  -2   16.30    4.53
   4 -19   2   19.52    4.98
   4 -19  -3    4.27    3.74
   4 -19   3    0.39    3.59
   4 -19   4    6.03    3.69
   4 -19  -4   -2.64    3.30
   4 -19  -5    9.06    4.01
   4 -19  -6    6.36    3.87
   4  19   8   86.28    7.38
   4  19   9    0.07    2.81
   5   0   0    0.80    1.03
  -5   0   0    3.52    1.24
   5   0  -1   -0.82    1.11
  -5   0   1   -1.17    1.18
   5   0   1    0.19    1.05
   5   0  -2  618.17    8.02
  -5   0   2  630.31    8.08
   5   0   2  633.98    8.81
  -5   0   3    0.95    1.14
   5   0   3    2.23    1.50
  -5   0   4  505.10    8.14
   5   0   4  521.98    8.96
  -5   0   5   -0.37    1.18
  -5   0  -5   -0.23    1.30
   5   0   5    1.37    1.47
  -5   0  -6 1565.73   16.85
   5   0   6 1543.30   16.83
  -5   0  -7   -0.30    1.46
   5   0  -7    0.76    1.11
   5   0   7    0.63    1.50
   5   0  -8  143.38    4.94
   5   0   8  143.59    5.81
  -5   0  -8  149.69    5.88
  -5   0  -9    0.47    1.46
   5   0  -9   -1.05    1.48
   5   0   9   -1.24    1.74
  -5   0 -10   18.87    2.64
   5   0 -10   14.96    2.26
   5   0  10   15.55    2.68
  -5   0 -11    1.07    1.69
   5   0 -11   -0.69    1.35
   5   0  11    0.88    1.85
   5   0 -12  282.58    8.41
   5   0  12  272.64    9.25
  -5   0 -12  287.12    9.44
   5   0 -13    0.70    1.62
   5   0  13    3.65    2.33
   5   0 -14  552.47   12.76
   5   0  14  554.32   14.23
   5   0  15   -1.59    2.55
   5   0  16   89.93    6.63
   5   0  17   -1.06    2.56
   5   0  18   32.58    4.71
   5   0  19    1.72    2.99
   5   0  20  104.21    8.00
   5   0  21    1.45    2.87
   5  -1   0    2.29    1.27
   5   1   0    2.72    0.92
  -5   1   0    2.49    1.26
  -5  -1   0    3.14    1.04
   5   1  -1  942.75    8.26
   5  -1  -1  932.88   10.17
   5  -1   1  935.49   10.43
  -5  -1   1  936.38    8.35
  -5   1   1  974.95   10.92
   5   1   1  957.16    8.00
   5  -1   1  955.86    9.47
   5  -1  -2  234.31    5.37
  -5  -1   2  241.71    4.51
  -5   1   2  245.25    5.50
   5  -1   2  255.04    5.30
  -5  -1   3   19.10    1.69
  -5   1   3   18.14    1.82
   5  -1  -3   18.21    1.93
  -5   1  -3   17.57    1.75
   5   1   3   20.05    2.15
   5  -1   3   20.63    1.95
  -5  -1   4  642.22    8.55
  -5   1   4  648.60    9.73
  -5   1  -4  661.39    9.49
   5   1   4  661.20   10.41
   5  -1   4  678.02    9.78
  -5   1   5  348.97    7.52
   5   1   5  364.02    8.04
  -5   1  -5  351.35    7.51
   5  -1   5  363.45    7.62
  -5  -1  -6   81.87    4.05
  -5   1   6   76.74    3.83
   5  -1  -6   75.61    2.90
   5   1   6   79.01    4.00
  -5   1  -6   77.72    3.84
   5  -1   6   79.31    3.87
  -5  -1  -7   32.18    2.92
  -5   1   7   32.53    2.85
   5  -1  -7   32.79    2.24
   5   1   7   31.36    3.08
  -5   1  -7   35.69    2.98
   5  -1   7   39.71    3.21
  -5  -1  -8   45.73    3.64
   5  -1   8   40.02    3.37
   5  -1  -8   52.96    3.16
   5   1  -8   41.95    2.96
  -5   1  -8   43.22    3.42
   5   1   8   46.43    3.65
  -5  -1  -9   21.67    2.65
  -5   1  -9   21.75    2.59
   5   1  -9   27.18    2.79
   5  -1  -9   22.69    2.23
   5  -1   9   23.63    2.74
   5   1   9   18.29    2.51
   5  -1 -10  177.05    5.88
   5   1 -10  171.00    6.16
   5  -1  10  175.41    6.84
   5   1  10  171.48    6.91
  -5  -1 -10  178.17    6.80
  -5   1 -10  179.57    6.80
  -5  -1 -11    7.41    2.24
   5  -1 -11    7.15    1.73
   5   1 -11    7.49    1.97
   5  -1  11    6.24    2.20
  -5   1 -11    5.78    2.09
   5   1  11    2.91    1.94
   5   1  12  621.20   13.76
   5  -1  12  611.02   13.67
   5   1 -12  639.84   12.84
   5  -1 -12  619.38   11.86
  -5  -1 -12  634.33   13.93
  -5   1 -12  637.82   13.83
   5   1 -13  210.20    7.84
   5  -1 -13  195.27    7.12
   5  -1  13  206.52    8.48
   5   1  13  198.79    8.26
   5  -1  14   13.43    2.99
   5   1 -14   14.45    2.95
   5  -1 -14   13.34    2.56
   5   1  14   12.15    3.07
   5  -1  15   64.15    5.39
   5  -1 -15   69.07    4.78
   5   1  15   61.70    5.23
   5  -1  16   63.54    5.45
   5   1  16   65.43    5.69
   5   1  17   39.13    4.72
   5  -1  17   33.18    5.34
   5   1  18  301.40   12.34
   5  -1  18  312.63   12.37
   5   1  19   38.44    5.20
   5  -1  19   43.57    5.49
   5  -1  20   83.91    7.17
   5   1  20   89.72    7.44
   5  -1  21    2.10    3.05
   5   1  21    5.63    3.51
   5  -2   0    1.96    1.44
  -5  -2   0    0.48    0.69
   5  -2   0    0.95    0.92
   5  -2  -1   43.34    2.75
   5  -2   1   37.98    2.64
  -5   2   1   41.86    2.76
  -5  -2   1   41.67    1.70
   5   2   1   40.87    1.44
   5  -2   1   40.32    2.10
  -5  -2   2  202.32    3.85
   5  -2  -2  202.12    5.55
  -5   2  -2  205.45    4.57
  -5   2   2  215.04    5.79
   5  -2   2  211.43    4.68
   5  -2  -3   28.64    2.39
  -5   2   3   32.73    2.67
  -5   2  -3   30.88    2.15
   5  -2   3   30.07    2.24
   5  -2  -4  520.45    9.08
  -5   2   4  511.28    9.20
   5   2   4  527.24    9.53
   5  -2   4  524.29    8.40
  -5   2  -4  511.75    8.20
   5   2   5   13.02    2.20
  -5   2  -5    8.85    1.62
  -5   2   5   11.28    1.89
   5  -2  -5   15.64    1.44
   5  -2   5    8.96    1.68
  -5   2   6  557.67   10.42
   5  -2   6  562.37    9.88
   5  -2  -6  549.15    7.13
   5   2   6  553.75   10.69
  -5   2  -6  556.90    9.71
  -5   2   7    3.52    1.56
   5  -2  -7    4.60    1.18
   5  -2   7    4.63    1.70
  -5   2  -7    5.20    1.68
   5   2   7    7.05    1.90
  -5  -2  -8   59.20    4.01
  -5   2   8   57.62    3.96
   5  -2  -8   55.68    2.91
   5  -2   8   56.97    3.72
   5   2   8   60.73    4.13
  -5   2  -8   57.95    3.74
  -5  -2  -9    5.36    1.78
  -5   2   9    9.80    2.15
   5   2  -9    4.97    1.77
   5  -2  -9    5.24    1.38
  -5   2  -9    4.68    1.70
   5  -2   9    2.10    1.63
   5   2   9    7.38    2.12
  -5  -2 -10   44.06    3.71
   5  -2 -10   43.93    2.90
   5   2 -10   45.97    3.58
   5  -2  10   39.87    3.59
  -5   2 -10   47.39    3.63
   5   2  10   44.43    3.84
  -5  -2 -11   33.55    3.60
   5   2 -11   26.88    2.83
   5  -2 -11   31.80    2.76
   5  -2  11   29.60    3.39
  -5   2 -11   29.99    3.22
   5   2  11   28.57    3.29
   5  -2  12  184.15    7.77
   5  -2 -12  189.12    6.48
   5   2 -12  188.50    7.32
   5   2  12  188.60    7.80
   5  -2  13    4.37    2.10
   5   2 -13    7.66    2.34
   5   2  13    4.76    2.11
   5  -2 -13    6.88    1.91
   5  -2  14  276.78   10.27
   5   2  14  288.70   10.38
   5  -2 -14  280.84    8.83
   5  -2  15   21.80    3.72
   5   2  15   20.76    3.53
   5  -2 -15   20.12    2.82
   5   2  16   58.36    5.61
   5  -2  16   54.61    5.32
   5  -2  17   35.06    4.83
   5   2  17   32.88    4.54
   5  -2  18   37.58    4.86
   5   2  18   37.48    4.87
   5  -2  19   -3.29    3.77
   5   2  19    8.01    3.76
   5   2  20   97.15    7.67
   5  -2  20   95.76    7.66
   5   2  21    4.82    3.35
   5  -2  21    2.07    3.32
   5  -3   0    0.25    1.38
   5  -3   0    1.82    0.75
  -5  -3   1  344.31    3.79
  -5   3   1  346.35    7.62
   5  -3   1  348.75    7.57
   5  -3  -1  341.58    7.33
  -5   3  -1  351.41    5.10
   5  -3   1  364.64    5.18
   5  -3  -1  352.18    3.72
  -5   3   2  302.94    7.37
   5  -3  -2  289.55    6.97
   5  -3   2  302.39    5.31
  -5   3  -2  297.76    5.32
   5  -3  -2  280.10    2.96
  -5   3   3  867.32   12.10
   5  -3  -3  794.28   11.64
   5  -3   3  879.96    9.81
  -5   3  -3  865.63    9.72
  -5   3   4  106.86    4.57
   5  -3  -4   99.15    4.52
   5  -3   4  103.97    3.86
   5  -3  -4   96.05    2.07
  -5   3  -4  100.22    3.73
   5   3   5  372.98    8.58
  -5   3   5  391.79    8.71
   5  -3  -5  387.08    4.80
   5  -3   5  397.83    7.77
  -5   3  -5  393.42    7.67
   5   3   6    9.45    2.24
  -5   3   6    8.38    2.06
   5  -3  -6    7.45    1.06
   5  -3   6    7.15    1.71
  -5   3  -6   10.40    1.85
   5   3   7    8.11    2.04
  -5   3   7    8.23    1.93
   5  -3   7    6.59    1.80
  -5   3  -7    9.17    1.93
   5  -3  -7    6.60    1.10
  -5   3   8   46.43    3.63
   5  -3  -8   44.66    2.46
   5  -3   8   43.77    3.40
  -5   3  -8   46.46    3.39
   5   3   8   47.18    3.62
  -5   3   9  301.86    9.06
   5  -3  -9  278.17    6.23
   5  -3   9  277.90    8.27
  -5   3  -9  294.29    8.21
   5   3   9  280.53    8.66
  -5   3  10   45.32    3.93
   5  -3  10   41.59    3.63
   5   3 -10   43.81    3.63
  -5   3 -10   40.18    3.46
   5  -3 -10   42.45    2.81
   5   3  10   45.53    3.93
  -5  -3 -11  267.02    8.99
  -5   3  11  279.96    9.27
   5  -3  11  260.83    8.78
   5   3 -11  265.26    8.44
  -5   3 -11  279.87    8.87
   5   3  11  258.11    8.92
   5  -3 -11  260.01    6.93
   5   3 -12   35.14    3.40
   5  -3  12   35.67    3.87
   5   3  12   40.96    4.07
   5  -3 -12   38.45    3.16
   5  -3  13  251.39    9.39
   5   3  13  265.94    9.60
   5  -3 -13  258.30    7.76
   5  -3  14    7.91    2.75
   5  -3 -14    7.65    2.20
   5   3  14   10.16    2.82
   5  -3  15   84.66    6.17
   5   3  15   83.69    6.09
   5  -3 -15   82.65    5.06
   5  -3  16    4.29    2.55
   5   3  16    4.75    2.72
   5  -3 -16    5.21    2.24
   5   3  17  250.50   10.78
   5  -3  17  240.72   10.61
   5  -3  18    3.59    2.92
   5   3  18    9.76    3.69
   5  -3  19  111.56    7.88
   5   3  19  110.70    7.83
   5   3  20   30.97    5.07
   5  -3  20   28.10    4.74
   5   3  21   22.05    4.68
   5  -3  21   24.68    5.13
   5  -4   0   -0.84    1.60
   5  -4   0    0.18    0.66
   5  -4   1   97.59    4.72
  -5   4   1   96.28    4.48
   5  -4  -1  104.17    4.64
   5  -4   1   94.17    2.71
  -5   4  -1   96.20    2.71
  -5   4   2   44.96    3.26
   5  -4   2   40.17    3.02
   5  -4  -2   41.83    3.02
   5  -4   2   41.35    2.15
  -5   4  -2   44.40    2.16
  -5   4   3   18.75    2.43
   5  -4  -3   18.28    2.38
   5  -4   3   19.64    1.86
  -5   4  -3   17.13    1.69
  -5   4   4  641.77   11.34
   5  -4  -4  597.78   11.02
   5  -4   4  630.34    9.33
  -5   4  -4  609.30    8.89
   5   4   5  128.04    5.41
  -5   4   5  134.40    5.54
   5  -4  -5  129.05    5.41
   5  -4   5  134.55    4.75
  -5   4  -5  132.01    4.57
   5  -4  -5  129.39    2.37
   5   4   6  448.27   10.28
  -5   4   6  467.14   10.21
   5  -4   6  450.33    9.02
   5  -4  -6  439.44    5.38
  -5   4  -6  441.11    8.75
   5   4   7    3.57    1.85
  -5   4   7    2.05    1.60
   5  -4   7    2.75    1.65
   5  -4  -7    0.70    0.88
  -5   4  -7    2.30    1.50
   5   4   8    3.61    1.98
  -5   4   8    5.07    1.80
   5  -4   8    2.08    1.64
   5  -4  -8    4.27    1.11
  -5   4  -8    3.31    1.53
  -5   4   9   51.87    4.03
   5  -4   9   44.94    3.69
   5   4   9   49.75    4.00
   5  -4  -9   50.35    2.71
  -5   4  -9   54.56    3.82
  -5   4  10   67.24    4.77
   5   4 -10   57.10    4.02
   5  -4  10   58.16    4.19
   5   4  10   58.38    4.42
  -5   4 -10   58.09    4.00
   5  -4 -10   58.51    3.12
  -5   4  11    7.51    2.49
   5  -4  11    6.02    2.39
   5   4 -11    6.22    2.26
  -5   4 -11    7.19    2.21
   5   4  11    5.44    2.22
   5  -4 -11    5.14    1.55
   5   4 -12  417.18   11.34
   5  -4  12  403.55   11.46
   5   4  12  411.50   11.83
   5  -4 -12  406.07    9.14
   5  -4  13   11.45    2.71
   5   4  13   11.37    2.73
   5  -4 -13   10.24    2.02
   5  -4  14  534.06   14.31
   5   4  14  554.49   14.50
   5  -4 -14  543.43   11.94
   5  -4  15   26.10    3.67
   5  -4 -15   26.93    3.24
   5   4  15   28.29    3.98
   5  -4  16   22.83    3.66
   5   4  16   31.92    4.38
   5  -4 -16   22.05    3.06
   5  -4  17   -0.04    2.59
   5   4  17    5.73    3.10
   5  -4  18   26.53    4.61
   5   4  18   33.04    4.90
   5   4  19    3.28    3.32
   5  -4  19    4.45    3.19
   5  -4  20  134.51    9.25
   5   4  20  141.12    9.23
   5  -4  21   13.14    4.25
   5   4  21   10.73    3.74
   5  -5   0    0.81    1.59
  -5   5   0    0.43    0.67
   5  -5   1    6.33    2.03
  -5   5   1    7.74    1.98
   5  -5  -1    5.95    1.71
   5  -5   1    0.15    0.88
  -5   5  -1    3.84    0.92
  -5   5   2 1004.84   14.88
   5  -5   2 1033.32   14.60
   5  -5  -2  972.25   14.07
   5  -5   2 1041.56    9.86
  -5   5  -2  987.48    9.55
   5   5   3  231.61    2.85
  -5   5   3  240.09    7.40
   5  -5  -3  209.40    6.74
   5  -5   3  257.81    5.63
  -5   5  -3  240.44    5.22
  -5   5   4  179.44    6.49
   5  -5  -4  164.84    6.07
   5   5   4  164.46    3.09
   5  -5   4  182.04    5.00
  -5   5  -4  183.20    4.97
  -5   5   5  108.30    5.09
   5  -5  -5  102.91    5.08
   5  -5   5  102.50    4.14
  -5   5  -5  104.78    4.10
   5   5   6  195.66    7.08
  -5   5   6  210.85    7.34
   5  -5   6  200.08    6.13
  -5   5  -6  202.57    6.03
  -5   5   7   87.95    4.88
   5  -5   7   81.26    4.17
  -5   5  -7   86.40    4.28
   5   5   7   83.71    4.81
   5  -5  -7   84.21    2.65
   5  -5  -8    5.36    1.01
   5   5   8    5.95    1.97
  -5   5   8    7.82    2.21
   5  -5   8    0.02    1.89
  -5   5  -8    6.61    1.74
  -5   5   9   16.89    2.74
   5  -5   9   12.26    2.17
   5   5   9   12.89    2.61
  -5   5  -9   17.39    2.51
   5  -5  -9   14.54    1.56
  -5   5  10  220.47    8.28
   5  -5  10  188.93    7.20
  -5   5 -10  213.10    7.55
   5  -5 -10  198.02    5.41
   5   5  10  199.39    7.78
   5   5 -11  162.88    7.02
   5  -5  11  164.41    7.10
   5   5  11  165.44    7.35
   5  -5 -11  163.86    5.33
  -5   5 -11  176.36    7.22
   5  -5  12  111.90    6.16
   5  -5 -12  118.14    4.87
   5   5  12  117.74    6.58
   5  -5  13   -0.68    2.30
   5  -5 -13    2.65    1.52
   5   5  13    0.67    2.17
   5  -5  14   15.94    3.18
   5  -5 -14   15.94    2.46
   5   5  14   19.84    3.37
   5  -5  15   22.26    3.76
   5   5  15   20.14    3.68
   5  -5 -15   17.78    2.64
   5  -5  16  102.74    7.09
   5   5  16   99.59    6.93
   5  -5 -16   98.13    5.66
   5  -5  17   60.79    5.88
   5   5  17   55.43    5.47
   5  -5  18  207.07   10.32
   5   5  18  213.49   10.36
   5   5  19   66.28    6.30
   5  -5  19   71.92    6.64
   5  -5  20    1.00    3.19
   5   5  20    6.73    3.42
   5   5  21    1.31    3.26
   5  -6   0    0.20    1.65
  -5  -6   0    0.76    0.49
  -5   6   0   -0.28    0.68
   5  -6   1  116.21    5.51
   5  -6  -1  124.70    5.56
  -5   6   1  122.88    5.54
  -5   6  -1  118.68    3.11
   5  -6  -2  507.87   10.81
  -5   6   2  523.77   11.19
   5  -6   2  520.55   11.13
  -5   6  -2  522.58    7.13
   5  -6  -3    1.65    1.62
  -5   6   3    0.39    1.73
  -5   6  -3    5.69    1.36
   5   6   4  658.27    6.65
  -5   6   4  692.81   13.50
   5  -6  -4  635.34   12.48
   5  -6   4  685.42    9.71
  -5   6  -4  677.66    9.63
  -5   6   5    4.24    1.76
   5  -6  -5    2.82    1.70
   5   6   5    1.19    0.87
   5  -6   5    1.89    1.35
  -5   6  -5    3.88    1.36
  -5   6   6  173.96    6.95
   5   6   6  164.79    6.67
   5  -6  -6  171.27    6.84
   5   6   6  166.11    4.40
   5  -6   6  174.04    5.78
  -5   6  -6  168.84    5.60
   5   6   7    2.85    1.86
   5   6   7    3.78    1.25
  -5   6   7    1.59    1.55
   5  -6   7    2.50    1.61
  -5   6  -7    0.09    1.38
   5   6   8   21.55    3.20
  -5   6   8   21.56    3.02
   5  -6   8   18.36    2.57
  -5   6  -8   20.13    2.56
   5   6   9    1.11    1.97
   5  -6  -9    0.79    0.91
  -5   6   9    0.92    1.86
   5  -6   9    4.52    2.20
  -5   6  -9   -0.82    1.54
   5  -6  10  167.72    7.02
  -5   6  10  179.15    4.83
  -5   6 -10  176.64    7.01
   5  -6 -10  162.33    4.83
   5   6  10  169.14    7.51
   5  -6 -11    6.78    1.48
  -5   6  11    8.04    1.67
   5  -6  11    5.78    2.42
  -5   6 -11    6.41    2.05
   5   6  11    6.21    2.34
  -5   6  12  367.65    8.18
   5  -6  12  375.61   11.27
   5  -6 -12  364.52    8.40
   5   6  12  365.47   11.52
   5  -6 -13   11.09    2.11
   5  -6  13   16.63    3.36
   5   6  13   10.50    2.92
   5  -6  14   73.11    5.70
   5   6  14   76.06    5.86
   5  -6 -14   72.46    4.41
   5  -6  15   29.43    3.97
   5  -6 -15   34.06    3.50
   5   6  15   33.53    4.44
   5  -6 -16    5.46    2.28
   5  -6  16    9.44    2.95
   5   6  16   11.72    3.39
   5  -6  17   13.97    3.57
   5   6  17   11.47    3.11
   5  -6  18   22.51    4.27
   5   6  18   24.35    4.30
   5  -6  19    5.64    3.38
   5   6  19    1.45    2.84
   5   6  20  104.44    8.00
   5   6  21   -0.36    3.15
   5  -7   0   -2.86    2.04
  -5  -7   0    1.10    0.68
  -5   7   0    1.02    0.76
   5  -7   1  210.82    7.62
   5  -7  -1  208.90    7.44
  -5   7  -1  212.04    4.32
  -5   7   1  209.51    3.02
  -5  -7  -1  207.21    3.02
   5  -7   2  641.17   13.03
  -5   7   2  664.05   13.24
  -5   7  -2  651.83    8.35
   5  -7  -2  624.05   12.65
  -5   7   3  105.52    5.51
   5  -7   3  101.65    5.31
  -5   7  -3  101.77    3.66
   5  -7  -3   95.17    5.11
   5   7   4  269.13    4.68
  -5   7   4  282.76    9.01
  -5   7  -4  282.84    6.46
   5  -7  -4  257.19    8.33
   5   7   5  117.36    3.45
  -5   7   5  131.45    6.34
  -5   7  -5  123.85    4.69
   5  -7  -5  113.18    5.80
  -5   7   6  128.96    6.28
  -5   7  -6  130.32    5.04
   5   7   6  115.42    3.76
   5  -7  -6  121.78    6.07
  -5   7   7   83.60    5.25
   5   7   7   77.25    4.98
   5   7   7   76.91    3.41
  -5   7  -7   81.14    4.27
  -5   7   8  112.06    6.38
   5   7   8  102.43    4.27
  -5   7   8  124.48    3.23
  -5   7  -8  107.44    5.16
   5   7   8  107.07    5.88
   5   7   9   15.52    2.69
   5   7   9   15.32    2.06
   5  -7   9   15.42    2.59
  -5   7  -9   14.27    2.45
   5   7  10  507.60   10.52
  -5   7  10  513.52    8.16
   5  -7  10  532.65   12.19
   5   7  10  527.55   13.27
  -5   7 -10  546.11   12.31
   5  -7  11   27.51    3.39
  -5   7  11   29.89    2.42
   5   7  11   27.16    3.45
   5  -7  12   12.18    2.68
  -5   7  12   17.52    2.15
   5   7  12   17.90    3.27
   5  -7 -13   61.27    3.68
   5  -7  13   66.27    5.11
  -5   7  13   64.48    3.73
   5   7  13   65.00    5.44
   5  -7 -14   25.16    2.64
   5  -7  14   29.88    3.89
  -5   7  14   29.03    2.96
   5   7  14   30.97    4.10
   5  -7 -15   21.74    2.85
  -5   7  15   27.16    3.02
   5   7  15   24.64    4.07
   5   7  16  224.95   10.36
   5   7  17    4.92    2.72
   5   7  18  119.74    8.02
   5   7  19   18.42    4.17
   5   7  20    1.36    3.06
  -5   8   0    1.77    0.86
   5  -8   0   -1.38    2.12
  -5  -8   0    1.10    0.82
   5  -8   1    9.14    2.14
  -5  -8   1    9.61    1.28
  -5   8   1   10.67    1.03
  -5   8  -1   11.32    1.43
  -5  -8  -1    7.75    0.94
   5  -8  -1   13.14    2.61
   5  -8   2  225.92    8.30
  -5   8   2  235.11    8.26
  -5   8  -2  233.68    5.31
  -5   8   2  222.44    2.91
   5  -8  -2  222.05    7.97
  -5   8   3  231.66    8.59
   5  -8   3  239.78    8.57
  -5   8  -3  226.81    5.70
   5  -8  -3  221.26    8.11
  -5   8   4  678.80   14.52
  -5   8  -4  682.59   10.41
   5  -8  -4  624.72   13.50
   5   8   5   69.94    2.94
  -5   8   5   73.79    5.03
  -5   8  -5   72.40    3.77
   5  -8  -5   62.82    4.62
   5   8   6  198.34    5.19
  -5   8   6  216.75    8.58
   5  -8  -6  200.53    8.03
  -5   8  -6  201.74    6.43
   5   8   7   12.02    2.58
  -5   8   7   15.16    2.82
   5   8   7   12.96    1.82
   5  -8  -7   13.91    2.67
  -5   8  -7   16.43    2.45
   5   8   8   60.95    4.84
   5   8   8   59.48    3.43
  -5   8  -8   69.61    4.40
  -5   8   8   47.01    1.80
   5   8   9   16.76    3.06
   5   8   9   17.88    2.30
  -5   8   9    8.06    1.12
  -5   8  -9   17.05    2.52
   5   8  10  168.55    6.27
  -5   8  10  164.67    4.66
  -5   8 -10  185.96    7.46
   5   8  10  174.05    7.93
   5   8  11   31.29    3.23
  -5   8  11   29.64    2.38
   5   8  11   33.25    4.17
   5   8  12  203.58    7.76
  -5   8  12  213.09    6.15
   5   8  12  200.79    9.01
   5   8  13   61.47    4.60
  -5   8  13   66.24    3.84
   5   8  13   62.98    5.35
   5   8  14   84.42    5.56
  -5   8  14   94.96    4.77
   5   8  14   91.00    6.61
  -5   8  15   30.17    3.15
   5   8  15   25.55    4.10
  -5   8  16   37.77    3.66
   5   8  16   37.45    4.98
   5   8  17   22.95    4.12
   5   8  18   12.99    3.44
   5   8  19   27.34    4.62
   5   8  20   64.62    6.64
  -5   9   0    0.17    0.89
  -5  -9   0    0.59    0.98
   5  -9   0    0.15    1.91
   5  -9  -1   82.95    5.22
  -5  -9   1   92.46    3.43
   5  -9   1   86.24    5.44
  -5   9  -1   89.60    3.34
  -5   9   1   90.20    2.67
  -5  -9  -1   90.44    2.94
   5  -9   2   25.82    3.20
  -5   9  -2   29.47    2.19
  -5   9   2   28.68    1.40
   5  -9  -2   28.42    3.28
  -5   9   3  429.07   11.89
   5  -9   3  422.21   11.65
   5  -9  -3  384.14   10.75
  -5   9   3  392.34    4.13
  -5   9  -3  436.16    8.19
   5  -9   4    3.14    1.98
  -5   9   4    3.19    1.75
   5  -9  -4    1.71    2.02
  -5   9  -4    4.33    1.53
  -5   9   4    1.71    0.49
  -5   9   5   64.09    5.04
   5   9   5   66.90    3.07
  -5   9  -5   67.85    3.78
   5  -9  -5   59.97    4.61
   5   9   6  115.97    4.31
  -5   9   6  105.56    2.15
  -5   9  -6  117.94    5.14
   5  -9  -6  115.12    6.50
   5   9   7   32.57    2.54
   5  -9  -7   32.19    3.64
  -5   9  -7   37.05    3.31
  -5   9   7   28.95    1.36
   5   9   8   13.95    2.85
   5   9   8   16.51    2.09
  -5   9   8    8.76    0.82
  -5   9  -8   15.75    2.42
   5   9   9   73.70    3.97
  -5   9   9   68.59    2.52
  -5   9  -9   82.84    5.04
   5   9   9   74.31    5.60
   5   9  10   40.04    4.30
   5   9  10   37.62    3.22
  -5   9  10   29.50    1.95
   5   9  11  219.52    7.58
  -5   9  11  228.58    5.77
   5   9  11  229.22    9.52
   5   9  12   66.38    4.62
  -5   9  12   64.85    3.53
   5   9  12   60.60    5.40
   5   9  13   18.09    2.78
  -5   9  13   38.50    3.50
   5   9  13   16.03    3.46
  -5   9  14    3.21    1.80
   5   9  14    0.30    2.57
  -5   9  15    2.78    1.94
   5   9  15   -1.41    2.83
  -5   9  16   21.94    2.99
   5   9  16   25.67    4.62
   5   9  17  166.51    9.49
   5   9  18    1.21    2.79
   5   9  19   61.07    6.36
   5   9  20    7.26    3.81
  -5  10   0    0.03    0.97
   5 -10   0    1.12    2.07
  -5 -10   0    2.12    1.21
   5 -10   1   -1.07    2.50
  -5 -10   1    1.60    1.10
  -5  10   1   -0.83    1.01
  -5  10  -1    2.02    1.16
   5 -10  -1    1.55    1.92
  -5 -10  -1    3.03    1.12
   5 -10   2  102.89    6.18
  -5 -10   2  107.30    4.26
  -5  10   2  113.74    3.11
  -5  10  -2  106.55    4.10
  -5 -10  -2  107.09    3.51
   5 -10  -2  107.55    6.23
   5 -10   3   17.78    3.32
   5 -10  -3   14.00    2.82
  -5  10  -3   16.82    2.05
  -5  10   3   19.95    1.52
   5 -10   4  662.55   15.44
   5 -10  -4  581.09   14.08
  -5  10  -4  655.46   11.10
   5 -10  -5   15.32    2.98
  -5  10  -5   16.38    2.34
  -5  10   5   14.95    1.00
   5  10   6  346.09    7.70
  -5  10   6  308.27    4.00
  -5  10  -6  358.00    9.13
   5 -10  -6  333.67   11.13
   5  10   7   44.70    3.11
   5 -10  -7   43.02    4.42
  -5  10   7   40.70    1.80
  -5  10  -7   43.10    3.53
   5  10   8    5.14    2.18
   5  10   8    3.33    1.68
  -5  10   8   10.24    1.45
  -5  10  -8    2.24    1.65
   5  10   9    1.94    2.32
   5  10   9    5.42    1.85
  -5  10   9    2.40    0.95
   5  10  10   70.81    4.51
  -5  10  10   67.17    2.86
   5  10  10   70.27    5.61
   5  10  11    8.67    2.80
   5  10  11   10.54    2.32
  -5  10  11   10.10    1.42
   5  10  12  120.94    6.22
  -5  10  12  122.10    4.60
   5  10  12  122.15    7.43
   5  10  13    3.24    2.16
  -5  10  13    2.08    1.66
   5  10  13    5.27    2.82
  -5  10  14  113.98    5.05
   5  10  14  106.15    7.39
  -5  10  15    5.37    2.04
   5  10  15    3.30    2.71
   5  10  16   55.63    5.96
   5  10  17    5.35    3.40
   5  10  18   22.12    4.72
   5  10  19   19.19    4.42
  -5  11   0    1.01    1.11
   5 -11   0    1.77    2.29
  -5 -11   0   -0.56    1.25
   5 -11  -1   68.62    5.14
  -5 -11   1   70.34    3.56
   5 -11   1   69.09    5.40
  -5  11  -1   76.39    3.48
  -5  11   1   67.06    2.81
  -5 -11  -1   65.77    3.06
  -5 -11   2   35.56    2.72
   5 -11   2   35.58    3.92
  -5  11   2   38.42    2.16
  -5  11  -2   31.76    2.53
  -5 -11  -2   33.55    2.28
   5 -11  -2   35.82    3.84
  -5 -11   3   58.94    3.65
   5 -11   3   59.24    5.17
   5 -11  -3   50.86    4.61
  -5  11   3   47.29    1.97
  -5  11  -3   58.12    3.52
   5 -11   4  220.79    9.61
   5 -11  -4  199.13    8.69
  -5  11  -4  227.81    6.98
  -5  11   4  205.91    3.89
   5 -11   5  106.96    6.83
   5 -11  -5   89.36    5.91
  -5  11  -5  101.68    4.93
  -5  11   5   84.52    2.41
   5 -11  -6    3.67    2.16
  -5  11  -6    4.00    1.63
  -5  11   6    4.79    0.94
   5  11   7   10.67    1.99
   5 -11  -7   12.00    3.07
  -5  11  -7    7.65    2.07
  -5  11   7    9.60    1.15
   5  11   8   10.63    2.13
   5  11   8    4.51    2.21
   5 -11  -8   10.05    2.98
  -5  11   8   10.43    1.39
  -5  11  -8   10.20    2.49
   5  11   9  108.00    6.80
   5  11   9  120.26    5.63
  -5  11   9  122.65    3.68
   5  11  10    7.49    2.92
  -5  11  10    2.11    1.03
   5  11  10    3.54    1.99
   5  11  11   37.32    4.55
   5  11  11   39.27    3.66
  -5  11  11   38.83    2.40
   5  11  12  201.70    8.15
  -5  11  12  203.16    5.64
   5  11  12  204.70    9.64
  -5  11  13   -1.16    1.81
   5  11  13    0.84    2.60
   5  11  14    7.51    3.24
   5  11  15   45.52    5.64
   5  11  16   26.72    4.44
   5  11  17   19.41    3.96
   5  11  18   41.61    5.81
   5  11  19    3.47    3.17
  -5  12   0   -1.05    1.35
   5 -12   0   -1.19    2.35
  -5 -12   0    0.01    1.28
  -5  12  -1   18.93    2.12
  -5  12   1   16.64    1.84
   5 -12   1   20.34    3.61
  -5 -12   1   19.92    2.34
  -5 -12  -1   19.28    2.09
   5 -12  -1   19.14    3.20
   5 -12   2   89.00    6.36
  -5 -12   2   94.42    4.66
  -5  12   2   91.55    3.30
  -5  12  -2   98.45    4.38
  -5 -12  -2   95.65    3.98
   5 -12  -2   86.62    6.17
   5 -12   3    2.70    2.37
  -5 -12   3    2.05    1.78
   5 -12  -3    1.83    2.25
  -5  12  -3    2.79    1.60
   5 -12   4  124.55    7.52
   5 -12  -4  117.16    7.04
  -5  12  -4  127.70    5.42
  -5  12   4  120.59    3.35
   5 -12   5    2.28    2.83
   5 -12  -5    5.44    2.53
  -5  12  -5    2.00    1.66
  -5  12   5    1.00    0.93
   5 -12   6   45.58    5.10
   5 -12  -6   38.98    4.54
  -5  12  -6   43.97    3.73
  -5  12   6   37.73    1.88
   5  12   7   23.31    2.60
   5 -12  -7   20.85    3.64
  -5  12  -7   20.78    2.91
  -5  12   7   19.26    1.52
   5  12   8   43.03    3.65
   5  12   8   37.70    4.32
  -5  12   8   36.91    1.94
   5 -12  -8   40.57    4.75
   5  12   9   69.06    4.65
   5  12   9   57.31    5.37
  -5  12   9   67.72    2.91
   5  12  10   97.17    5.52
  -5  12  10   97.57    3.58
   5  12  10   94.08    6.72
   5  12  11   19.64    3.16
   5  12  11   18.67    3.60
   5  12  12  162.44    8.88
   5  12  13    0.36    2.55
   5  12  14   72.62    6.36
   5  12  15    2.05    2.73
   5  12  16   53.46    6.05
   5  12  17   -3.54    3.35
   5  12  18    9.42    3.91
  -5  13   0    0.44    1.42
  -5 -13   0    0.79    1.42
   5 -13   0   -0.50    2.42
  -5 -13   1   31.25    2.80
  -5  13   1   30.21    2.43
  -5  13  -1   30.04    2.61
   5 -13   1   30.09    4.11
   5 -13  -1   26.91    4.05
  -5 -13  -1   32.00    2.74
   5 -13   2    8.13    3.10
  -5 -13   2    4.92    1.65
  -5  13  -2    8.09    1.99
  -5  13   2    6.02    1.52
  -5 -13  -2    6.65    1.68
   5 -13  -2    8.26    2.90
   5 -13   3   11.42    2.85
  -5 -13   3   13.44    2.10
  -5  13  -3   13.85    2.25
   5 -13  -3   14.19    2.97
   5 -13   4  353.71   13.01
  -5  13   4  327.59    5.97
  -5 -13   4  354.98    9.86
   5 -13  -4  313.62   11.74
  -5  13  -4  358.35    9.32
   5 -13   5    2.38    2.69
   5 -13  -5   -0.94    2.78
  -5  13  -5    2.09    1.95
  -5  13   5    1.53    1.08
   5 -13   6   20.21    4.26
   5 -13  -6   10.16    3.33
  -5  13  -6   10.87    2.47
  -5  13   6   11.55    1.47
   5 -13  -7    2.14    2.40
   5 -13   7    1.71    2.89
  -5  13   7    1.31    1.07
   5 -13  -8    7.80    3.00
   5  13   8    2.66    2.34
   5  13   8    7.48    2.35
  -5  13   8    6.52    1.34
   5  13   9    2.06    2.52
   5  13  10   31.13    4.35
   5  13  11    8.68    3.41
   5  13  12  142.45    8.60
   5  13  13   27.82    4.62
   5  13  14    8.72    3.57
   5  13  15   -0.44    3.35
   5  13  16   10.25    3.54
   5  13  17    0.69    2.92
  -5  14   0   -2.35    1.60
  -5 -14   0    0.29    1.40
   5 -14   0   -2.25    2.68
  -5  14  -1   -0.06    1.61
  -5  14   1    2.74    1.49
   5 -14   1   -0.52    2.73
  -5 -14  -1    3.76    1.63
  -5 -14   1   -0.96    1.48
   5 -14  -1   -0.58    2.55
  -5 -14   2  129.27    5.91
   5 -14   2  129.54    8.34
  -5  14   2  126.06    4.48
  -5  14  -2  129.67    5.46
  -5 -14  -2  130.99    5.29
   5 -14  -2  117.53    7.65
   5 -14   3    2.56    2.78
  -5 -14   3    4.25    1.76
  -5  14   3    3.47    1.32
  -5  14  -3    5.81    2.06
   5 -14  -3   -0.23    2.54
  -5 -14   4  151.96    6.93
   5 -14   4  155.05    9.15
  -5  14   4  137.63    4.18
  -5  14  -4  161.23    6.60
   5 -14  -4  138.86    8.22
   5 -14   5    9.88    3.25
  -5  14   5   10.48    1.51
  -5 -14   5   15.74    2.87
   5 -14  -5    9.37    3.01
  -5  14  -5   11.11    2.52
   5 -14  -6  110.71    7.64
   5 -14   6  128.59    8.50
  -5  14   6  102.12    3.38
   5 -14  -7   24.83    4.28
   5 -14   7   24.98    4.55
   5 -14  -8    8.69    3.50
   5  14   8    6.97    2.98
   5 -14   8    9.38    3.93
   5  14   9    3.18    2.48
   5  14  10    5.83    3.21
   5  14  11    2.65    2.90
   5  14  12  110.38    7.80
   5  14  13    2.06    2.79
   5  14  14   56.17    5.92
   5  14  15    3.07    2.89
   5  14  16    5.27    3.39
  -5 -15   0   -0.13    1.53
   5 -15   0   -1.29    2.49
   5 -15   1    7.27    2.86
  -5 -15   1    9.30    2.16
   5 -15  -1    4.70    2.94
  -5 -15  -1    8.12    1.93
   5 -15  -2    0.85    2.40
  -5 -15   2    1.11    1.77
   5 -15   2   -2.07    2.89
  -5 -15  -2   -1.83    1.58
   5 -15  -3   49.48    5.37
  -5 -15   3   57.43    4.29
   5 -15   3   53.32    6.08
   5 -15  -4   16.95    3.73
   5 -15   4   17.78    3.87
  -5 -15   4   19.43    3.01
   5 -15  -5   35.48    4.80
   5 -15   5   40.79    5.33
  -5 -15   5   41.23    4.17
   5 -15  -6    2.36    2.69
   5 -15   6    5.33    3.15
  -5 -15   6    6.17    2.66
   5 -15  -7   12.50    3.65
   5 -15   7   13.78    3.93
   5 -15  -8    3.73    3.06
   5 -15   8    5.34    3.83
   5  15   8   -2.31    3.08
   5 -15   9    3.52    3.12
   5  15   9    6.04    3.19
   5  15  10    7.15    3.37
   5  15  11   30.96    4.83
   5  15  12    1.20    3.04
   5  15  13   52.91    5.71
   5  15  14   51.81    6.48
   5  15  15    4.81    3.77
  -5 -16   0    1.85    1.78
   5 -16   0    0.30    2.73
  -5 -16   1    0.87    1.63
  -5 -16  -1    0.18    1.77
   5 -16   1    0.85    2.67
   5 -16  -1   -0.34    2.67
   5 -16  -2   42.75    5.25
   5 -16   2   48.36    6.02
  -5 -16   2   51.12    4.15
   5 -16   3    3.81    3.56
  -5 -16   3   -0.45    2.00
   5 -16  -3    5.36    3.24
   5 -16  -4  158.09    9.44
  -5 -16   4  178.43    8.04
   5 -16   4  170.17   10.43
   5 -16  -5    9.29    3.34
  -5 -16   5   14.44    3.06
   5 -16   5    8.50    3.83
   5 -16  -6   74.76    7.10
  -5 -16   6   77.21    5.79
   5 -16   6   75.70    7.23
   5 -16  -7   13.77    3.83
   5 -16   7   13.43    4.21
  -5 -16   7   12.27    3.34
   5 -16  -8    0.65    2.85
   5 -16   8    1.74    3.48
   5  16   8   -2.86    3.50
   5  16   9   30.38    4.79
   5 -16   9   41.19    6.15
   5  16  10   29.66    4.81
   5 -16  10   33.99    5.75
   5  16  11    6.75    3.55
   5  16  12   69.22    6.45
   5  16  13    6.46    3.51
   5  16  14   85.52    7.70
   5 -17   0   -0.94    3.06
   5 -17  -1    1.16    2.96
   5 -17   1   -2.60    3.30
   5 -17   2   53.10    6.34
   5 -17  -2   46.13    5.82
   5 -17   3    1.82    3.23
   5 -17  -3    1.90    2.86
   5 -17   4   16.90    4.17
   5 -17  -4   17.52    3.98
   5 -17  -5   31.11    4.85
   5 -17   5   29.97    5.14
   5 -17  -6    1.46    3.15
   5 -17   6    1.59    3.43
   5 -17  -7    3.20    3.38
   5 -17   7    0.45    3.41
   5 -17   8   -5.20    3.89
   5  17   8   -4.14    3.64
   5  17   9    3.74    3.42
   5  17  10   22.46    4.74
   5  17  11   34.63    5.36
   5  17  12   -6.90    4.14
   5 -18   0   -2.99    3.12
   5 -18  -1   11.43    4.11
   5 -18   1    5.28    3.21
   5 -18  -2   32.43    5.51
   5 -18   2   31.08    5.31
   5 -18   3   -3.14    3.26
   5 -18  -3   -0.06    2.99
   5 -18  -4   71.90    7.32
   5 -18   4   76.87    8.07
   5 -18   5   11.08    4.01
   5 -18  -5    6.45    3.43
   5 -18  -6   63.54    6.99
   5 -18   6   55.98    7.08
   5 -18  -7   15.25    4.61
   5  18   8   -4.76    3.75
   5  18   9   -1.27    2.94
   5  18  10   13.41    4.22
   5  18  11    6.22    3.48
   5 -19   0   -1.31    3.09
   5 -19  -1   15.13    4.20
   5 -19   1   17.15    4.80
   5 -19  -2   18.95    4.47
   5  19   8   -1.77    3.47
   6   0   0  247.01    5.17
   6   0  -1   -0.13    1.16
   6   0   1   -0.22    1.13
  -6   0   1   -0.46    1.18
   6   0  -2   76.83    3.20
  -6   0   2   74.43    3.14
   6   0   2   77.45    3.44
   6   0   2   82.51    3.13
  -6   0   3    0.12    1.12
   6   0   3    1.55    1.43
  -6   0   4  103.20    4.08
   6   0   4   96.25    4.34
  -6   0   5    2.63    1.43
   6   0   5    0.94    1.49
  -6   0   6    6.57    1.74
  -6   0  -6    6.55    1.72
   6   0   6   11.62    2.22
  -6   0   7    0.23    1.32
  -6   0  -7    0.67    1.39
   6   0   7    0.25    1.52
  -6   0  -8  133.90    5.70
   6   0  -8  128.06    4.67
   6   0   8  131.02    5.72
  -6   0  -9    1.42    1.55
   6   0  -9   -0.25    1.32
   6   0   9    0.87    1.67
  -6   0 -10    9.05    2.22
   6   0 -10    6.31    1.55
   6   0  10    8.19    2.29
  -6   0 -11    1.47    1.67
   6   0 -11    1.67    1.47
   6   0  11   -0.72    1.76
   6   0 -12    6.17    1.83
   6   0  12    6.99    2.44
   6   0 -13    1.47    1.60
   6   0  13    0.30    2.05
   6   0 -14   42.99    3.95
   6   0  14   40.70    4.39
   6   0  15   -0.88    2.66
   6   0  16   11.75    2.84
   6   0  17    1.58    2.62
   6   0  18    6.39    3.17
   6   0  19   -0.92    2.94
   6   0  20    6.03    3.40
   6   0  21    5.71    3.47
   6   1   0 1409.82   10.69
   6  -1   0 1458.30   13.51
   6  -1  -1  554.68    8.53
   6   1  -1  549.23    7.01
  -6   1   1  568.13    8.87
   6  -1   1  545.15    7.89
   6   1   1  561.85    6.77
   6  -1   1  565.68    8.83
  -6  -1   1  555.38    7.31
   6  -1  -2   54.89    3.15
  -6  -1   2   55.35    2.67
  -6   1   2   54.78    3.23
   6  -1   2   54.84    3.05
   6   1   2   55.08    2.46
   6  -1   2   53.37    3.00
  -6  -1   3    2.02    1.09
   6  -1  -3    1.51    1.38
  -6   1   3    5.11    1.60
   6   1   3    2.31    1.48
   6  -1   3    1.75    1.24
  -6  -1   4   43.25    2.53
  -6   1   4   43.97    2.86
   6  -1   4   45.81    2.91
   6   1   4   41.06    3.02
  -6  -1   5   33.28    2.42
  -6   1   5   35.01    2.70
  -6   1  -5   36.49    2.75
   6   1   5   37.06    2.95
   6  -1   5   33.70    2.71
  -6   1   6   18.10    2.37
  -6   1  -6   19.68    2.43
   6   1   6   19.95    2.66
   6  -1   6   17.39    2.44
  -6   1  -7    7.12    1.83
  -6   1   7    6.26    1.81
   6  -1  -7    4.83    1.25
   6  -1   7    9.50    2.04
   6   1   7    9.04    2.22
  -6  -1  -8 1433.12   18.43
  -6   1   8 1398.66   17.93
   6  -1  -8 1417.70   14.56
  -6   1  -8 1433.30   18.04
   6  -1   8 1410.88   17.95
   6   1   8 1387.97   18.47
  -6  -1  -9  333.78    9.38
  -6   1   9  329.44    9.08
   6  -1   9  320.11    9.01
   6  -1  -9  331.55    7.46
   6   1  -9  319.59    7.82
   6   1   9  323.85    9.38
  -6   1  -9  343.35    9.30
  -6  -1 -10  245.55    8.42
   6   1 -10  227.69    7.37
   6  -1  10  246.41    8.43
   6  -1 -10  233.14    6.94
   6   1  10  239.72    8.50
  -6   1 -10  239.85    8.12
  -6   1 -11    3.59    1.92
  -6  -1 -11    6.11    2.21
   6   1 -11    1.45    1.60
   6  -1 -11    3.60    1.64
   6  -1  11    3.45    2.07
   6   1  11    3.66    2.12
   6  -1  12   36.62    4.11
   6  -1 -12   38.55    3.50
   6   1 -12   37.99    3.63
   6   1  12   37.83    4.05
   6   1 -13   16.21    2.54
   6  -1  13   11.75    2.74
   6   1  13   12.71    2.91
   6  -1 -13   13.18    2.36
   6  -1 -14  105.77    5.69
   6  -1  14  105.87    6.56
   6   1 -14  119.14    6.44
   6   1  14  107.93    6.69
   6  -1  15    7.61    2.80
   6  -1 -15   11.19    2.47
   6   1  15   13.16    2.88
   6  -1  16  585.49   16.16
   6   1  16  558.55   15.52
   6  -1  17    5.74    2.93
   6   1  17    1.34    2.53
   6   1  18  154.35    9.24
   6  -1  18  157.46    9.13
   6   1  19   11.45    3.68
   6  -1  19   15.66    4.04
   6   1  20    6.62    3.52
   6  -1  20   11.68    4.11
   6  -1  21   47.04    5.78
   6   1  21   50.53    6.24
   6   2   0   84.37    2.34
   6  -2   0   97.01    4.14
   6  -2   0   85.37    2.92
   6   2   1   41.33    1.60
   6  -2  -1   43.35    2.83
  -6   2   1   48.03    3.09
   6  -2   1   42.60    2.91
  -6  -2   1   45.23    1.97
   6  -2   1   43.01    2.33
  -6  -2   2   45.43    2.07
   6  -2  -2   44.89    2.87
   6   2   2   44.08    1.79
  -6   2   2   41.85    2.92
   6  -2   2   50.96    3.09
   6  -2   2   50.90    2.66
  -6  -2   3   66.15    2.70
   6  -2  -3   65.49    3.43
  -6   2   3   70.89    3.65
   6  -2   3   74.32    3.28
  -6   2   4   65.93    3.68
   6  -2  -4   64.47    3.59
  -6  -2   4   62.54    2.88
   6   2   4   65.27    3.91
  -6   2  -4   61.70    3.22
   6  -2   4   69.65    3.48
  -6   2   5   13.89    2.12
   6   2   5   13.85    2.32
  -6   2  -5   13.42    1.95
   6  -2   5   15.29    2.10
  -6   2  -6    2.04    1.40
   6   2   6    0.21    1.58
  -6   2   6    4.54    1.63
   6  -2  -6    3.56    1.11
   6  -2   6    5.60    1.70
  -6   2  -7   21.80    2.50
  -6   2   7   19.16    2.47
   6  -2  -7   18.73    1.75
   6   2   7   21.82    2.80
   6  -2   7   19.91    2.50
  -6   2   8  116.11    5.52
   6  -2   8  124.63    5.49
   6  -2  -8  116.45    4.07
  -6   2  -8  124.40    5.47
   6   2   8  118.73    5.75
  -6   2  -9   26.71    2.83
  -6   2   9   30.27    3.27
   6  -2  -9   25.99    2.30
   6  -2   9   26.29    3.00
   6   2   9   25.10    3.11
  -6  -2 -10   36.87    3.73
  -6   2  10   40.53    3.82
   6  -2  10   38.50    3.68
   6   2 -10   38.36    3.39
   6  -2 -10   36.27    2.81
   6   2  10   35.54    3.79
  -6   2 -10   37.64    3.61
  -6  -2 -11    3.58    1.98
  -6   2  11    2.66    2.06
   6   2 -11    2.71    1.59
   6  -2  11    3.61    1.80
   6   2  11    2.59    2.09
   6  -2 -11    2.33    1.38
  -6   2 -11    2.32    1.87
   6  -2  12   11.02    2.49
   6   2 -12    8.50    1.64
   6  -2 -12   13.18    2.10
   6   2  12   13.79    2.87
   6  -2  13    5.21    2.36
   6   2 -13    3.46    2.26
   6  -2 -13    2.58    1.68
   6   2  13    0.11    2.18
   6  -2  14   13.90    3.03
   6   2  14   13.30    2.93
   6  -2 -14   14.02    2.45
   6  -2  15   27.93    4.11
   6   2  15   35.02    4.40
   6  -2 -15   30.38    3.45
   6  -2  16    8.46    3.10
   6   2  16    4.16    2.69
   6  -2  17    4.30    3.05
   6   2  17    5.50    3.07
   6  -2  18   11.57    3.84
   6   2  18    6.14    3.49
   6  -2  19    8.24    3.39
   6   2  19   -1.28    3.22
   6  -2  20   -1.84    3.69
   6   2  20    0.57    2.92
   6  -2  21    5.10    3.37
   6   2  21    6.49    3.33
   6  -3   0 1373.09   15.75
   6  -3   0 1366.90    9.94
   6  -3   1  225.35    6.47
  -6  -3   1  221.37    3.40
   6  -3  -1  222.85    6.28
  -6   3   1  231.66    6.51
   6  -3   1  231.62    4.58
   6  -3  -1  223.31    3.65
   6  -3  -2  324.72    7.73
  -6  -3   2  322.43    4.78
   6  -3  -2  316.87    3.97
  -6   3   2  335.38    8.14
   6  -3   2  335.46    7.84
   6   3   2  326.32    3.20
   6  -3   2  344.90    6.13
   6  -3  -3   44.04    3.26
  -6  -3   3   41.86    2.09
  -6   3   3   45.61    3.30
   6  -3   3   48.71    2.70
  -6   3  -3   46.08    2.68
   6  -3  -4   15.17    2.24
  -6   3   4   17.88    2.35
  -6   3  -4   13.29    1.78
   6  -3   4   13.89    1.82
   6   3   5  154.58    5.94
  -6   3   5  169.57    5.96
   6  -3   5  171.95    5.38
   6  -3  -5  156.52    3.20
  -6   3  -5  165.20    5.25
  -6   3   6  573.03   11.38
   6  -3   6  561.98   10.19
   6  -3  -6  558.47    6.73
   6   3   6  545.64   11.45
  -6   3  -6  563.38   10.14
  -6   3   7  224.82    7.41
   6  -3   7  230.08    6.90
   6  -3  -7  225.71    4.76
   6   3   7  225.71    7.51
  -6   3  -7  234.11    6.87
  -6   3   8  811.48   14.24
   6  -3  -8  808.03    9.67
   6  -3   8  806.63   13.48
  -6   3  -8  813.19   13.41
   6   3   8  792.00   14.48
  -6   3   9  254.02    8.46
   6  -3  -9  247.35    5.85
   6  -3   9  258.36    8.12
   6   3   9  248.12    8.44
  -6   3  -9  266.66    8.08
  -6   3  10  433.15   11.55
   6  -3 -10  418.31    8.24
   6   3 -10  430.05   10.38
   6  -3  10  428.11   10.99
  -6   3 -10  446.88   10.92
   6   3  10  427.96   11.46
   6   3 -11    6.48    2.29
   6  -3  11    2.43    1.96
  -6   3 -11    4.21    1.97
   6   3  11    2.75    2.17
   6  -3 -11    4.72    1.54
   6   3 -12   42.72    3.94
   6  -3  12   43.72    4.15
   6  -3 -12   41.59    3.19
   6   3  12   44.30    4.35
   6  -3  13  210.81    8.76
   6  -3 -13  212.67    7.08
   6   3  13  214.70    9.00
   6  -3  14   30.58    3.97
   6  -3 -14   28.39    2.95
   6   3  14   33.14    3.96
   6   3  15  180.19    8.76
   6  -3  15  185.87    8.89
   6  -3 -15  187.13    7.33
   6   3  16   83.90    6.39
   6  -3  16   94.14    6.87
   6  -3 -16   82.61    5.40
   6   3  17  152.13    8.72
   6  -3  17  159.28    8.89
   6   3  18   64.33    6.38
   6  -3  18   65.83    6.15
   6  -3  19   33.88    4.91
   6   3  19   28.01    4.74
   6   3  20    3.14    3.53
   6  -3  20    1.19    3.14
   6   3  21  120.42    9.08
   6  -4   0   17.98    1.25
   6  -4   0   19.67    2.51
   6  -4   1   85.02    4.38
  -6   4   1   96.03    4.66
   6  -4  -1   85.26    4.32
  -6  -4   1   86.66    1.82
   6  -4   1   88.08    2.77
   6  -4  -1   80.62    1.84
  -6   4   2   48.59    3.55
   6  -4   2   49.34    3.55
  -6  -4   2   44.69    1.76
   6  -4  -2   47.54    3.42
   6  -4   2   44.94    2.34
  -6   4  -2   46.39    2.37
  -6   4  -3    6.66    1.36
  -6   4   3    4.77    1.72
   6  -4  -3    4.82    1.68
   6  -4   3    8.85    1.47
  -6   4   4    3.83    1.67
   6  -4  -4    3.76    1.62
   6  -4   4    4.47    1.36
  -6   4  -4    4.35    1.36
  -6   4   5   37.24    3.25
   6   4   5   28.51    2.95
   6  -4  -5   30.85    3.10
   6  -4  -5   28.84    1.17
   6  -4   5   31.72    2.62
  -6   4  -5   35.10    2.66
   6   4   6   13.24    2.49
  -6   4   6   13.95    2.27
   6  -4  -6   14.09    1.13
   6  -4   6   11.37    1.96
  -6   4  -6   14.95    1.99
   6   4   7   35.90    3.51
  -6   4   7   41.17    3.54
   6  -4   7   40.33    3.21
  -6   4  -7   43.90    3.24
   6  -4  -7   38.79    1.90
   6   4   8    6.69    2.12
  -6   4   8    5.48    1.87
   6  -4   8    4.98    1.86
  -6   4  -8    6.65    1.92
   6  -4  -8    5.39    1.12
  -6   4   9   24.08    3.07
   6  -4   9   22.34    2.82
   6   4   9   23.60    3.12
   6  -4  -9   21.87    1.88
  -6   4  -9   24.57    2.79
  -6   4  10   45.98    4.30
   6  -4  10   42.18    3.87
  -6   4 -10   48.63    3.93
   6  -4 -10   42.52    2.75
   6   4  10   47.18    4.26
   6   4 -11    1.53    1.79
   6  -4  11    0.57    1.85
   6  -4 -11    2.01    1.37
  -6   4 -11    4.21    2.10
   6   4  11   -0.56    2.23
   6  -4  12   10.05    2.77
   6  -4 -12   13.99    2.09
   6   4  12    8.76    2.34
   6  -4  13    7.02    2.75
   6   4  13    6.69    2.65
   6  -4 -13    5.57    1.94
   6  -4  14   16.15    3.30
   6  -4 -14   16.02    2.33
   6   4  14   19.53    3.61
   6  -4  15   93.15    6.61
   6   4  15   90.37    6.57
   6  -4 -15  101.89    5.57
   6  -4  16    2.13    2.79
   6  -4 -16    4.66    2.06
   6   4  16    4.53    2.60
   6  -4  17    3.88    2.70
   6   4  17    2.72    2.69
   6  -4  18   -1.89    3.29
   6   4  18    2.71    2.95
   6  -4  19    5.72    3.40
   6   4  19    5.41    3.48
   6   4  20    3.68    3.15
   6  -4  20    5.40    3.79
   6  -5   0   21.19    2.90
   6  -5   0   19.14    1.22
   6  -5   1  212.28    7.12
   6  -5  -1  221.03    7.10
  -6   5   1  224.90    7.26
   6  -5   1  224.11    4.26
  -6   5  -1  213.03    4.13
   6  -5   2 1212.73   16.54
  -6   5   2 1225.15   17.10
   6  -5  -2 1173.71   16.12
   6  -5   2 1236.49   11.23
  -6   5  -2 1201.68   10.94
  -6   5   3    5.16    1.78
   6  -5   3    9.24    2.16
   6  -5  -3    7.96    2.06
   6  -5   3    8.81    1.51
  -6   5  -3    7.23    1.34
  -6   5   4    9.99    2.12
   6  -5  -4    9.78    1.99
   6   5   4    8.73    0.79
   6  -5   4   10.94    1.71
  -6   5  -4   11.42    1.66
   6  -5  -5    5.84    1.98
  -6   5   5    7.59    1.96
   6  -5   5    9.58    1.72
  -6   5  -5    6.43    1.56
  -6   5   6 1219.39   17.80
   6   5   6 1099.09   16.99
   6  -5  -6 1093.08   16.73
   6  -5   6 1174.38   14.85
  -6   5  -6 1160.25   14.55
   6   5   7   27.58    3.10
  -6   5   7   26.98    3.06
   6  -5   7   32.93    3.10
   6  -5  -7   25.36    1.37
  -6   5  -7   29.96    2.74
  -6   5   8  142.55    6.83
   6  -5   8  140.77    6.06
   6   5   8  135.10    6.64
  -6   5  -8  134.44    5.77
   6  -5  -8  125.39    3.55
  -6   5   9   88.86    5.43
   6  -5   9   87.75    5.00
   6   5   9   90.35    5.51
   6  -5  -9   84.88    3.18
  -6   5  -9   93.69    4.97
   6  -5  10  589.54   12.95
   6  -5 -10  574.00    8.83
   6   5  10  600.92   14.02
  -6   5 -10  622.43   13.07
   6  -5  11   24.31    3.29
   6  -5 -11   23.29    2.31
   6   5  11   28.39    3.86
   6  -5  12   10.72    2.35
   6   5  12   17.17    3.15
   6  -5 -12   16.50    2.13
   6  -5  13    8.84    2.38
   6  -5 -13   12.71    2.15
   6   5  13   11.43    2.67
   6  -5  14  386.54   12.37
   6  -5 -14  380.33    9.48
   6   5  14  396.61   12.76
   6  -5  15   68.17    5.59
   6   5  15   77.16    6.17
   6  -5 -15   73.02    4.59
   6  -5  16   64.64    5.95
   6   5  16   70.33    6.05
   6  -5 -16   70.80    4.97
   6  -5  17    4.73    3.19
   6   5  17   -0.70    2.57
   6  -5  18   74.60    6.75
   6   5  18   69.96    6.52
   6  -5  19    7.12    3.44
   6   5  19    4.53    3.12
   6  -5  20   75.81    7.43
   6   5  20   77.89    7.28
   6  -6   0    9.48    2.36
  -6   6   0    3.90    0.79
   6  -6  -1    7.30    2.13
   6  -6   1    6.83    2.09
  -6   6  -1    8.40    1.11
  -6   6   2   17.32    2.66
   6  -6   2   14.34    2.56
   6  -6  -2   14.93    2.48
   6  -6   2   13.50    1.37
  -6   6  -2   16.37    1.57
  -6   6   3   33.78    3.39
   6  -6   3   35.26    3.45
   6  -6  -3   28.68    3.11
   6  -6   3   37.80    2.45
  -6   6  -3   30.98    2.22
  -6   6   4   10.13    2.39
   6   6   4    7.97    0.82
   6  -6  -4    5.10    1.95
   6  -6   4   10.34    1.68
  -6   6  -4    7.79    1.52
   6  -6  -5   33.61    3.34
  -6   6   5   33.80    3.43
   6   6   5   32.29    1.58
   6  -6   5   36.49    2.76
  -6   6  -5   34.78    2.66
  -6   6   6   82.15    5.03
   6   6   6   77.88    4.99
   6  -6  -6   74.84    4.92
   6   6   6   72.84    2.81
   6  -6   6   78.62    4.09
  -6   6  -6   76.55    3.95
   6   6   7   32.16    3.50
  -6   6   7   35.02    3.54
  -6   6  -7   34.36    2.94
   6   6   8   23.68    3.13
  -6   6   8   22.97    3.13
   6  -6   8   21.92    2.61
  -6   6  -8   24.87    2.68
   6   6   9   13.21    2.70
   6  -6  -9   12.97    1.34
   6  -6   9   12.42    2.29
  -6   6  -9   17.66    2.64
   6  -6  10   37.07    3.79
  -6   6 -10   34.71    3.44
   6  -6 -10   37.49    2.40
   6   6  10   40.06    4.16
   6  -6 -11    5.76    1.46
   6  -6  11    9.09    2.55
   6   6  11    5.56    2.23
   6  -6 -12    2.61    1.47
   6   6  12    0.95    2.37
   6  -6 -13   12.66    2.22
   6  -6  13   16.83    3.63
   6   6  13   11.45    3.14
   6  -6 -14   12.66    2.35
   6  -6  14   21.31    3.94
   6   6  14   17.67    3.74
   6  -6 -15    4.26    1.89
   6  -6  15    2.70    2.87
   6   6  15    2.67    2.51
   6  -6  16   35.01    4.60
   6   6  16   36.21    4.70
   6  -6  17   12.96    3.69
   6   6  17    9.29    3.13
   6  -6  18   12.61    3.63
   6   6  18   17.16    4.51
   6  -6  19    1.44    3.19
   6   6  19    2.80    2.86
   6  -6  20    6.94    3.46
   6   6  20    7.97    3.89
   6  -7   0  158.42    7.10
  -6   7   0  137.05    2.88
   6  -7  -1   81.78    4.91
   6  -7   1   75.44    4.86
  -6  -7   1   81.42    2.13
  -6   7  -1   83.23    2.73
   6  -7  -2  420.66   10.73
   6  -7   2  428.36   11.10
  -6   7   2  441.74   11.22
  -6   7  -2  427.40    6.81
   6  -7  -3    2.09    1.83
  -6   7   3    3.94    1.97
   6  -7   3    4.69    2.25
  -6   7  -3    3.84    1.20
   6  -7  -4   33.57    3.46
  -6   7   4   32.17    3.51
  -6   7  -4   32.63    2.45
   6  -7  -5   64.62    4.64
  -6   7   5   69.15    4.89
   6   7   5   67.51    2.39
  -6   7  -5   68.62    3.71
  -6   7   6  769.54   15.67
   6   7   6  694.30    8.17
   6  -7  -6  704.35   14.61
  -6   7  -6  748.82   12.04
   6   7   7   30.02    3.44
  -6   7   7   31.56    3.58
   6   7   7   24.17    1.90
   6  -7  -7   27.30    3.32
   6  -7   7   25.40    2.66
  -6   7  -7   32.39    2.97
   6   7   8   87.24    3.92
   6  -7   8   95.99    5.06
   6   7   8   87.41    5.81
  -6   7  -8   97.99    5.13
   6   7   9   85.22    4.05
   6  -7   9   86.75    4.95
  -6   7  -9   92.40    5.06
   6   7   9   85.41    5.75
   6   7  10  299.60    7.89
   6  -7  10  321.77    9.68
   6   7  10  309.03   10.65
  -6   7 -10  335.29    9.85
   6  -7  11   38.47    4.37
   6   7  11   13.77    3.09
   6  -7  12   79.19    5.54
   6   7  12   78.79    5.93
   6  -7 -13    6.60    1.63
   6  -7  13    4.87    3.10
   6   7  13    4.37    2.51
   6  -7 -14  447.86    9.86
   6  -7  14  474.26   13.73
   6   7  14  475.65   14.39
   6  -7  15   17.84    3.68
   6   7  15   12.75    3.53
   6  -7  16   19.40    3.82
   6   7  16   25.73    4.43
   6  -7  17    4.44    3.15
   6   7  17    2.18    2.84
   6   7  18  257.90   11.97
   6   7  19    4.21    3.31
   6   7  20  139.45    9.58
  -6  -8   0   60.35    1.66
   6  -8   0   64.59    4.78
  -6   8   0   61.43    2.12
   6  -8  -1   10.94    2.42
   6  -8   1    9.92    2.41
  -6  -8   1   11.93    1.16
  -6   8   1    5.62    0.68
  -6   8  -1    9.08    1.24
   6  -8  -2   24.83    3.12
   6  -8   2   24.04    3.13
  -6   8  -2   26.70    1.95
   6  -8  -3   32.27    3.49
   6  -8   3   34.53    3.74
  -6   8   3   34.76    3.79
  -6   8  -3   35.44    2.43
   6  -8  -4   20.79    2.92
  -6   8   4   22.53    3.24
   6  -8   4   23.19    3.23
  -6   8  -4   20.43    2.14
   6  -8  -5    3.28    1.82
  -6   8   5    6.25    2.28
   6   8   5    5.88    1.07
  -6   8  -5    4.09    1.54
   6   8   6   14.62    1.53
   6  -8  -6   14.59    2.72
  -6   8   6   16.71    2.88
  -6   8  -6   13.84    2.05
   6  -8  -7   14.16    2.85
   6   8   7   14.13    1.75
   6   8   7    9.91    2.69
  -6   8  -7   10.82    2.05
   6   8   8    5.07    1.39
   6   8   8    7.24    2.45
  -6   8  -8    5.89    1.94
   6   8   9   42.23    2.98
   6   8   9   38.42    4.09
  -6   8  -9   43.69    3.73
   6   8  10   50.95    3.59
   6   8  10   52.75    4.82
   6   8  11    9.02    2.19
   6   8  11   11.81    3.13
   6   8  12    4.19    2.13
   6   8  12    4.73    2.43
   6   8  13   13.28    2.87
   6   8  13   14.75    3.36
   6   8  14   35.31    3.88
   6   8  14   38.67    4.77
   6   8  15   14.20    3.49
   6   8  16    4.20    3.06
   6   8  17    1.21    2.72
   6   8  18   27.87    4.64
   6   8  19   13.61    4.12
   6  -9   0  238.38    8.99
  -6  -9   0  226.15    3.88
  -6   9   0  244.08    4.41
   6  -9  -1  169.34    7.43
  -6  -9   1  166.14    3.96
   6  -9   1  165.07    7.60
  -6   9  -1  170.92    4.25
  -6   9   1  166.28    2.96
   6  -9   2  519.36   13.38
  -6  -9   2  529.14    7.77
  -6   9  -2  537.98    8.28
   6  -9  -2  516.68   13.03
   6  -9   3   64.31    4.97
  -6   9   3   69.32    5.24
   6  -9  -3   57.25    4.57
  -6   9  -3   61.65    3.20
   6  -9  -4    7.36    2.38
   6  -9   4    7.93    2.72
  -6   9  -4    5.73    1.57
  -6   9  -5  190.18    6.11
   6  -9  -5  164.71    7.71
   6   9   6   36.48    2.28
  -6   9  -6   36.89    3.10
   6  -9  -6   33.41    3.86
   6   9   7  230.29    5.78
   6  -9  -7  223.04    9.11
  -6   9  -7  234.86    7.46
   6   9   8  212.63    9.16
   6   9   8  243.90    6.41
  -6   9  -8  242.78    8.07
   6   9   9   72.46    3.80
  -6   9  -9   76.54    4.81
   6   9   9   63.31    5.22
   6   9  10  110.20    5.00
   6   9  10  112.86    6.91
   6   9  11   16.05    2.44
   6   9  11   13.94    3.06
   6   9  12   58.09    4.20
   6   9  12   53.44    5.27
   6   9  13   91.57    5.48
   6   9  13   98.94    6.98
   6   9  14   31.87    4.54
   6   9  15   77.87    6.41
   6   9  16  157.51    9.20
   6   9  17   27.09    4.69
   6   9  18   85.71    7.37
   6   9  19   17.92    4.31
   6 -10   0   49.25    4.77
  -6 -10   0   44.92    2.15
  -6  10   0   41.32    2.11
   6 -10   1    4.33    2.45
  -6 -10   1    5.06    1.19
   6 -10  -1    4.00    2.23
  -6 -10  -1    7.17    1.01
  -6  10   1    5.49    0.97
  -6  10  -1    4.26    1.19
   6 -10  -2   10.38    2.77
   6 -10   2    8.10    2.40
  -6 -10   2    7.46    1.45
  -6  10  -2    6.84    1.42
  -6  10   2    6.06    0.71
   6 -10  -3    4.08    2.45
   6 -10   3    4.31    2.32
  -6  10  -3    0.11    1.25
   6 -10  -4   13.10    3.07
   6 -10   4   14.61    3.22
  -6  10  -4   10.30    1.88
   6 -10  -5    6.67    2.18
   6 -10   5   11.37    2.99
  -6  10  -5   13.78    2.19
   6 -10  -6   15.13    3.22
  -6  10  -6   10.97    2.03
   6  10   7   36.74    2.67
   6 -10  -7   32.73    4.05
  -6  10  -7   38.72    3.46
   6  10   8   17.69    2.21
   6  10   8   16.09    2.96
  -6  10  -8   18.03    2.82
   6  10   9    3.01    1.55
   6  10   9    3.14    2.25
   6  10  10    1.82    1.62
   6  10  10    2.87    2.65
   6  10  11   58.67    4.14
   6  10  11   51.96    5.12
   6  10  12    7.62    2.27
   6  10  12    5.56    2.77
   6  10  13   12.25    2.62
   6  10  13   12.44    3.64
   6  10  14   11.33    3.44
   6  10  15   28.71    4.24
   6  10  16   11.36    3.83
   6  10  17   -0.50    3.22
   6  10  18    8.11    3.81
   6 -11   0 1382.26   23.08
  -6  11   0 1421.17   12.28
  -6 -11   0 1353.77   12.20
  -6  11   1   10.32    1.28
  -6  11  -1   14.38    1.84
   6 -11  -1    9.54    2.55
  -6 -11   1   11.53    1.56
   6 -11   1    9.90    2.72
  -6 -11  -1   10.07    1.29
   6 -11   2  117.85    7.28
  -6 -11   2  118.55    4.53
  -6  11   2   96.42    2.48
  -6  11  -2  115.63    4.33
   6 -11  -2  112.94    6.90
   6 -11   3   76.82    5.98
  -6 -11   3   82.90    4.09
   6 -11  -3   74.38    5.70
  -6  11  -3   76.46    3.79
   6 -11  -4   10.61    3.06
   6 -11   4   12.66    3.15
  -6  11  -4    6.79    1.76
   6 -11   5   89.83    6.61
   6 -11  -5   71.83    5.65
  -6  11  -5   86.52    4.58
   6 -11  -6    5.10    2.57
   6 -11   6    8.85    3.18
  -6  11  -6    3.42    1.87
   6 -11  -7    2.56    2.39
   6  11   7    7.46    1.81
  -6  11  -7    5.91    2.21
   6  11   8  675.59   11.32
   6  11   8  591.18   15.64
  -6  11  -8  695.60   14.15
   6 -11  -8  642.16   16.46
   6  11   9   34.47    3.04
   6  11   9   29.93    4.06
   6  11  10   32.40    3.30
   6  11  10   31.85    4.40
   6  11  11    3.26    1.93
   6  11  11    2.01    2.63
   6  11  12   18.89    3.97
   6  11  13   66.05    6.27
   6  11  14    3.47    2.87
   6  11  15    6.35    3.16
   6  11  16  178.45   10.07
   6  11  17   18.19    4.29
   6  11  18   97.31    8.14
   6 -12   0  231.47   10.08
  -6  12   0  239.21    5.57
  -6 -12   0  214.47    5.36
  -6  12  -1    2.36    1.43
  -6  12   1    3.06    1.22
  -6 -12   1    6.50    1.56
   6 -12  -1    3.62    2.69
   6 -12   1    2.24    2.36
  -6 -12  -1    3.15    1.10
  -6 -12   2    1.72    1.35
   6 -12   2    2.70    2.50
  -6  12   2    1.34    0.92
  -6  12  -2    1.52    1.41
   6 -12  -2    3.32    2.38
   6 -12   3    5.01    2.42
  -6  12   3    4.74    0.79
  -6 -12   3    6.95    1.77
  -6  12  -3    5.90    1.67
  -6  12   3    5.79    0.89
   6 -12  -3    6.19    2.54
   6 -12   4    3.07    2.59
   6 -12  -4    4.08    2.79
  -6  12  -4    1.29    1.56
   6 -12  -5    6.09    2.55
   6 -12   5    4.39    2.76
  -6  12  -5    5.96    1.93
   6 -12  -6   20.24    3.65
   6 -12   6   25.51    4.11
  -6  12  -6   28.71    3.08
   6 -12  -7    3.52    2.83
  -6  12  -7    1.66    1.98
   6 -12  -8   33.68    4.70
   6  12   8   23.98    3.82
   6  12   8   37.36    3.22
   6  12   9    1.45    2.46
   6  12  10    5.96    2.88
   6  12  11   -2.81    2.78
   6  12  12   21.37    3.95
   6  12  13    2.95    2.83
   6  12  14    2.43    3.20
   6  12  15   -1.06    2.91
   6  12  16    5.16    3.32
   6  12  17    3.61    3.14
   6 -13   0  530.39   15.42
  -6  13   0  573.95    9.04
  -6 -13   0  537.67    9.13
  -6  13   1    3.29    1.31
  -6  13  -1    2.87    1.52
   6 -13   1    1.79    2.46
  -6 -13   1    0.18    1.35
   6 -13  -1   -0.53    2.59
  -6 -13  -1    0.30    1.14
  -6 -13   2   60.17    3.73
  -6  13  -2   55.09    3.47
  -6  13   2   52.65    2.44
   6 -13  -2   58.84    5.55
   6 -13   2   52.78    5.49
   6 -13   3    5.10    2.61
  -6 -13   3    2.22    1.66
   6 -13  -3    0.18    2.46
  -6  13  -3    1.08    1.61
  -6  13   3    2.46    1.06
   6 -13   4    8.35    3.19
  -6 -13   4    6.54    1.98
   6 -13  -4   11.92    3.39
  -6  13  -4    7.46    2.05
  -6  13   4    5.23    0.79
  -6  13   4    4.83    0.72
   6 -13   5   21.17    4.03
   6 -13  -5   19.80    3.67
  -6  13  -5   19.78    2.66
   6 -13  -6   18.80    3.50
   6 -13   6   21.99    4.10
  -6  13  -6   19.88    2.83
   6 -13  -7   11.30    3.52
   6 -13   7    8.52    3.60
   6 -13  -8  402.11   14.02
   6  13   8  372.89   13.25
   6  13   9   63.45    5.90
   6  13  10   61.05    5.91
   6  13  11    3.38    3.03
   6  13  12    4.65    3.14
   6  13  13    5.05    3.17
   6  13  14    9.00    3.68
   6  13  15   28.04    4.90
   6  13  16  242.36   11.98
   6 -14   0   16.37    3.73
  -6 -14   0   17.95    2.15
  -6  14  -1   25.64    2.62
   6 -14   1   23.51    4.16
   6 -14  -1   21.46    4.03
  -6 -14  -1   22.87    2.18
  -6 -14   1   24.46    2.52
  -6  14  -2   14.44    2.20
   6 -14  -2   18.23    3.87
   6 -14   2   23.18    4.24
  -6 -14   2   20.01    2.56
  -6 -14   3    3.11    1.83
   6 -14   3    0.56    2.67
  -6  14  -3    2.59    1.79
   6 -14  -3    3.43    2.49
   6 -14   4    7.00    3.33
  -6 -14   4    7.68    2.10
  -6  14  -4   10.09    2.28
   6 -14  -4    6.49    3.00
   6 -14   5    0.82    2.78
  -6 -14   5    4.51    2.01
  -6  14  -5    2.64    1.93
   6 -14  -5   -0.84    2.85
   6 -14  -6   -2.07    2.91
   6 -14   6    0.15    2.83
   6 -14  -7   12.88    3.72
   6 -14   7   12.62    3.82
   6 -14  -8   28.48    4.64
   6 -14   8   34.86    5.37
   6  14   8   21.65    3.87
   6  14   9    3.85    2.66
   6  14  10   12.85    3.84
   6  14  11    5.26    4.20
   6  14  12    1.69    2.87
   6  14  13   -1.30    3.24
   6  14  14    4.15    3.29
   6  14  15    6.91    3.76
  -6 -15   0  135.95    5.30
   6 -15   0  136.86    8.64
  -6 -15   1   64.87    3.83
  -6 -15  -1   66.07    3.63
   6 -15  -1   74.02    6.67
   6 -15   1   63.74    6.26
   6 -15  -2   32.21    4.77
   6 -15   2   23.36    4.21
  -6 -15   2   28.68    2.97
  -6 -15   3    1.62    1.62
   6 -15   3   -0.20    2.94
   6 -15  -3    2.02    2.71
   6 -15  -4   16.94    3.82
   6 -15   4   17.25    3.72
  -6 -15   4   18.20    2.88
   6 -15  -5    0.64    2.93
  -6 -15   5    7.29    2.41
   6 -15   5    6.45    3.46
   6 -15  -6   36.32    4.91
   6 -15   6   39.69    5.58
  -6 -15   6   41.88    4.15
   6 -15  -7  106.89    7.95
   6 -15   7  113.15    8.73
   6 -15  -8   75.20    6.89
   6  15   8   63.77    6.72
   6 -15   8   78.20    7.45
   6 -15   9   62.16    6.98
   6  15   9   49.88    5.54
   6 -15  10   74.93    7.59
   6  15  10   58.80    6.27
   6  15  11    4.13    3.26
   6  15  12   -0.17    3.00
   6  15  13    3.46    3.42
   6  15  14    8.00    3.56
   6 -16   0    7.43    3.54
   6 -16  -1   37.61    5.44
   6 -16   1   45.43    5.67
   6 -16  -2    3.57    3.17
   6 -16   2    6.55    3.36
   6 -16  -3   -4.08    3.23
   6 -16   3   -0.13    3.21
   6 -16  -4    5.39    3.04
   6 -16   4    1.15    2.97
   6 -16  -5   32.11    4.79
   6 -16   5   38.18    5.65
   6 -16  -6    3.06    2.97
   6 -16   6    2.87    3.29
   6 -16  -7   22.71    4.76
   6 -16   7   19.40    4.87
   6 -16  -8   -0.57    3.00
   6  16   8    2.24    3.12
   6 -16   8    4.21    3.61
   6 -16   9    4.50    3.59
   6  16   9    4.72    2.93
   6  16  10   -1.15    2.86
   6  16  11    1.25    3.29
   6  16  12   -2.00    3.30
   6  16  13    8.71    3.98
   6 -17   0    8.87    3.71
   6 -17  -1   25.32    4.67
   6 -17   1   28.77    5.06
   6 -17  -2   63.22    6.67
   6 -17   2   75.39    7.34
   6 -17   3   19.92    4.44
   6 -17  -3   14.35    4.17
   6 -17   4    5.58    3.37
   6 -17  -4    9.02    3.38
   6 -17  -5    9.08    3.91
   6 -17   5   13.99    4.56
   6 -17  -6   62.70    6.99
   6 -17   6   61.17    6.96
   6 -17  -7   46.36    6.18
   6 -17   7   40.31    5.78
   6 -17  -8    4.45    3.28
   6  17   8    0.85    2.94
   6  17   9   10.15    3.70
   6  17  10   89.28    7.85
   6  17  11   23.56    5.27
   6 -18   0    2.77    3.14
   6 -18  -1   -2.94    3.29
   6 -18   1    1.92    3.18
   6 -18  -2   12.18    4.23
   6 -18   2   21.72    4.74
   6 -18   3    3.46    3.41
   6 -18  -3    5.71    3.60
   6 -18  -4   -3.98    3.58
   6 -18  -5    7.65    3.59
   6  18   8   -8.10    4.39
   7   0   0    1.65    1.17
   7   0  -1    0.34    1.10
   7   0   1    1.82    1.23
  -7   0   1    1.85    1.32
   7   0  -2   45.36    2.73
   7   0   2   45.39    2.68
   7   0   2   41.65    2.90
  -7   0   2   46.80    2.84
  -7   0   3    0.58    1.28
   7   0   3    1.42    1.47
  -7   0   4 1390.03   14.71
   7   0   4 1418.29   16.29
  -7   0   5   -0.13    1.34
   7   0   5    2.70    1.60
  -7   0   6   35.61    2.98
   7   0   6   42.48    3.55
  -7   0   7    0.17    1.37
   7   0   7   -1.70    1.64
  -7   0   8   79.44    4.45
  -7   0  -8   84.68    4.79
   7   0   8   76.12    4.70
  -7   0  -9    0.63    1.73
  -7   0   9    0.75    1.58
  -7   0 -10   28.36    3.26
  -7   0  10   29.16    3.24
   7   0 -10   26.24    2.61
   7   0  10   25.63    3.32
   7   0 -11    2.41    1.41
   7   0  11    0.13    1.93
   7   0  12  743.08   15.99
   7   0 -12  763.46   13.95
   7   0 -13    1.01    1.61
   7   0  13   -0.54    2.35
   7   0 -14  332.80   10.10
   7   0  14  319.76   11.37
   7   0  15    0.43    2.35
   7   0  16   19.08    4.10
   7   0  17   -0.39    2.80
   7   0  18    9.78    3.26
   7   0  19    1.44    2.85
   7   0  20  332.05   14.20
   7  -1   0   -0.09    1.30
   7   1   0    0.31    0.98
   7  -1  -1   82.98    3.63
   7   1  -1   73.13    2.91
  -7   1   1   81.20    3.76
  -7  -1   1   76.09    3.03
   7  -1   1   73.64    3.33
   7  -1   1   75.40    3.63
   7   1   1   82.85    2.95
   7  -1  -2  680.30   10.30
   7  -1   2  680.32   10.22
   7   1   2  672.70    8.47
  -7  -1   2  661.34    8.91
  -7   1   2  689.88   10.72
   7  -1   2  676.38   10.04
  -7   1   3    6.15    1.61
   7  -1  -3    5.89    1.59
  -7  -1   3    5.87    1.31
   7   1   3    7.35    1.29
   7  -1   3    7.42    1.67
   7   1   3    6.40    1.78
  -7   1   4  700.98   11.09
  -7  -1   4  696.71   10.00
   7   1   4  679.76   11.62
   7  -1   4  718.76   11.08
  -7  -1   5  158.37    5.11
  -7   1   5  161.93    5.59
   7  -1   5  168.63    5.76
   7   1   5  155.72    5.86
  -7  -1   6   10.60    1.90
  -7   1   6    9.66    2.03
  -7   1  -6   10.44    2.03
   7   1   6   11.27    2.24
   7  -1   6   11.86    2.11
  -7   1   7   46.32    3.43
  -7  -1   7   45.74    3.26
  -7   1  -7   52.60    3.74
   7  -1   7   50.13    3.76
   7   1   7   52.64    3.93
  -7   1  -8   59.19    4.11
  -7   1   8   60.24    4.19
   7  -1  -8   65.10    3.47
   7   1   8   63.37    4.50
   7  -1   8   57.14    4.14
  -7   1   9   85.45    4.95
   7   1  -9   83.63    4.23
   7  -1  -9   76.01    3.69
   7  -1   9   83.26    4.93
   7   1   9   81.11    4.98
  -7   1  -9   85.11    4.94
  -7  -1 -10  272.68    9.08
  -7   1  10  283.32    9.04
   7  -1  10  278.37    9.00
   7   1 -10  284.71    8.04
   7  -1 -10  272.49    7.36
   7   1  10  274.72    9.17
  -7   1 -10  280.28    9.02
  -7   1  11   19.84    2.98
   7   1 -11   14.14    2.18
   7  -1 -11   16.06    2.13
   7  -1  11   20.08    2.97
   7   1  11   15.34    2.82
   7  -1 -12  143.81    6.06
   7   1 -12  151.23    6.52
   7  -1  12  152.74    7.28
   7   1  12  150.75    7.30
   7   1  13  167.50    8.04
   7  -1  13  173.86    8.13
   7  -1 -13  174.68    6.91
   7   1 -13  177.19    7.29
   7  -1  14   18.11    3.34
   7  -1 -14   16.68    2.67
   7   1  14   15.62    3.43
   7  -1  15   46.59    4.91
   7  -1 -15   45.09    4.15
   7   1  15   48.23    5.17
   7  -1  16    3.92    2.54
   7   1  16   12.15    3.38
   7   1  17   17.31    3.71
   7  -1  17   15.42    3.65
   7  -1  18  137.79    8.79
   7   1  18  134.58    8.75
   7  -1  19   23.70    4.60
   7   1  19   17.06    4.30
   7   1  20   94.24    8.03
   7  -1  20   92.05    7.81
   7  -2   0    2.20    1.45
   7   2   0    0.31    0.84
   7  -2   0   -0.07    1.05
   7  -2  -1   34.05    2.74
   7   2   1   32.32    1.65
   7  -2   1   32.18    2.77
  -7  -2   1   29.64    1.88
  -7   2   1   32.84    2.78
   7  -2   1   34.05    2.27
   7  -2  -2  385.07    8.29
   7  -2   2  374.83    8.24
  -7   2   2  387.23    8.61
  -7  -2   2  360.23    6.00
   7   2   2  380.57    5.46
   7  -2   2  387.31    7.24
   7  -2  -3   86.48    4.12
  -7  -2   3   87.49    3.21
  -7   2   3   92.11    4.39
   7  -2   3   89.02    4.12
   7   2   3   91.59    2.88
   7  -2   3   92.28    3.85
  -7  -2   4 1407.13   13.51
   7  -2  -4 1403.46   16.51
   7   2   4 1397.14   17.44
  -7   2   4 1469.05   16.87
   7  -2   4 1487.51   15.67
  -7   2   5  164.40    5.88
  -7  -2   5  157.93    4.93
  -7   2  -5  155.60    5.40
   7   2   5  154.42    6.04
   7  -2   5  161.38    5.53
  -7  -2   6  416.39    8.38
  -7   2   6  435.87    9.97
  -7   2  -6  427.51    9.30
   7  -2   6  459.47    9.74
   7   2   6  427.00   10.34
  -7   2  -7    5.31    1.75
  -7   2   7    3.98    1.68
   7  -2  -7    7.80    1.40
   7   2   7    6.51    2.00
   7  -2   7    5.85    1.76
  -7   2  -8    7.22    2.01
  -7   2   8    7.03    2.21
   7  -2  -8    5.81    1.27
   7   2   8    8.17    2.31
   7  -2   8    7.71    2.22
  -7   2   9  121.70    5.90
   7  -2   9  121.04    5.85
   7  -2  -9  118.59    4.41
  -7   2  -9  128.34    5.91
   7   2   9  122.93    6.17
  -7   2 -10    6.14    2.09
  -7   2  10    5.26    2.12
   7   2 -10    4.54    1.89
   7  -2 -10    3.05    1.41
   7  -2  10    3.29    2.02
   7   2  10    5.04    2.28
   7  -2  11  157.34    7.12
   7   2 -11  163.86    6.72
   7  -2 -11  159.43    5.78
   7   2  11  154.93    7.39
   7   2 -12  484.09   11.93
   7  -2  12  475.49   12.79
   7  -2 -12  482.48   10.36
   7   2  12  497.01   13.38
   7  -2  13   12.32    2.89
   7  -2 -13   12.36    2.24
   7   2  13   14.43    3.25
   7  -2 -14  124.51    6.06
   7  -2  14  121.41    7.31
   7   2  14  129.29    7.49
   7  -2  15    2.55    2.58
   7   2  15    2.01    2.53
   7  -2 -15    2.54    1.86
   7  -2  16   19.70    3.84
   7   2  16   20.52    6.25
   7  -2  17    4.95    3.06
   7   2  17    6.66    3.24
   7  -2  18    8.02    3.61
   7   2  18    8.54    3.44
   7   2  19   93.57    7.64
   7  -2  19   90.54    7.68
   7   2  20  179.12   10.57
   7  -2  20  192.04   10.94
   7  -3   0    1.31    1.39
   7  -3   0    2.03    0.98
   7  -3  -1   52.19    3.47
  -7  -3   1   47.62    1.92
   7  -3   1   50.93    3.44
  -7   3   1   56.36    3.62
   7  -3  -1   47.52    2.07
   7  -3   1   51.97    2.48
   7   3   2   30.48    1.26
  -7  -3   2   27.21    1.69
   7  -3  -2   30.21    2.83
   7  -3   2   30.90    2.94
  -7   3   2   30.57    2.90
   7  -3  -2   27.65    1.55
   7  -3   2   28.58    2.17
   7  -3  -3  329.85    8.22
  -7  -3   3  321.03    5.64
  -7   3   3  333.12    8.60
   7  -3   3  333.25    8.17
   7   3   3  341.56    4.50
   7  -3   3  347.60    6.99
  -7   3   4   22.37    2.69
   7  -3  -4   22.40    2.59
  -7  -3   4   18.06    1.70
  -7   3  -4   22.31    2.26
   7  -3   4   23.76    2.33
  -7   3   5  467.42   10.34
   7   3   5  428.41   10.12
   7  -3  -5  443.03    5.64
   7  -3   5  483.06    9.23
  -7   3  -5  468.09    9.12
  -7   3  -6   18.45    2.29
   7   3   6   20.15    2.77
  -7   3   6   19.54    2.69
   7  -3  -6   15.48    1.31
   7  -3   6   20.78    2.45
   7   3   7   22.44    2.95
  -7   3  -7   25.06    2.67
  -7   3   7   22.71    2.77
   7  -3  -7   24.32    1.75
   7  -3   7   25.32    2.80
  -7   3   8   62.99    4.50
   7  -3  -8   59.96    2.86
   7  -3   8   61.95    4.24
  -7   3  -8   61.98    4.13
   7   3   8   63.57    4.61
  -7   3  -9   13.38    2.62
  -7   3   9   13.16    2.62
   7  -3  -9   12.85    1.79
   7   3   9   13.61    2.80
   7  -3   9   10.40    2.41
  -7   3 -10    5.24    1.87
  -7   3  10    6.77    2.38
   7  -3  10    5.66    2.17
   7   3  10    8.81    2.56
   7  -3 -10    3.99    1.39
   7   3 -11  125.60    5.99
   7  -3  11  122.44    6.39
   7  -3 -11  118.78    4.69
   7   3  11  123.99    6.68
   7  -3  12   18.70    3.13
   7   3  12   15.87    3.04
   7  -3  13  134.12    7.33
   7  -3 -13  132.98    5.59
   7   3  13  132.77    7.45
   7  -3  14   17.75    3.43
   7  -3 -14   12.67    2.36
   7   3  14   22.54    3.91
   7  -3  15    2.29    2.69
   7   3  15   -2.07    2.90
   7  -3 -15    3.16    1.88
   7  -3  16    4.84    3.05
   7  -3 -16    3.96    2.08
   7   3  16    3.43    2.88
   7  -3  17  182.47    9.80
   7   3  17  182.31    9.70
   7  -3  18    4.43    3.54
   7   3  18    2.86    2.86
   7  -3  19   54.85    5.88
   7   3  19   50.12    5.55
   7   3  20    1.93    3.41
   7  -3  20   -4.07    3.77
   7  -4   0    0.99    1.50
   7  -4   0    0.04    0.76
   7  -4   1   19.00    2.38
  -7   4   1   21.89    2.62
  -7  -4   1   18.71    1.07
   7  -4  -1   21.34    2.60
   7  -4   1   20.28    1.61
   7  -4  -1   18.25    1.18
  -7   4   2  235.99    7.55
   7  -4   2  219.25    7.20
   7  -4  -2  222.62    7.10
  -7  -4   2  211.97    3.78
   7  -4   2  229.58    5.22
   7  -4  -2  210.74    3.02
  -7   4  -3  200.97    5.28
  -7   4   3  205.12    7.33
   7  -4   3  203.06    6.87
  -7  -4   3  196.62    4.26
   7  -4  -3  198.54    6.85
   7  -4   3  205.00    5.33
   7  -4  -3  188.20    2.46
  -7   4   4  184.55    6.98
   7  -4  -4  176.26    6.63
   7  -4   4  185.36    5.49
   7  -4  -4  155.51    2.32
  -7   4  -4  177.78    5.34
  -7   4   5   72.27    4.42
   7   4   5   67.69    4.44
   7  -4  -5   68.46    4.35
   7  -4   5   71.06    3.70
   7  -4  -5   65.14    1.78
  -7   4  -5   73.04    3.72
  -7   4   6  661.33   13.19
   7   4   6  573.73   12.52
   7  -4  -6  616.70    6.11
   7  -4   6  632.52   11.23
  -7   4  -6  651.08   11.32
  -7   4  -7    5.62    1.72
   7   4   7    6.14    2.26
  -7   4   7    4.46    1.84
   7  -4   7    3.23    1.70
   7  -4  -7    3.83    0.91
  -7   4   8   99.36    5.60
   7  -4   8   95.38    5.11
   7  -4  -8   87.45    3.09
   7   4   8   89.55    5.52
  -7   4  -8   95.98    4.94
  -7   4   9  141.27    6.66
   7  -4   9  142.71    6.33
   7  -4  -9  140.57    4.18
  -7   4  -9  148.39    6.27
   7   4   9  134.19    6.62
   7  -4  10  396.53   10.98
   7  -4 -10  389.42    7.55
   7   4  10  370.40   11.16
  -7   4 -10  391.66   10.49
   7  -4  11   88.05    5.57
   7   4 -11   89.65    5.39
   7   4  11   85.00    5.89
   7  -4 -11   86.32    3.94
   7  -4  12  221.44    8.98
   7  -4 -12  218.73    6.55
   7   4  12  217.45    9.36
   7  -4  13   20.00    3.44
   7   4  13   24.40    3.73
   7  -4 -13   20.00    2.58
   7  -4  14  300.17   11.18
   7   4  14  301.78   11.50
   7  -4 -14  309.63    8.81
   7  -4  15   13.45    3.52
   7  -4 -15   11.77    2.32
   7   4  15   10.46    3.17
   7  -4  16   53.42    5.75
   7   4  16   49.28    5.39
   7  -4 -16   41.83    4.02
   7  -4  17    2.53    2.77
   7   4  17    1.68    2.89
   7  -4  18   62.43    6.10
   7   4  18   71.58    6.81
   7   4  19   83.56    7.41
   7  -4  19   88.00    7.67
   7  -4  20   63.78    6.80
   7   4  20   69.29    7.02
   7  -5   0    1.09    0.78
   7  -5   0    0.09    1.72
   7  -5   1  253.61    8.12
   7  -5  -1  253.29    7.95
   7  -5  -1  256.52    3.25
   7  -5   1  260.18    4.91
  -7   5   2  421.07   10.37
   7  -5   2  390.78    9.98
  -7   5  -2  391.98    6.56
   7  -5  -2  393.76    9.75
  -7  -5   2  380.20    4.68
   7  -5   2  396.30    6.75
  -7   5   3   85.25    4.91
   7  -5   3   84.46    4.82
   7  -5  -3   80.31    4.65
   7  -5   3   90.91    3.62
  -7   5  -3   86.32    3.50
  -7   5   4   33.99    3.41
   7  -5  -4   30.81    3.14
   7  -5   4   33.78    2.51
  -7   5  -4   35.37    2.54
  -7   5   5   83.31    5.00
   7  -5  -5   74.24    4.72
   7  -5   5   82.23    4.00
  -7   5  -5   80.32    3.89
   7   5   6   60.07    4.47
  -7   5   6   60.57    4.26
   7  -5  -6   53.31    4.07
   7  -5   6   65.39    3.86
  -7   5  -6   62.53    3.66
   7   5   7   16.18    2.72
  -7   5   7   18.79    2.81
   7  -5   7   18.28    2.52
  -7   5  -7   15.40    2.25
   7  -5  -7   10.30    0.89
   7   5   8    3.71    2.11
  -7   5   8    6.98    2.19
   7  -5   8    1.00    1.65
  -7   5  -8    3.67    1.72
   7  -5  -8    4.08    0.90
   7   5   9    1.63    1.93
   7  -5   9    2.87    1.88
   7  -5  -9    2.50    1.12
  -7   5  -9    6.51    1.95
   7  -5  10  357.71   10.31
   7  -5 -10  356.57    6.76
  -7   5 -10  374.18   10.33
   7   5  10  346.72   11.03
   7  -5  11  132.56    6.75
   7  -5 -11  131.06    4.57
   7   5  11  135.03    7.17
   7  -5  12   15.59    3.03
   7   5  12   11.35    2.91
   7  -5 -12   13.01    1.99
   7  -5  13    0.24    2.47
   7  -5 -13    0.83    1.44
   7   5  13   -1.61    2.44
   7  -5  14   50.86    4.76
   7  -5 -14   58.33    3.88
   7   5  14   61.85    5.57
   7  -5  15    0.00    2.55
   7   5  15    4.95    2.71
   7  -5 -15    6.61    2.18
   7  -5  16   17.47    3.80
   7   5  16   21.95    4.17
   7  -5  17   15.44    3.82
   7   5  17   12.10    3.83
   7  -5  18  183.87   10.12
   7   5  18  176.29    9.99
   7  -5  19   50.15    6.05
   7   5  19   53.30    6.07
   7  -5  20   26.16    5.21
   7   5  20   19.74    4.61
   7  -6   0   -2.22    1.73
  -7   6  -1   24.12    1.61
   7  -6   1   22.64    2.94
   7  -6  -1   28.31    3.19
   7  -6   1   24.65    1.61
   7  -6   2  281.42    8.82
  -7   6   2  306.59    9.31
   7  -6  -2  294.71    8.91
   7  -6   2  285.79    5.66
  -7   6  -2  290.52    5.68
  -7   6   3   78.88    5.00
   7  -6   3   73.27    4.81
   7  -6  -3   69.67    4.60
   7  -6   3   72.25    3.26
  -7   6  -3   71.06    3.22
  -7   6   4  195.29    7.93
   7  -6   4  197.02    7.59
   7  -6  -4  184.42    7.34
   7  -6   4  192.92    5.64
  -7   6  -4  184.29    5.39
  -7   6   5   42.45    3.82
   7   6   5   40.92    1.48
   7  -6  -5   46.23    3.95
   7  -6   5   46.44    3.07
  -7   6  -5   46.71    3.05
  -7   6   6 1090.24   18.43
   7   6   6  985.98   17.43
   7  -6  -6  978.42   17.26
   7   6   6  995.67    9.20
   7  -6   6 1053.34   14.68
  -7   6  -6 1047.34   14.35
   7   6   7    4.77    2.11
  -7   6   7    6.96    2.33
   7  -6   7    1.05    1.79
  -7   6  -7    2.77    1.53
   7  -6   8   91.11    4.92
  -7   6  -8   95.52    4.97
   7   6   8   87.19    5.65
   7   6   9    2.01    1.98
   7  -6  -9    1.04    0.78
   7  -6   9    0.39    1.86
  -7   6  -9    4.75    2.07
   7  -6  10  230.17    8.45
  -7   6 -10  255.80    8.67
   7   6  10  227.78    9.28
   7  -6 -10  213.44    4.94
   7  -6 -11    3.32    1.27
   7  -6  11   -2.01    2.58
   7   6  11    2.26    2.44
   7  -6 -12   10.78    1.80
   7  -6  12    3.52    2.37
   7   6  12    9.40    2.87
   7  -6 -13    2.55    1.44
   7  -6  13   -1.46    3.05
   7   6  13    3.43    2.59
   7  -6  14  178.55    8.84
   7  -6 -14  168.14    6.19
   7   6  14  183.95    9.34
   7  -6  15    0.62    2.64
   7   6  15    1.01    2.52
   7  -6  16   61.92    6.05
   7   6  16   60.12    6.04
   7  -6  17    3.85    3.33
   7   6  17    5.29    3.28
   7   6  18   89.80    7.51
   7  -6  18   97.53    7.58
   7  -6  19   -2.57    3.08
   7   6  19   -2.58    3.48
   7  -7   0   -1.01    1.87
   7  -7  -1    4.61    2.00
  -7   7  -1    4.63    1.04
   7  -7   1    4.60    2.00
   7  -7  -2   60.89    4.47
   7  -7   2   63.36    4.59
  -7   7   2   66.15    4.61
  -7   7  -2   63.89    2.74
   7  -7  -3   40.75    3.85
  -7   7   3   39.71    3.94
   7  -7   3   41.46    3.85
  -7   7  -3   41.13    2.50
  -7   7   4   66.55    4.92
   7  -7   4   63.97    4.76
   7  -7  -4   61.02    4.53
   7  -7   4   69.83    3.43
  -7   7  -4   65.66    3.36
   7   7   5   14.12    0.91
  -7   7   5   17.18    2.81
   7  -7  -5   16.37    2.82
   7  -7   5   21.31    2.29
  -7   7  -5   21.33    2.25
   7   7   6  142.22    3.40
  -7   7   6  154.17    7.41
   7  -7  -6  133.92    6.76
   7  -7   6  149.62    5.61
  -7   7  -6  151.01    5.58
   7   7   7   14.92    2.90
   7  -7  -7   13.87    2.81
   7   7   7   15.05    1.55
   7  -7   7   22.05    2.81
  -7   7  -7   16.05    2.37
   7   7   8   54.07    4.85
   7   7   8   53.12    2.86
   7  -7   8   59.29    4.22
  -7   7  -8   65.03    4.28
   7   7   9   73.68    3.63
   7  -7   9   81.77    5.06
   7   7   9   73.51    5.48
  -7   7  -9   83.57    4.97
   7   7  10   30.66    3.88
   7  -7  10   38.42    4.04
  -7   7 -10   24.97    3.22
   7  -7  11   11.76    3.02
   7   7  11    9.80    2.99
   7  -7  12   71.16    5.50
   7   7  12   67.44    5.71
   7  -7  13   57.67    5.28
   7   7  13   53.61    5.29
   7  -7  14   77.75    6.01
   7   7  14   77.06    6.39
   7  -7  15   21.23    4.04
   7   7  15   13.02    3.14
   7  -7  16   14.08    3.63
   7   7  16   13.08    3.61
   7  -7  17   36.01    4.93
   7   7  17   36.88    5.12
   7  -7  18  141.35    8.96
   7   7  18  132.49    8.94
   7  -7  19   16.18    4.50
   7   7  19    6.04    3.85
   7  -8   0   -2.53    2.33
  -7   8   0    1.05    0.70
   7  -8  -1   37.54    3.83
   7  -8   1   37.61    3.84
  -7   8  -1   42.20    2.05
   7  -8  -2  202.92    8.15
   7  -8   2  201.78    8.38
  -7   8  -2  204.36    4.91
   7  -8  -3   66.60    4.81
   7  -8   3   66.78    4.98
  -7   8   3   75.20    5.42
  -7   8  -3   73.66    3.39
   7  -8  -4  178.68    7.90
  -7   8   4  189.61    8.38
   7  -8   4  190.00    8.28
  -7   8  -4  177.24    5.47
   7  -8  -5  147.46    7.16
  -7   8  -5  161.85    5.57
   7  -8  -6  123.47    6.88
   7   8   6  126.46    3.31
  -7   8  -6  130.01    5.40
   7  -8  -7    1.15    1.96
   7   8   7    2.19    1.15
   7   8   7   -0.88    2.10
  -7   8  -7    0.62    1.50
   7   8   8   27.87    2.26
   7   8   8   22.55    3.48
  -7   8  -8   29.28    3.09
   7   8   9  206.64    5.93
   7  -8   9  207.01    7.79
  -7   8  -9  207.90    7.77
   7   8   9  183.97    8.68
   7   8  10  212.53    6.46
   7  -8  10  216.79    8.29
   7   8  10  202.51    9.11
   7   8  11   26.60    3.84
   7   8  11   25.65    2.78
   7  -8  11   30.58    3.86
   7   8  12  120.45    5.73
   7  -8  12  130.99    7.17
   7   8  12  124.14    7.77
   7   8  13    2.23    2.08
   7  -8  13    5.90    2.85
   7   8  13    3.01    2.68
   7   8  14  334.75   10.70
   7   8  14  363.32   13.36
   7   8  15   13.25    3.76
   7   8  16   52.16    5.88
   7   8  17   19.04    4.24
   7   8  18   54.11    6.20
   7  -9   0    1.82    2.06
  -7   9   0   -0.06    0.76
   7  -9   1    4.37    2.23
  -7  -9   1    6.26    0.79
   7  -9  -1    3.11    2.08
  -7   9  -1    4.18    1.04
   7  -9  -2   24.67    3.44
   7  -9   2   14.75    2.84
  -7  -9   2   21.06    1.55
  -7   9  -2   20.33    1.82
   7  -9  -3  269.18    9.73
   7  -9   3  280.27   10.29
  -7   9  -3  290.72    6.53
   7  -9  -4   69.90    5.21
   7  -9   4   70.50    5.42
  -7   9  -4   73.94    3.75
   7  -9  -5   84.01    5.67
   7  -9   5   94.51    6.13
  -7   9  -5   96.70    4.46
   7  -9  -6   35.39    4.07
  -7   9  -6   41.29    3.22
   7  -9  -7    1.00    2.17
   7   9   7    1.03    1.06
  -7   9  -7   -0.27    1.61
   7   9   8    8.28    1.52
   7   9   8    8.59    2.92
  -7   9  -8   11.01    2.43
   7   9   9   54.51    3.17
   7   9   9   50.87    4.94
  -7   9  -9   58.93    4.41
   7   9  10    5.95    1.81
   7   9  10    7.81    3.08
   7   9  11   67.91    4.07
   7   9  11   69.55    5.92
   7   9  12   16.04    2.67
   7   9  12   18.69    3.98
   7   9  13   46.97    5.06
   7   9  14   16.94    3.84
   7   9  15   15.06    3.73
   7   9  16    1.16    2.79
   7   9  17   60.10    6.30
   7   9  18    3.07    3.63
   7 -10   0    0.21    2.23
  -7  10   0    2.04    0.95
   7 -10  -1   26.88    3.75
   7 -10   1   27.05    3.85
  -7 -10   1   26.12    1.52
  -7  10  -1   26.11    1.89
  -7  10   1   18.34    0.90
   7 -10  -2  232.13    9.42
  -7 -10   2  242.03    5.08
   7 -10   2  227.47    9.71
  -7  10  -2  244.34    5.71
   7 -10  -3   45.02    4.43
   7 -10   3   45.91    4.67
  -7  10  -3   51.10    3.04
   7 -10  -4  421.66   12.90
   7 -10   4  430.90   13.29
  -7  10  -4  446.23    9.04
   7 -10  -5   36.00    4.33
   7 -10   5   35.16    4.32
  -7  10  -5   35.80    3.00
   7 -10  -6   24.79    3.80
   7 -10   6   30.66    4.37
  -7  10  -6   24.67    2.78
   7 -10  -7   10.54    2.89
   7  10   7   10.42    1.60
  -7  10  -7    8.54    2.19
   7 -10  -8   11.06    3.18
   7  10   8    4.73    2.68
   7  10   8    5.84    1.52
  -7  10  -8    6.78    2.12
   7  10   9   24.18    2.50
   7  10   9   24.12    3.97
   7  10  10    1.79    1.69
   7  10  10    2.14    2.72
   7  10  11   46.31    3.49
   7  10  11   40.43    4.73
   7  10  12  228.16   10.65
   7  10  13   12.23    3.76
   7  10  14  108.36    8.00
   7  10  15    5.31    3.17
   7  10  16    7.64    3.72
   7  10  17   29.11    4.63
   7 -11   0    0.06    2.26
  -7 -11   0    1.71    0.79
  -7  11   0    0.31    0.94
  -7 -11   1   38.76    1.93
   7 -11  -1   40.82    4.55
   7 -11   1   47.62    5.04
  -7  11  -1   43.22    2.39
  -7  11   1   27.16    1.46
   7 -11  -2   21.29    3.42
   7 -11   2   20.75    3.63
  -7 -11   2   21.14    1.84
  -7  11  -2   24.14    2.19
   7 -11  -3    7.47    2.77
   7 -11   3    3.11    2.49
  -7 -11   3    4.29    1.49
  -7  11  -3    3.28    1.58
   7 -11  -4  159.39    8.22
   7 -11   4  171.43    8.83
  -7  11  -4  178.82    5.90
   7 -11  -5   37.31    4.52
   7 -11   5   39.06    4.63
  -7  11  -5   38.65    3.19
   7 -11  -6   -0.11    2.21
   7 -11   6    6.16    3.12
  -7  11  -6    2.89    1.73
   7 -11  -7   18.63    3.54
  -7  11  -7   20.22    2.87
   7 -11  -8   71.31    5.99
   7  11   8   63.65    5.66
   7  11   8   75.02    3.63
  -7  11  -8   75.25    4.92
   7  11   9    0.13    1.47
   7  11   9    3.51    2.78
   7  11  10   18.83    3.80
   7  11  11    4.45    2.71
   7  11  12   89.05    7.01
   7  11  13   72.69    6.62
   7  11  14    9.14    3.43
   7  11  15    5.76    3.35
   7  11  16   49.11    5.86
   7  11  17    4.27    3.28
   7 -12   0    0.64    2.25
  -7 -12   0    0.42    0.87
  -7  12   0    0.57    1.10
  -7 -12   1    5.37    1.19
   7 -12   1    5.34    2.77
   7 -12  -1    3.70    2.40
  -7  12  -1    2.41    1.19
  -7  12   1    2.00    0.88
   7 -12  -2   12.78    3.06
   7 -12   2   12.75    3.43
  -7 -12   2   10.35    1.70
  -7  12  -2   13.60    1.97
   7 -12  -3    2.96    2.36
  -7 -12   3    2.65    1.34
   7 -12   3    4.65    2.56
  -7  12  -3    5.45    1.75
   7 -12   4  559.17   16.25
  -7 -12   4  576.51   10.50
   7 -12  -4  532.76   15.46
  -7  12  -4  561.94   10.74
   7 -12  -5   13.96    3.19
   7 -12   5   14.97    3.51
  -7  12  -5   14.87    2.43
   7 -12  -6   26.18    4.17
   7 -12   6   31.07    4.70
  -7  12  -6   24.51    3.04
   7 -12  -7    2.12    2.59
   7 -12   7    1.13    2.78
  -7  12  -7   -2.03    1.76
   7 -12  -8    4.88    2.88
   7  12   8    2.82    2.77
   7  12   9    0.83    2.62
   7  12  10    3.31    2.81
   7  12  11    4.68    3.26
   7  12  12  190.60   10.25
   7  12  13   35.55    5.15
   7  12  14   67.44    6.74
   7  12  15   15.38    4.53
   7  12  16    6.33    3.59
   7 -13   0    1.39    2.54
  -7 -13   0    0.11    0.98
  -7  13   0    1.52    1.20
   7 -13   1   18.15    3.66
  -7 -13   1   14.02    1.67
   7 -13  -1   13.83    3.37
  -7  13  -1   12.08    1.76
  -7  13   1   11.41    1.33
  -7 -13   2   44.76    2.87
   7 -13  -2   39.74    4.70
   7 -13   2   53.10    5.67
  -7  13  -2   48.78    3.11
   7 -13  -3   10.67    3.27
  -7 -13   3   11.49    1.88
   7 -13   3   11.17    3.24
  -7  13  -3   13.81    2.23
  -7 -13   4  156.70    5.84
   7 -13   4  153.03    9.07
   7 -13  -4  142.53    8.33
  -7  13  -4  151.93    5.83
   7 -13  -5    6.51    3.05
   7 -13   5    7.32    3.16
  -7  13  -5    6.06    2.10
   7 -13  -6    6.20    3.37
   7 -13   6    2.32    2.85
  -7  13  -6    2.85    2.06
   7 -13  -7    2.18    2.51
   7 -13   7    4.94    3.32
   7 -13  -8    0.75    2.64
   7 -13   8   11.32    3.87
   7  13   8    2.29    2.58
   7  13   9    9.90    3.41
   7  13  10   35.33    4.97
   7  13  11   14.11    3.80
   7  13  12   21.95    4.26
   7  13  13   -0.34    2.96
   7  13  14    5.16    3.55
   7  13  15    7.60    3.82
   7 -14   0   -0.18    2.53
   7 -14   1   40.07    5.16
  -7 -14   1   37.28    2.58
   7 -14  -1   32.87    4.69
   7 -14  -2    9.60    3.14
   7 -14   2    6.01    2.97
  -7 -14   2   10.82    1.87
   7 -14   3   46.44    5.69
   7 -14  -3   34.52    4.63
  -7 -14   3   43.98    3.28
   7 -14  -4  293.19   12.30
  -7 -14   4  301.88    8.45
   7 -14   4  297.39   13.03
   7 -14  -5   33.49    4.83
  -7 -14   5   35.86    3.38
   7 -14   5   34.85    5.29
   7 -14  -6  131.91    8.68
   7 -14   6  151.49    9.76
   7 -14  -7    1.22    2.93
   7 -14   7    3.66    3.57
   7 -14  -8    2.31    3.03
   7 -14   8    3.38    3.58
   7  14   8    1.40    2.73
   7 -14   9    7.41    4.25
   7  14   9    2.99    3.07
   7  14  10   10.20    3.64
   7  14  11   64.96    6.50
   7  14  12   86.03    7.42
   7  14  13   -2.50    3.17
   7  14  14   20.53    4.62
   7 -15   0    2.50    3.21
   7 -15   1   40.40    5.32
   7 -15  -1   45.32    5.71
   7 -15  -2   -0.11    2.72
   7 -15   2   -0.97    3.46
   7 -15   3   27.58    4.72
   7 -15  -3   26.05    4.62
   7 -15  -4    6.60    2.85
   7 -15   4    4.10    3.33
   7 -15  -5   23.26    4.46
   7 -15   5   26.24    4.81
   7 -15  -6    7.75    3.49
   7 -15   6    1.42    3.20
   7 -15  -7    4.77    3.05
   7 -15   7    3.93    3.54
   7 -15  -8    8.68    3.53
   7  15   8    6.51    3.14
   7 -15   8   14.44    4.41
   7  15   9   70.44    6.84
   7 -15   9   95.74    8.39
   7 -15  10    1.04    3.28
   7  15  10    3.99    3.18
   7  15  11    6.67    3.72
   7  15  12    0.84    3.12
   7 -16   0    2.88    3.33
   7 -16  -1    6.21    2.78
   7 -16   1    4.85    3.42
   7 -16  -2   65.76    6.75
   7 -16   2   65.35    6.85
   7 -16   3   12.77    4.44
   7 -16  -3   14.09    4.01
   7 -16  -4   56.36    6.29
   7 -16   4   61.00    6.99
   7 -16  -5   30.24    4.97
   7 -16   5   32.35    5.70
   7 -16  -6  108.88    8.61
   7 -16   6  119.76    9.32
   7 -16  -7    1.74    2.89
   7 -16   7    1.42    3.36
   7 -16  -8    3.09    2.95
   7 -16   8   -2.83    3.45
   7  16   8    2.22    3.33
   7  16   9    4.33    3.01
   7  16  10   71.90    7.24
   7  16  11   39.12    6.03
   7 -17   0    2.76    3.27
   7 -17  -1   14.18    4.02
   7 -17   1    9.05    3.67
   7 -17   2    3.62    3.33
   7 -17  -2    5.58    3.22
   7 -17   3   56.05    6.70
   7 -17  -3   47.49    6.24
   7 -17  -4   -2.50    2.89
   7 -17   4    5.03    3.38
   7 -17   5   24.43    5.11
   7 -17  -5   25.35    4.81
   7 -17  -6    9.33    3.48
   7  17   8   -0.48    3.43
   7  17   9   -4.55    3.73
   8   0   0 1364.75   13.67
   8   0  -1   -0.71    1.17
   8   0   1    0.21    1.11
  -8   0   1    1.70    1.28
   8   0  -2   49.87    2.91
  -8   0   2   51.40    3.08
   8   0   2   51.39    2.97
   8   0   2   57.49    3.52
  -8   0   3    1.03    1.14
   8   0   3    0.65    1.41
   8   0   3   -0.11    1.18
  -8   0   4    5.07    1.53
   8   0   4    1.74    1.52
  -8   0   5   -0.12    1.24
   8   0   5    0.38    1.49
  -8   0   6   55.27    3.60
   8   0   6   54.53    3.91
  -8   0   7    3.03    1.71
   8   0   7   -1.65    1.62
  -8   0   8  636.21   12.48
   8   0   8  634.43   13.16
  -8   0   9    1.35    1.75
   8   0  -9    3.63    1.64
   8   0   9    1.70    1.85
  -8   0  10  116.04    5.99
   8   0 -10  117.78    5.34
   8   0  10  117.28    6.39
   8   0 -11   -7.77    2.38
   8   0  11    0.76    2.11
   8   0 -12   60.30    4.19
   8   0  12   53.66    4.78
   8   0 -13   -0.58    1.67
   8   0  13   -2.68    2.45
   8   0 -14   13.28    2.78
   8   0  14   13.03    3.33
   8   0  15   -1.29    2.40
   8   0  16  274.90   11.48
   8   0  17   -0.92    3.01
   8   0  18   17.66    4.17
   8   0  19    1.30    3.18
   8   0  20   17.02    4.50
   8  -1   0  440.96    8.61
   8   1   0  426.52    7.08
   8  -1   1   17.15    2.07
   8  -1  -1   17.44    2.00
   8   1  -1   14.37    1.64
   8   1   1   16.69    1.62
  -8   1   1   15.25    1.97
   8  -1   1   15.72    1.88
  -8  -1   1   16.13    1.70
   8  -1  -2  342.19    7.81
  -8   1   2  341.36    8.01
   8  -1   2  337.02    7.69
  -8  -1   2  334.15    6.94
   8   1   2  344.58    6.44
   8  -1   2  328.31    7.53
   8  -1  -3   91.44    4.28
   8   1   3   88.61    3.53
  -8  -1   3   82.25    3.63
   8   1   3   93.81    4.77
  -8   1   3   92.49    4.47
   8  -1   3   91.41    4.19
   8  -1   3   83.67    4.19
  -8  -1   4   13.95    1.82
  -8   1   4   14.90    2.15
   8   1   4   13.94    2.24
   8  -1   4   18.29    2.29
  -8  -1   5   10.18    1.81
  -8   1   5    8.48    1.83
   8   1   5    9.83    2.07
   8  -1   5   12.86    2.27
  -8  -1   6  752.91   12.01
  -8   1   6  755.81   12.87
   8  -1   6  774.86   13.28
   8   1   6  744.68   13.67
  -8  -1   7  155.74    5.87
  -8   1   7  165.86    6.38
   8   1   7  159.80    6.60
   8  -1   7  163.89    6.51
  -8   1  -8   52.51    4.17
  -8  -1   8   57.03    4.10
  -8   1   8   55.15    4.26
   8  -1  -8   55.13    3.41
   8   1   8   56.68    4.68
   8  -1   8   58.07    4.63
  -8   1  -9   28.80    3.20
  -8  -1   9   26.11    2.88
  -8   1   9   29.17    3.28
   8  -1  -9   28.05    2.54
   8   1   9   23.69    3.13
   8  -1   9   29.45    3.38
  -8   1 -10  460.07   11.92
  -8  -1  10  446.82   11.17
  -8   1  10  450.96   11.73
   8   1 -10  447.60   10.22
   8  -1 -10  443.01    9.53
   8  -1  10  442.99   11.76
   8   1  10  439.20   12.10
   8  -1 -11    4.89    1.64
   8   1 -11    3.59    1.74
   8   1  11    0.77    2.13
   8  -1  11    3.37    1.99
   8   1 -12   19.89    2.71
   8  -1 -12   18.07    2.61
   8  -1  12   21.81    3.39
   8   1  12   23.71    3.61
   8   1 -13    4.78    1.85
   8  -1 -13    8.46    2.15
   8  -1  13    8.67    2.55
   8   1  13    6.28    2.30
   8  -1  14  235.30    9.96
   8   1  14  220.96    9.74
   8  -1 -14  221.76    8.04
   8  -1  15    2.50    2.67
   8  -1 -15    2.45    1.86
   8   1  15    1.02    2.66
   8   1  16   92.29    7.09
   8  -1  16   95.81    7.33
   8  -1  17   37.60    4.94
   8   1  17   37.16    5.02
   8  -1  18   64.88    6.58
   8   1  18   70.79    6.82
   8  -1  19    2.69    3.10
   8   1  19    3.53    3.08
   8   1  20   38.48    5.67
   8  -1  20   52.93    6.34
   8   2   0  399.65    6.05
   8  -2   0  418.51    8.82
   8  -2   0  402.03    7.15
   8  -2  -1  251.10    6.90
   8   2   1  256.90    4.77
   8  -2   1  253.67    7.02
  -8   2   1  262.62    7.24
  -8  -2   1  254.59    5.23
   8  -2   1  245.10    5.86
   8  -2  -2  244.21    7.04
  -8   2   2  247.27    7.24
   8  -2   2  234.08    6.94
   8   2   2  243.97    4.70
  -8  -2   2  235.33    5.41
   8  -2   2  235.57    6.06
   8  -2  -3   58.62    3.79
   8   2   3   52.33    2.50
  -8   2   3   55.58    3.75
  -8  -2   3   53.58    2.85
   8  -2   3   57.00    3.66
   8  -2   3   57.74    3.45
   8  -2  -4   31.32    2.98
  -8  -2   4   27.45    2.18
  -8   2   4   31.16    3.03
   8   2   4   28.92    3.11
   8  -2   4   31.45    2.81
  -8  -2   5   12.09    1.76
  -8   2   5   15.94    2.46
   8   2   5   15.29    2.49
   8  -2   5   16.67    2.34
  -8   2   6   33.27    3.14
  -8  -2   6   30.65    2.62
   8   2   6   29.11    3.25
   8  -2   6   32.41    2.98
  -8   2  -7  489.30   10.74
  -8   2   7  501.20   11.24
  -8  -2   7  476.30    9.81
   8  -2  -7  480.37    7.88
   8  -2   7  487.76   10.84
   8   2   7  467.49   11.45
  -8   2  -8  189.82    7.04
  -8  -2   8  180.66    6.40
  -8   2   8  193.02    7.34
   8  -2  -8  181.23    5.22
   8  -2   8  188.00    7.03
   8   2   8  181.51    7.40
  -8   2  -9   42.70    3.76
  -8   2   9   41.05    3.75
   8  -2  -9   40.38    2.74
   8   2   9   39.52    3.97
   8  -2   9   35.05    3.44
  -8   2 -10    4.95    2.03
  -8   2  10    4.83    2.25
   8  -2 -10    7.44    1.70
   8  -2  10    1.59    2.01
   8   2  10    6.58    2.59
   8   2 -11    9.11    2.35
   8  -2 -11    3.28    1.58
   8  -2  11    6.88    2.41
   8   2  11    3.32    2.20
   8   2 -12    6.44    2.24
   8  -2 -12    2.23    1.44
   8   2  12    5.34    2.61
   8  -2  12    5.08    2.58
   8  -2  13   34.18    4.17
   8  -2 -13   34.81    3.25
   8   2  13   33.12    4.24
   8  -2  14   18.66    3.64
   8  -2 -14   20.05    2.84
   8   2  14   19.72    3.55
   8  -2  15  117.54    7.44
   8  -2 -15  104.48    5.79
   8   2  15  112.62    7.39
   8   2  16  190.95    9.75
   8  -2  16  192.57    9.86
   8  -2  17   28.03    4.51
   8   2  17   31.79    4.56
   8  -2  18    3.33    3.23
   8   2  18    3.12    3.45
   8   2  19   12.32    4.05
   8  -2  19    6.82    3.58
   8  -2  20    6.94    3.93
   8  -3   0  413.06    9.38
   8  -3   0  389.68    6.60
   8  -3  -1   68.24    3.94
  -8   3   1   75.38    4.16
   8  -3   1   70.15    4.07
  -8  -3   1   73.56    2.52
   8  -3   1   73.85    3.14
   8  -3  -1   63.64    2.60
   8   3   2  184.89    3.30
   8  -3  -2  182.93    6.47
  -8   3   2  184.50    6.70
  -8  -3   2  168.02    4.21
   8  -3  -2  173.89    4.04
   8  -3   2  174.94    6.40
   8  -3   2  182.47    5.20
  -8  -3   3    2.75    0.99
   8   3   3    1.24    0.84
   8  -3  -3    3.28    1.71
  -8   3   3   -0.80    1.62
   8  -3   3   -0.49    1.60
   8  -3   3    0.71    1.19
  -8   3   4   15.85    2.53
   8  -3  -4   17.83    2.54
  -8  -3   4   18.52    1.86
   8   3   4   18.52    1.49
   8  -3   4   22.18    2.35
  -8  -3   5   21.99    2.09
  -8   3   5   25.62    2.87
   8   3   5   22.41    2.90
  -8   3  -5   22.50    2.37
   8  -3   5   27.62    2.63
  -8   3  -6  152.54    5.80
  -8   3   6  164.22    6.69
  -8  -3   6  156.83    5.28
   8  -3  -6  152.10    3.81
   8  -3   6  157.05    5.90
   8   3   6  144.08    6.54
  -8   3  -7   74.22    4.37
  -8   3   7   74.87    4.71
   8  -3  -7   70.17    2.82
   8  -3   7   78.69    4.50
   8   3   7   70.78    4.77
  -8   3   8  306.75    9.56
   8  -3  -8  303.84    6.25
   8  -3   8  316.73    9.22
  -8   3  -8  315.53    9.02
   8   3   8  302.24    9.89
  -8   3   9  339.98   10.26
   8  -3  -9  352.42    7.19
   8  -3   9  337.02    9.77
   8   3   9  330.55   10.41
  -8   3  -9  351.27    9.90
   8  -3  10  194.30    7.89
   8  -3 -10  200.11    5.86
   8   3  10  186.09    8.22
  -8   3 -10  203.02    7.92
   8  -3  11    0.33    2.31
   8   3 -11   -4.61    2.29
   8  -3 -11    0.31    1.27
   8   3  11    3.50    2.30
   8  -3  12   24.95    3.69
   8  -3 -12   25.83    2.72
   8   3  12   23.66    3.92
   8  -3  13   30.13    4.03
   8  -3 -13   32.17    3.02
   8   3  13   34.83    4.43
   8  -3  14   36.39    4.48
   8  -3 -14   34.04    3.26
   8   3  14   30.70    4.26
   8  -3  15   14.11    3.49
   8   3  15    5.86    3.01
   8  -3 -15   16.27    2.88
   8  -3  16  139.32    8.53
   8   3  16  143.23    8.69
   8  -3  17   49.59    5.55
   8   3  17   49.80    5.37
   8   3  18  137.93    9.04
   8  -3  18  143.67    9.29
   8  -3  19   13.89    3.99
   8   3  19   10.91    4.17
   8  -4   0   81.51    4.62
   8  -4   0   79.63    2.88
   8  -4  -1  370.73    9.36
   8  -4   1  375.31    9.58
  -8  -4   1  343.54    4.56
   8  -4   1  370.54    6.48
   8  -4  -1  353.63    5.27
   8  -4   2  139.89    6.02
  -8  -4   2  127.78    3.20
  -8   4   2  142.05    6.11
   8  -4  -2  139.13    5.86
   8  -4   2  138.61    4.32
   8  -4  -2  134.39    2.93
   8  -4   3   48.30    3.75
  -8   4   3   49.10    3.85
  -8  -4   3   44.49    2.19
   8  -4  -3   46.89    3.57
   8  -4   3   51.02    2.91
   8  -4  -3   49.11    1.70
   8  -4  -4    3.47    1.79
  -8  -4   4    3.10    1.10
   8  -4   4    5.08    2.04
   8   4   4    1.32    0.71
  -8   4  -4    0.74    1.27
  -8   4   4    2.30    1.71
   8  -4   4    2.60    1.38
  -8   4   5  127.80    6.02
  -8   4  -5  120.33    4.85
   8   4   5  118.78    5.99
  -8  -4   5  114.86    4.09
   8  -4  -5  113.72    5.60
   8  -4  -5  113.19    2.52
   8  -4   5  127.77    5.02
   8   4   6  207.93    7.94
  -8   4   6  229.91    8.07
   8  -4   6  227.99    6.99
   8  -4  -6  217.00    3.81
  -8   4  -6  225.86    6.94
  -8   4   7  166.67    7.10
   8  -4  -7  153.40    3.60
   8  -4   7  155.23    6.12
  -8   4  -7  153.45    6.08
   8   4   7  140.30    6.76
   8   4   8   30.57    3.71
  -8   4   8   38.96    3.86
   8  -4  -8   31.72    1.99
   8  -4   8   41.03    3.79
  -8   4  -8   39.68    3.53
   8  -4   9  323.88    9.65
   8  -4  -9  321.38    6.22
  -8   4  -9  332.82    9.60
   8   4   9  300.47   10.24
  -8   4 -10   31.04    3.37
   8  -4  10   27.42    3.30
   8  -4 -10   27.75    2.14
   8   4  10   31.09    3.82
   8  -4  11    3.47    2.29
   8   4  11    6.73    2.66
   8  -4 -11    5.48    1.49
   8  -4  12   23.74    3.55
   8   4  12   21.81    3.51
   8  -4 -12   23.82    2.39
   8  -4  13   78.45    5.96
   8  -4 -13   73.46    4.11
   8   4  13   70.97    5.97
   8  -4  14  113.61    7.12
   8   4  14  114.62    7.38
   8  -4 -14  113.74    5.35
   8  -4  15   23.38    4.02
   8  -4 -15   22.94    2.85
   8   4  15   25.41    4.47
   8  -4  16   17.46    3.99
   8   4  16   14.33    3.63
   8  -4  17   44.93    5.34
   8   4  17   39.77    5.20
   8  -4  18   67.40    6.43
   8   4  18   66.51    6.44
   8  -4  19    6.14    3.38
   8   4  19   10.07    3.85
   8  -5   0  445.35   10.75
   8  -5   0  451.11    6.04
   8  -5  -1    6.58    0.88
   8  -5   1    8.15    1.27
   8  -5   1    6.38    2.03
   8  -5  -1    8.46    2.04
  -8  -5   2  240.05    3.90
   8  -5   2  247.04    8.54
  -8   5   2  271.38    8.91
   8  -5   2  259.54    5.81
   8  -5  -2  254.94    8.34
  -8   5   3    0.37    1.76
  -8   5  -3    0.06    1.10
   8  -5   3    0.99    1.69
   8  -5   3    1.34    1.13
  -8  -5   3    1.38    0.81
   8  -5  -3    1.19    1.63
  -8   5   4   63.46    4.62
  -8   5  -4   61.92    3.40
   8  -5   4   63.41    4.52
   8  -5   4   62.16    3.42
   8  -5  -4   59.48    4.39
  -8  -5   4   57.10    2.65
  -8   5  -5   21.34    2.39
   8  -5   5   19.76    2.29
  -8   5   5   23.13    3.09
   8  -5  -5   18.98    2.80
  -8   5  -6   27.25    2.62
   8   5   6   30.65    3.62
   8  -5  -6   25.66    3.11
  -8   5   6   24.49    3.14
   8  -5   6   25.78    2.70
  -8   5   7  101.55    5.84
   8  -5   7  104.32    5.16
  -8   5  -7  107.71    5.11
   8  -5  -7   83.77    2.01
   8   5   7   86.72    5.50
   8  -5   8  688.06   13.45
   8   5   8  624.01   14.69
  -8   5  -8  707.04   13.42
   8  -5  -8  656.31    6.84
   8   5   9   34.34    3.93
   8  -5   9   41.02    3.77
   8  -5  -9   38.82    2.06
  -8   5  -9   41.48    3.75
   8  -5  10  100.40    5.95
   8   5  10   93.86    6.25
   8  -5 -10   92.50    3.56
  -8   5 -10   96.53    5.58
   8  -5  11    2.84    2.23
   8  -5 -11    1.73    1.21
   8   5  11    1.95    2.59
   8  -5  12   63.19    5.42
   8   5  12   65.35    5.84
   8  -5 -12   57.49    3.51
   8  -5  13   16.61    3.53
   8  -5 -13   19.07    2.34
   8   5  13   19.48    3.74
   8  -5  14   57.83    5.50
   8  -5 -14   53.59    3.74
   8   5  14   59.98    5.80
   8  -5  15   13.20    3.01
   8   5  15   18.91    3.70
   8  -5  16  127.17    8.04
   8   5  16  135.03    8.64
   8  -5  17    1.01    3.19
   8   5  17    3.17    2.82
   8   5  18   71.80    6.90
   8  -5  18   76.58    7.06
   8  -5  19    3.33    3.25
   8   5  19    1.12    3.05
   8  -6   0   92.66    5.35
   8  -6   0   88.81    2.51
   8  -6   1   -2.52    1.15
   8  -6   1    3.43    1.84
   8  -6  -1    0.49    1.70
  -8  -6   2  496.87    4.72
   8  -6   2  515.49   12.47
  -8   6   2  554.40   12.77
   8  -6  -2  515.30   12.00
   8  -6   2  539.64    8.02
  -8   6   3   52.91    4.29
   8  -6   3   44.27    4.02
  -8  -6   3   43.55    1.94
   8  -6  -3   47.55    3.96
   8  -6   3   53.94    2.99
  -8   6  -3   51.29    2.88
  -8   6   4   74.60    5.16
   8  -6   4   78.05    5.16
   8  -6  -4   73.88    4.93
   8  -6   4   76.19    3.78
  -8   6  -4   73.51    3.61
  -8   6  -5   -0.22    1.28
  -8   6   5    0.79    1.94
   8  -6  -5    2.23    2.08
   8  -6   5    2.69    1.58
   8   6   6  395.75   11.56
  -8   6   6  421.28   12.13
   8   6   6  399.42    5.07
   8  -6  -6  394.49   11.32
   8  -6   6  423.43    9.63
  -8   6  -6  416.91    9.39
   8   6   7   -0.40    2.04
   8  -6   7    2.71    1.89
  -8   6  -7    0.97    1.53
   8   6   8   38.76    4.11
   8  -6   8   42.87    3.81
  -8   6  -8   44.74    3.70
   8  -6   9   69.73    4.83
  -8   6  -9   67.63    4.60
   8   6   9   55.38    4.95
   8  -6  10   70.11    4.91
   8   6  10   76.91    5.87
   8  -6 -10   66.55    2.56
   8  -6 -11    2.27    1.12
   8  -6  11   -5.37    2.73
   8   6  11    3.92    2.46
   8  -6  12   30.66    3.74
   8  -6 -12   35.61    2.44
   8   6  12   43.25    4.91
   8  -6 -13    0.90    1.33
   8  -6  13   -2.94    2.76
   8   6  13    0.86    2.71
   8  -6  14   68.89    5.78
   8   6  14   74.15    6.30
   8  -6  15   -0.04    2.93
   8   6  15    1.83    2.70
   8  -6  16   11.06    3.33
   8   6  16   10.44    3.42
   8  -6  17   30.03    4.84
   8   6  17   24.58    4.65
   8  -6  18   18.22    4.08
   8   6  18   17.45    4.15
   8  -6  19   14.94    4.55
   8  -7   0  553.28   13.08
   8  -7   1   17.08    2.91
   8  -7  -1   17.37    2.77
   8  -7  -2  181.40    7.78
   8  -7   2  177.76    7.93
  -8   7  -2  172.99    4.57
   8  -7   3    7.33    2.40
  -8   7  -3    6.65    1.46
  -8   7   3    8.19    2.58
   8  -7   3    8.12    1.60
   8  -7  -3   10.31    2.51
  -8   7   4   13.20    2.93
   8  -7   4   10.66    2.66
  -8   7  -4   11.80    1.86
   8  -7  -4   12.54    2.74
   8  -7   4   11.77    1.96
   8  -7   5   10.12    2.57
   8  -7  -5   10.01    2.66
   8  -7   5    9.00    1.88
  -8   7  -5   10.42    1.98
   8   7   6   77.44    2.13
   8  -7  -6   96.53    6.25
   8  -7   6   95.29    4.88
  -8   7  -6   97.94    4.80
   8   7   7   78.70    5.72
   8  -7  -7   76.32    5.38
   8   7   7   83.86    2.72
   8  -7   7   86.68    4.80
  -8   7  -7   87.36    4.72
   8   7   8  731.12   16.67
   8   7   8  785.22    9.72
   8  -7   8  804.46   14.65
  -8   7  -8  803.79   14.34
   8   7   9    2.29    2.29
   8   7   9    3.45    1.39
   8  -7   9    3.50    2.07
  -8   7  -9    5.21    2.09
   8   7  10   35.36    4.38
   8  -7  10   41.65    4.24
   8  -7  11    0.61    2.35
   8   7  11    1.45    2.63
   8  -7  12   26.32    3.99
   8   7  12   25.62    4.30
   8  -7  13   13.14    3.43
   8   7  13   12.39    3.58
   8  -7  14   18.40    3.72
   8   7  14   17.65    3.68
   8  -7  15    4.50    2.75
   8   7  15    5.27    2.80
   8  -7  16  242.09   11.25
   8   7  16  239.66   11.59
   8  -7  17    5.94    3.18
   8   7  17    6.17    3.46
   8  -7  18  107.76    8.35
   8   7  18   95.93    8.01
   8  -7  19   15.74    4.73
   8  -8   0  165.69    7.63
   8  -8   1    2.31    1.98
   8  -8  -1    5.71    2.29
  -8   8  -1    3.93    1.05
  -8  -8   2   53.15    1.43
   8  -8  -2   77.82    5.30
   8  -8   2   70.59    5.30
  -8  -8   2   63.37    1.61
  -8   8  -2   78.63    3.09
   8  -8  -3   45.07    4.29
   8  -8   3   46.71    4.47
  -8   8  -3   51.19    2.89
   8  -8  -4    7.61    2.52
   8  -8   4   12.31    2.93
  -8   8  -4    9.36    1.76
   8  -8  -5   50.45    4.58
   8  -8   5   51.76    4.82
  -8   8  -5   56.71    3.54
   8  -8  -6  367.59   11.84
  -8   8  -6  383.17    9.11
   8   8   7   24.56    1.63
   8   8   7   29.80    4.04
   8  -8  -7   31.27    3.96
   8  -8   7   36.76    3.47
  -8   8  -7   32.44    3.12
   8   8   8   15.30    3.19
   8   8   8   15.93    1.66
   8  -8   8   17.40    2.89
  -8   8  -8   16.87    2.76
   8   8   9   36.93    4.20
   8   8   9   39.16    2.54
   8  -8   9   38.82    3.72
  -8   8  -9   45.33    4.00
   8   8  10   42.45    4.74
   8  -8  10   50.85    4.34
   8   8  10   47.06    3.14
   8   8  11   -2.34    2.90
   8   8  11    1.40    1.54
   8  -8  11   -1.01    2.16
   8   8  12   11.53    2.38
   8  -8  12    6.77    2.66
   8   8  12    6.50    3.04
   8  -8  13   77.31    6.03
   8   8  13   74.37    6.51
   8  -8  14   58.58    5.50
   8   8  14   57.76    5.96
   8  -8  15   69.09    6.20
   8   8  15   63.67    6.07
   8  -8  16    2.79    2.95
   8   8  16    9.62    3.63
   8   8  17   45.43    5.59
   8   8  18    8.19    4.13
   8  -9   0  276.34   10.18
   8  -9   1   44.63    4.40
   8  -9  -1   49.30    4.51
  -8   9  -1   46.27    2.10
   8  -9  -2  206.66    8.87
  -8  -9   2  177.37    2.89
   8  -9   2  197.43    9.02
  -8   9  -2  213.18    5.15
   8  -9  -3    1.71    2.08
   8  -9   3    4.19    2.44
  -8   9  -3    5.20    1.47
   8  -9  -4    1.79    2.17
   8  -9   4    5.07    2.87
  -8   9  -4    1.43    1.41
   8  -9  -5   43.42    4.61
   8  -9   5   43.61    4.60
  -8   9  -5   45.06    3.26
   8  -9  -6   63.52    5.55
   8  -9   6   67.21    5.61
  -8   9  -6   61.41    4.00
   8  -9  -7   56.87    4.96
   8   9   7   64.20    5.41
  -8   9  -7   68.40    4.31
   8   9   8  266.13   10.73
   8   9   8  279.29    5.71
  -8   9  -8  288.69    8.98
   8   9   9  134.52    4.43
   8   9   9  123.30    7.55
  -8   9  -9  141.16    6.63
   8   9  10  163.82    5.44
   8   9  10  149.14    8.81
   8   9  11    9.35    3.18
   8   9  12    9.44    3.31
   8   9  13    3.81    2.61
   8   9  14   41.37    5.39
   8   9  15   23.16    4.29
   8   9  16  119.89    8.61
   8   9  17    4.00    3.79
   8 -10   0  147.98    7.81
   8 -10  -1  170.47    8.41
   8 -10   1  163.69    8.30
  -8  10  -1  183.91    4.17
   8 -10  -2   24.51    3.89
   8 -10   2   18.26    3.50
  -8 -10   2   16.99    1.12
  -8  10  -2   19.55    1.83
   8 -10  -3   18.55    3.43
   8 -10   3   12.65    2.89
  -8 -10   3   17.54    1.65
  -8  10  -3   13.00    1.84
   8 -10  -4    7.42    2.78
   8 -10   4    7.99    2.61
  -8  10  -4    9.21    1.82
   8 -10  -5   99.61    6.75
   8 -10   5  105.72    7.14
  -8  10  -5  104.33    4.83
   8 -10  -6   25.14    3.90
   8 -10   6   31.64    4.61
  -8  10  -6   25.82    2.85
   8 -10  -7   57.51    5.42
   8 -10   7   65.88    5.91
  -8  10  -7   60.26    4.18
   8 -10  -8   72.19    5.86
   8  10   8   70.26    5.78
   8  10   8   67.70    2.89
  -8  10  -8   77.80    4.89
   8  10   9   80.56    6.48
   8  10   9   85.56    3.70
   8  10  10  121.99    7.96
   8  10  11    1.53    2.65
   8  10  12   33.31    4.88
   8  10  13   11.22    3.48
   8  10  14   13.36    4.29
   8  10  15   30.86    4.92
   8  10  16   27.99    4.82
   8 -11   0   58.58    5.52
  -8  11   0   45.46    1.76
   8 -11   1    3.51    2.52
   8 -11  -1    6.03    2.71
  -8  11  -1    3.30    1.16
   8 -11  -2   89.24    6.49
   8 -11   2   96.08    6.95
  -8 -11   2   92.32    2.55
  -8  11  -2   97.02    3.66
   8 -11  -3    0.82    2.35
  -8 -11   3    2.15    1.10
   8 -11   3   -0.65    2.73
  -8  11  -3    1.85    1.42
   8 -11  -4    7.41    2.93
   8 -11   4    5.90    2.94
  -8  11  -4    8.49    1.91
   8 -11  -5   10.08    3.17
   8 -11   5   15.82    3.81
  -8  11  -5   10.73    2.25
   8 -11  -6  222.00   10.16
   8 -11   6  234.00   10.69
  -8  11  -6  241.40    7.77
   8 -11  -7    5.83    2.72
   8 -11   7    9.51    3.46
  -8  11  -7    3.08    2.01
   8 -11  -8   22.23    3.81
   8  11   8   24.63    4.10
  -8  11  -8   25.85    3.32
   8  11   9   65.73    6.04
   8  11  10   63.57    6.07
   8  11  11   -1.06    2.83
   8  11  12    6.66    3.15
   8  11  13    3.82    2.92
   8  11  14   89.09    7.61
   8  11  15   26.71    5.19
   8  11  16   45.30    6.00
   8 -12   0   20.53    3.59
  -8  12   0   21.48    1.41
   8 -12   1   21.41    4.07
   8 -12  -1   19.11    3.52
  -8  12  -1   18.81    1.72
   8 -12  -2   16.96    3.74
   8 -12   2   15.32    3.64
  -8 -12   2   12.38    1.28
  -8  12  -2   18.00    1.98
   8 -12  -3    7.67    3.02
  -8 -12   3    5.58    1.27
   8 -12   3    4.19    2.76
  -8  12  -3    9.16    1.86
   8 -12  -4    8.00    2.96
   8 -12   4    2.37    2.68
  -8 -12   4    6.15    1.70
  -8  12  -4    2.41    1.58
   8 -12  -5   44.51    5.18
   8 -12   5   46.74    5.55
  -8  12  -5   48.05    3.63
   8 -12  -6   10.91    3.48
   8 -12   6    6.61    3.28
  -8  12  -6    6.50    2.10
   8 -12  -7   56.15    5.58
   8 -12   7   65.17    6.32
  -8  12  -7   64.33    4.62
   8 -12  -8  107.88    7.48
   8  12   8   97.41    7.39
   8 -12   8  114.63    8.03
   8  12   9    8.34    3.35
   8  12  10    1.40    2.88
   8  12  11    4.27    3.18
   8  12  12    9.39    3.46
   8  12  13   -0.96    3.05
   8  12  14   58.38    6.63
   8  12  15   11.90    4.39
   8 -13   0   97.14    7.30
   8 -13   1   -5.30    3.44
   8 -13  -1    0.57    2.51
   8 -13  -2  284.87   11.76
   8 -13   2  287.12   12.19
   8 -13   3   42.44    5.22
   8 -13  -3   52.37    5.52
  -8 -13   3   44.31    2.69
   8 -13  -4   36.19    4.76
  -8 -13   4   38.10    2.79
   8 -13   4   35.49    4.93
   8 -13  -5   72.93    6.66
   8 -13   5   80.20    7.16
  -8 -13   5   79.78    4.38
   8 -13  -6  178.84    9.84
   8 -13   6  196.46   10.71
   8 -13  -7    0.44    2.77
   8 -13   7   -1.92    2.97
   8 -13  -8   56.79    6.00
   8  13   8   58.77    6.14
   8 -13   8   70.85    7.15
   8 -13   9    5.69    3.43
   8  13   9    3.66    3.07
   8  13  10  124.67    8.65
   8  13  11    6.23    3.30
   8  13  12   22.20    4.50
   8  13  13    6.92    3.89
   8  13  14   45.63    6.10
   8 -14   0   30.15    4.70
   8 -14   1   10.74    3.59
   8 -14  -1   17.70    4.16
   8 -14  -2   11.78    3.47
   8 -14   2   12.26    3.43
   8 -14   3    1.04    2.80
   8 -14  -3    2.57    2.63
   8 -14  -4    8.08    3.27
   8 -14   4    4.85    3.61
   8 -14  -5    7.48    3.41
   8 -14   5   14.96    3.92
   8 -14  -6    5.35    3.38
   8 -14   6    6.40    3.63
   8 -14  -7   15.12    3.88
   8 -14   7   20.37    4.55
   8 -14  -8   58.34    6.10
   8 -14   8   73.52    7.32
   8  14   8   60.69    6.18
   8 -14   9    2.41    4.12
   8  14   9    2.35    3.26
   8 -14  10    9.34    4.06
   8  14  10   -1.94    3.30
   8  14  11   -2.04    3.34
   8  14  12   -1.24    3.46
   8 -15   0  198.27   10.89
   8 -15  -1    3.74    3.09
   8 -15   1    1.70    3.04
   8 -15  -2   38.73    5.19
   8 -15   2   39.96    5.56
   8 -15   3   16.43    4.27
   8 -15  -3   22.12    4.42
   8 -15  -4    0.90    3.20
   8 -15   4   -1.79    4.17
   8 -15  -5   72.63    7.20
   8 -15   5   99.42   10.44
   8 -15  -6   66.34    6.64
   8 -15   6   69.90    7.07
   8 -15  -7    7.60    3.43
   8 -15   7    6.49    3.71
   8 -15  -8   73.21    7.14
   8 -15   8   89.11    8.55
   8  15   8   73.05    7.01
   8  15   9   21.66    4.82
   8 -15   9   31.01    5.56
   8  15  10   48.40    6.06
   8  15  11    4.68    3.84
   8 -16   0    8.16    3.51
   8 -16  -1   18.02    4.34
   8 -16   1   26.67    5.21
   8 -16  -2   20.89    4.61
   8 -16   2   26.31    5.28
   8 -16   3    3.05    3.20
   8 -16  -3    6.46    3.45
   8 -16  -4    3.40    3.26
   8 -16   4    4.20    3.39
   8 -16   5    4.22    3.27
   8 -16  -5    2.48    3.29
   8 -16  -6    6.61    3.77
   8 -16   6    6.24    3.81
   8 -16  -7   11.91    4.02
   8  16   8   25.56    5.08
   8  16   9    9.88    3.68
   8 -17   0  138.14    9.80
   8 -17  -1    3.11    3.20
   8 -17   1    7.87    3.80
   8 -17  -2   23.70    4.57
   9   0   0    1.05    1.26
   9   0  -1    0.14    1.30
   9   0   1   -0.24    1.34
  -9   0   1    1.33    1.13
   9   0  -2  602.67   10.15
  -9   0   2  597.92   10.38
   9   0   2  610.79    9.89
   9   0   2  604.96   11.04
  -9   0   3   -0.15    1.27
   9   0   3   -0.64    1.57
   9   0   3   -1.07    1.43
  -9   0   4  100.45    4.50
   9   0   4  105.39    4.39
   9   0   4   96.37    4.80
  -9   0   5   -0.78    1.42
   9   0   5    0.38    1.59
  -9   0   6  250.72    7.53
   9   0   6  255.64    8.28
  -9   0   7   -0.89    1.49
   9   0   7   -1.60    1.90
  -9   0   8   88.26    5.11
   9   0   8   79.71    5.30
  -9   0   9   -3.28    1.97
   9   0   9   -0.28    1.98
  -9   0  10 1312.48   19.98
   9   0 -10 1289.73   16.92
   9   0  10 1271.14   20.74
   9   0 -11    1.20    1.52
   9   0  11    1.54    2.05
   9   0 -12    8.00    2.36
   9   0  12    6.43    2.84
   9   0 -13    1.12    1.75
   9   0  13   -4.84    2.70
   9   0  14  167.26    8.85
   9   0  15    0.95    2.70
   9   0  16   67.27    6.31
   9   0  17    1.04    2.73
   9   0  18  232.35   11.67
   9   0  19   -0.86    3.07
   9  -1   0   -0.49    1.28
   9   1   0   -0.24    1.08
   9   1   1  119.10    4.02
   9  -1  -1  124.68    4.95
   9   1  -1  121.00    4.26
   9  -1   1  118.51    4.65
   9  -1   1  117.01    4.74
  -9   1   1  112.54    4.78
  -9  -1   1  110.43    4.12
   9  -1  -2  142.56    5.34
  -9   1   2  146.02    5.55
  -9  -1   2  134.56    4.72
   9  -1   2  140.19    5.26
   9   1   2  141.65    4.39
   9  -1   2  138.24    5.20
  -9  -1   3    7.90    1.56
   9  -1  -3    8.31    1.75
  -9   1   3    8.79    1.86
   9  -1   3    8.95    1.79
   9  -1   3    8.73    1.76
   9   1   3    8.27    1.99
   9   1   3    8.79    1.52
  -9   1   4  100.14    4.98
  -9  -1   4   96.98    4.34
   9  -1   4   98.66    4.63
   9   1   4  100.60    4.04
   9   1   4  101.85    5.31
   9  -1   4   99.21    4.90
  -9  -1   5   42.00    2.89
  -9   1   5   45.35    3.44
   9  -1   5   45.75    3.58
   9   1   5   43.17    3.55
  -9   1   6  204.62    7.07
  -9  -1   6  200.48    6.46
   9  -1   6  202.31    7.14
   9   1   6  198.48    7.45
  -9  -1   7   11.50    2.03
  -9   1   7   12.65    2.23
   9   1   7    8.27    2.34
   9  -1   7   13.96    2.52
  -9  -1   8   53.71    3.88
  -9   1   8   60.76    4.40
   9   1   8   57.62    4.50
   9  -1   8   58.94    4.46
  -9   1   9    3.58    2.01
  -9  -1   9    2.96    1.80
   9  -1  -9    7.46    1.86
   9   1   9    3.03    1.98
   9  -1   9    7.72    2.53
  -9  -1  10  253.03    8.82
   9  -1 -10  245.72    7.18
   9  -1  10  262.20    9.40
   9   1  10  250.22    9.45
   9  -1 -11    2.42    1.47
   9   1 -11    6.61    2.11
   9   1  11    1.96    2.44
   9  -1  11    5.10    2.45
   9   1 -12  106.73    5.81
   9  -1  12  110.18    6.76
   9  -1 -12  108.95    5.47
   9   1  12  111.10    6.98
   9   1 -13   16.67    2.82
   9  -1 -13   16.43    2.66
   9  -1  13   18.65    3.66
   9   1  13   19.26    3.53
   9  -1  14   89.05    6.54
   9  -1 -14   90.99    5.42
   9   1  14   94.17    6.75
   9  -1  15    2.22    2.51
   9   1  15   -1.46    2.73
   9  -1  16   25.91    4.29
   9   1  16   24.88    4.61
   9  -1  17    7.81    3.28
   9   1  17    4.86    2.77
   9   1  18   46.75    5.93
   9  -1  18   42.62    5.44
   9   1  19   -0.63    3.53
   9  -1  19   -0.52    3.09
   9   2   0   -0.62    1.05
   9  -2   0    0.08    1.43
   9  -2   0   -0.36    1.19
   9   2   1    2.88    1.06
   9  -2  -1    4.91    1.64
   9  -2   1    2.94    1.41
   9  -2   1    3.96    1.39
   9  -2  -1    5.87    1.46
   9   2   2  518.26    7.27
   9  -2  -2  508.99   10.33
  -9   2   2  510.43   10.75
  -9  -2   2  497.27    8.32
   9  -2   2  503.86   10.45
   9  -2   2  489.88    9.23
   9  -2  -3  342.61    8.78
   9  -2   3  324.60    8.38
  -9  -2   3  320.51    6.90
  -9   2   3  336.49    8.97
   9   2   3  333.05    6.18
   9  -2   3  324.16    7.75
   9  -2  -4  196.42    6.97
  -9  -2   4  186.55    5.64
   9   2   4  182.01    4.99
   9   2   4  196.99    7.44
  -9   2   4  190.58    7.09
   9  -2   4  196.85    6.76
   9  -2   4  197.11    6.64
  -9  -2   5  217.56    6.23
  -9   2   5  223.48    7.46
   9   2   5  213.17    7.67
   9  -2   5  224.52    7.16
  -9  -2   6  708.92   11.84
  -9   2   6  732.80   13.76
   9  -2   6  735.04   13.34
   9   2   6  695.34   14.14
  -9  -2   7   39.56    3.22
  -9   2   7   40.04    3.62
   9   2   7   34.44    3.60
   9  -2   7   40.03    3.61
  -9   2   8    5.21    2.48
  -9  -2   8    4.11    1.75
   9  -2  -8    2.32    1.28
   9   2   8    2.57    1.99
   9  -2   8    6.34    2.63
  -9   2  -9  154.21    6.92
  -9   2   9  151.33    6.93
  -9  -2   9  151.83    6.46
   9  -2  -9  153.94    5.29
   9  -2   9  147.98    6.88
   9   2   9  149.96    7.45
  -9  -2  10  368.25   10.32
   9  -2 -10  360.88    8.34
   9  -2  10  363.36   10.95
   9   2  10  341.31   11.17
  -9  -2  11  330.37   10.15
   9   2 -11  334.51    9.67
   9  -2  11  332.65   10.87
   9  -2 -11  331.19    8.35
   9   2  11  324.87   11.23
   9  -2 -12   54.77    3.97
   9  -2  12   53.30    5.09
   9   2  12   48.15    5.03
   9  -2 -13   50.19    3.80
   9  -2  13   45.41    4.75
   9   2  13   46.76    4.96
   9  -2 -14  128.99    6.23
   9  -2  14  135.64    8.08
   9   2  14  135.13    8.16
   9  -2  15   15.65    3.72
   9  -2 -15    8.01    2.45
   9   2  15    9.16    2.85
   9  -2  16   59.38    6.13
   9   2  16   62.22    6.21
   9  -2  17   95.80    7.42
   9   2  17   97.00    7.60
   9   2  18   81.94    7.22
   9  -2  18   77.18    7.00
   9  -2  19   39.98    5.79
   9   2  19   39.08    5.46
   9  -3   0   -1.32    1.64
   9  -3   0    0.22    1.05
   9  -3   1   29.94    3.10
   9  -3  -1   31.52    3.02
   9  -3   1   32.80    2.46
   9  -3  -1   27.42    2.05
   9  -3  -2   14.72    2.43
   9   3   2   15.89    1.32
   9  -3  -2   11.26    1.43
  -9   3   2   18.51    2.71
  -9  -3   2   11.20    1.50
   9  -3   2   11.82    2.23
   9  -3   2   13.44    1.82
   9  -3  -3   15.21    2.54
  -9  -3   3   14.28    1.70
   9  -3   3   17.48    2.58
   9   3   3   17.57    1.46
  -9   3   3   15.10    2.61
   9  -3   3   14.66    2.06
  -9  -3   4  135.17    4.42
   9  -3  -4  151.75    6.34
   9   3   4  143.79    3.78
   9   3   4  153.05    6.65
  -9   3   4  147.81    6.49
   9  -3   4  148.62    6.14
   9  -3   4  152.38    5.56
  -9  -3   5  102.64    4.14
  -9   3   5  111.43    5.65
   9   3   5  105.93    5.65
   9  -3   5  116.06    5.04
  -9  -3   6   54.78    3.35
  -9   3   6   59.49    4.27
   9  -3   6   60.65    3.95
   9   3   6   56.59    4.32
   9   3   7    3.91    2.18
  -9   3  -7    3.97    1.58
  -9  -3   7    6.88    1.84
  -9   3   7    6.35    2.16
   9  -3  -7   12.67    1.68
   9  -3   7    7.21    2.08
   9   3   8   13.55    2.92
  -9   3  -8   10.72    2.31
  -9  -3   8   15.26    2.23
  -9   3   8   16.23    2.68
   9  -3  -8   24.12    3.26
   9  -3   8   14.49    2.60
  -9   3  -9  147.79    6.69
  -9  -3   9  137.68    6.01
   9  -3   9  147.02    6.78
   9  -3  -9  147.02    4.75
   9   3   9  138.03    7.10
   9  -3 -10   10.34    1.72
   9  -3  10    8.61    2.61
   9   3  10   10.54    2.84
   9  -3 -11   28.19    2.60
   9  -3  11   30.75    3.78
   9   3  11   25.79    3.66
   9  -3 -12   44.43    3.25
   9  -3  12   50.28    4.79
   9   3  12   45.00    4.79
   9  -3  13   44.71    4.83
   9  -3 -13   47.04    3.52
   9   3  13   44.19    4.91
   9  -3  14  143.27    8.20
   9  -3 -14  134.96    5.96
   9   3  14  145.00    8.55
   9  -3  15   44.38    5.28
   9   3  15   46.26    5.37
   9  -3  16   19.97    4.21
   9   3  16   20.50    4.18
   9  -3  17   14.98    4.07
   9   3  17   10.23    3.56
   9  -3  18   15.81    4.19
   9   3  18   13.87    4.21
   9  -3  19   24.44    5.01
   9   3  19   23.60    4.72
   9  -4   0   -0.84    1.72
   9  -4   0    0.59    0.96
   9  -4  -1   85.94    4.76
   9  -4   1   87.22    4.92
   9  -4   1   84.70    3.40
   9  -4  -1   85.50    2.97
   9  -4  -2   28.83    3.19
  -9  -4   2   23.65    1.72
   9  -4   2   27.29    3.15
  -9   4   2   35.09    3.54
   9  -4  -2   26.62    1.67
   9  -4   2   26.10    2.34
   9   4   3  220.32    2.80
   9  -4  -3  257.32    8.24
  -9   4   3  258.49    8.62
   9  -4   3  253.26    8.31
  -9  -4   3  249.26    5.24
   9  -4   3  260.28    6.59
   9  -4  -3  250.87    4.26
  -9   4   4  976.78   17.01
   9   4   4  954.04    7.23
   9  -4   4  942.91   15.89
   9  -4  -4  981.44   16.46
  -9  -4   4  905.85   10.74
   9  -4   4  976.77   13.47
   9  -4  -4  928.64    7.94
   9   4   5  211.32    8.12
  -9   4   5  214.34    8.20
   9  -4   5  213.04    7.65
   9   4   5  222.36    4.22
   9  -4   5  214.06    6.74
   9  -4  -5  193.09    3.55
  -9  -4   5  199.64    5.56
   9  -4  -5  211.61    7.83
   9   4   6  121.31    6.60
  -9   4  -6  120.40    5.43
  -9   4   6  123.57    6.40
  -9  -4   6  115.73    4.72
   9  -4  -6  115.30    2.99
   9  -4   6  122.19    5.49
   9   4   7    7.49    2.31
  -9   4  -7    6.56    2.02
  -9  -4   7    7.76    1.80
  -9   4   7    8.97    2.38
   9  -4  -7    6.54    1.05
   9  -4   7   10.28    2.31
   9   4   8   17.63    3.20
  -9   4  -8   27.22    3.16
   9  -4  -8   24.78    1.84
   9  -4   8   21.77    2.98
   9  -4  -9  462.30    7.46
   9  -4   9  483.80   12.10
  -9   4  -9  482.17   11.92
   9   4   9  433.55   12.71
   9  -4  10    3.26    2.13
   9   4  10    1.28    2.36
   9  -4 -10    1.55    1.14
   9  -4 -11  180.23    5.42
   9  -4  11  178.46    8.09
   9   4  11  171.50    8.50
   9  -4  12  171.40    8.46
   9  -4 -12  173.71    5.77
   9   4  12  165.00    8.68
   9  -4  13   38.66    4.61
   9  -4 -13   38.60    3.07
   9   4  13   33.83    4.54
   9  -4  14   48.00    5.36
   9   4  14   54.62    5.74
   9  -4  15    5.36    3.17
   9   4  15    2.61    3.04
   9  -4  16    6.01    3.19
   9   4  16    3.97    3.24
   9  -4  17   96.79    7.70
   9   4  17   93.37    7.55
   9  -4  18    0.88    3.19
   9   4  18    3.38    3.39
   9  -4  19   14.57    3.90
   9  -5   0    1.46    1.88
   9  -5   0    1.03    0.94
   9  -5   1    1.14    1.71
   9  -5  -1    1.32    1.87
   9  -5   1    2.79    1.10
   9  -5  -1    2.17    0.82
  -9   5   2    3.61    1.85
  -9  -5   2    3.25    0.83
   9  -5   2    2.40    1.84
   9  -5  -2    4.66    1.92
   9  -5  -2    4.13    0.75
   9  -5   2    5.59    1.33
  -9  -5   3   34.66    1.94
   9  -5   3   32.78    3.49
  -9   5   3   34.58    3.56
   9  -5   3   36.55    2.63
   9  -5  -3   35.30    3.59
   9  -5   4  522.68   12.50
  -9   5   4  562.06   13.32
   9  -5   4  548.38    9.94
   9  -5  -4  535.91   12.67
  -9  -5   4  516.87    7.80
  -9   5   5    4.43    1.90
   9   5   5    2.89    0.62
  -9   5  -5    6.61    1.80
   9  -5   5    6.64    2.17
   9  -5   5    6.99    1.86
   9  -5  -5    3.33    1.95
  -9  -5   5    3.54    1.29
  -9   5  -6   31.48    3.01
   9   5   6   35.11    4.09
  -9  -5   6   30.84    2.57
  -9   5   6   34.37    3.88
   9  -5  -6   32.67    3.60
   9  -5   6   26.67    2.80
  -9   5  -7   -0.30    1.51
   9   5   7   -0.20    2.20
   9  -5   7    1.00    1.69
   9  -5  -7    1.25    0.50
   9   5   8   -2.06    2.29
  -9   5  -8    1.54    1.65
   9  -5   8    3.22    2.03
   9  -5  -8    1.23    0.76
   9  -5   9  102.97    5.88
  -9   5  -9  105.28    5.73
   9   5   9   91.22    6.20
   9  -5  -9   95.54    2.95
   9  -5  10   12.36    2.69
   9  -5 -10   15.63    1.57
   9   5  10   17.60    3.30
   9  -5  11   30.94    4.04
   9   5  11   27.03    4.02
   9  -5 -11   28.08    2.25
   9  -5  12   67.28    5.44
   9   5  12   65.44    5.81
   9  -5 -12   61.38    3.36
   9  -5  13   17.32    3.67
   9   5  13    9.81    2.97
   9  -5  14  138.11    8.22
   9   5  14  131.98    8.31
   9  -5  15    5.02    2.91
   9   5  15    5.94    3.03
   9  -5  16   33.40    4.69
   9   5  16   38.62    5.43
   9  -5  17   10.14    3.33
   9   5  17    9.54    3.26
   9  -5  18  -11.72    4.78
   9   5  18    2.91    3.45
   9  -5  19    0.01    3.24
   9  -6   0    2.15    0.90
   9  -6   0    2.24    2.14
   9  -6   1    9.91    1.36
   9  -6  -1    8.38    0.86
   9  -6   1    8.78    2.46
   9  -6  -1   11.22    2.47
  -9  -6   2   12.08    0.80
   9  -6   2   14.68    2.65
   9  -6   2   17.84    1.84
   9  -6  -2   19.07    2.95
  -9   6   3    4.75    2.13
   9  -6   3    3.24    1.91
   9  -6   3    4.94    1.47
   9  -6  -3    5.90    2.33
  -9  -6   3    1.91    0.77
   9  -6   4  876.86   16.87
  -9   6   4  896.51   17.44
  -9   6  -4  848.54   12.15
   9  -6   4  893.04   12.70
  -9  -6   4  833.80    9.53
   9  -6  -4  871.77   16.66
   9  -6   5   15.22    2.89
  -9   6  -5   13.79    2.08
   9  -6   5   14.85    2.14
   9  -6  -5   14.81    2.92
  -9  -6   5   12.41    1.64
  -9   6  -6   12.68    2.24
   9   6   6   16.21    3.31
   9  -6   6   10.61    2.16
   9   6   6    8.84    0.78
   9  -6  -6   10.70    2.61
  -9   6  -7    5.69    1.85
   9   6   7    4.61    2.46
   9  -6   7    8.07    2.27
  -9   6  -8   26.82    3.06
   9   6   8   32.65    4.01
   9  -6   8   28.11    3.29
  -9   6  -9    0.76    1.81
   9   6   9    2.14    2.24
   9  -6   9    1.55    2.24
   9  -6  10  206.68    8.51
   9   6  10  189.16    9.10
   9  -6 -10  165.96    3.60
   9  -6 -11    5.84    1.28
   9  -6  11   11.25    3.09
   9   6  11    3.13    2.66
   9  -6  12  571.92   14.83
   9   6  12  538.06   16.00
   9  -6  13   -6.39    3.24
   9   6  13    4.67    2.72
   9  -6  14   77.81    6.48
   9   6  14   75.75    6.69
   9  -6  15    4.32    2.88
   9   6  15    7.04    3.09
   9  -6  16    1.98    2.94
   9   6  16   14.45    3.99
   9  -6  17    0.63    2.98
   9   6  17   -1.31    2.86
   9  -6  18   42.47    5.59
   9   6  18   45.80    5.85
   9  -7   0    2.48    2.12
   9  -7   1   -1.82    2.22
   9  -7  -1   -0.61    1.87
   9  -7   2   59.18    4.95
   9  -7   2   62.06    3.00
   9  -7  -2   60.06    4.79
  -9   7  -3    5.25    1.40
   9  -7   3    2.52    2.17
  -9  -7   3    3.82    0.80
   9  -7  -3    9.46    2.73
   9  -7   3    7.92    1.67
   9  -7   4  382.40   11.72
  -9  -7   4  367.97    6.08
   9  -7  -4  377.82   11.37
   9  -7   4  415.13    8.60
  -9   7  -4  386.37    8.21
   9  -7   5   89.23    5.95
   9  -7  -5   79.35    5.64
   9  -7   5   80.47    4.15
  -9   7  -5   85.93    4.36
   9  -7   6  208.86    8.95
   9  -7  -6  209.32    9.01
   9  -7   6  201.70    6.96
  -9   7  -6  204.06    6.89
  -9   7  -7    0.95    1.61
   9   7   7    1.53    2.35
   9  -7   7   -0.62    1.97
   9  -7  -7   -2.18    2.47
   9   7   7    1.76    0.75
  -9   7  -8    4.95    1.92
   9   7   8    1.45    2.33
   9  -7   8    3.11    2.04
   9   7   8    3.93    1.08
  -9   7  -9    9.96    2.41
   9   7   9    9.75    2.86
   9  -7   9    6.33    2.14
   9   7   9   11.01    1.59
   9   7  10   14.79    3.14
   9  -7  10   13.29    2.70
   9  -7  11   43.44    4.33
   9   7  11   44.51    4.97
   9  -7  12  133.02    7.42
   9   7  12  132.05    8.23
   9  -7  13    2.22    2.58
   9   7  13    7.31    3.19
   9  -7  14  118.63    7.55
   9   7  14  116.05    8.11
   9  -7  15    2.43    3.03
   9   7  15   -0.42    2.86
   9  -7  16   11.92    3.80
   9   7  16   15.49    4.21
   9  -7  17    7.55    3.34
   9   7  17    7.39    3.56
   9  -7  18    9.77    3.85
   9  -8   0    1.84    2.08
   9  -8   1   11.12    2.68
   9  -8  -1   15.65    3.04
   9  -8  -2    1.89    2.01
   9  -8   2    1.45    2.22
  -9  -8   3  124.27    2.64
   9  -8  -3  134.80    7.21
  -9   8  -3  132.11    4.47
   9  -8   3  127.13    7.22
   9  -8  -4  405.06   12.38
   9  -8   4  399.45   12.63
  -9   8  -4  407.42    8.46
   9  -8   5  218.20    9.34
   9  -8  -5  216.56    9.33
   9  -8   5  215.38    6.71
  -9   8  -5  215.30    6.64
  -9   8  -6    3.90    1.75
   9  -8   6    9.99    3.08
   9  -8   6    7.73    2.04
   9  -8  -6   11.32    3.14
  -9   8  -7    2.00    1.83
   9   8   7    1.67    2.53
   9  -8  -7   -0.22    2.16
   9  -8   7    3.04    1.94
   9   8   8    7.26    2.84
   9   8   8    5.03    1.05
   9  -8   8    7.93    2.41
  -9   8  -8    6.14    2.08
   9   8   9   21.14    3.74
   9  -8   9   28.84    3.67
   9   8   9   20.80    1.82
   9   8  10   18.09    3.53
   9  -8  10   28.24    3.76
   9   8  10   18.68    2.05
   9   8  11   43.53    5.01
   9  -8  11   62.04    5.18
   9  -8  12  303.43   10.99
   9   8  12  269.07   11.63
   9  -8  13   61.48    5.48
   9   8  13   60.64    6.07
   9  -8  14  181.01    9.24
   9   8  14  171.14   10.03
   9  -8  15   10.39    3.63
   9   8  15    6.12    3.40
   9  -8  16    2.82    3.26
   9   8  16    7.49    3.75
   9  -8  17   16.05    4.16
   9   8  17   17.99    4.45
   9  -8  18    5.79    3.69
   9  -9   0   -1.00    2.18
   9  -9  -1  104.09    6.67
   9  -9   1   99.27    6.63
   9  -9  -2   28.79    3.73
   9  -9   2   30.63    3.94
  -9   9  -2   32.10    2.17
  -9  -9   3    3.98    0.71
   9  -9  -3    8.87    2.83
  -9   9  -3    8.94    1.60
   9  -9   3    4.51    2.32
   9  -9  -4   92.58    6.36
   9  -9   4   89.49    6.42
  -9   9  -4   96.68    4.27
   9  -9  -5   71.90    5.81
   9  -9   5   70.15    5.78
  -9   9  -5   68.68    3.90
   9  -9  -6   85.98    6.33
   9  -9   6   96.76    6.88
  -9   9  -6   90.73    4.72
   9  -9  -7   -1.09    2.38
   9  -9   7    3.51    2.68
   9   9   7    5.10    3.01
  -9   9  -7   -3.10    1.95
   9   9   8    4.00    0.83
   9   9   8    0.26    2.44
  -9   9  -8    6.89    2.18
   9   9   9   25.07    4.12
   9   9  10   37.21    4.85
   9   9  11   12.29    3.25
   9   9  12   47.19    5.38
   9   9  13   -0.54    2.73
   9   9  14   28.97    4.99
   9   9  15    1.12    3.01
   9   9  16    9.84    3.78
   9 -10   0   -1.81    2.39
   9 -10   1   12.06    3.03
   9 -10  -1   11.81    3.34
   9 -10  -2   80.04    6.14
   9 -10   2   81.84    6.43
  -9  10  -2   82.36    3.27
   9 -10  -3  143.85    7.91
  -9 -10   3  131.61    2.69
   9 -10   3  140.79    8.04
  -9  10  -3  155.82    4.98
   9 -10  -4   11.93    3.21
  -9  10  -4   15.92    2.17
   9 -10   4    5.58    2.66
   9 -10  -5  201.73    9.59
   9 -10   5  205.57    9.87
  -9  10  -5  204.71    6.57
   9 -10  -6  123.36    7.99
   9 -10   6  130.39    8.10
  -9  10  -6  126.02    5.65
   9 -10  -7   46.09    5.08
   9 -10   7   51.81    5.57
  -9  10  -7   52.29    3.95
   9 -10  -8    7.55    3.08
   9 -10   8   12.15    3.39
   9  10   8    8.58    3.17
  -9  10  -8    6.45    2.26
   9  10   9   56.22    5.75
   9  10  10   42.18    5.29
   9  10  11  158.13    9.28
   9  10  12    6.83    3.09
   9  10  13   24.58    4.38
   9  10  14   63.83    6.85
   9  10  15    8.15    3.89
   9 -11   0   -1.10    2.51
   9 -11   1    6.55    2.86
   9 -11  -1    4.44    2.58
   9 -11  -2   23.08    3.70
   9 -11   2   26.00    4.13
  -9  11  -2   25.25    2.03
   9 -11  -3   19.82    3.60
  -9  11  -3   19.69    2.12
  -9 -11   3   16.56    1.08
   9 -11   3   13.53    3.01
   9 -11  -4    2.52    2.70
  -9 -11   4    7.58    1.39
   9 -11   4    2.17    2.59
  -9  11  -4    6.44    1.81
   9 -11  -5    9.80    3.09
   9 -11   5    5.84    3.08
  -9  11  -5    7.35    2.03
   9 -11  -6  105.99    7.36
   9 -11   6  103.15    7.52
  -9  11  -6  107.98    5.25
   9 -11  -7   54.77    5.73
   9 -11   7   52.51    5.75
  -9  11  -7   43.44    3.83
   9 -11  -8    2.37    2.83
   9 -11   8    4.84    2.92
   9  11   8    1.89    2.60
   9  11   9    3.00    2.63
   9  11  10   52.35    5.69
   9  11  11    7.65    3.16
   9  11  12   20.84    4.17
   9  11  13    2.28    3.00
   9  11  14   35.16    5.63
   9 -12   0   -0.41    2.63
   9 -12   1    5.54    2.92
   9 -12  -1    5.23    3.17
   9 -12  -2  173.53    9.26
   9 -12   2  172.21    9.55
   9 -12   3    2.18    2.66
   9 -12  -3    4.54    2.71
   9 -12  -4   19.64    4.07
   9 -12   4   18.08    3.90
   9 -12  -5   15.30    3.59
   9 -12   5   11.25    3.32
   9 -12  -6  296.57   12.50
   9 -12   6  307.52   13.13
   9 -12  -7   10.38    3.40
   9 -12   7    4.38    2.93
   9 -12  -8   15.93    3.85
   9 -12   8   22.12    4.64
   9  12   8   22.83    4.45
   9 -12   9    9.58    3.99
   9  12   9    5.22    3.28
   9  12  10  134.09    9.01
   9  12  11    4.54    2.97
   9  12  12   -0.94    3.03
   9  12  13   -5.34    3.42
   9 -13   0   -6.12    3.37
   9 -13   1    3.73    2.78
   9 -13  -1    6.64    3.14
   9 -13  -2   67.35    6.15
   9 -13   2   80.15    7.05
   9 -13   3    6.01    3.11
   9 -13  -3    1.78    2.83
   9 -13  -4   69.48    6.41
   9 -13   4   71.08    6.73
   9 -13  -5    5.61    3.03
   9 -13   5    4.58    2.83
   9 -13  -6   98.09    7.54
   9 -13   6   99.02    7.77
   9 -13  -7   24.93    4.47
   9 -13   7   33.54    5.29
   9 -13  -8    2.79    3.00
   9  13   8    4.88    3.31
   9 -13   8    3.42    3.21
   9 -13   9   21.69    4.72
   9  13   9   18.16    4.32
   9 -13  10   45.04    6.17
   9  13  10   35.74    5.52
   9  13  11    2.53    3.21
   9  13  12    4.72    3.37
   9 -14   0   -1.03    2.83
   9 -14  -1   16.20    4.13
   9 -14   1   18.01    4.35
   9 -14  -2  105.10    8.05
   9 -14   2  105.67    8.10
   9 -14   3   30.68    5.05
   9 -14  -3   27.63    4.42
   9 -14  -4   12.90    3.97
   9 -14   4   10.16    3.36
   9 -14  -5   58.31    6.50
   9 -14   5   52.29    6.03
   9 -14  -6   80.55    8.50
   9 -14   6   79.01    7.63
   9 -14  -7   -0.44    3.07
   9 -14   7    9.81    3.86
   9 -14  -8   16.43    4.21
   9 -14   8   14.41    4.23
   9  14   8   15.57    4.13
   9  14   9   14.90    4.20
   9 -14   9   16.68    4.94
   9  14  10  105.05    8.42
   9  14  11    9.27    3.58
   9 -15   0   -2.62    3.19
   9 -15  -1   23.52    4.66
   9 -15   1   26.52    4.70
   9 -15  -2   42.11    5.53
   9 -15   2   41.57    5.71
   9 -15   3   -2.52    3.39
   9 -15  -3    4.70    3.42
   9 -15  -4  124.43    8.84
   9 -15   4  125.48    9.21
   9 -15  -5   28.87    5.07
   9 -15   5   27.25    5.04
   9 -15  -6   18.65    4.41
   9 -15   6   11.65    3.86
   9 -15  -7    3.34    3.50
   9 -15   7   -0.37    3.31
   9  15   8    0.70    3.31
   9  15   9    0.02    3.16
   9 -16   0    3.45    3.33
   9 -16  -1    6.53    3.79
   9 -16   1    1.12    3.15
   9 -16  -2    4.09    3.22
   9 -16   2    5.54    4.01
   9 -16   3   11.65    4.17
   9 -16  -3    3.75    3.49
   9 -16  -4   68.24    7.18
  10   0   0   19.18    2.40
  10   0   1   -0.55    1.26
  10   0  -1   -1.77    1.42
  10   0   1    0.23    1.58
  10   0  -2  598.57   10.62
  10   0   2  595.20   11.50
  10   0   2  606.58   10.31
 -10   0   2  593.35   10.80
  10   0   3   -1.36    1.49
  10   0   3   -1.02    1.74
 -10   0   3   -0.20    1.46
 -10   0   4   18.22    2.40
  10   0   4   20.08    2.75
  10   0   4   20.12    2.32
 -10   0   5   -0.90    1.43
  10   0   5    2.48    1.58
  10   0   5    0.34    1.68
 -10   0   6  519.03   11.28
  10   0   6  495.35   11.84
 -10   0   7   -1.59    1.64
  10   0   7    0.09    1.80
 -10   0   8   22.16    3.04
  10   0   8   13.82    2.83
 -10   0   9    2.09    1.74
  10   0   9   -0.84    2.21
  10   0 -10  120.09    5.45
  10   0  10  117.32    6.79
  10   0 -11   -0.27    1.55
  10   0  11    1.05    2.38
  10   0 -12   41.56    3.78
  10   0  12   43.48    4.83
  10   0 -13    1.43    1.95
  10   0  13   -3.93    3.08
  10   0  14  681.93   17.81
  10   0  15   -1.65    2.72
  10   0  16   22.61    4.28
  10   0  17   -1.28    3.06
  10   0  18  109.19    8.43
  10   1   0   70.07    3.46
  10  -1   0   71.40    3.98
  10  -1   0   62.58    3.65
  10  -1  -1   13.45    2.18
  10   1   1   11.79    1.75
  10  -1   1   13.13    2.22
  10   1  -1   11.85    1.81
  10  -1   1   12.05    2.03
  10   1   2  109.48    4.28
  10  -1  -2  112.80    5.25
  10   1   2  110.52    5.48
  10  -1   2  106.83    4.86
 -10   1   2  101.91    5.12
 -10  -1   2  105.58    4.63
  10  -1   2  110.29    5.13
  10  -1  -3   -0.56    1.74
  10   1   3    2.58    1.35
  10  -1   3    1.01    1.55
 -10   1   3   -2.15    1.76
  10   1   3    3.18    1.79
 -10  -1   3   -2.31    1.59
  10  -1   3   -2.55    1.79
 -10  -1   4    4.02    1.59
  10  -1   4    2.63    1.65
 -10   1   4    6.21    1.84
  10   1   4    2.12    1.89
  10   1   4    3.82    1.46
  10  -1   4    4.11    1.88
 -10   1   5    7.25    2.08
 -10  -1   5    9.69    1.87
  10   1   5    9.04    2.26
  10  -1   5    9.54    2.16
  10   1   5   11.14    1.91
  10  -1   5    7.43    2.03
 -10   1   6   23.62    2.92
 -10  -1   6   23.05    2.66
  10   1   6   23.81    3.14
  10  -1   6   23.54    2.88
 -10  -1   7    6.58    1.95
 -10   1   7    2.84    1.79
  10   1   7    4.08    2.00
  10  -1   7    5.21    2.03
 -10   1   8   64.67    4.55
 -10  -1   8   64.71    4.48
  10   1   8   63.53    5.00
  10  -1   8   59.62    4.71
 -10  -1   9   -0.03    1.63
 -10   1   9    1.01    1.81
  10  -1   9    2.49    2.08
  10   1   9   -1.85    2.47
 -10  -1  10   18.03    2.95
  10  -1 -10   21.74    2.84
  10   1  10   18.01    3.44
  10  -1  10   24.63    3.87
  10  -1 -11    0.80    1.58
  10   1 -11    5.02    2.09
  10   1  11    8.11    2.86
  10  -1  11    4.60    2.39
  10  -1  12   49.14    5.18
  10   1 -12   50.63    4.49
  10  -1 -12   49.19    4.00
  10   1  12   48.44    5.30
  10  -1 -13    2.39    1.91
  10  -1  13    2.10    2.62
  10   1  13    2.23    2.54
  10  -1 -14   23.70    3.32
  10  -1  14   24.05    4.18
  10   1  14   22.27    3.98
  10  -1  15    0.77    2.67
  10   1  15   -2.12    2.79
  10  -1  16   26.74    4.61
  10   1  16   22.91    4.32
  10  -1  17    0.70    3.35
  10   1  17   -0.77    3.42
  10   1  18   89.06    7.96
  10  -1  18   82.25    7.51
  10  -2   0   25.32    2.74
  10  -2   0   24.33    2.28
  10   2   1  590.47    8.36
  10  -2  -1  599.22   11.62
  10  -2  -1  582.61    9.57
  10  -2   1  579.02   11.27
  10  -2   1  548.48    9.91
  10  -2  -2  852.60   14.03
  10   2   2  846.65    9.98
  10  -2   2  831.25   13.83
 -10   2   2  856.58   14.51
 -10  -2   2  809.09   11.06
  10  -2   2  779.57   12.28
  10   2   3    2.55    1.15
  10  -2  -3    1.29    1.59
 -10   2   3    0.52    1.58
 -10  -2   3    0.91    1.17
  10   2   3    4.57    2.08
  10  -2   3    0.28    1.76
  10  -2   3    2.75    1.49
  10  -2  -4   39.44    3.46
  10  -2   4   44.11    3.63
  10   2   4   37.78    3.61
 -10   2   4   36.53    3.44
  10   2   4   43.22    2.61
 -10  -2   4   39.97    2.83
  10  -2   4   37.52    3.13
 -10  -2   5   93.39    4.39
 -10   2   5   90.64    5.25
  10  -2   5  101.90    5.25
  10   2   5   91.12    3.84
  10  -2   5   91.93    4.93
  10   2   5   88.17    5.34
 -10  -2   6  305.81    8.03
 -10   2   6  309.86    9.34
  10  -2   6  315.52    9.24
  10   2   6  308.10    9.87
 -10  -2   7  155.52    6.03
 -10   2   7  160.26    7.00
  10  -2   7  156.85    6.75
  10   2   7  148.71    7.10
 -10   2   8   94.00    5.60
 -10  -2   8   91.78    5.01
  10  -2  -8   92.35    4.06
  10  -2   8   96.60    5.70
  10   2   8   83.71    5.61
 -10  -2   9    6.09    2.17
  10  -2  -9    3.66    1.52
  10   2   9    3.40    2.32
  10  -2   9    1.18    2.04
 -10  -2  10   83.11    5.23
  10  -2  10   85.17    5.63
  10  -2 -10   89.90    4.34
  10   2  10   92.40    6.32
  10  -2 -11    0.27    1.44
  10  -2  11    3.86    2.56
  10   2  11    2.13    2.58
  10  -2 -12   16.73    2.41
  10   2  12   20.72    3.88
  10  -2  12   21.42    3.65
  10  -2  13   83.08    6.16
  10  -2 -13   81.25    4.84
  10   2  13   86.72    6.49
  10  -2 -14  172.79    7.01
  10  -2  14  195.94    9.66
  10   2  14  188.87    9.69
  10  -2  15  113.00    7.76
  10   2  15  103.48    7.36
  10  -2  16   49.66    5.57
  10   2  16   54.07    5.86
  10  -2  17   21.59    4.37
  10   2  17   20.29    4.47
  10  -2  18   43.31    5.65
  10   2  18   42.94    5.67
  10  -3   0  243.51    7.92
  10  -3   0  226.46    5.92
  10  -3  -1   19.74    2.63
  10  -3   1   20.95    2.74
  10  -3  -1   18.81    1.91
  10  -3   1   15.51    1.94
  10   3   2  202.83    4.22
  10  -3  -2  217.04    7.70
 -10   3   2  214.06    7.78
 -10  -3   2  211.12    5.36
  10  -3   2  215.23    7.64
  10  -3  -2  207.36    5.34
  10  -3   2  201.81    6.14
  10   3   3    1.24    0.95
  10  -3  -3    3.14    1.87
 -10   3   3    3.79    1.92
 -10  -3   3    0.19    1.06
  10  -3   3   -1.81    1.97
  10  -3   3   -2.43    1.53
  10   3   4   12.78    1.50
 -10  -3   4   12.17    1.80
  10  -3  -4   13.97    2.63
 -10   3   4   12.54    2.56
  10  -3   4   10.86    2.47
  10   3   4   13.95    2.87
  10  -3   4   15.96    2.41
 -10  -3   5  144.29    5.07
  10   3   5  144.89    4.25
  10   3   5  154.27    7.05
 -10   3   5  152.18    6.97
  10  -3   5  158.34    6.71
  10  -3   5  151.29    6.04
 -10  -3   6   47.08    3.22
 -10   3   6   49.14    4.19
  10  -3   6   50.94    4.00
  10   3   6   50.61    4.50
  10   3   7   10.38    2.67
 -10  -3   7    6.38    1.79
 -10   3   7    6.80    2.32
  10  -3  -7    6.57    1.37
  10  -3   7    5.06    1.91
 -10  -3   8   92.06    5.02
  10  -3   8   96.94    5.68
  10  -3  -8   97.83    3.91
  10   3   8   98.20    6.26
 -10  -3   9    9.50    2.21
  10  -3  -9   13.91    1.85
  10  -3   9   12.35    2.64
  10   3   9    8.83    2.67
 -10  -3  10   55.57    4.33
  10  -3  10   52.96    4.86
  10  -3 -10   55.44    3.35
  10   3  10   50.04    5.08
  10  -3 -11   15.60    2.18
  10  -3  11   13.93    3.14
  10   3  11   11.51    3.05
  10  -3  12   17.45    3.48
  10  -3 -12   18.36    2.47
  10   3  12   15.31    3.44
  10  -3  13   43.38    5.02
  10  -3 -13   40.28    3.47
  10   3  13   43.84    5.09
  10  -3  14   35.57    4.49
  10   3  14   45.87    5.41
  10  -3  15   16.10    4.01
  10   3  15   10.09    3.76
  10  -3  16   95.63    7.69
  10   3  16   93.78    7.66
  10  -3  17    2.08    2.87
  10   3  17   -0.13    3.07
  10  -3  18   40.73    5.88
  10   3  18   43.52    6.08
  10  -4   0  951.12   16.10
  10  -4   0  891.36   10.81
  10  -4  -1  195.89    7.36
  10  -4   1  191.89    7.27
  10  -4   1  180.30    5.22
  10  -4  -1  176.91    4.58
  10  -4  -2  166.62    7.04
 -10   4   2  172.87    7.20
  10  -4   2  161.60    7.02
 -10  -4   2  161.92    4.12
  10  -4  -2  152.65    3.97
  10  -4   2  157.40    5.25
  10  -4  -3   24.62    3.07
 -10  -4   3   19.94    1.75
  10  -4   3   22.80    2.97
 -10   4   3   22.55    3.11
  10  -4   3   24.35    2.40
  10  -4  -3   22.33    1.60
  10  -4   4   52.61    4.36
 -10  -4   4   54.33    2.93
 -10   4   4   53.18    4.46
  10   4   4   51.29    1.82
  10  -4  -4   57.96    4.61
  10  -4   4   54.94    3.60
  10  -4  -4   48.22    2.13
  10   4   5  126.06    6.71
  10   4   5  119.12    3.23
 -10   4   5  121.84    6.55
  10  -4   5  123.14    6.27
  10  -4   5  123.28    5.40
  10  -4  -5  119.83    6.31
 -10  -4   5  113.73    4.37
  10   4   6  135.87    7.17
  10  -4   6  129.87    6.50
  10   4   6  137.90    3.94
 -10   4   6  131.91    6.97
 -10  -4   6  127.54    5.01
  10  -4   6  132.61    5.96
  10  -4  -6  128.54    3.43
  10   4   7   27.03    3.52
 -10  -4   7   26.68    2.59
  10  -4  -7   25.22    1.72
  10  -4   7   32.87    3.37
 -10   4  -8  412.97   10.95
 -10  -4   8  403.42    9.85
  10  -4   8  411.42   11.03
  10  -4  -8  437.57    6.97
  10   4   8  399.20   12.33
 -10  -4   9   58.71    4.07
  10  -4  -9   61.31    2.89
  10  -4   9   58.70    4.59
  10   4   9   56.27    5.00
 -10  -4  10   12.94    2.59
  10  -4  10   14.46    2.96
  10  -4 -10   12.81    1.80
  10   4  10   15.14    3.20
 -10  -4  11    8.22    2.43
  10  -4  11    3.35    2.21
  10  -4 -11    9.00    1.69
  10   4  11    9.65    3.18
  10  -4  12   14.73    3.27
  10  -4 -12   22.54    2.43
  10   4  12   18.36    3.55
  10  -4  13  122.88    7.55
  10   4  13  118.31    7.80
  10  -4  14    7.14    3.22
  10   4  14   15.96    3.89
  10  -4  15  157.94    9.05
  10   4  15  159.72    9.48
  10  -4  16  217.39   10.83
  10   4  16  217.90   11.24
  10  -4  17   74.90    6.85
  10   4  17   74.47    6.98
  10  -4  18   44.36    6.75
  10  -5   0  193.06    7.95
  10  -5   0  174.35    4.50
  10  -5  -1    6.66    2.25
  10  -5   1    1.38    1.77
  10  -5   1    4.69    1.33
  10  -5  -1    4.13    0.99
  10  -5   2   12.27    2.72
  10  -5  -2   12.78    2.54
  10  -5   2   14.19    1.82
  10  -5  -2   13.47    1.23
 -10  -5   3    1.23    0.88
  10  -5  -3    4.16    2.25
 -10   5   3    3.16    2.01
  10  -5   3    3.12    2.04
  10  -5   3    2.58    1.40
  10  -5  -3    2.51    0.71
 -10   5   4    5.96    2.31
  10  -5   4    2.41    2.04
 -10  -5   4    3.89    1.26
  10  -5  -4    3.09    2.21
  10  -5  -4    2.89    0.49
  10  -5   4    2.77    1.50
  10  -5   5   32.96    3.72
  10   5   5   28.66    3.71
  10  -5   5   34.48    3.05
  10  -5  -5   27.60    3.45
 -10  -5   5   23.39    2.07
  10  -5   6   20.56    3.29
  10   5   6   16.57    3.14
  10   5   6   13.46    1.14
  10  -5   6   14.04    2.37
  10  -5  -6   15.14    2.86
 -10  -5   6   13.23    1.86
  10   5   7   23.24    3.45
 -10   5  -7   25.79    3.07
 -10  -5   7   23.73    2.53
  10  -5  -7   14.79    0.93
  10  -5   7   25.66    3.07
 -10   5  -8   46.17    4.13
 -10  -5   8   45.31    3.48
  10  -5   8   47.06    4.21
  10  -5  -8   37.30    1.63
  10   5   8   47.34    4.88
  10   5   9   16.39    3.46
 -10  -5   9   24.02    2.93
  10  -5   9   19.59    3.26
  10  -5  -9   15.30    1.32
  10  -5  10   60.09    5.02
  10  -5 -10   51.32    2.47
  10   5  10   52.76    5.21
  10  -5  11   49.66    4.76
  10   5  11   45.36    5.07
  10  -5 -11   44.71    2.61
  10  -5  12   -2.91    2.69
  10   5  12   -1.07    2.58
  10  -5  13   11.57    3.15
  10   5  13    6.82    2.64
  10  -5  14   16.01    3.74
  10   5  14   22.56    4.17
  10  -5  15    6.75    3.29
  10   5  15    7.81    3.48
  10  -5  16   41.59    5.46
  10   5  16   53.00    6.20
  10  -5  17    0.37    3.53
  10   5  17    9.77    3.43
  10  -5  18   11.32    3.77
  10  -6   0  882.40   16.83
  10  -6   0  867.32    8.95
  10  -6  -1    1.51    0.72
  10  -6   1    2.65    1.12
  10  -6  -1    1.93    1.97
  10  -6   1    4.77    2.22
  10  -6   2    5.50    1.39
  10  -6  -2    7.75    2.56
  10  -6   2    3.53    2.16
 -10  -6   3    9.29    1.11
  10  -6   3   10.42    2.76
  10  -6   3   11.97    1.81
  10  -6  -3   17.33    2.97
  10  -6   4    3.85    2.21
  10  -6   4    1.11    1.41
  10  -6  -4    3.21    2.12
 -10  -6   4    0.50    0.93
  10  -6   5    4.13    2.33
  10  -6   5    2.15    1.74
  10  -6  -5    2.79    2.23
 -10  -6   5    0.69    1.10
  10  -6   6   27.03    3.89
 -10   6  -6   19.93    2.57
  10   6   6   21.47    3.64
  10  -6   6   21.67    2.75
  10  -6  -6   22.14    3.41
 -10  -6   6   18.16    2.03
  10   6   7   -2.83    2.61
 -10   6  -7    3.88    1.92
 -10  -6   7    3.04    1.44
  10  -6   7    1.09    1.80
 -10   6  -8  321.39    9.69
 -10  -6   8  308.73    8.24
  10  -6   8  318.35    9.73
  10   6   8  306.36   11.29
  10   6   9   12.47    3.44
  10  -6   9    7.83    2.52
  10   6  10   38.38    4.90
  10  -6  10   40.84    4.39
  10  -6  11   10.34    3.01
  10   6  11    6.31    2.91
  10  -6  12    4.22    2.57
  10   6  12    2.87    2.53
  10  -6  13    1.99    2.43
  10   6  13    2.57    2.75
  10  -6  14   68.87    5.91
  10   6  14   71.83    6.64
  10  -6  15   -4.76    3.59
  10   6  15    1.21    3.19
  10  -6  16  411.20   14.89
  10   6  16  402.87   15.48
  10  -6  17    4.35    3.58
  10   6  17    4.87    3.42
  10  -6  18   22.23    4.81
  10  -7   0   66.67    5.41
  10  -7   1    5.85    1.29
  10  -7   1    6.43    2.42
  10  -7  -1   10.04    2.66
  10  -7   2   32.60    2.52
  10  -7   2   34.64    4.14
  10  -7  -2   35.36    4.03
  10  -7   3    9.33    2.77
 -10  -7   3    5.79    0.80
  10  -7   3    3.43    1.32
  10  -7  -3    8.27    2.58
  10  -7   4   29.62    3.98
  10  -7   4   16.54    1.85
 -10  -7   4   24.74    1.66
  10  -7  -4   32.63    4.12
 -10   7  -5   -3.10    1.71
  10  -7   5   -3.62    2.42
  10  -7   5   -1.80    1.75
  10  -7  -5    2.72    2.32
 -10  -7   5   -0.44    1.03
 -10   7  -6  133.80    5.72
  10   7   6  143.82    7.92
  10  -7   6  147.46    7.85
  10  -7   6  138.15    5.91
  10  -7  -6  148.52    7.84
 -10  -7   6  130.67    4.64
  10  -7   7   15.48    3.35
 -10   7  -7    8.99    2.19
  10   7   7    5.78    2.46
  10  -7   7   10.26    2.37
  10   7   8   60.10    2.10
  10  -7   8   63.24    4.83
  10   7   8   67.31    6.00
 -10   7  -8   74.48    4.94
  10   7   9    1.29    2.66
  10  -7   9   -2.29    2.69
  10   7   9    4.14    1.30
  10   7  10   46.66    5.26
  10  -7  10   40.09    4.21
  10  -7  11   14.80    3.05
  10   7  11   26.40    4.15
  10  -7  12    1.31    2.51
  10   7  12    3.17    2.75
  10  -7  13    5.33    2.76
  10   7  13   -0.41    2.97
  10  -7  14    2.76    2.64
  10   7  14    0.05    3.13
  10  -7  15   16.62    3.93
  10   7  15    6.13    2.99
  10  -7  16   80.22    7.30
  10   7  16   81.47    7.61
  10  -7  17   15.52    4.43
  10  -7  18    9.39    4.05
  10  -8   0  311.38   10.91
  10  -8   1  213.85    9.15
  10  -8  -1  223.95    9.31
  10  -8   2    1.89    2.24
  10  -8  -2    0.23    2.09
  10  -8   3    1.40    2.47
  10  -8  -3    2.05    2.22
  10  -8   4    0.83    2.38
  10  -8   4    3.67    1.69
 -10  -8   4    2.61    0.92
  10  -8  -4    0.85    2.20
  10  -8   5   14.37    3.55
 -10   8  -5    7.53    1.89
  10  -8   5   12.01    2.29
 -10  -8   5    8.10    1.43
  10  -8  -5   12.93    3.36
 -10   8  -6   11.06    2.27
  10  -8   6   10.49    3.09
  10  -8   6   15.50    2.56
 -10  -8   6    8.99    1.57
  10  -8  -6    7.40    2.64
  10  -8   7   34.78    4.39
 -10   8  -7   31.31    3.33
  10   8   7   31.34    4.24
  10  -8  -7   29.45    4.05
  10  -8   7   37.55    3.62
  10   8   8  207.36    9.90
  10  -8   8  236.37    8.55
 -10   8  -8  221.31    8.08
  10  -8   9  142.17    6.94
  10   8   9  116.14    8.56
  10  -8  10  125.18    6.88
  10   8  10  118.16    7.99
  10   8  11    1.57    2.92
  10  -8  11   41.66    5.34
  10  -8  12   11.84    3.27
  10   8  12    9.13    3.37
  10  -8  13   19.98    3.90
  10   8  13   20.43    4.17
  10  -8  14   15.92    4.03
  10   8  14   11.18    3.99
  10  -8  15   72.11    6.52
  10   8  15   65.11    6.66
  10  -8  16  164.09    9.54
  10   8  16  173.59   10.73
  10  -8  17   39.78    5.66
  10  -9   0   34.51    4.46
  10  -9   1   24.73    3.95
  10  -9  -1   26.21    4.06
  10  -9   2   43.52    4.87
  10  -9  -2   45.79    4.87
  10  -9  -3    2.25    2.41
  10  -9   3   -1.17    2.58
  10  -9  -4    5.95    2.47
 -10  -9   4    8.12    1.00
  10  -9   4    3.82    2.55
 -10   9  -4    8.50    1.85
 -10  -9   5   30.56    2.04
  10  -9  -5   39.20    4.86
  10  -9   5   33.77    4.71
 -10   9  -5   32.48    2.96
  10  -9  -6  159.52    8.75
  10  -9   6  162.01    8.93
 -10   9  -6  156.12    6.26
  10  -9  -7    6.16    2.58
 -10   9  -7    4.35    1.97
  10  -9   7    9.85    3.30
  10   9   7    8.55    5.26
  10   9   8  139.32    8.47
  10  -9   8  151.82    8.77
 -10   9  -8  151.97    6.91
  10   9   9    6.16    3.02
  10  -9  10   60.82    5.00
  10   9  10   64.25    6.28
  10   9  11    7.49    3.29
  10  -9  11    9.13    2.85
  10  -9  12    9.95    3.22
  10   9  12    4.67    2.84
  10  -9  13    3.43    2.78
  10   9  13    6.63    2.95
  10   9  14    9.36    3.63
  10   9  15    0.86    3.34
  10 -10   0    6.73    2.69
  10 -10  -1  130.75    7.83
  10 -10   1  126.46    7.59
  10 -10  -2  133.24    7.86
  10 -10   2  139.28    8.20
  10 -10   3    4.71    3.00
  10 -10  -3    2.44    2.54
  10 -10  -4   13.73    3.36
 -10  10  -4   12.94    2.11
  10 -10   4   10.46    3.05
  10 -10  -5    5.48    2.96
 -10  10  -5    4.40    1.87
  10 -10   5    1.42    2.53
  10 -10  -6  142.30    8.52
  10 -10   6  125.35    8.08
 -10  10  -6  130.85    5.79
  10 -10  -7   44.15    5.06
 -10  10  -7   35.13    3.41
  10 -10   7   50.07    5.65
  10  10   7   48.43    5.39
  10  10   8   54.43    5.88
  10 -10   8   66.94    6.31
  10  10   9   94.17    7.37
  10 -10   9   99.37    7.63
  10  10  10  131.08    8.66
  10  10  11   19.22    4.32
  10  10  12   41.01    5.32
  10  10  13   39.99    5.59
  10  10  14   20.09    4.47
  10 -11   0   93.85    6.95
  10 -11   1    0.74    2.54
  10 -11  -1    5.67    2.94
  10 -11  -2  112.58    7.65
  10 -11   2  111.11    7.90
  10 -11   3    9.65    2.96
  10 -11  -3   12.60    3.47
  10 -11  -4    0.61    2.68
  10 -11   4    0.51    3.03
  10 -11  -5    4.77    3.16
  10 -11   5    5.00    3.03
  10 -11  -6   99.71    7.72
  10 -11   6  107.61    7.98
  10 -11  -7   13.67    3.38
  10 -11   7   14.74    3.77
  10 -11  -8   74.55    6.50
  10  11   8   68.47    6.40
  10 -11   8   78.99    7.22
  10 -11   9   13.92    4.31
  10  11   9    1.28    3.13
  10 -11  10   49.74    6.21
  10  11  10   36.47    5.37
  10  11  11   10.49    3.61
  10  11  12    7.83    3.49
  10  11  13   -0.11    3.13
  10 -12   0   27.10    4.21
  10 -12  -1   20.15    3.89
  10 -12   1   15.39    3.41
  10 -12  -2  206.86   10.30
  10 -12   2  207.93   10.54
  10 -12   3    5.84    3.14
  10 -12  -3    8.32    3.31
  10 -12  -4   -0.78    2.65
  10 -12   4   -4.75    3.23
  10 -12  -5   11.61    3.67
  10 -12   5    2.93    2.88
  10 -12  -6  236.45   11.60
  10 -12   6  238.09   11.73
  10 -12  -7    9.43    3.64
  10 -12   7    9.96    4.07
  10 -12  -8   12.43    3.52
  10  12   8   14.15    4.16
  10 -12   8   17.24    4.44
  10 -12   9   -2.73    3.07
  10  12   9   -2.19    2.82
  10 -12  10  116.04    8.87
  10  12  10   94.62    7.93
  10 -12  11   15.09    4.12
  10  12  11    5.65    3.37
  10  12  12    9.91    4.00
  10 -13   0   79.94    7.05
  10 -13  -1    5.38    3.00
  10 -13   1    3.08    2.88
  10 -13  -2   92.27    7.55
  10 -13   2   91.73    7.73
  10 -13   3   -1.67    3.26
  10 -13  -3    0.02    2.84
  10 -13  -4    9.60    3.34
  10 -13   4    8.40    3.31
  10 -13  -5   12.08    3.80
  10 -13   5   12.54    3.89
  10 -13  -6   41.34    5.93
  10 -13   6   32.44    5.19
  10 -13  -7    0.31    3.07
  10 -13   7   -0.65    2.99
  10 -13  -8   71.51    6.82
  10 -13   8   73.45    7.34
  10  13   8   71.63    7.01
  10  13   9    8.27    3.55
  10 -13   9    8.35    4.39
  10  13  10   37.78    5.56
  10 -13  10   46.20    6.37
  10 -14   0   11.01    3.52
  10 -14  -1   61.57    6.34
  10 -14   1   64.85    6.68
  10 -14  -2  118.26    8.57
  10 -14   2  125.30    8.83
  10 -14   3    1.60    3.22
  10 -14  -3    6.60    3.43
  10 -14  -4    3.53    2.94
  10 -14   4    4.36    3.30
  10 -14  -5   19.01    4.57
  10 -14   5    9.72    3.72
  10 -14  -6   84.45    7.65
  10 -14   6   81.99    7.71
  10 -14  -7   17.31    4.28
  10 -14   7    8.30    3.88
  10 -14  -8   19.35    4.31
  10 -14   8   21.04    5.01
  10  14   8   21.75    4.93
  10  14   9   34.21    5.75
  10 -15   0   46.31    6.07
  10 -15  -1    9.44    3.76
  10 -15   1   14.09    4.44
  10 -15  -2   11.06    3.87
  10 -15   2   21.12    4.99
  10 -15   3   10.80    3.83
  10 -15  -3   22.18    4.84
  10 -15  -4    8.71    3.70
  10 -15   4    7.65    3.94
  10 -15   5   16.31    4.46
  10 -15  -5   11.54    4.10
  11   0   0   -0.54    1.40
  11   0   1    0.56    1.36
  11   0  -1    1.81    1.51
  11   0   1   -1.31    1.72
  11   0   2  104.74    4.65
  11   0   2  101.54    5.13
 -11   0   2  103.15    4.70
  11   0   3   -1.67    1.52
 -11   0   3   -1.10    1.60
  11   0   3   -1.71    1.89
 -11   0   4 1081.53   16.36
  11   0   4 1105.57   15.18
  11   0   4 1121.77   17.52
 -11   0   5    1.65    1.55
  11   0   5   -0.36    1.52
  11   0   5    2.03    1.77
 -11   0   6   11.88    2.49
  11   0   6    7.97    2.15
  11   0   6    9.35    2.52
 -11   0   7    2.11    1.80
  11   0   7   -2.79    2.17
 -11   0   8   19.21    2.79
  11   0   8   16.64    3.02
  11   0   9   -0.50    2.17
  11   0 -10   17.60    2.68
  11   0  10   14.40    3.45
  11   0 -11    1.19    1.94
  11   0  11    3.95    2.73
  11   0 -12  241.07    8.55
  11   0  12  236.01   10.22
  11   0  13   -3.51    2.84
  11   0  14   19.40    4.01
  11   0  15    0.05    2.74
  11   0  16   12.42    3.91
  11   0  17   -2.85    3.11
  11   1   0    2.49    1.38
  11  -1   0    1.08    1.61
  11  -1   0    0.68    1.46
  11  -1   1    3.44    1.57
  11  -1  -1    4.76    1.83
  11   1   1    2.54    1.25
  11  -1   1    5.51    1.79
  11   1   2  101.13    4.19
  11  -1  -2  104.03    5.21
  11   1   2   99.26    5.38
  11  -1   2   98.81    4.83
 -11   1   2   97.95    5.06
 -11  -1   2  100.10    4.60
  11  -1   2   95.01    4.95
  11  -1   3    7.01    1.80
  11   1   3    5.11    1.36
 -11  -1   3    7.23    1.79
  11  -1   3    8.14    2.10
  11   1   3    6.36    2.03
 -11   1   3    5.84    1.78
 -11   1   4  266.25    8.49
  11  -1   4  273.30    8.23
 -11  -1   4  258.89    7.64
  11   1   4  286.56    7.30
  11   1   4  272.27    8.97
  11  -1   4  266.40    8.32
 -11   1   5    6.97    2.15
 -11  -1   5    5.97    1.86
  11  -1   5    0.65    1.74
  11   1   5    6.61    2.35
  11   1   5    3.27    1.47
  11  -1   5    0.82    1.94
 -11   1   6  114.49    5.96
 -11  -1   6  114.90    5.45
  11  -1   6  130.02    5.91
  11   1   6  128.54    5.22
  11   1   6  117.01    6.34
  11  -1   6  114.09    5.95
 -11   1   7    5.02    2.20
 -11  -1   7    0.12    1.57
  11   1   7    1.73    1.96
  11  -1   7   -1.57    2.22
 -11  -1   8    3.67    1.97
 -11   1   8    7.55    2.46
  11  -1   8    4.15    2.15
  11   1   8    1.15    2.03
 -11  -1   9    4.56    2.12
  11  -1   9    2.84    2.36
  11   1   9    5.97    2.58
  11  -1 -10   40.42    3.40
  11   1  10   31.87    4.09
  11  -1  10   39.29    4.45
  11   1 -11    5.26    1.86
  11  -1 -11    5.43    1.89
  11   1  11    8.47    2.94
  11  -1  11    7.46    2.69
  11  -1 -12   74.00    4.74
  11  -1  12   70.39    5.87
  11   1  12   70.40    6.00
  11  -1 -13   16.54    2.78
  11  -1  13   15.13    3.44
  11   1  13   16.93    3.60
  11  -1  14  261.27   11.51
  11   1  14  254.93   11.35
  11  -1  15    3.22    3.07
  11   1  15    2.19    2.76
  11  -1  16   49.53    5.95
  11   1  16   51.09    6.22
  11  -1  17    3.38    3.07
  11   1  17    9.91    3.79
  11  -1  18   53.02    6.26
  11  -2   0   -0.85    1.68
  11  -2   0   -0.23    1.33
  11  -2   1   97.01    5.03
  11   2   1   98.20    3.76
  11  -2  -1  101.87    5.20
  11  -2  -1   92.57    4.17
  11  -2   1   96.82    4.61
  11  -2   2   21.02    2.59
  11   2   2   15.93    1.74
  11  -2  -2   20.26    2.66
 -11   2   2   18.41    2.56
 -11  -2   2   20.06    2.09
  11  -2   2   20.51    2.55
  11   2   3  178.95    4.98
  11  -2  -3  177.00    6.87
 -11  -2   3  165.88    5.52
  11   2   3  177.03    7.19
  11  -2   3  178.41    6.89
 -11   2   3  176.82    7.03
  11  -2   3  165.12    6.11
 -11   2   4  273.92    8.99
  11   2   4  280.90    9.44
  11   2   4  281.88    6.47
  11  -2   4  258.24    8.45
 -11  -2   4  258.48    7.33
  11  -2   4  254.33    8.13
  11  -2   5  194.73    7.38
  11   2   5  197.90    5.74
 -11   2   5  189.13    7.72
 -11  -2   5  176.81    6.15
  11   2   5  187.26    7.91
  11  -2   5  177.34    6.97
 -11   2   6    5.85    2.31
 -11  -2   6   11.93    2.18
  11   2   6   10.80    2.85
  11  -2   6   11.85    2.57
  11   2   6    6.95    1.73
  11  -2   6    5.22    2.03
 -11  -2   7    2.02    1.55
 -11   2   7    5.47    2.10
  11   2   7    2.84    2.30
  11  -2   7    1.72    2.04
 -11  -2   8   76.69    4.67
  11  -2   8   81.74    5.46
  11   2   8   80.62    5.80
 -11  -2   9   46.49    4.03
  11  -2  -9   50.90    3.40
  11  -2   9   51.55    4.53
  11   2   9   41.89    4.52
  11  -2 -10    1.64    1.41
  11   2  10    0.73    2.27
  11  -2  10    1.86    2.18
  11  -2  11  212.82    9.28
  11  -2 -11  217.56    7.03
  11   2  11  202.30    9.48
  11  -2  12  254.65   10.53
  11  -2 -12  262.34    8.10
  11   2  12  271.75   11.36
  11  -2  13   99.15    6.99
  11   2  13  100.75    7.34
  11  -2  14   28.61    4.51
  11   2  14   25.49    4.65
  11  -2  15   11.46    3.51
  11   2  15    9.08    3.43
  11  -2  16    5.26    3.15
  11   2  16    5.43    3.26
  11   2  17  146.02    9.62
  11  -2  17  154.30    9.76
  11  -2  18   15.48    4.28
  11  -3   0    0.89    1.73
  11  -3   0    0.84    1.23
  11  -3  -1    7.55    2.12
  11  -3   1    6.21    2.15
  11  -3  -1    5.94    1.45
  11  -3   1    5.90    1.56
  11  -3  -2  176.67    7.12
  11   3   2  167.34    4.14
  11  -3   2  165.79    6.89
  11  -3  -2  168.30    5.12
  11  -3   2  165.89    5.85
  11  -3  -3   77.21    5.02
  11   3   3   71.58    2.81
 -11  -3   3   65.52    3.43
  11  -3  -3   68.66    3.22
  11  -3   3   69.17    4.83
 -11   3   3   70.94    4.87
  11  -3   3   66.55    4.01
  11  -3  -4  454.14   11.68
  11   3   4  454.34    7.09
 -11   3   4  454.05   12.01
  11  -3   4  433.55   11.30
  11   3   4  445.77   12.12
 -11  -3   4  417.78    8.76
  11  -3   4  421.68   10.04
  11   3   5   22.85    2.01
 -11  -3   5   27.09    2.63
  11  -3   5   28.25    3.36
 -11   3   5   26.66    3.30
  11   3   5   26.06    3.51
  11  -3   5   26.47    3.02
 -11  -3   6  249.66    7.32
  11   3   6  261.96    6.28
 -11   3   6  259.08    9.50
  11  -3   6  264.19    9.16
  11  -3   6  262.11    8.68
  11   3   6  258.12    9.78
 -11  -3   7    4.58    1.78
  11   3   7   -0.26    2.08
  11  -3   7   -0.89    2.12
  11   3   8   17.45    3.49
 -11  -3   8   14.04    2.44
  11  -3  -8   15.35    1.88
  11  -3   8   12.26    2.72
 -11  -3   9    2.14    1.84
  11  -3  -9    3.58    1.39
  11  -3   9    9.18    2.65
  11   3   9    0.56    2.19
 -11  -3  10   22.09    3.03
  11  -3 -10   25.46    2.44
  11  -3  10   30.70    3.95
  11   3  10   24.23    3.84
  11  -3 -11    9.88    1.98
  11   3  11    6.94    2.89
  11  -3  11   12.84    3.20
  11  -3  12  149.80    8.12
  11   3  12  149.43    8.56
  11  -3  13   14.51    3.54
  11   3  13   10.03    3.25
  11  -3  14  170.20    9.24
  11   3  14  169.50    9.63
  11  -3  15    6.93    3.35
  11   3  15   10.39    3.40
  11  -3  16   24.76    4.52
  11   3  16   17.78    3.94
  11  -3  17   34.03    5.30
  11   3  17   39.49    5.74
  11  -3  18   20.85    4.76
  11  -4   0    1.22    1.96
  11  -4   0    0.19    1.11
  11  -4  -1    4.72    2.04
  11  -4   1    4.35    1.78
  11  -4  -1    4.86    1.26
  11  -4   1    6.30    1.54
  11  -4  -2  188.07    7.73
  11  -4   2  176.19    7.46
  11  -4  -2  173.08    4.63
  11  -4   2  168.53    5.74
  11  -4  -3  200.67    7.98
 -11  -4   3  190.03    5.10
  11  -4   3  203.42    8.04
 -11   4   3  211.01    8.44
  11  -4   3  196.84    6.40
  11  -4  -3  190.07    4.64
 -11  -4   4   17.25    2.04
  11  -4  -4   22.37    3.35
  11   4   4   19.16    1.32
  11  -4   4   16.31    3.03
  11  -4  -4   13.70    1.40
  11   4   4   22.56    3.64
 -11   4   4   18.66    3.20
  11  -4   4   20.89    2.78
  11  -4   5  312.60   10.17
  11   4   5  339.03    5.32
  11   4   5  334.92   11.01
 -11  -4   5  305.83    7.30
  11  -4  -5  335.52   10.53
  11  -4   5  322.68    8.90
  11   4   6   31.00    2.12
  11   4   6   32.86    4.10
  11  -4   6   32.57    3.96
 -11  -4   6   27.37    2.62
  11  -4  -6   26.59    1.84
  11  -4   6   28.30    3.23
  11  -4   7    4.36    2.23
  11   4   7    4.18    1.46
  11   4   7    0.54    2.26
 -11  -4   7    1.53    1.48
  11  -4  -7   -0.88    1.11
  11  -4   7    4.24    2.13
 -11  -4   8   59.09    4.09
  11  -4   8   57.28    4.63
  11  -4  -8   57.70    2.71
  11   4   8   62.54    5.60
 -11  -4   9    8.72    2.25
  11  -4  -9    6.56    1.42
  11  -4   9    8.59    2.60
  11   4   9    9.30    3.08
 -11  -4  10   36.96    3.69
  11  -4 -10   36.10    2.47
  11  -4  10   37.70    4.09
  11   4  10   39.00    4.71
  11  -4  11   88.51    6.24
  11   4  11   83.43    6.43
  11  -4  12   14.96    3.44
  11   4  12   14.04    3.28
  11  -4  13  140.11    8.19
  11   4  13  129.14    8.37
  11  -4  14   34.14    4.82
  11   4  14   28.26    4.63
  11  -4  15   -0.63    2.77
  11   4  15    0.01    2.95
  11  -4  16    9.78    3.81
  11   4  16    9.28    3.77
  11  -4  17   57.72    6.29
  11   4  17   46.20    5.89
  11  -5   0   -0.44    1.86
  11  -5   0    2.14    1.19
  11  -5  -1   12.95    2.58
  11  -5   1   11.90    2.57
  11  -5   1   11.51    1.74
  11  -5  -1   10.32    1.39
  11  -5   2   31.28    3.62
  11  -5  -2   34.85    3.79
  11  -5  -2   33.42    1.89
  11  -5   2   33.77    2.62
  11  -5   3   10.89    2.56
  11  -5  -3   12.46    2.75
 -11  -5   3    9.90    1.39
  11  -5   3    9.55    1.90
  11  -5  -3    8.48    1.02
  11  -5   4  304.85   10.45
 -11  -5   4  289.70    6.39
  11  -5  -4  321.89   10.64
  11  -5   4  312.31    8.24
  11  -5   5    5.53    2.37
  11   5   5   16.17    3.36
  11  -5  -5    9.97    2.65
 -11  -5   5   10.79    1.83
  11  -5  -5    2.43    0.51
  11  -5   5    8.82    2.14
  11   5   6  124.94    7.19
  11   5   6  109.99    2.49
  11  -5   6  113.78    6.63
 -11  -5   6  105.26    4.45
  11  -5   6  118.48    5.75
  11  -5   7    8.06    2.78
  11  -5  -7    6.28    0.73
  11   5   7    6.12    2.39
  11   5   7    6.57    1.14
 -11  -5   7   11.29    2.10
  11  -5   7    9.43    2.42
  11  -5  -7    2.12    0.59
  11   5   8    6.41    2.99
 -11  -5   8    7.01    1.91
  11  -5   8    6.82    2.34
  11  -5  -8    6.47    0.91
  11   5   9    1.49    2.46
 -11  -5   9    2.13    1.61
  11  -5   9    0.03    2.13
  11  -5  -9    1.84    0.95
 -11  -5  10   14.65    2.66
  11  -5  10   15.20    3.12
  11   5  10   16.47    3.70
  11  -5  11   -1.73    2.66
  11   5  11    3.91    2.62
  11  -5  12  144.65    8.19
  11   5  12  139.60    8.62
  11  -5  13   36.43    4.76
  11   5  13   24.58    4.29
  11  -5  14   49.37    5.49
  11   5  14   49.17    5.56
  11  -5  15    5.64    3.30
  11   5  15   -1.81    2.94
  11  -5  16    4.24    3.38
  11   5  16    3.91    3.52
  11  -5  17   16.65    4.34
  11  -6   0    1.16    1.07
  11  -6   0   -0.20    2.05
  11  -6   1   -0.49    1.12
  11  -6  -1    1.31    0.89
  11  -6  -1    0.66    1.97
  11  -6   1   -1.05    2.05
  11  -6   2  346.47   11.20
  11  -6   2  338.63    7.41
  11  -6  -2  349.76   11.13
 -11  -6   3    3.37    0.95
  11  -6   3    0.12    1.43
  11  -6   3   -2.17    2.48
  11  -6  -3    0.73    2.12
  11  -6   4   94.42    6.05
 -11  -6   4   88.89    3.25
  11  -6   4   96.90    4.66
  11  -6  -4   97.94    6.20
  11  -6   5   37.62    4.30
  11  -6   5   35.79    3.28
 -11  -6   5   34.55    2.43
  11  -6  -5   37.50    4.41
  11  -6   6  133.22    7.49
  11   6   6  138.01    7.81
  11  -6   6  135.52    6.19
  11  -6  -6  134.67    7.50
 -11  -6   6  126.68    4.75
  11   6   7   64.12    5.74
  11  -6   7   74.60    5.87
  11  -6   7   70.62    4.82
 -11  -6   7   68.88    3.94
  11   6   8    4.47    1.17
  11   6   8   -1.61    2.64
 -11   6  -8   -0.36    1.87
  11  -6   8   -0.15    2.01
 -11  -6   8   -0.18    1.49
 -11  -6   9   -0.70    1.71
  11  -6   9    0.04    2.14
 -11  -6  10  212.86    8.01
  11  -6  10  221.62    9.21
  11   6  10  214.43   10.28
  11  -6  11    6.14    2.62
  11   6  11   -0.26    2.86
  11  -6  12   45.13    4.79
  11   6  12   44.08    5.15
  11  -6  13    7.78    3.27
  11   6  13    2.61    2.82
  11  -6  14   61.59    5.99
  11   6  14   39.22    5.25
  11  -6  15   -8.76    3.80
  11   6  15   -1.05    3.31
  11  -6  16   64.39    6.53
  11   6  16   72.12    7.26
  11  -6  17   -3.15    3.72
  11  -7   0    2.92    1.02
  11  -7   0    0.89    2.05
  11  -7   1    1.39    1.10
  11  -7  -1   -0.54    2.23
  11  -7   1    0.87    2.35
  11  -7   2    4.00    1.26
  11  -7   2    4.53    2.24
  11  -7  -2   14.05    2.99
  11  -7   3    9.04    1.76
  11  -7  -3   12.39    2.95
  11  -7   3   10.67    2.98
  11  -7   4  190.20    9.01
 -11  -7   4  177.09    3.99
  11  -7   4  199.60    6.44
  11  -7  -4  201.21    9.08
  11  -7   5   -1.72    2.39
  11  -7   5    3.46    1.91
  11  -7  -5   -0.22    2.48
 -11  -7   5    1.34    1.13
  11  -7   6  110.11    7.05
  11   7   6  123.04    7.53
  11  -7   6  119.71    5.70
  11  -7  -6  111.72    7.04
 -11  -7   6  109.46    4.25
  11  -7   7    3.90    2.73
  11   7   7    7.22    3.25
 -11   7  -7    1.54    1.84
  11  -7   7    4.13    2.06
 -11  -7   7    2.97    1.46
  11  -7   8    6.92    2.72
  11   7   8    0.51    2.67
 -11   7  -8   -0.47    1.92
  11  -7   8    1.00    1.96
 -11  -7   8    1.59    1.60
  11   7   9   -1.29    2.92
  11  -7   9   -1.34    2.22
 -11  -7   9    1.70    1.65
  11   7  10   36.09    4.93
  11  -7  10   29.29    3.61
  11  -7  11    4.75    2.43
  11   7  11   14.05    3.80
  11  -7  12  192.00    9.31
  11   7  12  182.05   10.01
  11  -7  13    7.45    3.05
  11   7  13   10.81    3.73
  11  -7  14   63.89    6.05
  11   7  14   61.30    6.51
  11  -7  15    9.82    3.48
  11   7  15   11.30    3.82
  11  -7  16    7.71    3.54
  11  -7  17    2.16    3.50
  11  -8   0   -2.76    2.40
  11  -8   1   81.95    6.10
  11  -8  -1   84.17    5.97
  11  -8   2   61.62    5.55
  11  -8  -2   61.91    5.31
  11  -8   3   81.44    6.19
  11  -8   3   76.54    3.68
  11  -8  -3   83.57    6.21
  11  -8   4   15.64    3.49
 -11  -8   4   11.55    1.09
  11  -8   4   21.92    2.51
  11  -8  -4   14.05    3.47
  11  -8   5   22.54    3.79
  11  -8   5   24.03    2.77
  11  -8  -5   22.46    3.64
 -11  -8   5   21.79    1.68
  11  -8   6  151.42    8.62
  11   8   6  159.01    8.85
  11  -8   6  146.16    6.31
 -11  -8   6  139.64    4.59
  11  -8  -6  162.10    8.78
 -11   8  -7    0.91    1.80
  11   8   7    2.87    3.07
  11  -8   7   -0.92    2.51
  11  -8   7    4.13    2.06
  11  -8  -7   -0.12    2.70
  11  -8   8    2.59    2.90
  11   8   8    2.55    2.84
 -11   8  -8    2.50    1.98
  11  -8   8   -1.92    2.16
  11  -8   9  111.58    7.64
  11  -8   9  108.50    6.34
  11   8   9  111.65    7.88
  11  -8  10   61.95    5.07
  11   8  10   65.35    6.36
  11   8  11   52.95    5.78
  11  -8  11   56.83    5.15
  11  -8  12   21.19    3.81
  11   8  12    9.00    3.30
  11  -8  13   93.15    6.82
  11   8  13   79.52    7.05
  11  -8  14   38.96    5.20
  11   8  14   31.73    5.51
  11  -8  15   18.74    4.40
  11  -8  16    6.11    3.62
  11  -8  17   20.56    4.43
  11  -9   0   -3.07    2.58
  11  -9  -1    3.47    2.50
  11  -9   1    6.89    2.95
  11  -9   2   19.29    3.63
  11  -9  -2   22.38    3.95
  11  -9   3   86.88    6.80
  11  -9  -3   96.07    6.99
  11  -9   4  194.27    9.75
  11  -9  -4  196.49    9.60
  11  -9   5   12.31    3.44
  11  -9  -5   17.68    3.76
  11  -9   6  124.19    7.99
 -11   9  -6  116.33    5.53
  11  -9  -6  127.39    8.02
 -11   9  -7   18.81    2.88
  11   9   7   17.86    3.63
  11  -9   7   17.74    4.13
  11  -9  -7   16.55    3.72
  11  -9   8   12.41    3.62
  11   9   8    7.99    3.31
  11  -9   8    8.52    2.56
  11  -9   9   34.45    4.99
  11   9   9   31.90    4.81
  11  -9   9   24.77    3.45
  11   9  10   54.33    6.12
  11  -9  10   50.30    4.71
  11   9  11   29.93    4.91
  11  -9  11   32.73    4.41
  11  -9  12   98.61    6.91
  11   9  12  100.46    8.04
  11  -9  13   12.40    3.52
  11   9  13    2.57    2.98
  11  -9  14   85.58    7.05
  11   9  14   82.08    7.74
  11  -9  15    1.84    3.17
  11 -10   0    4.20    2.53
  11 -10  -1   -2.40    2.62
  11 -10   1   -0.68    2.73
  11 -10  -2   41.37    4.84
  11 -10   2   38.30    4.76
  11 -10  -3  191.78    9.74
  11 -10   3  184.21    9.60
  11 -10  -4   30.96    4.63
  11 -10   4   26.26    4.21
  11 -10  -5   63.36    5.99
  11 -10   5   60.85    6.09
  11 -10  -6    4.71    3.01
  11 -10   6    5.28    3.24
  11 -10  -7   11.98    3.10
  11 -10   7   14.44    3.77
  11  10   7   14.16    3.94
  11  10   8    5.59    3.07
  11 -10   8   11.86    3.86
  11 -10   9   29.73    4.97
  11  10   9   22.32    4.36
  11 -10  10   19.85    4.40
  11  10  10   22.58    4.38
  11  10  11   31.24    5.05
  11  10  12   41.97    5.86
  11  10  13   13.30    4.16
  11 -11   0   -1.90    2.86
  11 -11  -1    7.88    3.17
  11 -11   1    4.33    2.62
  11 -11  -2  162.00    9.21
  11 -11   2  154.66    9.08
  11 -11   3    2.45    2.69
  11 -11  -3    2.63    2.75
  11 -11  -4  209.91   10.48
  11 -11   4  210.33   10.77
  11 -11  -5    9.28    3.39
  11 -11   5    8.68    3.76
  11 -11  -6  204.55   10.80
  11 -11   6  204.74   10.95
  11 -11  -7   14.61    3.96
  11 -11   7   13.62    4.24
  11  11   7   11.53    3.76
  11  11   8   17.67    4.17
  11 -11   8   20.94    4.69
  11  11   9    0.71    3.00
  11 -11   9    7.79    3.82
  11 -11  10   31.46    5.40
  11  11  10   19.32    4.31
  11 -11  11    3.42    3.72
  11  11  11    8.50    4.22
  11  11  12   16.26    4.70
  11 -12   0    3.01    2.81
  11 -12  -1    1.55    2.60
  11 -12   1    0.50    2.78
  11 -12  -2   48.14    5.68
  11 -12   2   49.80    5.65
  11 -12   3   -3.40    3.35
  11 -12  -3    1.69    3.15
  11 -12  -4  140.72    9.01
  11 -12   4  139.69    9.32
  11 -12  -5    8.53    3.77
  11 -12   5    7.70    3.59
  11 -12  -6    9.88    3.73
  11 -12   6    9.23    3.86
  11 -12  -7   -1.63    2.78
  11 -12   7    0.32    3.03
  11  12   7    2.77    3.23
  11 -12  -8    2.97    2.86
  11 -12   8    3.21    3.53
  11  12   8    3.92    3.18
  11  12   9    4.15    3.66
  11 -12   9    2.10    3.63
  11 -12  10  154.03   10.28
  11  12  10  135.97    9.51
  11 -13   0   -1.89    3.08
  11 -13  -1   -1.34    2.79
  11 -13   1    2.10    3.04
  11 -13  -2  183.42   10.36
  11 -13   2  170.72   10.23
  11 -13   3    0.62    3.35
  11 -13  -3    1.47    2.84
  11 -13  -4  106.30    8.28
  11 -13   4  105.04    8.49
  11 -13   5   -0.06    3.10
  11 -13  -5    9.66    3.79
  11 -13  -6   90.66    7.81
  11 -13   6   92.37    8.12
  11 -13  -7   -1.84    3.19
  11 -13   7    7.28    3.87
  11 -13  -8    0.42    3.15
  11 -13   8    3.41    3.41
  11  13   8    0.78    3.27
  11 -14   0    5.01    3.32
  11 -14  -1   11.34    3.62
  11 -14   1   16.10    4.40
  11 -14  -2    5.70    3.36
  11 -14   2    6.02    3.55
  11 -14   3   29.47    4.94
  11 -14  -3   30.22    5.08
  11 -14   4   55.51    6.52
  11 -14  -4   56.16    6.45
  11 -14   5   11.28    3.93
  11 -14  -5   13.11    4.30
  12   0   0  990.81   14.44
  12   0   1   -1.72    1.61
  12   0  -1   -1.13    1.56
  12   0   1   -1.29    1.78
  12   0   2   81.00    4.32
  12   0   2   82.03    5.19
  12   0   3    0.52    1.47
  12   0   3   -0.71    1.95
 -12   0   3    0.38    1.57
 -12   0   4  169.95    6.79
  12   0   4  179.93    6.44
  12   0   4  179.86    7.53
 -12   0   5   -3.19    1.96
  12   0   5   -3.24    1.86
  12   0   5    0.80    2.00
  12   0   6  160.22    6.69
 -12   0   6  162.52    7.16
  12   0   6  170.22    7.85
 -12   0   7   -2.75    2.02
  12   0   7    1.43    1.85
  12   0   7   -4.22    2.35
 -12   0   8  721.38   15.08
  12   0   8  710.53   16.15
  12   0   9    5.73    2.70
  12   0  10   18.68    3.66
  12   0 -11    2.45    1.88
  12   0  11   -2.86    2.71
  12   0  12    6.94    2.90
  12   0  13   -0.04    2.79
  12   0  14   79.86    6.65
  12   0  15   -3.43    3.37
  12   0  16  346.28   14.23
  12   0  17    1.22    3.71
  12   1   0   53.33    3.36
  12  -1   0   53.08    3.86
  12  -1   0   50.98    3.72
  12  -1   1    2.03    1.53
  12   1   1    2.13    1.43
  12  -1  -1    4.93    1.95
  12  -1   1    2.65    1.63
  12  -1   2   90.83    4.74
  12   1   2   94.91    4.27
  12  -1  -2   94.56    5.02
  12   1   2   92.58    5.44
  12  -1   2   90.22    4.96
  12  -1   3    2.97    1.75
  12   1   3    0.02    1.47
  12  -1   3    1.98    1.87
 -12   1   3    6.93    2.16
 -12  -1   3    3.43    1.76
  12   1   3    3.50    2.01
  12  -1   4   16.68    2.68
  12   1   4   15.83    2.29
 -12   1   4   18.21    2.95
  12   1   4   14.09    3.00
 -12  -1   4   12.53    2.30
  12  -1   4   16.57    2.89
  12   1   5    0.37    1.65
  12   1   5    0.24    1.99
 -12   1   5    1.97    1.85
 -12  -1   5    0.70    1.65
  12  -1   5   -0.08    1.88
  12  -1   5   -2.97    2.17
  12  -1   6  219.83    7.85
  12   1   6  222.62    7.06
 -12  -1   6  209.35    7.58
 -12   1   6  217.00    8.43
  12   1   6  224.17    8.91
  12  -1   6  212.79    8.27
 -12   1   7   67.65    4.98
 -12  -1   7   71.40    4.74
  12  -1   7   77.34    4.98
  12   1   7   82.58    4.60
  12   1   7   76.04    5.50
  12  -1   7   65.06    4.94
 -12  -1   8  102.32    5.89
  12   1   8   98.25    6.41
  12  -1   8   88.40    6.02
  12  -1   9   -1.81    2.35
  12   1   9    3.87    2.61
  12  -1 -10   30.99    3.05
  12   1  10   33.39    4.24
  12  -1  10   30.17    4.09
  12  -1 -11    4.83    1.87
  12   1  11    7.34    2.97
  12  -1  11    4.33    2.38
  12   1  12   15.49    3.56
  12  -1  12   15.39    3.23
  12  -1  13   18.78    3.73
  12   1  13   17.95    3.79
  12  -1  14   17.42    3.98
  12   1  14   15.01    3.85
  12  -1  15   14.00    3.82
  12   1  15    8.98    3.30
  12  -1  16   48.27    5.84
  12   1  16   41.21    5.80
  12  -1  17    0.32    3.06
  12  -2   0  410.81   10.44
  12  -2   0  398.44    9.28
  12  -2  -1  150.04    6.39
  12  -2   1  143.63    6.12
  12   2   1  142.14    4.67
  12  -2   1  140.65    5.75
  12  -2  -1  139.40    5.38
  12   2   2   60.11    3.17
  12  -2  -2   60.50    4.45
  12  -2   2   65.78    4.62
  12  -2  -2   62.37    3.70
  12  -2   2   56.32    3.97
  12  -2  -3   90.02    5.28
  12   2   3   90.15    3.74
  12   2   3   93.20    5.73
  12  -2   3   81.45    4.87
 -12   2   3   86.92    5.29
 -12  -2   3   88.43    4.31
  12  -2   3   83.32    4.79
  12  -2   4    7.93    2.05
  12   2   4   11.07    1.74
  12   2   4    8.53    2.55
 -12  -2   4    8.70    2.02
 -12   2   4   11.37    2.46
  12  -2   4    9.90    2.20
  12   2   5  118.35    4.61
 -12   2   5  115.40    6.34
  12  -2   5  112.02    5.92
 -12  -2   5  109.08    5.16
  12   2   5  115.99    6.59
  12  -2   5  107.81    5.70
  12  -2   6   74.38    5.18
  12   2   6   76.94    4.08
 -12  -2   6   73.43    4.52
 -12   2   6   78.08    5.45
  12   2   6   80.95    5.98
  12  -2   6   66.53    4.92
 -12  -2   7   34.92    3.29
  12   2   7   47.03    3.29
  12  -2   7   43.98    4.06
  12   2   7   40.91    4.39
  12  -2   7   39.88    4.00
 -12  -2   8  388.65   10.49
  12   2   8  414.22    9.42
  12  -2   8  376.60   11.58
  12   2   8  404.02   12.71
 -12  -2   9   22.47    3.06
  12  -2  -9   30.07    2.83
  12   2   9   26.97    3.92
  12  -2   9   25.02    3.66
  12  -2 -10   86.63    4.59
  12  -2  10   85.89    6.19
  12   2  10   92.51    6.77
  12  -2  11    8.31    2.96
  12   2  11   17.41    3.74
  12   2  12   -1.17    2.64
  12  -2  12    2.66    2.80
  12   2  13   48.65    5.45
  12  -2  13   49.13    5.27
  12  -2  14    7.90    3.37
  12   2  14    1.54    2.70
  12  -2  15   36.40    4.99
  12   2  15   35.94    5.20
  12   2  16  290.76   13.22
  12  -2  16  287.92   13.07
  12  -2  17   18.81    4.17
  12  -3   0    8.41    2.34
  12  -3   0    7.53    1.71
  12  -3   1   82.40    5.13
  12  -3  -1   81.46    5.30
  12  -3  -1   87.17    4.13
  12  -3   1   75.44    4.05
  12  -3   2   24.79    3.15
  12  -3  -2   29.27    3.57
  12  -3  -2   26.00    2.35
  12  -3   2   23.63    2.66
  12   3   3   51.98    2.53
  12  -3  -3   54.03    4.43
  12  -3   3   47.80    4.07
  12   3   3   53.45    4.59
 -12   3   3   51.79    4.49
 -12  -3   3   52.84    3.28
  12  -3  -3   47.91    2.92
  12  -3   3   45.25    3.51
  12   3   4   21.52    1.87
  12  -3  -4   22.64    3.17
  12  -3   4   18.67    3.03
  12   3   4   24.40    3.58
 -12  -3   4   18.96    2.27
 -12   3   4   20.00    3.17
  12  -3   4   22.29    2.87
  12  -3   5   35.20    3.74
  12   3   5   37.08    2.42
  12   3   5   38.45    4.32
 -12  -3   5   35.58    3.08
  12  -3   5   34.17    3.47
 -12  -3   6    7.50    1.85
  12  -3   6    7.01    2.46
  12   3   6    6.86    1.47
  12   3   6    8.12    2.79
  12  -3   6    4.28    2.05
 -12  -3   7  203.52    7.20
  12   3   7  205.18    5.99
  12  -3   7  200.49    8.36
  12  -3   7  184.64    7.71
  12   3   7  209.47    9.25
  12  -3   8   12.26    2.95
  12   3   8   11.22    2.09
 -12  -3   8    3.04    1.77
  12  -3  -8    9.42    1.85
  12  -3   8    7.73    2.61
  12   3   8    6.66    2.68
 -12  -3   9  101.06    5.68
  12  -3  -9   90.61    4.10
  12  -3   9   98.84    6.32
  12   3   9  104.17    7.05
  12  -3  10    4.93    2.62
  12   3  10    3.61    2.43
  12   3  11   -1.62    2.48
  12  -3  11    0.84    2.29
  12  -3  12   21.48    3.89
  12   3  12   19.34    3.86
  12  -3  13   33.02    4.58
  12   3  13   30.12    4.79
  12  -3  14    9.34    3.18
  12   3  14   13.89    3.88
  12  -3  15   11.60    3.72
  12   3  15   13.18    3.98
  12  -3  16   14.00    4.15
  12   3  16   11.40    3.98
  12  -3  17    3.77    3.31
  12  -4   0  113.20    6.17
  12  -4   0   99.83    4.37
  12  -4   1  118.81    6.27
  12  -4  -1  121.62    6.38
  12  -4   1  107.29    4.59
  12  -4  -1  111.89    4.25
  12  -4  -2  221.52    8.48
  12  -4   2  229.53    8.70
  12  -4  -2  209.44    5.46
  12  -4   2  213.16    6.69
  12  -4  -3   15.23    2.97
  12  -4   3   15.04    2.95
 -12  -4   3   17.73    1.90
  12  -4  -3   11.88    1.49
  12  -4   3   14.21    2.12
  12  -4  -4    6.63    2.48
  12  -4  -4    4.49    1.22
 -12  -4   4    2.89    1.35
  12  -4   4    0.26    2.15
  12   4   4    5.05    2.54
  12  -4   4    5.39    1.88
  12   4   5   45.85    4.82
 -12  -4   5   33.06    2.83
  12  -4   5   30.27    3.93
  12   4   5   36.96    1.90
  12  -4   5   36.51    3.56
  12  -4  -5   38.13    2.26
  12  -4   6  100.21    6.23
 -12  -4   6   95.23    4.54
  12   4   6  101.95    3.31
  12  -4   6   96.54    5.39
  12   4   6   98.66    6.48
  12   4   7   44.26    2.67
  12   4   7   49.85    4.89
  12  -4   7   51.62    4.78
 -12  -4   7   43.59    3.37
  12  -4  -7   36.65    2.11
  12  -4   7   46.46    4.10
  12   4   8   33.05    4.55
  12  -4   8   31.35    4.20
  12   4   8   25.14    2.33
 -12  -4   8   26.08    3.04
  12  -4  -8   25.03    2.03
  12  -4   8   22.66    3.33
 -12  -4   9   89.88    5.26
  12  -4   9   88.00    5.81
  12   4   9   95.76    6.82
 -12  -4  10  108.12    6.08
  12  -4  10  110.43    6.87
  12   4  10  104.04    7.27
  12  -4  11    5.75    2.69
  12   4  11    7.93    3.18
  12  -4  12   38.76    4.72
  12   4  12   42.48    5.23
  12  -4  13   18.01    3.59
  12   4  13   20.17    3.99
  12  -4  14  109.22    7.82
  12   4  14  115.11    8.49
  12  -4  15   86.89    7.30
  12   4  15   76.01    7.07
  12  -4  16   15.69    4.10
  12   4  16   19.83    4.43
  12  -4  17   54.46    6.18
  12  -5   0    7.05    2.13
  12  -5   0    8.61    1.56
  12  -5  -1   29.57    3.58
  12  -5   1   33.53    4.00
  12  -5  -1   29.46    2.17
  12  -5   1   27.98    2.40
  12  -5   2   45.94    4.50
  12  -5  -2   53.61    4.85
  12  -5   2   45.48    3.18
  12  -5  -2   39.28    2.23
  12  -5   3    2.21    2.07
  12  -5  -3    2.90    2.20
  12  -5   3    5.39    1.73
  12  -5  -3    4.64    1.04
  12  -5  -4   -2.10    2.39
 -12  -5   4    0.95    1.16
  12  -5   4   -2.99    2.31
  12  -5   4    0.78    1.58
  12  -5  -4    0.43    0.82
  12  -5   5    4.44    2.23
  12   5   5   11.65    2.89
  12  -5  -5    8.83    2.72
 -12  -5   5    6.14    1.49
  12  -5  -5    4.33    0.81
  12  -5  -5    4.79    0.81
  12  -5   5    4.70    1.98
 -12  -5   6   81.15    4.16
  12  -5   6   84.90    6.21
  12   5   6   89.50    6.44
  12  -5   6   83.81    5.08
  12   5   7   89.32    2.66
  12  -5   7   95.47    6.47
 -12  -5   7   84.09    4.39
  12  -5   7   98.70    5.71
  12   5   7   88.99    6.56
  12   5   8   63.09    2.76
  12  -5   8   66.68    5.62
 -12  -5   8   56.81    3.93
  12  -5   8   65.03    4.93
  12   5   8   66.30    5.92
  12   5   9   12.60    3.72
 -12  -5   9    6.10    2.06
  12  -5   9    3.53    2.23
  12  -5  10    5.96    2.67
  12   5  10   13.30    3.77
  12  -5  11   11.39    3.15
  12   5  11    6.52    2.95
  12  -5  12   18.28    3.73
  12   5  12   22.42    4.34
  12  -5  13   17.89    3.96
  12   5  13   26.87    4.69
  12  -5  14   35.56    5.02
  12   5  14   41.77    5.59
  12  -5  15    7.74    3.71
  12   5  15    3.70    3.06
  12  -5  16    2.80    2.93
  12  -5  17    4.27    3.36
  12  -6   0    6.05    1.38
  12  -6   0    1.56    2.05
  12  -6  -1    1.13    0.98
  12  -6   1   -1.00    1.25
  12  -6  -1    0.92    2.07
  12  -6   1    1.14    2.17
  12  -6   2  497.31   13.54
  12  -6   2  497.83    9.33
  12  -6  -2  521.12   14.08
  12  -6   3    4.97    1.70
  12  -6   3    2.86    2.32
  12  -6  -3    6.93    2.67
 -12  -6   4    2.07    1.11
  12  -6   4   -4.56    2.78
  12  -6   4    0.90    1.60
  12  -6  -4   -0.78    2.34
 -12  -6   5   68.54    3.34
  12  -6   5   65.30    5.64
  12   6   5   75.98    6.08
  12  -6   5   71.33    4.48
  12  -6  -5   77.60    6.02
 -12  -6   6  246.70    6.59
  12  -6   6  251.82   10.36
  12   6   6  261.65   10.76
  12  -6   6  259.67    8.69
  12  -6  -6  253.47   10.19
  12   6   7    7.88    3.14
  12  -6   7    7.79    2.94
  12  -6   7    5.61    2.32
 -12  -6   7   10.37    1.89
  12   6   8   45.76    5.37
  12  -6   8   39.58    5.05
  12  -6   8   38.68    4.19
  12  -6   9   -0.23    2.54
  12   6   9    1.41    2.70
  12  -6   9    0.72    2.34
  12  -6  10  168.40    8.35
  12   6  10  180.95    9.78
  12  -6  11    2.10    2.52
  12   6  11    1.58    2.98
  12  -6  12  114.02    7.46
  12   6  12  116.54    8.30
  12  -6  13    6.32    3.28
  12   6  13    1.49    2.97
  12  -6  14  147.90    8.95
  12   6  14  143.10    9.76
  12  -6  15   -2.14    3.11
  12   6  15    5.51    3.92
  12  -6  16   11.99    3.74
  12  -6  17   -9.77    4.46
  12  -7   0    6.92    1.22
  12  -7   0    4.90    2.41
  12  -7   1    9.41    1.52
  12  -7  -1   11.03    2.90
  12  -7   1   16.50    3.37
  12  -7   2  140.05    7.92
  12  -7   2  125.28    4.72
  12  -7  -2  149.33    8.10
  12  -7   3    8.57    1.84
  12  -7  -3    6.31    2.54
  12  -7   3    9.59    2.63
 -12  -7   4    2.60    0.97
  12  -7   4   -2.66    2.71
  12  -7   4    3.94    1.79
  12  -7  -4   -2.17    2.62
  12  -7   5   13.13    2.96
  12  -7   5   21.82    2.76
  12  -7  -5   19.23    3.58
  12  -7   6  182.95    9.29
  12   7   6  190.25    9.70
  12  -7   6  182.54    7.29
  12  -7  -6  188.15    9.32
  12   7   7   48.00    5.14
  12  -7   7   45.74    5.10
  12  -7   7   48.18    4.30
  12   7   8   28.11    4.21
  12  -7   8   34.33    4.34
  12  -7   8   30.93    3.69
  12   7   9   -2.96    3.27
  12  -7   9    2.15    2.21
  12   7  10   42.40    5.61
  12  -7  10   36.74    4.27
  12  -7  11    7.85    2.61
  12   7  11   16.74    4.05
  12  -7  12    3.79    2.76
  12   7  12    7.70    3.42
  12  -7  13   -0.97    2.94
  12   7  13   -0.03    2.95
  12  -7  14   30.73    4.58
  12   7  14   34.35    5.29
  12  -7  15   -2.70    3.28
  12  -7  16   -2.15    3.18
  12  -8   0  109.02    7.14
  12  -8  -1   45.30    4.65
  12  -8   1   47.87    4.92
  12  -8   2  321.27   11.82
  12  -8  -2  328.20   11.94
  12  -8   3   13.03    1.85
  12  -8  -3   20.63    3.83
  12  -8   3   21.12    3.49
  12  -8   4    1.46    1.51
  12  -8   4   -7.08    3.19
  12  -8  -4   -4.87    2.89
  12  -8   5   21.53    3.68
  12  -8   5   23.64    2.70
  12  -8  -5   31.21    4.38
  12  -8   6  205.67   10.12
  12   8   6  222.75   10.64
  12  -8   6  204.67    7.50
  12  -8  -6  221.48   10.34
  12  -8   7   25.90    4.16
  12   8   7   29.02    4.53
  12  -8   7   23.40    3.11
  12  -8   8  131.46    8.48
  12  -8   8  126.73    6.77
  12   8   8  135.84    8.81
  12  -8   9   27.45    4.62
  12   8   9   22.96    4.21
  12  -8   9   21.54    3.43
  12  -8  10  118.96    8.16
  12  -8  10  106.88    6.73
  12   8  10  109.15    8.31
  12   8  11    7.62    3.91
  12  -8  11    6.95    2.76
  12  -8  12   29.50    4.37
  12   8  12   32.92    5.25
  12  -8  13   36.01    4.79
  12   8  13   31.25    5.06
  12  -8  14   77.05    6.65
  12  -8  15   37.39    5.19
  12  -8  16   37.05    5.69
  12  -9   0    1.12    2.50
  12  -9  -1   39.27    4.81
  12  -9   1   42.58    5.00
  12  -9   2    0.05    2.46
  12  -9  -2    1.07    2.41
  12  -9  -3    1.28    2.68
  12  -9   3    0.69    2.53
  12  -9   4    3.29    3.05
  12  -9  -4    0.37    2.44
  12  -9   5   -0.36    3.21
  12  -9  -5    3.26    2.78
  12  -9   6   53.77    5.84
  12   9   6   58.34    6.03
  12  -9  -6   50.94    5.53
  12  -9   7   53.98    6.01
  12   9   7   52.42    5.77
  12  -9   7   53.99    4.26
  12  -9  -7   51.87    5.56
  12   9   8   18.92    4.26
  12  -9   8   13.27    3.70
  12  -9   8   13.26    2.91
  12  -9   9   73.59    6.81
  12  -9   9   75.85    5.44
  12   9   9   75.03    6.82
  12   9  10    9.97    3.73
  12  -9  10   19.44    4.64
  12  -9  10   18.09    3.34
  12  -9  11   24.69    4.63
  12   9  11   21.84    4.46
  12  -9  11   18.58    3.47
  12  -9  12    2.78    2.84
  12   9  12   -2.62    3.25
  12  -9  13   21.78    4.07
  12  -9  14   17.39    4.17
  12  -9  15    8.63    3.78
  12  -9  16    7.02    3.83
  12 -10   0   86.48    6.87
  12 -10  -1   72.30    6.17
  12 -10   1   70.11    6.20
  12 -10   2    3.67    2.78
  12 -10  -2    2.96    2.64
  12 -10   3   20.28    4.07
  12 -10  -3   20.66    4.00
  12 -10   4    7.29    3.06
  12 -10  -4    2.62    2.57
  12 -10  -5   -0.22    2.72
  12 -10   5   -1.38    2.79
  12 -10  -6   15.61    3.73
  12 -10   6   10.35    3.12
  12 -10  -7   29.23    4.65
  12 -10   7   31.99    4.67
  12  10   7   33.85    4.96
  12 -10   8  105.32    8.27
  12  10   8  103.82    8.05
  12  10   9   17.59    3.88
  12 -10   9   14.13    3.98
  12  10  10   26.86    4.76
  12 -10  10   27.02    4.90
  12  10  11    3.30    3.84
  12 -10  11    7.38    3.92
  12 -10  12    7.00    3.99
  12 -11   0   17.37    4.10
  12 -11  -1   34.68    4.98
  12 -11   1   42.00    5.53
  12 -11  -2    3.95    2.73
  12 -11   2    0.56    2.62
  12 -11   3    0.31    2.91
  12 -11  -3    6.64    3.63
  12 -11   4    3.70    3.15
  12 -11  -4   -4.20    3.12
  12 -11  -5    4.92    3.17
  12 -11   5    4.47    3.36
  12 -11  -6    2.37    3.05
  12 -11   6   -4.88    3.76
  12 -11  -7   16.61    4.01
  12  11   7   17.07    4.19
  12 -11   7   22.21    4.49
  12 -11   8   51.08    6.18
  12  11   8   55.63    6.43
  12 -11   9   39.73    5.63
  12  11   9   25.69    5.07
  12  11  10    8.44    3.69
  12 -11  10    7.20    4.00
  12 -11  11    4.45    3.61
  12 -12   0  430.38   15.59
  12 -12  -1   -0.19    3.01
  12 -12   1    7.27    3.63
  12 -12  -2   29.09    4.82
  12 -12   2   33.43    5.13
  12 -12  -3   12.21    3.68
  12 -12   3   16.86    3.93
  12 -12   4   20.24    4.64
  12 -12  -4   15.01    3.98
  12 -12  -5    5.27    3.05
  12 -12   5   -0.12    3.24
  12 -12  -6    0.91    3.00
  12 -12   6   -0.84    3.51
  12 -12  -7    3.21    2.97
  12 -12   7   -4.50    3.55
  12  12   7   -0.55    3.54
  12 -12   8  181.19   11.04
  12  12   8  189.65   11.30
  12 -12   9   -0.56    3.56
  12 -13   0   17.77    4.39
  12 -13  -1   -0.73    2.85
  12 -13   1    2.58    3.31
  12 -13  -2   20.49    4.51
  12 -13   2   23.31    4.89
  12 -13  -3    2.79    3.21
  12 -13   3   -3.63    3.14
  12 -13   4   10.28    4.19
  12 -13  -4   15.83    4.22
  12 -13  -5    1.12    3.10
  12 -13   5   -3.14    3.68
  12 -13   6   -1.98    3.55
  12 -13  -6    3.07    3.45
  13   0   0    0.77    1.69
  13   0   0    1.76    1.83
  13   0   1   -0.05    1.65
  13   0  -1    0.18    1.59
  13   0   1    0.53    1.78
  13   0   2   68.31    4.17
  13   0   2   68.59    4.72
  13   0   3    2.20    1.62
  13   0   3    2.74    2.19
  13   0   4  106.25    5.11
 -13   0   4  100.45    5.38
  13   0   4  107.31    6.01
  13   0   5    2.05    1.76
 -13   0   5   -4.73    2.23
  13   0   5    0.50    2.09
 -13   0   6    5.55    2.18
  13   0   6    7.92    2.24
  13   0   6    7.36    2.62
 -13   0   7   -0.93    2.07
  13   0   7   -1.30    1.94
  13   0   7   -2.01    2.36
  13   0   8   47.44    4.17
  13   0   8   43.64    4.74
  13   0   9    1.72    2.09
  13   0   9   -0.83    2.32
  13   0  10   46.66    4.86
  13   0  11    0.82    2.50
  13   0  12   59.80    5.77
  13   0  13   -1.13    2.76
  13   0  14    2.59    3.25
  13   0  15   -2.50    3.39
  13   0  16    5.55    3.48
  13   1   0    0.80    1.47
  13  -1   0    0.28    1.79
  13  -1   0    1.61    1.64
  13   1   1    1.02    1.53
  13  -1  -1    3.84    2.00
  13  -1   1    0.79    1.69
  13  -1   1   -0.02    1.67
  13  -1  -1    3.88    1.72
  13   1   1    4.92    2.26
  13   1   2   13.90    2.14
  13  -1   2   11.60    2.38
  13  -1  -2   13.25    2.53
  13  -1   2   14.16    2.61
  13   1   2   13.35    2.91
  13   1   3   14.08    2.17
  13  -1   3   13.45    2.38
  13   1   3   14.55    2.92
  13  -1   3   14.84    2.68
  13  -1   4  502.73   11.62
  13   1   4  506.44   10.24
 -13   1   4  487.47   12.21
 -13  -1   4  480.35   11.24
  13  -1   4  488.57   12.33
  13   1   4  496.90   13.08
  13  -1   5   15.05    2.54
  13   1   5   23.47    2.56
  13   1   5   28.36    3.70
 -13   1   5   22.43    3.11
 -13  -1   5   14.69    2.52
  13  -1   5   20.22    2.97
  13   1   6    7.71    2.05
 -13   1   6    7.13    2.48
  13  -1   6    8.89    2.51
 -13  -1   6    8.50    2.41
  13   1   6   12.26    3.23
  13  -1   6   11.52    2.89
 -13  -1   7   15.86    2.84
  13  -1   7   17.27    2.97
  13   1   7   18.64    2.73
  13   1   7   19.02    3.42
  13  -1   7   18.40    3.26
  13   1   8   49.06    3.96
 -13  -1   8   44.00    4.15
  13  -1   8   49.98    4.37
  13  -1   8   43.38    4.54
  13   1   8   44.21    4.77
  13  -1   9    4.56    2.29
  13   1   9    8.61    2.41
  13  -1   9    1.58    2.37
  13   1   9    8.52    3.04
  13   1  10   24.75    4.31
  13  -1  10   17.31    3.55
  13   1  11   15.72    3.69
  13  -1  11   10.79    2.83
  13  -1  12  280.87   11.71
  13   1  12  285.07   12.01
  13  -1  13    6.31    3.16
  13   1  13    5.74    2.91
  13  -1  14   84.46    7.23
  13   1  14   77.92    6.99
  13  -1  15    1.68    3.07
  13   1  15   -8.04    4.64
  13  -1  16   -0.32    2.92
  13  -2   0   -4.76    2.35
  13  -2   0    0.04    1.64
  13  -2  -1   39.77    3.84
  13  -2   1   41.47    3.76
  13  -2   1   33.09    3.22
  13  -2  -1   39.28    3.28
  13   2   2   15.86    2.03
  13  -2  -2   12.37    2.53
  13  -2   2   14.76    2.66
  13  -2  -2   13.64    2.07
  13   2   2   14.18    2.87
  13  -2   2   13.04    2.46
  13  -2   3   42.89    3.69
  13   2   3   45.21    2.95
  13  -2  -3   45.12    3.86
  13   2   3   43.31    4.22
  13  -2   3   40.77    3.63
  13  -2   4   36.48    3.65
  13   2   4   38.12    2.80
  13   2   4   38.07    4.02
 -13   2   4   46.04    4.35
 -13  -2   4   41.13    3.42
  13  -2   4   37.77    3.63
  13  -2   5   11.84    2.60
  13   2   5   12.97    2.08
  13   2   5   10.38    2.74
 -13  -2   5    7.70    1.84
  13  -2   5    9.11    2.35
  13   2   6    5.13    1.74
  13  -2   6    0.39    2.06
  13   2   6    5.63    2.73
 -13  -2   6    2.22    1.81
  13  -2   6    3.71    2.22
  13  -2   7   38.39    4.09
 -13  -2   7   41.05    3.76
  13   2   7   43.88    3.34
  13  -2   7   40.04    4.24
  13   2   7   42.58    4.65
 -13  -2   8    8.60    2.29
  13  -2   8    8.46    2.69
  13   2   8    6.98    2.05
  13   2   8    6.23    2.73
  13  -2   8    7.90    2.55
  13  -2   9   45.25    4.47
  13   2   9   48.35    3.84
  13   2   9   36.57    4.58
  13  -2   9   37.82    4.40
  13  -2  10    5.53    2.55
  13   2  10    7.44    3.22
  13  -2  11   64.17    5.67
  13   2  11   81.98    6.61
  13   2  12   16.74    3.73
  13  -2  12   10.96    3.41
  13   2  13    8.62    3.20
  13  -2  13    9.82    3.43
  13  -2  14    4.78    3.18
  13   2  14    3.62    3.04
  13  -2  15    2.21    2.78
  13   2  15   -4.83    3.37
  13  -2  16   -0.46    3.09
  13  -3   0    1.22    1.95
  13  -3   0    0.05    1.41
  13  -3   1    7.35    2.23
  13  -3  -1    1.03    1.93
  13  -3   1    2.17    1.66
  13  -3  -1    4.60    1.82
  13  -3   2  109.50    6.12
  13  -3  -2  112.85    6.28
  13  -3  -2  111.14    4.75
  13  -3   2  111.68    5.37
  13   3   3  100.36    3.57
  13  -3  -3  109.86    6.33
  13  -3   3  101.32    5.88
  13   3   3  100.19    6.33
  13  -3  -3   99.13    4.30
  13  -3   3   97.30    5.25
  13   3   4  379.90    6.96
  13   3   4  384.96   12.05
  13  -3  -4  380.71    8.09
  13  -3   4  374.72   11.14
 -13  -3   4  374.69    8.84
  13  -3   4  360.10   10.10
  13   3   5  141.92    4.42
 -13  -3   5  132.76    5.65
  13  -3   5  137.69    7.01
  13   3   5  136.71    7.51
  13  -3   5  138.20    6.50
  13  -3   6  211.09    8.84
 -13  -3   6  204.00    7.28
  13   3   6  220.62    5.86
  13  -3   6  197.85    8.13
  13   3   6  216.87    9.60
 -13  -3   7    9.15    2.18
  13  -3   7   14.77    3.08
  13   3   7   18.80    3.74
  13   3   7   12.89    1.83
  13  -3   7   16.56    3.14
 -13  -3   8   27.95    3.32
  13   3   8   22.34    2.59
  13  -3   8   21.12    3.49
  13  -3   8   23.34    3.55
  13   3   8   28.99    4.48
  13  -3   9   79.57    6.07
  13   3   9   73.31    4.30
  13  -3   9   65.02    5.25
  13   3   9   80.25    6.58
  13  -3  10   13.41    3.24
  13   3  10   15.22    3.48
  13  -3  11  135.86    7.99
  13   3  11  143.57    8.93
  13  -3  12  132.69    8.38
  13   3  12  144.28    9.06
  13  -3  13   36.38    4.94
  13   3  13   43.29    5.40
  13  -3  14  101.17    7.87
  13   3  14  118.52    8.62
  13  -3  15   -1.72    3.18
  13   3  15    5.44    3.23
  13  -3  16   10.49    3.82
  13  -4   0   -1.97    2.19
  13  -4   0   -0.64    1.40
  13  -4   1   37.06    3.95
  13  -4  -1   40.54    4.25
  13  -4   1   33.38    2.93
  13  -4  -1   37.28    2.82
  13  -4  -2   27.94    3.52
  13  -4   2   27.99    3.45
  13  -4   2   28.05    2.86
  13  -4  -2   26.31    2.28
  13  -4  -3   53.28    4.60
  13  -4   3   51.28    4.33
  13  -4   3   47.24    3.60
  13  -4  -3   49.16    2.78
  13  -4  -4   72.35    5.49
  13  -4   4   65.86    5.34
  13   4   4   72.43    5.77
 -13  -4   4   67.73    3.72
  13  -4   4   67.67    4.54
  13  -4  -4   75.74    3.33
  13   4   5    5.60    1.10
  13  -4  -5    6.75    1.37
  13  -4   5    2.95    2.30
  13   4   5    7.82    3.01
 -13  -4   5    0.54    1.51
  13  -4   5    4.14    1.96
  13   4   6   11.88    1.45
 -13  -4   6    9.39    2.09
  13  -4   6    7.83    2.75
  13   4   6    8.35    2.84
  13  -4  -6   11.14    1.53
  13  -4   6    8.48    2.29
  13   4   7    2.25    1.23
 -13  -4   7    1.80    1.65
  13  -4   7   -0.11    2.41
  13   4   7   -0.84    2.42
  13  -4   7    3.96    2.43
 -13  -4   8   33.81    3.45
  13   4   8   39.76    4.86
  13   4   8   33.29    2.63
  13  -4   8   27.54    3.97
  13  -4   8   32.64    3.99
  13  -4   9   70.62    5.77
  13  -4   9   56.81    4.92
  13   4   9   64.93    5.93
  13   4  10    7.85    3.24
  13  -4  10    3.10    2.54
  13  -4  11   23.93    3.85
  13   4  11   31.40    4.38
  13  -4  12    6.41    3.05
  13   4  12    8.48    3.64
  13  -4  13   17.67    3.74
  13   4  13   24.22    4.54
  13  -4  14    7.33    3.51
  13   4  14    5.86    3.54
  13  -4  15    9.72    3.49
  13  -4  16    6.33    3.72
  13  -5   0   -0.44    2.04
  13  -5   0    3.19    1.34
  13  -5  -1    3.61    2.46
  13  -5   1    5.49    2.46
  13  -5   1   -0.19    1.43
  13  -5  -1    2.78    1.31
  13  -5   2  176.75    8.32
  13  -5  -2  193.09    8.69
  13  -5   2  163.81    5.91
  13  -5  -2  153.48    4.44
  13  -5   3  115.97    6.78
  13  -5  -3  129.58    7.31
  13  -5   3  117.59    5.33
  13  -5  -3  100.72    3.22
  13  -5   4   60.00    5.14
  13   5   4   72.49    5.90
  13  -5  -4   77.36    5.94
  13  -5   4   67.75    4.42
  13  -5  -4   55.22    2.22
  13  -5  -5   33.14    4.07
  13  -5   5   26.17    3.81
  13   5   5   29.20    4.21
  13  -5  -5   17.87    1.29
  13  -5   5   29.73    3.32
  13  -5   6  305.31   11.41
  13  -5   6  293.85    9.44
  13   5   6  327.11   12.34
  13  -5   7    2.00    2.42
  13   5   7   -4.14    3.15
  13  -5   7   -1.04    1.94
  13   5   8   14.85    3.68
  13  -5   8    7.86    3.11
  13  -5   8    9.07    2.72
  13   5   9   31.18    4.84
  13  -5   9   40.29    5.03
  13  -5   9   30.83    3.87
  13  -5  10   92.21    6.78
  13  -5  10   82.67    6.14
  13   5  10  101.86    7.54
  13  -5  11   23.64    3.96
  13   5  11   29.47    4.50
  13  -5  12    3.24    2.59
  13   5  12    5.85    3.29
  13  -5  13    4.91    2.87
  13   5  13    5.24    3.18
  13  -5  14  104.48    7.97
  13   5  14  116.21    9.02
  13  -5  15    1.54    3.24
  13  -5  16   16.79    4.71
  13  -6   0    0.60    1.14
  13  -6   0    0.16    2.27
  13  -6   1   -1.16    1.30
  13  -6  -1   -1.92    1.18
  13  -6  -1   -2.25    2.44
  13  -6   1    3.96    2.73
  13  -6   2   98.34    6.35
  13  -6   2   93.91    4.39
  13  -6  -2   70.37    2.54
  13  -6  -2  103.81    6.61
  13  -6   3   10.40    2.08
  13  -6   3    8.95    2.93
  13  -6  -3   16.00    3.29
  13  -6   4   36.40    3.29
  13  -6   4   35.41    4.48
  13  -6  -4   45.54    4.91
  13  -6   5   10.37    3.08
  13   6   5   17.91    3.70
  13  -6   5   11.64    2.23
  13  -6  -5   13.89    3.30
  13  -6   6   27.50    4.14
  13   6   6   30.05    4.35
  13  -6   6   25.69    3.08
  13  -6   7    1.63    2.72
  13   6   7    2.10    2.72
  13  -6   7   -1.78    2.21
  13   6   8   23.77    4.16
  13  -6   8   26.99    4.40
  13  -6   8   22.32    3.36
  13   6   9    3.96    2.92
  13  -6   9    5.81    3.14
  13  -6   9   -2.97    2.51
  13  -6  10   66.65    5.99
  13  -6  10   61.92    5.37
  13   6  10   73.28    6.61
  13  -6  11   14.17    3.84
  13   6  11   15.06    3.76
  13  -6  12   18.77    3.82
  13   6  12   24.33    4.83
  13  -6  13    3.94    2.90
  13   6  13    1.14    3.01
  13  -6  14   16.44    4.10
  13  -6  15   -2.44    3.52
  13  -6  16   12.54    4.06
  13  -7   0   -3.09    1.10
  13  -7   0   -0.78    2.30
  13  -7   1   -0.06    1.31
  13  -7  -1    2.02    2.26
  13  -7   1    3.34    2.56
  13  -7   2  222.23    9.94
  13  -7   2  200.07    6.05
  13  -7  -2  231.73   10.27
  13  -7   3    9.49    2.00
  13  -7   3    8.60    2.90
  13  -7  -3    6.22    2.89
  13  -7   4   33.50    3.12
  13  -7  -4   39.91    4.85
  13  -7   4   33.33    4.49
  13  -7   5   13.33    3.26
  13   7   5   18.09    3.84
  13  -7   5   15.64    2.66
  13  -7  -5   19.00    3.85
  13   7   6  160.17    9.25
  13  -7   6  147.89    8.68
  13  -7   6  150.88    6.79
  13  -7  -6  159.27    8.89
  13   7   7    9.99    3.64
  13  -7   7    6.55    3.06
  13  -7   7    5.46    2.28
  13  -7   8    7.43    3.56
  13   7   8    7.66    3.42
  13  -7   8    8.32    2.74
  13   7   9    0.29    2.93
  13  -7   9    2.34    2.80
  13  -7   9   -2.02    2.36
  13  -7  10  306.95   12.97
  13  -7  10  279.91   10.72
  13   7  10  307.73   13.29
  13  -7  11   14.49    3.98
  13  -7  11    4.90    2.57
  13   7  11   14.89    3.98
  13  -7  12   -4.23    3.35
  13   7  12    9.71    3.74
  13  -7  13  -10.00    3.98
  13  -7  14   98.32    7.70
  13  -7  15   -1.41    3.11
  13  -7  16   11.91    4.17
  13  -8   0    0.28    2.61
  13  -8  -1   17.27    3.58
  13  -8   1   16.73    3.58
  13  -8   2   44.20    4.97
  13  -8  -2   40.76    4.80
  13  -8   3   26.70    2.59
  13  -8  -3   27.31    4.14
  13  -8   3   28.86    4.15
  13  -8   4    3.83    1.83
  13  -8   4    0.80    2.52
  13  -8  -4    1.64    2.85
  13  -8   5   89.69    6.92
  13  -8   5   86.60    4.80
  13  -8  -5  102.08    7.33
  13   8   6   15.61    3.82
  13  -8   6    9.87    3.54
  13  -8   6    6.19    2.21
  13  -8  -6    4.75    2.76
  13   8   7   -1.19    2.78
  13  -8   7    6.57    3.42
  13  -8   7    0.93    2.01
  13  -8   8   -2.47    3.02
  13   8   8   -2.17    3.27
  13  -8   8   -2.36    2.42
  13   8   9    2.09    2.89
  13  -8   9   -2.94    2.91
  13  -8   9   -3.83    2.73
  13   8  10   55.00    6.31
  13  -8  10   54.01    5.98
  13  -8  10   50.03    4.92
  13   8  11   16.98    4.23
  13  -8  11   20.23    4.53
  13  -8  11   23.72    4.33
  13  -8  12    1.31    3.00
  13  -8  12   10.53    3.66
  13   8  12    0.80    3.15
  13  -8  13   21.43    4.15
  13  -8  14    6.83    3.56
  13  -8  15    5.86    3.69
  13  -8  16   12.90    4.28
  13  -9   0   -6.64    3.31
  13  -9  -1   16.89    3.93
  13  -9   1   17.48    3.87
  13  -9   2  134.86    8.41
  13  -9  -2  129.13    8.31
  13  -9  -3   19.72    3.70
  13  -9   3   14.48    3.45
  13  -9   4  139.19    8.68
  13  -9  -4  155.53    9.05
  13  -9   5   50.08    5.71
  13  -9  -5   54.12    5.74
  13   9   6  156.96    9.65
  13  -9   6  150.61    9.32
  13  -9   6  139.34    6.27
  13  -9  -6  157.35    9.35
  13  -9   7    8.05    3.36
  13   9   7    7.69    3.42
  13  -9   7    9.75    2.59
  13  -9   8    5.70    3.19
  13   9   8    1.68    3.15
  13  -9   8    5.35    2.42
  13  -9   9   50.78    6.34
  13   9   9   44.43    5.94
  13  -9   9   53.44    4.88
  13  -9  10   65.98    6.97
  13  -9  10   57.54    5.29
  13   9  10   74.37    7.35
  13   9  11   35.61    5.63
  13  -9  11   33.65    5.46
  13  -9  11   31.23    4.46
  13  -9  12   68.30    7.36
  13  -9  12   64.90    6.01
  13  -9  13   40.69    5.12
  13  -9  14   83.95    7.16
  13  -9  15    5.64    3.62
  13 -10   0    1.25    2.71
  13 -10  -1   17.30    3.99
  13 -10   1   22.79    4.09
  13 -10   2    4.90    3.22
  13 -10  -2    0.76    2.72
  13 -10  -3   34.32    4.75
  13 -10   3   32.29    4.69
  13 -10   4   52.05    5.95
  13 -10  -4   47.51    5.52
  13 -10   5    8.50    3.75
  13 -10  -5   16.60    3.97
  13 -10  -6    4.09    2.93
  13 -10   6    3.66    3.10
  13  10   6    8.59    3.64
  13 -10  -7    8.48    3.57
  13 -10   7   10.04    3.69
  13  10   7    9.86    3.49
  13  10   8    4.77    3.37
  13 -10   8    2.24    3.12
  13 -10   9   12.71    3.90
  13  10   9   20.76    4.93
  13 -10  10    9.56    3.83
  13 -10  11   15.70    4.41
  13 -11   0   -1.04    2.83
  13 -11  -1    2.37    3.13
  13 -11   1   -1.89    3.14
  13 -11   2    1.85    2.84
  13 -11  -2    1.14    3.12
  13 -11  -3   52.10    6.10
  13 -11   3   44.36    5.56
  13 -11  -4  225.21   11.73
  13 -11   4  220.11   11.59
  13 -11   5    6.66    3.49
  13 -11  -5   10.93    3.58
  13 -11   6   20.12    4.55
  13 -11  -6   18.41    4.14
  13  11   6   23.01    4.87
  13 -11  -7   -4.29    3.25
  13 -11   7    5.25    3.16
  13  11   7    2.46    3.33
  13 -11   8    6.65    3.33
  13  11   8    7.50    3.83
  13 -11   9   14.87    4.60
  13 -12   0    3.42    3.31
  13 -12  -1    3.44    3.18
  13 -12   1    1.56    3.45
  13 -12   2    2.68    3.36
  13 -12  -2    6.94    3.44
  13 -12  -3    2.86    3.22
  13 -12   3   -0.06    2.90
  13 -12  -4  102.61    8.21
  13 -12   4  105.28    8.23
  13 -12  -5    6.74    3.72
  13 -12   5   10.85    4.03
  13 -12  -6   -0.63    3.11
  13 -12   6    2.61    3.67
  13 -13   0    4.28    3.65
  13 -13  -1    7.98    3.91
  13 -13   1    5.97    3.52
  13 -13   2    1.13    3.38
  14   0   0   22.53    2.94
  14   0   0   20.09    3.10
  14   0   1    0.26    1.67
  14   0   1    1.54    2.07
  14   0  -1   -0.74    1.88
  14   0   2  100.04    5.16
  14   0   2   94.63    5.74
  14   0   3   -0.35    1.90
  14   0   3    2.81    2.23
  14   0   4    7.44    2.00
 -14   0   4    7.89    2.41
  14   0   4    7.28    2.76
  14   0   5   -0.66    1.84
 -14   0   5   -0.20    2.09
  14   0   5    0.13    2.18
  14   0   6  138.41    6.27
 -14   0   6  127.41    6.78
  14   0   6  129.62    7.21
  14   0   7   -1.79    2.33
  14   0   7   -1.32    2.62
  14   0   8   27.38    3.44
  14   0   8   30.95    4.44
  14   0   9   -1.06    2.10
  14   0   9    1.78    2.59
  14   0  10   77.46    5.62
  14   0  10   61.95    5.88
  14   0  11   -2.48    2.96
  14   0  12   97.50    7.41
  14   0  13   -1.73    3.08
  14   0  14   35.91    5.33
  14   0  15    2.46    3.17
  14  -1   0  207.15    7.73
  14  -1   0  191.70    7.40
  14   1   1   40.98    3.25
  14  -1  -1   41.62    3.82
  14  -1   1   42.17    3.77
  14  -1  -1   39.45    3.50
  14   1   1   37.40    4.01
  14  -1   1   41.32    3.78
  14  -1   2   35.51    3.54
  14   1   2   32.55    2.97
  14  -1   2   37.21    3.86
  14  -1  -2   35.95    3.43
  14   1   2   34.41    4.08
  14  -1   3   -3.37    2.11
  14   1   3    0.07    1.63
  14   1   3   -3.30    2.36
  14  -1   3   -4.88    2.23
  14   1   4   68.56    4.12
  14  -1   4   73.93    4.89
 -14   1   4   63.95    4.77
 -14  -1   4   62.62    4.37
  14  -1   4   63.96    4.84
  14   1   4   61.31    5.20
  14  -1   5   13.78    2.50
  14   1   5   17.13    2.44
  14   1   5   19.21    3.30
 -14  -1   5   11.70    2.37
  14  -1   5   15.66    3.05
 -14  -1   6   48.57    4.32
  14   1   6   56.91    4.00
  14  -1   6   57.63    4.67
  14   1   6   55.92    5.29
  14  -1   6   58.62    5.10
  14   1   7   34.05    3.28
  14  -1   7   34.01    3.80
  14  -1   7   37.54    4.41
  14   1   7   37.19    4.40
  14  -1   8  278.96    9.79
  14   1   8  291.06    9.01
  14   1   8  270.05   10.97
  14  -1   8  285.69   10.85
  14   1   9   30.37    3.36
  14  -1   9   28.16    3.58
  14  -1   9   23.32    3.66
  14   1   9   28.98    4.41
  14  -1  10   11.11    3.24
  14   1  10    4.00    2.10
  14   1  10    4.61    3.00
  14  -1  10    5.17    2.91
  14  -1  11    7.53    2.88
  14   1  11    5.02    2.45
  14   1  11   -3.33    3.08
  14  -1  11   -4.31    3.01
  14   1  12   26.41    4.43
  14  -1  12   27.28    4.75
  14  -1  13    0.99    2.80
  14   1  13    4.23    3.49
  14  -1  14   28.73    4.89
  14   1  14   28.67    4.97
  14  -1  15    8.70    3.87
  14  -2   0   62.09    4.78
  14  -2   0   59.31    4.29
  14  -2  -1   16.80    2.80
  14  -2   1   12.54    2.62
  14  -2  -1   13.99    2.41
  14   2   1   15.66    2.93
  14  -2   1   18.07    2.63
  14  -2  -2  110.26    6.12
  14  -2   2  104.95    5.85
  14   2   2  104.16    4.37
  14   2   2  107.18    6.56
  14  -2   2  108.24    5.76
  14  -2  -2  104.92    5.14
  14   2   3   20.03    2.17
  14  -2   3   21.66    3.09
  14   2   3   23.69    3.57
  14  -2  -3   23.28    2.64
  14  -2   3   19.24    2.90
  14  -2   4    1.58    1.95
  14   2   4    2.13    1.45
 -14  -2   4    6.19    2.00
  14   2   4    7.45    2.82
  14  -2   4    6.76    2.36
  14   2   5   23.05    2.42
  14  -2   5   17.19    2.98
  14   2   5   20.29    3.43
 -14  -2   5   23.28    2.88
  14  -2   5   20.12    3.07
 -14  -2   6  107.88    5.89
  14   2   6  122.25    5.08
  14  -2   6  120.87    6.63
  14   2   6  119.22    7.30
  14  -2   6  121.35    6.75
  14   2   7   43.67    3.26
  14  -2   7   36.98    3.87
  14  -2   7   42.37    4.29
  14   2   7   41.45    4.53
  14  -2   8  106.03    6.75
  14   2   8  105.37    5.40
  14  -2   8  101.52    6.73
  14   2   8  110.04    7.45
  14   2   9    3.29    2.07
  14  -2   9    3.96    2.51
  14   2   9    6.23    2.96
  14  -2   9    0.67    2.52
  14  -2  10  119.57    7.31
  14  -2  10  103.09    7.08
  14   2  10  119.34    8.12
  14  -2  11   10.06    3.17
  14  -2  11    5.70    2.98
  14   2  11    5.19    3.13
  14   2  12   42.89    5.46
  14  -2  12   42.51    5.35
  14   2  13    3.11    2.91
  14  -2  13    6.85    3.05
  14  -2  14   14.53    3.73
  14   2  14   23.22    4.56
  14  -2  15   -1.68    3.16
  14  -3   0  115.23    6.41
  14  -3   0  114.05    5.25
  14  -3  -1  141.14    7.09
  14  -3   1  138.19    6.91
  14  -3   1  138.69    5.94
  14  -3  -1  134.92    5.51
  14  -3   2   53.91    4.33
  14  -3  -2   56.41    4.67
  14   3   2   66.25    5.31
  14  -3  -2   63.44    3.84
  14  -3   2   63.49    4.32
  14  -3   3    5.41    2.46
  14  -3  -3    3.77    2.20
  14  -3  -3    3.80    1.56
  14   3   3    9.09    2.73
  14  -3   3    5.21    2.06
  14  -3   4    3.59    2.36
  14   3   4    1.33    1.35
  14  -3  -4    2.89    1.57
  14   3   4    2.80    2.43
  14  -3   4    2.06    1.86
  14   3   5  105.46    3.94
  14  -3   5  105.47    6.51
  14  -3  -5  103.28    4.39
  14   3   5  109.34    7.12
  14  -3   5   98.72    5.92
  14   3   6   22.86    2.19
  14  -3   6   24.88    3.55
  14   3   6   29.24    4.20
  14  -3   6   21.85    3.29
  14  -3   7  122.47    7.14
  14   3   7  134.78    8.11
  14  -3   7  127.52    7.06
  14  -3   8   70.76    5.47
  14  -3   8   61.68    5.21
  14   3   8   61.16    5.82
  14  -3   9  120.55    7.33
  14  -3   9  117.74    7.12
  14   3   9  124.86    8.05
  14  -3  10   55.84    5.32
  14   3  10   51.64    5.49
  14  -3  10   52.66    5.14
  14  -3  11   44.18    5.17
  14  -3  11   34.19    4.71
  14   3  11   37.35    5.14
  14  -3  12   11.44    3.40
  14   3  12   10.57    3.70
  14  -3  13    8.38    3.14
  14   3  13   16.76    4.61
  14  -3  14   -2.76    3.30
  14   3  14    2.92    3.33
  14  -3  15   55.81    6.20
  14  -4   0  172.45    8.16
  14  -4   0  159.17    5.89
  14  -4   1   16.36    2.90
  14  -4  -1   17.93    3.14
  14  -4   1   16.46    2.28
  14  -4  -1   19.59    2.32
  14  -4   2  110.35    6.70
  14  -4  -2  118.38    7.10
  14  -4   2  112.26    5.35
  14  -4  -2  111.79    4.56
  14  -4   3   31.91    3.91
  14  -4  -3   33.20    4.17
  14   4   3   33.74    4.31
  14  -4  -3   26.88    2.29
  14  -4   3   25.49    3.03
  14  -4  -4   36.25    4.29
  14  -4   4   37.84    4.22
  14   4   4   40.98    4.78
  14  -4  -4   33.32    2.45
  14  -4   4   33.82    3.54
  14  -4   5   39.48    4.30
  14   4   5   40.20    4.68
  14  -4   5   39.03    3.80
  14  -4   6  101.35    6.91
  14  -4   6   94.76    5.91
  14   4   6  109.71    7.56
  14  -4   7   26.05    3.62
  14   4   7   41.82    4.85
  14  -4   7   36.71    3.93
  14  -4   8  195.34    9.30
  14  -4   8  187.86    8.51
  14   4   8  207.34   10.27
  14  -4   9   10.43    3.08
  14   4   9   11.00    3.69
  14  -4   9    7.09    2.56
  14  -4  10   55.62    5.67
  14  -4  10   43.86    4.86
  14   4  10   46.07    5.54
  14  -4  11    4.67    2.95
  14  -4  11   -0.34    2.91
  14   4  11    1.88    3.21
  14  -4  12    3.18    2.75
  14   4  12    9.62    4.01
  14  -4  13   17.66    3.80
  14   4  13   22.35    4.88
  14  -4  14    2.72    3.02
  14  -4  15    3.97    3.40
  14  -5   0   14.16    3.01
  14  -5   0   18.77    2.28
  14  -5   1   64.67    5.30
  14  -5  -1   67.66    5.52
  14  -5   1   61.47    3.76
  14  -5  -1   59.22    3.30
  14  -5  -2  100.08    6.60
  14  -5   2   90.87    6.18
  14  -5   2   91.52    4.68
  14  -5  -2   81.49    3.60
  14  -5  -3   27.87    3.85
  14  -5   3   31.36    4.17
  14  -5   3   26.91    3.00
  14  -5   4   -0.77    2.46
  14  -5  -4    6.09    2.77
  14   5   4   -1.94    2.61
  14  -5   4    5.58    2.00
  14  -5   5    3.45    2.44
  14   5   5    6.18    2.84
  14  -5   5    1.85    1.98
  14  -5   6  113.69    7.26
  14  -5   6  111.08    6.03
  14   5   6  123.87    7.95
  14  -5   7   95.91    6.93
  14  -5   7  102.16    6.10
  14   5   7  111.54    7.78
  14  -5   8   50.23    5.38
  14  -5   8   48.59    4.69
  14   5   8   65.04    6.43
  14  -5   9    5.68    3.04
  14  -5   9    4.81    2.42
  14   5   9    7.78    3.46
  14  -5  10   76.10    6.66
  14  -5  10   63.36    5.52
  14   5  10   78.96    6.95
  14  -5  11    1.57    2.74
  14  -5  11   -0.76    2.58
  14   5  11   -0.86    2.91
  14  -5  12    9.97    3.67
  14  -5  12    1.66    2.72
  14   5  12    7.13    3.87
  14  -5  13   11.68    3.69
  14   5  13   26.20    5.12
  14  -5  14   51.84    6.05
  14  -5  15   -4.08    3.36
  14  -6   0  170.18    8.52
  14  -6   1   -1.04    1.39
  14  -6   1   -3.21    2.77
  14  -6  -1   -1.30    2.42
  14  -6   2   43.49    3.26
  14  -6  -2   59.63    5.65
  14  -6   2   55.35    5.47
  14  -6   3    3.97    1.77
  14  -6  -3   -1.64    2.59
  14  -6   3    5.14    2.66
  14   6   4    7.08    3.04
  14  -6   4    6.99    2.13
  14  -6   4   10.60    3.19
  14  -6  -4    8.41    2.94
  14   6   5   -0.05    2.62
  14  -6   5   -2.44    2.09
  14  -6   5    2.40    2.48
  14  -6  -5    0.76    2.52
  14  -6   6   25.05    4.55
  14   6   6   34.44    5.09
  14  -6   6   28.20    3.57
  14   6   7    2.21    3.06
  14  -6   7   -2.75    3.14
  14  -6   7   -3.17    2.34
  14  -6   8  212.00   10.36
  14  -6   8  205.59    8.92
  14   6   8  233.02   11.40
  14  -6   9    7.20    3.31
  14   6   9   14.22    3.86
  14  -6   9    5.55    2.55
  14  -6  10   80.84    7.23
  14  -6  10   70.55    6.11
  14   6  10   77.85    7.32
  14  -6  11    7.67    3.74
  14  -6  11   -1.12    2.89
  14   6  11   -3.31    2.98
  14  -6  12    8.70    3.85
  14  -6  12   -0.17    2.68
  14   6  12    1.93    3.17
  14  -6  13   -3.74    3.34
  14  -6  14    9.77    3.79
  14  -6  15    1.89    3.22
  14  -7   0   11.58    3.23
  14  -7   1   19.00    3.53
  14  -7  -1   18.09    3.70
  14  -7   2   55.83    5.54
  14  -7  -2   55.64    5.34
  14  -7   3   14.29    3.56
  14  -7  -3   12.54    3.54
  14  -7   4   15.49    2.54
  14  -7   4   12.45    3.43
  14  -7  -4   14.31    3.40
  14   7   5   18.87    3.98
  14  -7   5   15.29    2.53
  14  -7   5    7.48    2.80
  14  -7  -5   15.03    3.66
  14   7   6  120.29    8.09
  14  -7   6  111.96    7.76
  14  -7   6  104.18    5.86
  14   7   7   32.24    4.86
  14  -7   7   33.13    4.71
  14  -7   7   36.95    4.00
  14   7   8   26.72    4.75
  14  -7   8   23.78    4.50
  14  -7   8   31.50    4.07
  14  -7   9   -0.45    3.02
  14   7   9    7.09    3.70
  14  -7   9    5.35    2.70
  14   7  10   39.51    5.55
  14  -7  10   39.47    5.44
  14  -7  10   31.64    4.22
  14  -7  11    3.89    3.45
  14  -7  11    4.70    2.78
  14   7  11    2.65    3.30
  14  -7  12   17.12    4.50
  14  -7  12    4.39    2.75
  14  -7  13   14.18    4.56
  14  -7  13    0.80    3.41
  14  -7  14   41.76    5.36
  14  -7  15    5.41    3.39
  14  -8   0  230.28   10.67
  14  -8   1    4.08    2.62
  14  -8  -1    1.57    2.62
  14  -8  -2   44.45    5.19
  14  -8   2   50.53    5.73
  14  -8   3   12.30    3.52
  14  -8  -3   19.78    4.12
  14  -8  -4   -0.77    3.00
  14  -8   4    0.02    2.65
  14  -8  -5   10.44    3.54
  14  -8   5   12.13    3.73
  14   8   5    7.96    3.33
  14  -8   6   18.58    4.03
  14  -8  -6   22.67    4.32
  14   8   6   17.34    4.07
  14  -8   7    2.73    2.93
  14   8   7    7.57    3.72
  14  -8   8  109.75    8.29
  14  -8   8   98.72    6.09
  14   8   8  125.42    8.92
  14   8   9    5.15    3.26
  14  -8   9    8.90    3.64
  14  -8   9   -4.10    3.02
  14  -8  10   53.66    6.69
  14   8  10   55.76    6.69
  14  -8  10   38.01    4.49
  14  -8  11    6.23    3.56
  14  -8  11   -5.69    3.05
  14  -8  12    7.92    4.02
  14  -8  12   -1.66    2.89
  14  -8  13    0.31    3.21
  14  -8  14   16.19    4.37
  14  -8  15    8.48    4.03
  14  -9   0   17.11    3.91
  14  -9   1   61.94    5.90
  14  -9  -1   67.35    6.33
  14  -9  -2   10.47    3.36
  14  -9   2   15.93    3.82
  14  -9  -3   17.74    3.99
  14  -9   3   15.56    3.78
  14  -9  -4   13.04    3.56
  14  -9   4    3.32    2.89
  14  -9   5   59.10    6.13
  14  -9  -5   58.40    6.27
  14   9   5   53.23    5.85
  14  -9   6   15.04    4.16
  14  -9  -6   12.61    3.91
  14   9   6   10.38    3.52
  14   9   7  107.78    8.37
  14  -9   7  105.67    8.18
  14  -9   8   12.41    3.72
  14   9   8   22.30    4.71
  14   9   9   27.00    5.05
  14  -9   9   22.40    4.89
  14  -9  10    2.83    3.40
  14  -9  11   16.01    4.71
  14 -10   0   38.97    5.30
  14 -10   1    3.82    2.93
  14 -10  -1   -0.70    2.76
  14 -10   2   71.16    6.76
  14 -10  -2   72.57    6.80
  14 -10  -3    7.04    3.38
  14 -10   3    1.60    2.82
  14 -10  -4    3.63    3.08
  14 -10   4    6.92    3.45
  14 -10   5    1.80    3.10
  14 -10  -5    6.85    3.53
  14 -10  -6   33.81    5.13
  14 -10   6   27.99    4.98
  14  10   6   30.51    5.18
  14 -10   7   16.52    4.17
  14  10   7   16.61    4.37
  14 -10   8   35.25    5.60
  14 -10   9    1.70    3.39
  14 -11   0   71.34    6.69
  14 -11   1    9.34    3.64
  14 -11  -1    3.77    2.86
  14 -11  -2    9.65    3.86
  14 -11   2    8.14    3.74
  14 -11  -3    5.04    3.46
  14 -11   3    6.21    3.45
  14 -11   4   -1.85    3.14
  14 -11  -4    8.93    3.78
  14 -11   5    2.68    3.02
  14 -11  -5    1.62    3.25
  14 -11   6   49.24    6.45
  14 -11  -6   56.37    6.56
  14 -11   7   29.17    5.19
  14 -12   0  106.10    8.59
  14 -12   1    0.60    3.05
  14 -12  -1   -3.03    3.14
  14 -12   2   78.92    7.33
  15   0   0   -0.90    1.84
  15   0   0    0.42    1.97
  15   0   1   -1.19    1.91
  15   0   1   -0.03    2.02
  15   0  -1    1.48    1.98
  15   0   2   38.08    3.46
  15   0   2   38.22    4.16
  15   0   3   -0.23    1.84
  15   0   3    2.47    2.29
  15   0   4    7.76    2.31
  15   0   4    3.53    2.58
  15   0   5   -1.81    1.94
  15   0   5   -2.41    2.35
  15   0   6   46.94    4.07
  15   0   6   39.01    4.29
  15   0   7   -1.37    2.04
  15   0   7    0.20    2.47
  15   0   8   85.83    5.45
  15   0   8   77.04    6.25
  15   0   9   -1.71    2.49
  15   0   9    3.42    2.93
  15   0  10   20.46    3.61
  15   0  10   12.85    3.60
  15   0  11   -9.51    3.75
  15   0  12    7.01    3.32
  15   0  13   -1.62    3.19
  15   0  14   22.71    4.73
  15  -1   0    3.79    2.22
  15  -1   0   -0.03    1.97
  15   1   0    0.98    2.01
  15  -1  -1    4.49    2.11
  15  -1   1    3.08    2.13
  15  -1   1    2.79    1.98
  15  -1  -1   -0.73    2.06
  15   1   1    0.72    2.18
  15   1   2  246.75    7.66
  15  -1   2  250.40    8.69
  15  -1  -2  242.98    8.32
  15  -1   2  231.36    8.85
  15   1   2  231.26    9.45
  15  -1   3   15.01    2.69
  15   1   3   10.39    1.91
  15   1   3   12.53    3.23
  15  -1  -3   11.04    2.30
  15  -1   3   12.05    2.89
  15   1   4    8.03    2.18
  15  -1   4    6.10    2.24
  15   1   4    4.44    2.65
  15  -1   4    3.04    2.26
  15   1   5   12.13    2.20
  15  -1   5   18.25    2.84
  15  -1   5   16.77    3.36
  15   1   5   12.93    3.26
  15   1   6  257.76    8.18
  15  -1   6  250.53    9.01
  15   1   6  253.73   10.51
  15  -1   6  260.70   10.25
  15  -1   7    1.01    2.20
  15   1   7   -0.68    1.90
  15  -1   7   -0.88    2.39
  15   1   7    2.54    2.65
  15  -1   8    7.20    2.67
  15   1   8   12.96    3.47
  15  -1   8    5.83    2.88
  15  -1   9    6.96    2.58
  15  -1   9    4.69    2.91
  15   1   9    5.48    3.00
  15  -1  10  100.63    6.83
  15  -1  10   96.48    7.23
  15   1  10  106.15    7.76
  15  -1  11   50.85    5.10
  15   1  11   45.82    5.58
  15  -1  11   54.21    5.91
  15  -1  12    0.29    2.81
  15   1  12   -3.09    2.84
  15  -1  13   13.45    3.91
  15   1  13    8.99    3.62
  15  -1  14   90.25    7.75
  15  -2   0    1.74    2.06
  15  -2   0    1.23    1.95
  15  -2   1    3.13    2.28
  15  -2  -1   -1.30    2.00
  15  -2  -1    1.58    1.82
  15   2   1    2.85    2.42
  15  -2   1    4.01    1.95
  15  -2   2   18.50    3.15
  15  -2  -2   17.29    3.06
  15  -2  -2   15.56    2.62
  15   2   2   16.60    3.05
  15  -2   2   16.85    2.90
  15  -2   3    7.65    2.37
  15   2   3    1.73    1.62
  15   2   3    4.76    2.48
  15  -2  -3    4.17    1.98
  15  -2   3    6.99    2.46
  15   2   4    7.38    1.80
  15  -2   4    6.81    2.35
  15   2   4    1.79    2.45
  15  -2  -4    9.23    2.15
  15  -2   4    6.70    2.36
  15  -2   5    3.04    2.11
  15   2   5    4.15    2.75
  15  -2   5   10.37    2.72
  15  -2   6   25.48    3.50
  15   2   6   19.00    3.80
  15  -2   6   23.12    3.55
  15  -2   7    3.44    2.55
  15  -2   7    1.35    2.26
  15   2   7    1.51    2.49
  15  -2   8    0.75    2.57
  15   2   8   -3.62    2.97
  15  -2   8   -1.00    2.38
  15  -2   9    2.59    2.44
  15   2   9    5.26    3.24
  15  -2   9    5.09    2.77
  15  -2  10   44.29    4.73
  15  -2  10   42.34    5.08
  15   2  10   43.11    5.12
  15  -2  11   40.49    4.80
  15   2  11   39.18    5.49
  15  -2  11   36.50    4.95
  15  -2  12   18.59    4.03
  15   2  12   16.80    4.20
  15  -2  12   19.72    4.42
  15  -2  13    3.29    3.05
  15   2  13    5.03    3.38
  15  -2  13    1.44    2.89
  15  -2  14   34.29    5.04
  15  -3   0   -1.22    2.45
  15  -3   0    0.34    1.60
  15  -3  -1   24.99    3.51
  15  -3   1   25.23    3.55
  15  -3  -1   23.92    2.73
  15  -3   1   21.95    2.90
  15  -3  -2   14.63    3.26
  15  -3   2   10.00    2.50
  15   3   2    8.10    2.93
  15  -3  -2   18.37    2.40
  15  -3   2   14.96    2.80
  15  -3   3   87.07    5.84
  15   3   3   93.54    6.48
  15  -3  -3   96.34    4.72
  15  -3   3   92.99    5.49
  15  -3   4   79.68    5.96
  15   3   4   78.67    6.22
  15  -3   4   76.87    5.30
  15  -3  -4   77.49    4.14
  15  -3   5  115.54    6.79
  15  -3   5  110.01    6.36
  15   3   5  109.69    7.40
  15  -3   6   33.11    4.18
  15   3   6   39.79    5.19
  15  -3   6   33.05    4.02
  15  -3   7   23.61    3.58
  15   3   7   33.09    4.63
  15  -3   7   33.16    4.19
  15  -3   8    3.58    2.59
  15  -3   8    9.12    3.03
  15   3   8    1.37    2.84
  15  -3   9    0.85    2.72
  15  -3   9    7.24    3.23
  15   3   9    2.22    3.17
  15  -3  10   37.16    4.93
  15   3  10   46.59    5.74
  15  -3  10   35.77    4.71
  15  -3  11  104.59    7.47
  15  -3  11  100.91    7.43
  15   3  11  119.78    8.73
  15  -3  12   32.92    5.02
  15  -3  12   23.93    4.41
  15   3  12   36.83    5.43
  15  -3  13   29.86    4.83
  15  -3  13   20.94    4.02
  15  -3  14   43.34    5.89
  15  -4   0    0.37    2.30
  15  -4   0    1.67    1.71
  15  -4   1   28.80    3.93
  15  -4  -1   29.77    3.91
  15  -4   1   24.48    2.75
  15  -4  -1   27.15    2.73
  15  -4   2   33.14    4.00
  15  -4  -2   39.59    4.43
  15   4   2   28.14    4.16
  15  -4   2   35.81    3.40
  15  -4  -3    2.95    2.40
  15  -4   3   -1.65    2.49
  15   4   3    3.48    2.54
  15  -4   3    3.85    1.95
  15   4   4  122.41    7.75
  15  -4   4  110.54    6.76
  15  -4   4  114.64    6.07
  15  -4   5   13.39    3.15
  15   4   5   14.36    3.27
  15  -4   5   13.69    2.80
  15  -4   6   69.32    5.83
  15  -4   6   72.15    5.35
  15   4   6   81.60    6.76
  15  -4   7   -4.97    2.85
  15   4   7   -1.93    2.81
  15  -4   7   -0.87    2.30
  15  -4   8   10.73    3.44
  15   4   8   17.90    3.92
  15  -4   8   11.15    3.06
  15  -4   9    5.70    3.15
  15  -4   9   13.75    3.35
  15   4   9   16.31    3.85
  15  -4  10    1.97    3.06
  15  -4  10   -2.56    2.65
  15   4  10   -4.19    3.27
  15  -4  11   12.03    3.83
  15  -4  11    4.21    2.74
  15   4  11    8.96    3.52
  15  -4  12   13.31    3.66
  15  -4  12    4.68    2.92
  15   4  12   19.20    4.66
  15  -4  13    3.97    3.32
  15  -4  13    2.23    2.90
  15  -4  14    6.76    3.68
  15  -5   0   -1.80    2.41
  15  -5   1   13.19    3.36
  15  -5  -1   17.41    3.51
  15  -5   1   12.45    2.23
  15  -5  -2    4.24    2.47
  15  -5   2    7.68    2.76
  15  -5   2    7.35    2.05
  15  -5   3   15.20    3.34
  15  -5  -3   16.83    3.41
  15   5   3   17.79    3.79
  15  -5   3   13.09    2.56
  15   5   4  323.75   12.61
  15  -5   4  313.31   11.76
  15  -5  -4  311.01   11.91
  15  -5   4  291.18    9.28
  15  -5   5   22.41    3.75
  15   5   5   28.26    4.42
  15  -5   5   23.38    3.25
  15  -5   6   12.59    3.43
  15   5   6   12.20    3.73
  15  -5   6   12.95    2.89
  15   5   7    4.61    3.37
  15  -5   7   -1.75    2.39
  15  -5   7    8.13    3.17
  15   5   8   18.55    4.21
  15  -5   8   19.03    4.04
  15  -5   8   15.64    3.21
  15  -5   9   14.96    3.84
  15  -5   9   15.69    3.38
  15   5   9   14.16    3.87
  15  -5  10    9.11    3.57
  15  -5  10    3.12    3.01
  15   5  10   11.12    5.02
  15  -5  11   49.83    5.91
  15  -5  11   46.87    5.36
  15   5  11   54.80    6.36
  15  -5  12  159.49   10.04
  15  -5  12  151.35    9.30
  15  -5  13    4.97    3.89
  15  -5  13    5.69    2.97
  15  -5  14   15.42    4.29
  15  -5  14    9.66    3.86
  15  -6   0    2.13    2.64
  15  -6  -1   -2.00    2.68
  15  -6   1   -0.40    2.44
  15  -6   2   37.41    4.67
  15  -6  -2   39.63    4.84
  15  -6  -3   -4.36    3.19
  15  -6   3    0.13    2.71
  15   6   4   90.93    7.15
  15  -6   4   81.81    6.38
  15  -6  -4   83.58    6.44
  15   6   5    3.82    2.90
  15  -6   5    6.59    2.35
  15  -6   5    2.44    2.67
  15   6   6   19.41    4.04
  15  -6   6   15.38    2.98
  15  -6   6   15.42    3.74
  15   6   7   11.32    3.68
  15  -6   7   10.98    3.14
  15  -6   7    8.01    3.18
  15   6   8    3.17    3.51
  15  -6   8   -2.21    3.12
  15  -6   8    2.98    2.37
  15   6   9   -0.68    3.04
  15  -6   9    3.65    3.16
  15  -6   9    4.48    2.73
  15  -6  10    3.84    3.54
  15  -6  10    2.24    2.64
  15   6  10    4.58    3.43
  15  -6  11   -0.19    3.38
  15  -6  11   -0.18    2.92
  15  -6  12   75.89    7.22
  15  -6  12   63.30    6.10
  15  -6  13    8.41    4.10
  15  -6  13   -4.63    3.57
  15  -6  14   21.60    5.14
  15  -6  14   10.81    3.78
  15  -7   0   -3.93    2.97
  15  -7  -1    0.49    2.55
  15  -7   1    2.19    2.53
  15  -7   2    3.02    2.78
  15  -7  -2    1.99    2.76
  15  -7  -3   18.33    3.85
  15  -7   3   18.61    3.85
  15   7   4  451.52   15.55
  15  -7   4  416.56   14.31
  15  -7  -4  448.06   15.05
  15   7   5    6.02    3.21
  15  -7  -5    0.59    2.83
  15  -7   5    5.82    2.92
  15   7   6    3.57    2.90
  15  -7   6    5.49    3.49
  15   7   7    4.25    2.98
  15  -7   7   -5.32    3.43
  15  -7   8    0.50    3.12
  15   7   8   10.77    4.03
  15  -7   9    3.39    3.08
  15   7   9   14.40    4.29
  15  -7  10    2.56    3.41
  15  -7  10    4.35    2.81
  15  -7  11   12.34    3.96
  15  -7  11    4.50    2.96
  15  -7  12  156.67   10.54
  15  -7  12  134.66    8.73
  15  -7  13   -0.65    3.12
  15  -7  14   11.21    4.17
  15  -8   0    1.86    2.69
  15  -8   1    0.69    2.68
  15  -8  -1    6.00    3.17
  15  -8  -2   26.50    4.35
  15  -8   2   23.99    4.31
  15  -8   3    7.74    3.55
  15  -8  -3    5.88    2.83
  15  -8  -4   78.03    6.67
  15  -8   4   69.76    6.52
  15  -8  -5    5.66    3.04
  15  -8   5    4.55    3.11
  15   8   5    7.94    3.64
  15  -8   6   21.79    4.27
  15   8   6   22.16    4.32
  15  -8   7   -0.75    3.20
  15   8   7    0.58    3.09
  15   8   8    2.73    3.29
  15  -8   8    3.34    3.35
  15  -8   9    9.87    3.88
  15  -8  10    1.79    3.43
  15  -8  11    2.68    3.51
  15  -9   0   -1.35    2.77
  15  -9   1    2.69    2.94
  15  -9  -1    7.55    3.64
  15  -9  -2   26.98    4.73
  15  -9   2   25.14    4.73
  15  -9   3  106.02    8.03
  15  -9  -3   95.85    7.74
  15  -9  -4   88.85    7.74
  15  -9   4   86.79    7.57
  15  -9   5   46.58    5.70
  15  -9  -5   54.76    6.11
  15   9   5   61.90    6.59
  15  -9  -6   16.18    4.01
  15  -9   6   13.41    3.86
  15   9   6   15.55    3.99
  15  -9   7   -1.18    3.10
  15  -9   8    5.04    3.84
  15  -9   9   21.16    4.78
  15 -10   0   -2.02    2.93
  15 -10   1   10.01    3.50
  15 -10  -1    7.94    3.38
  15 -10  -2   17.85    4.09
  15 -10   2   15.68    4.05
  15 -10   3   13.96    4.10
  15 -10  -3   15.70    4.05
  15 -10  -4   19.05    4.34
  15 -10   4   17.70    4.30
  15 -10  -5    2.67    2.94
  15 -10   5    8.26    3.43
  15 -10   6    8.75    3.88
  15 -10   7    4.23    3.66
  15 -11   0    3.76    3.51
  15 -11   1    1.87    3.33
  15 -11  -1    5.56    3.57
  15 -11   2   62.64    6.91
  15 -11   3   26.47    5.17
  16   0   0    4.44    2.30
  16   0   1   -0.35    1.89
  16   0   1   -1.72    2.27
  16   0  -1    0.59    2.21
  16   0   2   89.03    5.46
  16   0  -2   84.16    5.71
  16   0   2   86.49    6.11
  16   0   3   -4.81    2.23
  16   0   3   -3.16    2.59
  16   0   4    1.64    2.07
  16   0   4    3.95    2.69
  16   0   5   -3.29    2.52
  16   0   6  127.94    8.02
  16   0   7    6.72    3.16
  16   0   8   12.32    3.62
  16   0   9   -0.47    3.06
  16   0  10   73.61    6.97
  16   0  11   -2.51    3.19
  16   0  12    2.44    3.06
  16  -1   0    1.05    2.10
  16  -1   0    0.75    2.20
  16   1   0    0.47    2.22
  16  -1   1   31.61    3.61
  16  -1   1   29.55    3.71
  16  -1  -1   30.18    3.49
  16   1   1   30.06    3.79
  16   1  -1   36.54    4.29
  16  -1   2  142.49    6.80
  16   1   2  132.67    7.38
  16  -1   2  137.39    7.05
  16  -1  -2  149.03    6.88
  16  -1   3    2.72    2.22
  16   1   3    1.72    2.42
  16  -1  -3    2.75    2.00
  16  -1   3   -2.78    2.53
  16  -1   4   -0.27    1.99
  16   1   4   -3.40    2.83
  16  -1  -4    2.36    1.82
  16  -1   4    0.47    2.33
  16  -1   5   28.23    3.43
  16   1   5   23.58    3.82
  16  -1   5   27.75    4.04
  16  -1   6  137.20    7.01
  16   1   6  120.27    7.59
  16  -1   6  125.42    7.38
  16  -1   7    9.93    2.71
  16   1   7   14.91    3.52
  16  -1   7    8.20    3.15
  16  -1   8    2.41    2.95
  16   1   8    5.13    3.05
  16   1   9   19.44    3.98
  16  -1   9   25.14    4.33
  16  -1  10  168.16    9.38
  16   1  10  181.04   10.13
  16   1  11   -4.96    3.20
  16  -1  11    4.83    3.30
  16  -1  12    7.62    3.50
  16   1  12   12.28    3.81
  16  -1  13    9.18    3.81
  16  -2   0    8.11    2.60
  16   2   0    4.92    2.49
  16  -2   0    8.45    2.39
  16  -2   1   27.45    3.86
  16  -2  -1   23.55    3.56
  16  -2  -1   23.03    3.09
  16   2   1   20.65    3.60
  16  -2   1   24.06    3.27
  16  -2   2   74.51    5.47
  16  -2   2   65.93    5.00
  16  -2  -2   64.00    4.48
  16   2   2   65.36    5.84
  16  -2   3    0.99    2.09
  16  -2  -3   -0.31    1.70
  16   2   3    1.31    2.66
  16  -2   3    0.91    2.27
  16  -2   4    1.12    2.13
  16   2   4    1.49    2.62
  16  -2   4    0.84    2.19
  16  -2   5    6.54    2.63
  16   2   5    4.28    2.90
  16  -2   5    5.93    2.68
  16  -2   6   51.21    4.95
  16   2   6   46.63    5.41
  16  -2   6   49.80    5.06
  16  -2   7    6.01    2.62
  16   2   7    9.12    3.24
  16  -2   7    4.71    2.62
  16  -2   8   21.95    3.83
  16   2   8   16.83    4.13
  16  -2   8   20.12    3.84
  16  -2   9   30.06    4.35
  16   2   9   32.41    4.97
  16  -2   9   36.13    4.88
  16  -2  10   67.01    6.38
  16   2  10   73.67    6.91
  16   2  11   -1.61    2.91
  16  -2  11    2.09    2.95
  16  -2  12   20.80    4.58
  16  -2  13   13.91    4.27
  16  -3   0  120.87    7.01
  16  -3   0  122.35    5.99
  16  -3  -1  101.58    6.48
  16  -3   1  110.51    6.66
  16   3   1  106.68    6.98
  16  -3   1  115.81    5.98
  16  -3  -2   54.76    5.01
  16  -3   2   58.44    5.13
  16   3   2   59.01    5.54
  16  -3   2   65.08    4.77
  16  -3   3    7.40    2.75
  16   3   3    6.28    3.04
  16  -3   3    7.74    2.46
  16  -3   4   -1.92    2.44
  16   3   4   -1.50    2.89
  16  -3   4    2.43    2.27
  16  -3   5   28.74    4.09
  16   3   5   30.77    4.65
  16  -3   5   35.52    4.10
  16  -3   6   17.66    3.39
  16   3   6   21.13    3.98
  16  -3   6   19.54    3.34
  16  -3   7   95.74    6.61
  16  -3   7  100.25    6.72
  16   3   7  104.29    7.63
  16  -3   8   68.12    6.01
  16  -3   8   70.69    5.94
  16   3   8   73.36    6.61
  16  -3   9   20.87    4.05
  16  -3   9   20.79    3.97
  16   3   9   24.59    4.52
  16  -3  10   43.85    5.22
  16  -3  10   52.02    5.60
  16   3  10   64.67    6.63
  16  -3  11   20.18    4.42
  16  -3  11   20.14    4.31
  16   3  11   27.27    4.92
  16  -3  12   -0.80    3.23
  16  -3  13   52.42    6.06
  16  -4   0   32.34    4.50
  16  -4  -1   36.85    4.65
  16  -4   1   38.92    4.69
  16  -4  -2   12.54    3.21
  16  -4   2    7.50    2.80
  16   4   2    4.35    2.77
  16  -4   3   -0.83    2.36
  16  -4  -3    0.69    2.42
  16   4   3    0.88    2.59
  16  -4   3   -0.98    1.85
  16  -4   4   -1.67    2.60
  16   4   4    4.47    3.11
  16  -4   4    0.49    1.94
  16  -4   5    3.99    2.51
  16   4   5   -1.98    2.94
  16  -4   5    3.96    2.40
  16  -4   6   14.57    3.43
  16   4   6   17.26    3.82
  16  -4   6   18.86    3.37
  16  -4   7   17.31    3.73
  16   4   7   20.80    4.18
  16  -4   7   16.80    3.51
  16  -4   8   56.60    6.15
  16  -4   8   47.81    5.23
  16   4   8   58.88    6.28
  16  -4   9    6.51    3.19
  16   4   9   11.41    3.78
  16  -4   9    8.37    3.30
  16  -4  10   14.99    4.05
  16  -4  10   16.64    3.87
  16   4  10   23.41    4.70
  16  -4  11    3.04    3.58
  16  -4  11   -4.01    3.12
  16  -4  12   13.53    4.24
  16  -4  12   22.88    4.49
  16  -4  13   12.25    4.43
  16  -4  13    9.09    3.95
  16  -5   0  316.77   11.89
  16  -5   1   10.38    3.03
  16  -5  -1   10.40    3.26
  16   5   2    2.67    2.77
  16  -5   2   -0.46    2.49
  16  -5  -2   -1.55    3.05
  16   5   3   27.68    4.67
  16  -5   3   27.90    4.19
  16  -5  -3   25.41    4.50
  16   5   4   -2.96    2.96
  16  -5   4   -2.02    2.74
  16   5   5   16.95    3.79
  16  -5   5   21.02    4.06
  16   5   6   15.41    4.08
  16  -5   6   11.72    3.49
  16   5   7   13.06    3.60
  16  -5   7   11.74    3.25
  16  -5   7    7.94    2.51
  16  -5   8  162.42    9.31
  16  -5   8  171.71    8.73
  16   5   8  193.39   10.78
  16  -5   9    2.61    3.20
  16  -5   9   14.30    3.59
  16   5   9    4.60    3.07
  16  -5  10    1.84    3.16
  16  -5  10    0.91    2.78
  16  -5  11    7.60    3.35
  16  -5  11    2.83    2.91
  16  -5  12    0.90    3.20
  16  -5  12    1.07    3.07
  16  -5  13   10.23    4.05
  16  -5  13   11.34    3.76
  16  -6   0   62.12    6.44
  16  -6   1    2.09    3.10
  16  -6  -1   -0.35    2.81
  16  -6  -2    4.56    3.01
  16  -6   2   -2.56    3.12
  16  -6   3    5.31    2.93
  16  -6  -3    3.42    2.79
  16   6   3   -5.47    3.12
  16  -6  -4   -5.67    2.99
  16  -6   4    6.15    2.89
  16   6   4   -3.77    2.76
  16  -6   5    6.32    3.06
  16   6   5   -0.57    3.00
  16  -6   6    2.12    2.66
  16   6   6    4.43    3.45
  16  -6   7    0.88    3.15
  16   6   7    8.00    3.62
  16  -6   8   75.94    7.31
  16   6   8   73.75    7.56
  16  -6   9   -3.92    3.82
  16  -6  10   -2.47    3.28
  16  -6  11   -3.94    3.49
  16  -6  12    2.96    3.42
  16  -7   0  309.97   12.68
  16  -7  -1   32.72    4.90
  16  -7   1   33.03    4.57
  16  -7   2   -0.49    2.94
  16  -7  -2    3.39    2.96
  16  -7  -3    3.02    2.93
  16  -7   3    0.44    2.90
  16   7   3    5.11    3.40
  16  -7   4    5.48    3.41
  16  -7  -4    1.14    2.76
  16   7   4    2.44    3.34
  16  -7   5   17.25    4.04
  16   7   5   18.69    4.49
  16  -7   6   -4.07    3.25
  16   7   6    2.36    3.32
  16  -7   7   15.38    4.19
  16   7   7   22.26    4.95
  16  -7   8  203.00   11.03
  16  -7   9    2.34    3.18
  16  -7  10   -1.27    3.68
  16  -7  11    0.99    3.34
  16  -8   0  104.22    8.14
  16  -8  -1    8.40    3.41
  16  -8   1    9.72    3.51
  16  -8   2   -6.95    3.53
  16  -8  -2    5.39    3.14
  16  -8  -3    1.67    3.00
  16  -8   3    3.03    2.86
  16  -8  -4    7.15    3.65
  16  -8   4   12.73    3.93
  16   8   4    5.74    3.73
  16  -8   5    8.92    3.80
  16  -8  -5   -1.29    2.99
  16   8   5    7.04    3.71
  16  -8   6    6.53    3.51
  16  -8   7   17.27    4.41
  16  -8   8   56.59    6.85
  16  -8   9   -3.62    3.92
  16  -9   0   23.67    4.48
  16  -9   1   81.41    7.26
  16  -9  -1   75.15    6.86
  16  -9   2    0.91    2.96
  16  -9  -2    4.28    3.30
  16  -9  -3    2.42    3.05
  16  -9   3   -0.12    3.20
  16  -9  -4    3.52    3.79
  16  -9   4    3.87    3.70
  16  -9  -5    5.75    3.25
  16  -9   5    8.38    3.89
  16  -9   6    8.87    3.48
  16  -9   7  101.53    8.29
  16 -10   0   66.93    7.29
  16 -10  -1    3.99    3.31
  16 -10   1    7.00    3.59
  16 -10   2   48.63    6.00
  17   0   0    2.35    2.44
  17   0   1   -5.34    2.73
  17   0  -1    1.82    2.33
  17   0  -2  101.27    6.28
  17   0   2  100.42    6.65
  17   0  -3   -3.59    2.44
  17   0   3   -1.26    2.62
  17   0   4   16.79    3.50
  17   0   5   -2.41    3.07
  17   0   6  103.27    7.30
  17   0   7   -1.61    2.73
  17   0   8   19.57    4.14
  17   0   9    1.80    3.09
  17   0  10   85.39    7.19
  17   0  11    0.84    3.09
  17  -1   0   -1.01    2.51
  17   1   0    3.52    2.52
  17  -1  -1    5.20    2.28
  17   1   1    6.48    2.63
  17   1  -1    1.33    2.29
  17  -1   1    5.29    2.60
  17   1   2   13.15    3.25
  17   1  -2   14.72    3.26
  17  -1   2   11.01    2.93
  17   1   3   13.96    3.32
  17  -1   3   17.49    3.35
  17   1   4  137.67    8.24
  17  -1   4  149.50    8.03
  17   1   5   13.79    3.22
  17  -1   5   10.24    3.23
  17  -1   6   14.54    3.72
  17   1   6   12.83    3.76
  17   1   7    0.40    2.69
  17  -1   7    2.32    2.65
  17  -1   8    5.57    3.07
  17   1   8    9.50    3.60
  17   1   9    2.50    3.43
  17  -1   9    0.51    2.85
  17   1  10    4.94    3.31
  17  -1  10    8.61    3.46
  17   1  11    5.03    3.63
  17  -1  11   -0.11    3.05
  17  -2   0   -2.40    2.52
  17   2   0    0.21    2.49
  17  -2   1    5.18    2.63
  17   2   1    4.35    2.66
  17   2  -1    5.87    2.80
  17  -2   2  112.05    6.85
  17   2   2   99.24    7.11
  17  -2   2  110.09    6.48
  17  -2   3   47.81    4.74
  17   2   3   47.36    5.31
  17  -2   3   50.00    4.74
  17  -2   4   30.87    3.90
  17   2   4   32.59    4.71
  17  -2   4   32.39    4.09
  17  -2   5   15.91    3.17
  17   2   5   23.00    4.32
  17  -2   6   93.08    6.65
  17   2   6   95.07    7.23
  17   2   7   -3.24    2.94
  17  -2   7   -0.84    2.99
  17   2   8   13.86    4.12
  17  -2   8   12.54    3.59
  17  -2   9    7.36    3.18
  17   2   9   12.73    4.19
  17  -2  10   35.49    4.95
  17   2  10   41.94    5.70
  17  -2  11   20.68    4.52
  17  -2  12   27.67    4.83
  17  -3   0   -1.01    2.41
  17   3   0   -2.48    3.02
  17  -3  -1    2.41    2.43
  17  -3   1    1.51    2.60
  17   3   1    3.63    2.55
  17  -3   2    6.93    2.80
  17   3   2    3.45    2.82
  17  -3   3   64.75    5.48
  17   3   3   67.32    6.12
  17  -3   4   16.69    3.38
  17   3   4   17.83    4.15
  17  -3   5    5.71    2.59
  17   3   5   16.34    3.89
  17  -3   5    7.79    2.62
  17  -3   6   11.89    3.58
  17   3   6    9.91    3.47
  17  -3   6    7.31    2.74
  17  -3   7    0.31    2.44
  17   3   7    5.46    3.32
  17  -3   8    7.47    3.36
  17   3   8    8.85    3.75
  17   3   9   39.86    5.56
  17  -3   9   30.49    4.58
  17  -3  10   10.67    3.88
  17  -3  11   16.78    4.12
  17  -3  12   -1.43    3.51
  17  -4   0    0.95    2.46
  17  -4   1    6.12    3.13
  17  -4  -1    9.19    3.10
  17   4   1    0.08    2.72
  17  -4  -2   31.20    4.35
  17  -4   2   21.22    3.83
  17   4   2   22.79    4.25
  17  -4   3   18.89    3.91
  17   4   3   22.43    4.23
  17  -4   4   68.30    5.79
  17   4   4   64.20    6.15
  17  -4   5   13.50    3.49
  17   4   5   25.64    4.69
  17  -4   6   20.30    4.16
  17   4   6   16.67    3.87
  17  -4   7    7.13    3.25
  17   4   7    4.54    3.32
  17  -4   8    6.80    3.32
  17   4   8    8.86    3.49
  17  -4  11   21.88    4.44
  17  -5   0   -0.46    2.79
  17  -5   1   -1.47    2.83
  17  -5  -1    3.25    2.64
  17   5   1   -0.49    3.35
  17  -5  -2   55.60    5.74
  17  -5   2   41.43    4.98
  17   5   2   47.31    5.55
  17  -5   3   14.59    3.51
  17   5   3   21.66    4.11
  17  -5   4    6.09    2.76
  17   5   4   15.85    4.07
  17  -5   5    0.10    2.85
  17   5   5    0.58    3.00
  17  -5   6   34.39    4.99
  17   5   6   41.64    5.84
  17  -5   7    2.98    3.20
  17   5   7    2.22    3.16
  17  -5   8   -2.69    3.38
  17  -5   9   -6.47    3.59
  17  -5  10   25.70    5.09
  17  -6   0   -0.30    2.92
  17  -6   1   -1.27    3.25
  17  -6  -1    4.74    3.17
  17  -6   2   -0.65    2.67
  17  -6  -2   -2.30    2.91
  17  -6  -3    3.45    2.83
  17  -6   3   -0.49    2.85
  17   6   3    2.59    3.16
  17  -6   4  124.98    8.45
  17   6   4  130.66    9.10
  17  -6   5    1.94    2.85
  17   6   5    0.31    3.08
  17  -6   6    7.18    3.59
  17   6   6    5.69    3.43
  17  -6   7   -1.98    3.04
  17  -6   8    5.22    3.36
  17  -6   9    0.55    3.56
  17  -6  10    0.14    3.31
  17  -7   0    3.14    2.86
  17  -7  -1    3.36    3.19
  17  -7   1    1.88    2.82
  17  -7  -2   30.48    5.04
  17  -7   2   33.09    4.90
  17  -7   3   -1.45    3.17
  17  -7  -3    1.61    2.93
  17   7   3    5.62    3.24
  17  -7   4   14.84    4.06
  17  -7  -4   17.63    4.11
  17   7   4   18.33    4.56
  17  -7   5   13.61    4.17
  17  -7   6   26.47    4.98
  17  -7   7    3.42    3.02
  17  -7   8   17.06    4.62
  17  -7   9   -0.91    3.34
  17  -8   0   -0.12    2.95
  17  -8  -1    6.07    3.28
  17  -8   1   -2.16    3.21
  17  -8  -2   16.00    4.40
  17  -8   2    7.93    3.18
  17  -8   3   -3.41    3.27
  17  -8  -3    0.53    2.98
  17  -8  -4  164.45   10.20
  17  -8   4  157.16    9.81
  17  -8   5   17.59    4.60
  17  -8   6   22.28    4.61
  17  -8   7    7.50    4.02
  17  -9   0   -1.86    3.30
  17  -9   1    9.52    3.96
  17  -9   2    3.17    3.21
  18   0   1   -4.27    2.66
  18   0   2    9.39    3.05
  18   0   3   -0.89    2.44
  18   0   4    2.65    2.76
  18   0   5    0.65    2.67
  18   0   6   19.74    4.04
  18   0   7    1.65    2.99
  18   0   8   93.66    7.65
  18   0   9   -0.78    3.05
  18   0  10    6.40    3.68
  18   1   0  260.98   10.66
  18   1   1    9.57    3.05
  18   1  -1    6.39    2.65
  18   1   2    6.65    3.23
  18   1   3    2.58    2.85
  18   1   4   -4.12    2.76
  18  -1   4    2.09    2.59
  18  -1   5   17.95    3.75
  18   1   5   13.13    3.73
  18   1   6    2.65    3.02
  18  -1   6    3.92    2.94
  18  -1   7    6.12    2.97
  18   1   7    6.10    3.30
  18  -1   8  166.76    9.50
  18   1   8  161.24    9.74
  18   1   9   11.53    4.10
  18  -1   9    3.92    3.29
  18  -1  10   20.66    4.51
  18   2   0   19.96    4.14
  18   2   1   33.89    4.81
  18   2  -1   24.59    4.03
  18   2   2    2.85    2.83
  18   2  -2    0.32    2.67
  18   2   3   -4.13    3.33
  18   2   4    1.58    2.82
  18   2   5    7.23    3.54
  18   2   6    4.97    3.15
  18   2   7   90.79    7.62
  18  -2   8   34.37    5.06
  18   2   8   35.74    5.50
  18  -2   9    7.28    3.63
  18  -2  10    2.89    3.25
  18   3   0   89.07    6.88
  18   3   1   40.26    5.08
  18   3  -1   33.42    4.51
  18   3   2   34.39    4.86
  18   3   3   -3.56    3.32
  18   3   4    4.28    3.17
  18   3   5   12.44    3.55
  18   3   6   21.24    4.36
  18   3   7   72.97    6.75
  18  -4   0    5.95    2.88
  18   4   0    6.21    2.97
  18  -4  -1   16.31    3.81
  18  -4   1   17.80    4.01
  18   4   1   24.17    4.42
  18  -4   2    4.37    2.95
  18   4   2    3.92    3.23
  18   4   3   -1.42    3.03
  18   4   4    0.02    2.95
  18   4   5   40.25    5.51
  18   4   6   34.69    5.47
  18  -5   0   14.74    4.02
  18  -5  -1    3.82    2.84
  18  -5   1    3.61    2.81
  18   5   1    1.00    2.96
  18  -5  -2   73.86    6.64
  18  -5   2   68.14    6.30
  18   5   2   64.58    6.54
  18  -5   3    4.90    3.19
  18   5   3   -3.33    3.15
  18  -5   4   -1.99    2.88
  18   5   4    9.65    3.76
  18  -5   5   -0.68    2.83
  18   5   5    1.60    3.14
  18  -6   0   13.70    3.66
  18  -6   1   -1.96    3.14
  18  -6  -1    0.21    3.01
  18   6   1   -0.66    3.00
  18  -6   2   51.65    6.04
  18  -6  -2   42.69    5.74
  18   6   2   50.03    6.24
  18  -6   3   -4.91    3.19
  18  -6   4    7.33    3.50
  18  -6   5   -1.41    3.30
  18  -6   6   41.39    5.77
  18  -6   7   -2.43    3.36
  18  -7   0    2.44    3.23
  18  -7   1   -1.39    3.16
  18  -7  -1    0.83    3.19
  18  -7  -2   46.14    5.87
  18  -7   2   49.87    6.17
  18  -7   3    0.91    3.07
  18  -7  -3   -1.79    3.13
  18  -7   4   -1.49    3.13
  18  -7   5   -1.12    3.12
  18  -7   6   42.77    5.94
  19   1   4   24.45    4.36
  19   1   5   -0.88    3.34
  19   1   6    8.60    3.41
  19   1   7   -0.74    3.17
  19   2   1   -0.39    2.94
  19   2   2   15.23    3.57
  19   2   3   47.67    5.52
  19   2   4  136.30    9.11
  19   2   5   17.84    4.27
  19   2   6   21.83    4.81
  19   3   0   -1.46    2.84
  19   3   1   -4.65    3.49
  19   3  -1    3.84    2.80
  19   3   2    7.87    3.62
  19   3   3    3.44    3.03
  19   3   4    6.17    3.49
  19   3   5   33.79    5.23
  19   4   0   -2.24    3.01
  19   4   1    8.11    3.73
  19   4  -1    9.13    3.49
  19   4   2   48.58    5.95
  19   4   3   14.64    4.24
  19   5   0    1.90    3.36
  19   5   1   -3.31    3.31
  19   5  -1   -5.13    3.52
   0   0   0    0.00    0.00


TITL nqi-32_auto in Pbca
REM Pbca (#61 in standard setting)
CELL 0.71073  14.575673  15.477517  18.422894  90.0000  90.0000  90.0000
ZERR   47.00   0.000705   0.000800   0.000821   0.0000   0.0000   0.0000
LATT  1
SYMM -x+1/2,-y, z+1/2
SYMM -x, y+1/2,-z+1/2
SYMM  x+1/2,-y+1/2,-z
SFAC C H N O Zn Br
UNIT 47.00 47.00 47.00 47.00 47.00 47.00
REM  CrysAlisPro recorded range (K): Min=130.0; max=130.0; aver:130.0
TEMP -143
TREF
HKLF 4
END
_computing_structure_solution     'SHELXT 2018/2 (Sheldrick, 2018)'
;
_shelx_hkl_checksum   63825

