 
data_nai-163_a
 
_audit_creation_method            'SHELXL-2019/3'
_shelx_SHELXL_version_number      '2019/3'
_chemical_name_systematic         ?
_chemical_name_common             ?
_chemical_melting_point           ?
_chemical_formula_moiety          ?
_chemical_formula_sum
 'C H Eu O' 
_chemical_formula_weight          180.98

loop_
 _atom_type_symbol
 _atom_type_description
 _atom_type_scat_dispersion_real
 _atom_type_scat_dispersion_imag
 _atom_type_scat_source
 'C'  'C'   0.0033   0.0016
 'International Tables Vol C Tables 4.2.6.8 and 6.1.1.4'
 'H'  'H'   0.0000   0.0000
 'International Tables Vol C Tables 4.2.6.8 and 6.1.1.4'
 'O'  'O'   0.0106   0.0060
 'International Tables Vol C Tables 4.2.6.8 and 6.1.1.4'
 'Eu'  'Eu'  -0.1578   3.6682
 'International Tables Vol C Tables 4.2.6.8 and 6.1.1.4'
 
_space_group_crystal_system       triclinic
_space_group_IT_number            1
_space_group_name_H-M_alt         'P 1'
_space_group_name_Hall            'P 1'
 
_shelx_space_group_comment
;
The symmetry employed for this shelxl refinement is uniquely defined
by the following loop, which should always be used as a source of
symmetry information in preference to the above space-group names.
They are only intended as comments.
;
 
loop_
 _space_group_symop_operation_xyz
 'x, y, z'
 
_cell_length_a                    6.0217(6)
_cell_length_b                    7.4513(7)
_cell_length_c                    13.1527(13)
_cell_angle_alpha                 102.388(4)
_cell_angle_beta                  101.248(4)
_cell_angle_gamma                 90.933(4)
_cell_volume                      564.30(10)
_cell_formula_units_Z             8
_cell_measurement_temperature     150(2)
_cell_measurement_reflns_used     ?
_cell_measurement_theta_min       ?
_cell_measurement_theta_max       ?
 
_exptl_crystal_description        ?
_exptl_crystal_colour             ?
_exptl_crystal_density_meas       ?
_exptl_crystal_density_method     ?
_exptl_crystal_density_diffrn     4.260          
_exptl_crystal_F_000              624
_exptl_transmission_factor_min    ?
_exptl_transmission_factor_max    ?
_exptl_crystal_size_max           ?
_exptl_crystal_size_mid           ?
_exptl_crystal_size_min           ?
_exptl_absorpt_coefficient_mu     21.896
_shelx_estimated_absorpt_T_min    ?
_shelx_estimated_absorpt_T_max    ?
_exptl_absorpt_correction_type    ?
_exptl_absorpt_correction_T_min   ?
_exptl_absorpt_correction_T_max   ?
_exptl_absorpt_process_details    ?
_exptl_absorpt_special_details    ?
_diffrn_ambient_temperature       150(2)
_diffrn_radiation_wavelength      0.71073
_diffrn_radiation_type            MoK\a
_diffrn_source                    ?
_diffrn_measurement_device_type   ?
_diffrn_measurement_method        ?
_diffrn_detector_area_resol_mean  ?
_diffrn_reflns_number             12833
_diffrn_reflns_av_unetI/netI      0.0622
_diffrn_reflns_av_R_equivalents   0.0407
_diffrn_reflns_limit_h_min        -8
_diffrn_reflns_limit_h_max        8
_diffrn_reflns_limit_k_min        -9
_diffrn_reflns_limit_k_max        9
_diffrn_reflns_limit_l_min        -17
_diffrn_reflns_limit_l_max        17
_diffrn_reflns_theta_min          1.619
_diffrn_reflns_theta_max          28.346
_diffrn_reflns_theta_full         25.242
_diffrn_measured_fraction_theta_max   0.999
_diffrn_measured_fraction_theta_full  1.000
_diffrn_reflns_Laue_measured_fraction_max    0.999
_diffrn_reflns_Laue_measured_fraction_full   1.000
_diffrn_reflns_point_group_measured_fraction_max   0.988
_diffrn_reflns_point_group_measured_fraction_full  0.992
_reflns_number_total              5544
_reflns_number_gt                 5026
_reflns_threshold_expression      'I > 2\s(I)'
_reflns_Friedel_coverage          0.979
_reflns_Friedel_fraction_max      0.978
_reflns_Friedel_fraction_full     0.983
 
_reflns_special_details
;
 Reflections were merged by SHELXL according to the crystal
 class for the calculation of statistics and refinement.
 
 _reflns_Friedel_fraction is defined as the number of unique
 Friedel pairs measured divided by the number that would be
 possible theoretically, ignoring centric projections and
 systematic absences.
;
 
_computing_data_collection        ?
_computing_cell_refinement        ?
_computing_data_reduction         ?
_computing_structure_solution     'SHELXT 2018/2 (Sheldrick, 2018)'
_computing_structure_refinement 'SHELXL-2019/2 (Sheldrick, 2019)'
_computing_molecular_graphics     ?
_computing_publication_material   ?
_refine_special_details           ?
_refine_ls_structure_factor_coef  Fsqd
_refine_ls_matrix_type            full
_refine_ls_weighting_scheme       calc
_refine_ls_weighting_details
'w=1/[\s^2^(Fo^2^)+(0.0153P)^2^] where P=(Fo^2^+2Fc^2^)/3'
_atom_sites_solution_primary      ?
_atom_sites_solution_secondary    ?
_atom_sites_solution_hydrogens    geom
_refine_ls_hydrogen_treatment     mixed
_refine_ls_extinction_method      none
_refine_ls_extinction_coef        .
_refine_ls_abs_structure_details
;
 Flack x determined using 2267 quotients [(I+)-(I-)]/[(I+)+(I-)]
 (Parsons, Flack and Wagner, Acta Cryst. B69 (2013) 249-259).
;
_refine_ls_abs_structure_Flack    -0.011(11)
_chemical_absolute_configuration  ?
_refine_ls_number_reflns          5544
_refine_ls_number_parameters      338
_refine_ls_number_restraints      81
_refine_ls_R_factor_all           0.0355
_refine_ls_R_factor_gt            0.0297
_refine_ls_wR_factor_ref          0.0568
_refine_ls_wR_factor_gt           0.0550
_refine_ls_goodness_of_fit_ref    1.028
_refine_ls_restrained_S_all       1.020
_refine_ls_shift/su_max           0.040
_refine_ls_shift/su_mean          0.000
 
loop_
 _atom_site_label
 _atom_site_type_symbol
 _atom_site_fract_x
 _atom_site_fract_y
 _atom_site_fract_z
 _atom_site_U_iso_or_equiv
 _atom_site_adp_type
 _atom_site_occupancy
 _atom_site_site_symmetry_order  
 _atom_site_calc_flag
 _atom_site_refinement_flags_posn
 _atom_site_refinement_flags_adp
 _atom_site_refinement_flags_occupancy
 _atom_site_disorder_assembly
 _atom_site_disorder_group
Eu1 Eu 0.56379(4) 0.25004(4) 0.47603(3) 0.00639(15) Uani 1 1 d . . . . .
Eu3 Eu -0.46891(5) 0.61871(4) 0.11374(3) 0.00716(15) Uani 1 1 d . . . . .
O1 O 0.4004(11) -0.0707(8) 0.1028(5) 0.0101(14) Uani 1 1 d . . . . .
O2 O 0.7990(10) 0.2135(8) 0.6489(5) 0.0123(13) Uani 1 1 d . U . . .
O3 O 0.8724(10) 0.6527(8) 0.8345(5) 0.0124(13) Uani 1 1 d . U . . .
H3 H 0.734(17) 0.6587(10) 0.858(8) 0.019 Uiso 1 1 calc R U . . .
O4 O 1.1913(10) 0.5699(8) 0.7096(5) 0.0126(13) Uani 1 1 d . . . . .
O5 O -0.2869(10) 0.5762(8) 0.4895(5) 0.0085(13) Uani 1 1 d . . . . .
O6 O 0.3676(11) 0.3532(9) 0.1545(5) 0.0118(13) Uani 1 1 d . U . . .
O7 O 0.5872(10) 0.4520(8) 0.6568(5) 0.0116(13) Uani 1 1 d . U . . .
O8 O -0.2683(11) 0.9568(9) 0.4428(5) 0.0109(14) Uani 1 1 d . . . . .
O9 O 1.4670(10) 0.6500(8) 0.9133(5) 0.0122(13) Uani 1 1 d . U . . .
O10 O -0.1684(10) 0.5401(7) 0.2671(5) 0.0088(12) Uani 1 1 d . . . . .
O11 O 0.2673(10) 0.0507(8) 0.3196(4) 0.0085(12) Uani 1 1 d . U . . .
O12 O -0.2482(11) 0.8479(8) 0.6718(5) 0.0158(14) Uani 1 1 d . . . . .
O13 O 0.2898(10) 0.0863(10) 0.5422(6) 0.0152(15) Uani 1 1 d . . . . .
H13A H 0.204(18) 0.114(13) 0.532(9) 0.023 Uiso 1 1 calc R U . . .
O14 O 0.5701(10) 0.2904(8) 0.3016(5) 0.0108(13) Uani 1 1 d . U . . .
O15 O 1.2994(11) 0.4172(8) 0.9558(5) 0.0135(13) Uani 1 1 d . U . . .
O16 O -0.2096(10) 0.4013(8) 0.0405(5) 0.0144(13) Uani 1 1 d . . . . .
O17 O 0.4857(14) 1.0850(9) 0.9517(6) 0.0253(17) Uani 1 1 d . . . . .
O18 O -0.0476(11) 0.2936(9) 0.4652(6) 0.0127(15) Uani 1 1 d . . . . .
O19 O -0.6597(12) 0.9356(9) 0.7281(6) 0.0235(16) Uani 1 1 d . . . . .
O20 O 0.2602(9) 0.4467(8) 0.4508(5) 0.0106(13) Uani 1 1 d . . . . .
O21 O -0.4637(11) 0.7861(8) 0.2900(5) 0.0138(13) Uani 1 1 d . . . . .
O22 O 0.1405(11) -0.3362(9) 0.1206(6) 0.0134(15) Uani 1 1 d . . . . .
O23 O -0.1621(10) -0.1717(8) 0.1258(5) 0.0129(13) Uani 1 1 d . . . . .
C1 C 0.1832(13) -0.0190(11) 0.1217(7) 0.0073(16) Uani 1 1 d . U . . .
H1 H 0.105537 0.037762 0.063006 0.009 Uiso 1 1 calc R U . . .
C32 C 1.325(2) 0.518(2) 0.8919(11) 0.012(3) Uani 1 1 d . U . . .
C4 C 1.1608(19) 0.4617(14) 0.7828(9) 0.009(2) Uani 1 1 d . U . . .
H4 H 1.186889 0.331443 0.750796 0.011 Uiso 1 1 calc R U . . .
C5 C 0.9177(19) 0.4670(13) 0.8000(9) 0.007(2) Uani 1 1 d . U . . .
H5 H 0.903598 0.399537 0.856711 0.008 Uiso 1 1 calc R U . . .
C6 C -0.2919(14) 0.8207(12) 0.3652(7) 0.0107(18) Uani 1 1 d . . . . .
C8 C 0.0420(14) -0.1898(12) 0.1227(7) 0.0105(17) Uani 1 1 d . . . . .
C10 C -0.1074(19) 0.6831(13) 0.3629(9) 0.008(2) Uani 1 1 d . . . . .
H10 H 0.037034 0.749089 0.360869 0.010 Uiso 1 1 calc R U . . .
C11 C 0.0596(14) 0.4361(11) 0.4594(7) 0.0099(17) Uani 1 1 d . . . . .
C13 C -0.0718(14) 0.6114(11) 0.4647(7) 0.0068(16) Uani 1 1 d . . . . .
H13 H 0.015386 0.709658 0.523816 0.008 Uiso 1 1 calc R U . . .
C14 C 0.2121(19) 0.1242(13) 0.2282(9) 0.006(2) Uani 1 1 d . U . . .
H14 H 0.065646 0.185023 0.229872 0.008 Uiso 1 1 calc R U . . .
C15 C 0.760(2) 0.3708(18) 0.6969(12) 0.009(3) Uani 1 1 d . U . . .
C16 C 0.3925(14) 0.2702(11) 0.2279(7) 0.0084(16) Uani 1 1 d . U . . .
 
loop_
 _atom_site_aniso_label
 _atom_site_aniso_U_11
 _atom_site_aniso_U_22
 _atom_site_aniso_U_33
 _atom_site_aniso_U_23
 _atom_site_aniso_U_13
 _atom_site_aniso_U_12
Eu1 0.0056(3) 0.0065(3) 0.0072(4) 0.0024(3) 0.0007(3) 0.0011(3)
Eu3 0.0056(3) 0.0071(3) 0.0083(4) 0.0018(3) 0.0004(3) -0.0011(3)
O1 0.010(3) 0.009(3) 0.013(4) 0.003(3) 0.004(3) -0.001(2)
O2 0.012(3) 0.012(3) 0.010(3) 0.000(3) -0.002(3) 0.003(2)
O3 0.009(3) 0.012(3) 0.015(3) -0.001(3) 0.006(3) -0.001(2)
O4 0.011(3) 0.018(3) 0.009(3) 0.006(3) 0.000(3) 0.003(3)
O5 0.006(3) 0.009(3) 0.013(3) 0.004(3) 0.006(3) 0.000(2)
O6 0.017(3) 0.009(3) 0.011(3) 0.006(3) 0.002(3) 0.000(3)
O7 0.011(3) 0.013(3) 0.011(3) 0.003(2) 0.002(3) 0.002(2)
O8 0.011(3) 0.007(3) 0.014(4) 0.001(3) 0.003(3) -0.001(2)
O9 0.012(3) 0.011(3) 0.011(3) 0.001(2) -0.002(3) -0.002(2)
O10 0.013(3) 0.002(3) 0.009(3) -0.004(2) 0.001(3) -0.002(2)
O11 0.013(3) 0.007(3) 0.008(3) 0.004(2) 0.005(2) 0.001(2)
O12 0.023(4) 0.007(3) 0.017(4) 0.004(3) 0.002(3) -0.005(3)
O13 0.002(3) 0.024(4) 0.022(4) 0.009(3) 0.003(3) 0.001(3)
O14 0.009(3) 0.016(3) 0.008(3) 0.004(2) 0.001(2) -0.003(2)
O15 0.016(3) 0.012(3) 0.010(3) 0.003(3) -0.003(3) -0.003(3)
O16 0.009(3) 0.017(3) 0.014(3) -0.003(3) 0.001(3) -0.003(3)
O17 0.044(5) 0.019(4) 0.019(4) 0.011(3) 0.013(4) 0.006(3)
O18 0.007(3) 0.008(4) 0.024(4) 0.003(3) 0.004(3) 0.001(3)
O19 0.023(4) 0.020(4) 0.030(4) 0.010(3) 0.007(3) 0.003(3)
O20 0.004(3) 0.010(3) 0.022(4) 0.009(3) 0.006(3) 0.001(2)
O21 0.017(3) 0.014(3) 0.008(3) -0.001(3) -0.002(3) 0.005(3)
O22 0.009(3) 0.009(4) 0.023(4) 0.007(3) 0.000(3) 0.002(3)
O23 0.009(3) 0.007(3) 0.021(4) 0.001(3) 0.002(3) -0.001(2)
C1 0.004(4) 0.007(4) 0.010(4) 0.001(3) 0.000(3) -0.001(3)
C32 0.010(6) 0.020(7) 0.003(6) -0.003(5) -0.001(5) 0.004(5)
C4 0.009(5) 0.005(5) 0.013(5) 0.000(4) 0.004(4) 0.000(4)
C5 0.009(4) 0.003(5) 0.009(5) 0.000(4) 0.003(4) 0.002(4)
C6 0.006(4) 0.014(4) 0.014(5) 0.003(4) 0.004(4) 0.000(3)
C8 0.007(4) 0.015(5) 0.008(4) 0.000(3) 0.001(3) -0.003(3)
C10 0.010(5) 0.004(5) 0.009(5) 0.005(4) -0.005(4) 0.000(4)
C11 0.008(4) 0.009(4) 0.012(4) 0.000(3) 0.003(3) 0.002(3)
C13 0.007(4) 0.007(4) 0.007(4) 0.002(3) 0.002(3) 0.000(3)
C14 0.008(4) 0.007(5) 0.007(4) 0.008(4) 0.001(3) 0.002(4)
C15 0.011(6) 0.002(5) 0.016(7) 0.000(5) 0.008(5) -0.002(4)
C16 0.009(4) 0.007(4) 0.008(4) 0.000(3) 0.001(3) -0.001(3)
 
_geom_special_details
;
 All esds (except the esd in the dihedral angle between two l.s. planes)
 are estimated using the full covariance matrix.  The cell esds are taken
 into account individually in the estimation of esds in distances, angles
 and torsion angles; correlations between esds in cell parameters are only
 used when they are defined by crystal symmetry.  An approximate (isotropic)
 treatment of cell esds is used for estimating esds involving l.s. planes.
;
 
loop_
 _geom_bond_atom_site_label_1
 _geom_bond_atom_site_label_2
 _geom_bond_distance
 _geom_bond_site_symmetry_2
 _geom_bond_publ_flag
Eu1 O20 2.379(6) . ?
Eu1 O14 2.384(6) . ?
Eu1 O18 2.393(6) 1_655 ?
Eu1 O8 2.413(6) 1_645 ?
Eu1 O13 2.432(6) . ?
Eu1 O7 2.503(6) . ?
Eu1 O2 2.504(6) . ?
Eu1 O5 2.535(6) 1_655 ?
Eu1 O11 2.607(6) . ?
Eu1 C15 2.854(15) . ?
Eu1 C16 3.261(8) . ?
Eu3 O23 2.358(6) 1_565 ?
Eu3 O21 2.380(6) . ?
Eu3 O22 2.398(7) 1_465 ?
Eu3 O6 2.402(6) 1_455 ?
Eu3 O15 2.445(6) 1_354 ?
Eu3 O16 2.447(6) . ?
Eu3 O1 2.481(6) 1_465 ?
Eu3 O10 2.608(6) . ?
Eu3 O9 2.650(6) 1_354 ?
Eu3 C32 2.869(14) 1_354 ?
O1 C1 1.423(10) . ?
O2 C15 1.256(14) . ?
O3 C5 1.410(11) . ?
O4 C4 1.417(12) . ?
O5 C13 1.430(10) . ?
O6 C16 1.241(10) . ?
O7 C15 1.291(15) . ?
O8 C6 1.259(11) . ?
O9 C32 1.241(16) . ?
O10 C10 1.445(12) . ?
O11 C14 1.411(11) . ?
O14 C16 1.278(10) . ?
O15 C32 1.269(15) . ?
O18 C11 1.258(10) . ?
O20 C11 1.238(10) . ?
O21 C6 1.264(10) . ?
O22 C8 1.248(10) . ?
O23 C8 1.246(10) . ?
C1 C8 1.522(11) . ?
C1 C14 1.545(13) . ?
C32 C4 1.545(17) . ?
C4 C5 1.524(10) . ?
C5 C15 1.522(17) . ?
C6 C10 1.524(13) . ?
C10 C13 1.523(13) . ?
C11 C13 1.534(11) . ?
C14 C16 1.525(13) . ?
 
loop_
 _geom_angle_atom_site_label_1
 _geom_angle_atom_site_label_2
 _geom_angle_atom_site_label_3
 _geom_angle
 _geom_angle_site_symmetry_1
 _geom_angle_site_symmetry_3
 _geom_angle_publ_flag
O20 Eu1 O14 79.1(2) . . ?
O20 Eu1 O18 129.6(2) . 1_655 ?
O14 Eu1 O18 72.5(2) . 1_655 ?
O20 Eu1 O8 152.7(2) . 1_645 ?
O14 Eu1 O8 92.1(2) . 1_645 ?
O18 Eu1 O8 69.9(2) 1_655 1_645 ?
O20 Eu1 O13 82.2(2) . . ?
O14 Eu1 O13 131.2(2) . . ?
O18 Eu1 O13 146.7(2) 1_655 . ?
O8 Eu1 O13 84.5(2) 1_645 . ?
O20 Eu1 O7 76.2(2) . . ?
O14 Eu1 O7 137.0(2) . . ?
O18 Eu1 O7 97.5(2) 1_655 . ?
O8 Eu1 O7 124.3(2) 1_645 . ?
O13 Eu1 O7 79.3(2) . . ?
O20 Eu1 O2 127.4(2) . . ?
O14 Eu1 O2 145.4(2) . . ?
O18 Eu1 O2 73.1(2) 1_655 . ?
O8 Eu1 O2 72.7(2) 1_645 . ?
O13 Eu1 O2 79.3(2) . . ?
O7 Eu1 O2 52.13(19) . . ?
O20 Eu1 O5 69.14(19) . 1_655 ?
O14 Eu1 O5 71.3(2) . 1_655 ?
O18 Eu1 O5 62.8(2) 1_655 1_655 ?
O8 Eu1 O5 132.5(2) 1_645 1_655 ?
O13 Eu1 O5 139.9(2) . 1_655 ?
O7 Eu1 O5 67.2(2) . 1_655 ?
O2 Eu1 O5 96.0(2) . 1_655 ?
O20 Eu1 O11 76.36(19) . . ?
O14 Eu1 O11 62.88(18) . . ?
O18 Eu1 O11 122.1(2) 1_655 . ?
O8 Eu1 O11 76.7(2) 1_645 . ?
O13 Eu1 O11 69.0(2) . . ?
O7 Eu1 O11 140.35(19) . . ?
O2 Eu1 O11 137.47(18) . . ?
O5 Eu1 O11 126.54(19) 1_655 . ?
O20 Eu1 C15 103.1(3) . . ?
O14 Eu1 C15 145.3(3) . . ?
O18 Eu1 C15 80.5(3) 1_655 . ?
O8 Eu1 C15 98.7(3) 1_645 . ?
O13 Eu1 C15 82.9(3) . . ?
O7 Eu1 C15 26.9(3) . . ?
O2 Eu1 C15 26.1(3) . . ?
O5 Eu1 C15 77.2(3) 1_655 . ?
O11 Eu1 C15 151.8(3) . . ?
O20 Eu1 C16 67.0(2) . . ?
O14 Eu1 C16 19.2(2) . . ?
O18 Eu1 C16 91.5(2) 1_655 . ?
O8 Eu1 C16 96.9(2) 1_645 . ?
O13 Eu1 C16 112.9(2) . . ?
O7 Eu1 C16 138.4(2) . . ?
O2 Eu1 C16 163.6(2) . . ?
O5 Eu1 C16 81.6(2) 1_655 . ?
O11 Eu1 C16 47.09(18) . . ?
C15 Eu1 C16 158.8(3) . . ?
O23 Eu3 O21 83.0(2) 1_565 . ?
O23 Eu3 O22 131.7(2) 1_565 1_465 ?
O21 Eu3 O22 75.0(2) . 1_465 ?
O23 Eu3 O6 152.3(2) 1_565 1_455 ?
O21 Eu3 O6 89.5(2) . 1_455 ?
O22 Eu3 O6 70.8(2) 1_465 1_455 ?
O23 Eu3 O15 129.1(2) 1_565 1_354 ?
O21 Eu3 O15 144.8(2) . 1_354 ?
O22 Eu3 O15 72.2(2) 1_465 1_354 ?
O6 Eu3 O15 68.0(2) 1_455 1_354 ?
O23 Eu3 O16 81.2(2) 1_565 . ?
O21 Eu3 O16 131.7(2) . . ?
O22 Eu3 O16 143.9(2) 1_465 . ?
O6 Eu3 O16 84.1(2) 1_455 . ?
O15 Eu3 O16 74.6(2) 1_354 . ?
O23 Eu3 O1 68.6(2) 1_565 1_465 ?
O21 Eu3 O1 72.4(2) . 1_465 ?
O22 Eu3 O1 63.9(2) 1_465 1_465 ?
O6 Eu3 O1 134.0(2) 1_455 1_465 ?
O15 Eu3 O1 103.5(2) 1_354 1_465 ?
O16 Eu3 O1 139.2(2) . 1_465 ?
O23 Eu3 O10 78.0(2) 1_565 . ?
O21 Eu3 O10 62.27(19) . . ?
O22 Eu3 O10 124.5(2) 1_465 . ?
O6 Eu3 O10 74.9(2) 1_455 . ?
O15 Eu3 O10 130.40(18) 1_354 . ?
O16 Eu3 O10 69.83(19) . . ?
O1 Eu3 O10 126.02(19) 1_465 . ?
O23 Eu3 O9 80.1(2) 1_565 1_354 ?
O21 Eu3 O9 143.15(19) . 1_354 ?
O22 Eu3 O9 92.3(2) 1_465 1_354 ?
O6 Eu3 O9 119.3(2) 1_455 1_354 ?
O15 Eu3 O9 51.42(19) 1_354 1_354 ?
O16 Eu3 O9 77.5(2) . 1_354 ?
O1 Eu3 O9 71.0(2) 1_465 1_354 ?
O10 Eu3 O9 142.89(18) . 1_354 ?
O23 Eu3 C32 105.3(3) 1_565 1_354 ?
O21 Eu3 C32 151.1(3) . 1_354 ?
O22 Eu3 C32 79.2(3) 1_465 1_354 ?
O6 Eu3 C32 94.1(3) 1_455 1_354 ?
O15 Eu3 C32 26.1(3) 1_354 1_354 ?
O16 Eu3 C32 77.2(3) . 1_354 ?
O1 Eu3 C32 84.8(3) 1_465 1_354 ?
O10 Eu3 C32 146.0(3) . 1_354 ?
O9 Eu3 C32 25.6(3) 1_354 1_354 ?
C1 O1 Eu3 121.2(5) . 1_645 ?
C15 O2 Eu1 92.7(8) . . ?
C13 O5 Eu1 120.9(5) . 1_455 ?
C16 O6 Eu3 138.7(6) . 1_655 ?
C15 O7 Eu1 91.9(7) . . ?
C6 O8 Eu1 134.9(6) . 1_465 ?
C32 O9 Eu3 87.1(7) . 1_756 ?
C10 O10 Eu3 116.2(5) . . ?
C14 O11 Eu1 115.3(5) . . ?
C16 O14 Eu1 123.0(5) . . ?
C32 O15 Eu3 95.9(7) . 1_756 ?
C11 O18 Eu1 129.5(5) . 1_455 ?
C11 O20 Eu1 132.8(5) . . ?
C6 O21 Eu3 125.8(5) . . ?
C8 O22 Eu3 127.2(6) . 1_645 ?
C8 O23 Eu3 133.5(6) . 1_545 ?
O1 C1 C8 109.3(6) . . ?
O1 C1 C14 109.4(7) . . ?
C8 C1 C14 111.4(7) . . ?
O9 C32 O15 124.2(12) . . ?
O9 C32 C4 122.1(12) . . ?
O15 C32 C4 113.7(12) . . ?
O9 C32 Eu3 67.3(7) . 1_756 ?
O15 C32 Eu3 58.0(6) . 1_756 ?
C4 C32 Eu3 166.2(10) . 1_756 ?
O4 C4 C5 110.3(9) . . ?
O4 C4 C32 114.4(10) . . ?
C5 C4 C32 108.9(9) . . ?
O3 C5 C15 113.2(9) . . ?
O3 C5 C4 107.9(8) . . ?
C15 C5 C4 108.7(8) . . ?
O8 C6 O21 124.3(8) . . ?
O8 C6 C10 118.6(8) . . ?
O21 C6 C10 117.1(8) . . ?
O23 C8 O22 125.4(8) . . ?
O23 C8 C1 117.4(7) . . ?
O22 C8 C1 117.3(7) . . ?
O10 C10 C13 113.7(7) . . ?
O10 C10 C6 109.1(8) . . ?
C13 C10 C6 109.1(8) . . ?
O20 C11 O18 125.8(8) . . ?
O20 C11 C13 117.9(7) . . ?
O18 C11 C13 116.3(7) . . ?
O5 C13 C10 109.5(7) . . ?
O5 C13 C11 108.9(6) . . ?
C10 C13 C11 113.9(7) . . ?
O11 C14 C16 111.0(8) . . ?
O11 C14 C1 114.7(7) . . ?
C16 C14 C1 107.3(8) . . ?
O2 C15 O7 119.5(12) . . ?
O2 C15 C5 120.2(11) . . ?
O7 C15 C5 120.2(11) . . ?
O2 C15 Eu1 61.2(7) . . ?
O7 C15 Eu1 61.2(6) . . ?
C5 C15 Eu1 161.5(9) . . ?
O6 C16 O14 123.7(8) . . ?
O6 C16 C14 119.6(8) . . ?
O14 C16 C14 116.5(8) . . ?
O6 C16 Eu1 152.3(6) . . ?
O14 C16 Eu1 37.8(4) . . ?
C14 C16 Eu1 84.0(5) . . ?
 
_refine_diff_density_max    0.705
_refine_diff_density_min   -0.739
_refine_diff_density_rms    0.156

_shelx_res_file
;
TITL nai-163_a.res in P1
    nai-163_a.res
    created by SHELXL-2019/3 at 12:10:51 on 12-Oct-2023
REM Old TITL nai-163 in P1
REM SHELXT solution in P1: R1 0.054, Rweak 0.019, Alpha 0.000
REM <I/s>   0.000 for    0 systematic absences,  Orientation as input
REM Flack x =  0.314 ( 0.020 ) from  1997 Parsons' quotients
REM Formula found by SHELXT:  C45 O6 Eu2
CELL  0.71073   6.0217   7.4513  13.1527  102.388  101.248   90.933
ZERR    8.000   0.0006   0.0007   0.0013    0.004    0.004    0.004
LATT -1
SFAC C H O EU
UNIT 8 8 8 8
ACTA
OMIT 2 0 0
OMIT 5 0 8
OMIT 4 1 3
OMIT 5 1 6
OMIT 5 6 3
SIMU 0.02 0.04 2 C14 C1 C16 O6 O14 O11
SIMU 0.02 0.04 2 C15 O2 O7 C5 O3 C4 C32 O15 O9
TEMP -123.150
L.S. 10
BOND
LIST 6
FMAP 2
PLAN 20
WGHT    0.015300
FVAR       0.68803
EU1   4    0.563795    0.250038    0.476030    11.00000    0.00561    0.00650 =
         0.00722    0.00236    0.00070    0.00112
EU3   4   -0.468912    0.618712    0.113737    11.00000    0.00565    0.00710 =
         0.00831    0.00177    0.00043   -0.00106
O1    3    0.400422   -0.070712    0.102776    11.00000    0.00954    0.00861 =
         0.01314    0.00318    0.00397   -0.00133
O2    3    0.798968    0.213486    0.648907    11.00000    0.01189    0.01228 =
         0.00979   -0.00047   -0.00174    0.00344
O3    3    0.872366    0.652737    0.834547    11.00000    0.00865    0.01248 =
         0.01534   -0.00145    0.00573   -0.00083
AFIX 148
H3    2    0.734420    0.658709    0.858162    11.00000   -1.50000
AFIX   0
O4    3    1.191343    0.569923    0.709621    11.00000    0.01143    0.01834 =
         0.00864    0.00629   -0.00005    0.00340
O5    3   -0.286866    0.576176    0.489482    11.00000    0.00627    0.00865 =
         0.01313    0.00416    0.00615    0.00048
O6    3    0.367597    0.353187    0.154528    11.00000    0.01700    0.00900 =
         0.01089    0.00624    0.00185   -0.00035
O7    3    0.587170    0.451967    0.656807    11.00000    0.01081    0.01290 =
         0.01100    0.00255    0.00231    0.00242
O8    3   -0.268302    0.956751    0.442829    11.00000    0.01097    0.00713 =
         0.01413    0.00088    0.00322   -0.00051
O9    3    1.467028    0.650038    0.913306    11.00000    0.01161    0.01130 =
         0.01128    0.00089   -0.00161   -0.00229
O10   3   -0.168362    0.540125    0.267086    11.00000    0.01263    0.00161 =
         0.00934   -0.00358    0.00102   -0.00151
O11   3    0.267291    0.050743    0.319614    11.00000    0.01311    0.00731 =
         0.00766    0.00434    0.00527    0.00121
O12   3   -0.248220    0.847888    0.671843    11.00000    0.02272    0.00710 =
         0.01696    0.00382    0.00172   -0.00454
O13   3    0.289806    0.086319    0.542165    11.00000    0.00182    0.02434 =
         0.02160    0.00947    0.00252    0.00074
AFIX 148
H13A  2    0.203735    0.113872    0.532058    11.00000   -1.50000
AFIX   0
O14   3    0.570100    0.290368    0.301608    11.00000    0.00881    0.01643 =
         0.00755    0.00397    0.00112   -0.00301
O15   3    1.299420    0.417213    0.955806    11.00000    0.01646    0.01245 =
         0.00963    0.00340   -0.00284   -0.00315
O16   3   -0.209581    0.401279    0.040541    11.00000    0.00894    0.01691 =
         0.01385   -0.00320    0.00118   -0.00294
O17   3    0.485706    1.084957    0.951689    11.00000    0.04439    0.01851 =
         0.01881    0.01101    0.01256    0.00633
O18   3   -0.047594    0.293647    0.465203    11.00000    0.00664    0.00844 =
         0.02353    0.00346    0.00423    0.00124
O19   3   -0.659666    0.935636    0.728055    11.00000    0.02294    0.02018 =
         0.03007    0.01017    0.00674    0.00336
O20   3    0.260160    0.446703    0.450752    11.00000    0.00387    0.00962 =
         0.02207    0.00874    0.00562    0.00106
O21   3   -0.463706    0.786053    0.290033    11.00000    0.01694    0.01357 =
         0.00766   -0.00070   -0.00239    0.00456
O22   3    0.140488   -0.336191    0.120640    11.00000    0.00889    0.00921 =
         0.02280    0.00744    0.00028    0.00195
O23   3   -0.162105   -0.171737    0.125844    11.00000    0.00914    0.00718 =
         0.02103    0.00073    0.00236   -0.00115
C1    1    0.183186   -0.019015    0.121733    11.00000    0.00408    0.00710 =
         0.00997    0.00127    0.00035   -0.00066
AFIX  13
H1    2    0.105537    0.037762    0.063006    11.00000   -1.20000
AFIX   0
C32   1    1.324861    0.518076    0.891948    11.00000    0.00994    0.02000 =
         0.00303   -0.00287   -0.00059    0.00429
C4    1    1.160835    0.461734    0.782844    11.00000    0.00944    0.00531 =
         0.01322    0.00028    0.00365    0.00005
AFIX  13
H4    2    1.186889    0.331443    0.750796    11.00000   -1.20000
AFIX   0
C5    1    0.917700    0.466951    0.800000    11.00000    0.00858    0.00262 =
         0.00940    0.00039    0.00292    0.00172
AFIX  13
H5    2    0.903598    0.399537    0.856711    11.00000   -1.20000
AFIX   0
C6    1   -0.291905    0.820714    0.365212    11.00000    0.00572    0.01354 =
         0.01361    0.00337    0.00372   -0.00030
C8    1    0.042005   -0.189767    0.122674    11.00000    0.00680    0.01531 =
         0.00780   -0.00020    0.00090   -0.00326
C10   1   -0.107410    0.683106    0.362930    11.00000    0.00951    0.00426 =
         0.00938    0.00455   -0.00451    0.00025
AFIX  13
H10   2    0.037034    0.749089    0.360869    11.00000   -1.20000
AFIX   0
C11   1    0.059601    0.436096    0.459350    11.00000    0.00849    0.00866 =
         0.01211    0.00036    0.00332    0.00181
C13   1   -0.071775    0.611444    0.464681    11.00000    0.00692    0.00714 =
         0.00694    0.00242    0.00159    0.00044
AFIX  13
H13   2    0.015386    0.709658    0.523816    11.00000   -1.20000
AFIX   0
C14   1    0.212124    0.124243    0.228159    11.00000    0.00802    0.00654 =
         0.00722    0.00764    0.00125    0.00165
AFIX  13
H14   2    0.065646    0.185023    0.229872    11.00000   -1.20000
AFIX   0
C15   1    0.759656    0.370791    0.696870    11.00000    0.01142    0.00203 =
         0.01601    0.00005    0.00770   -0.00211
C16   1    0.392474    0.270179    0.227943    11.00000    0.00905    0.00662 =
         0.00837    0.00048    0.00072   -0.00113
HKLF 4




REM  nai-163_a.res in P1
REM wR2 = 0.0568, GooF = S = 1.028, Restrained GooF = 1.020 for all data
REM R1 = 0.0297 for 5026 Fo > 4sig(Fo) and 0.0355 for all 5544 data
REM 338 parameters refined using 81 restraints

END

WGHT      0.0153      0.0000

REM Highest difference peak  0.705,  deepest hole -0.739,  1-sigma level  0.156
Q1    1  -0.1131  0.8393  0.6804  11.00000  0.05    0.71
Q2    1   0.2179  1.0274  0.8968  11.00000  0.05    0.67
Q3    1   0.3550 -0.0637  0.3113  11.00000  0.05    0.66
Q4    1  -0.2579  0.9350  0.2804  11.00000  0.05    0.64
Q5    1   0.3773  1.1859  0.9526  11.00000  0.05    0.60
Q6    1  -0.3728  0.5151  0.0599  11.00000  0.05    0.60
Q7    1  -0.2916  0.6850  0.6440  11.00000  0.05    0.60
Q8    1   0.7722  1.0657  0.9030  11.00000  0.05    0.59
Q9    1   0.4676  0.9791  0.8842  11.00000  0.05    0.59
Q10   1  -0.7115  0.8793  0.6441  11.00000  0.05    0.59
Q11   1  -0.3761  0.6596  0.0403  11.00000  0.05    0.58
Q12   1   0.4112  1.0621  0.8768  11.00000  0.05    0.58
Q13   1  -0.5230  0.5524  0.1817  11.00000  0.05    0.58
Q14   1  -0.1886 -0.0119 -0.0550  11.00000  0.05    0.57
Q15   1  -0.1742  0.9439  0.6782  11.00000  0.05    0.56
Q16   1   0.6395  0.3496  0.8976  11.00000  0.05    0.56
Q17   1  -0.2542  0.3138 -0.0189  11.00000  0.05    0.56
Q18   1  -0.2027  0.4698  0.2980  11.00000  0.05    0.54
Q19   1   0.5855  0.2408  0.6203  11.00000  0.05    0.54
Q20   1   0.3430  1.1099  0.9437  11.00000  0.05    0.54
;
_shelx_res_checksum   45123

_shelx_hkl_file
;
  -1   0   0 6695.23  229.58
  -1   0   0 6844.52  223.68
  -1   0   0 6763.42  229.18
  -1   0   0 6594.74  228.68
   1   0   0 6690.63  227.08
   1   0   0 6695.53  221.88
   1   0   0 6719.53  228.68
   1   0   0 6624.74  228.78
  -2   0   0 1259.07   63.49
  -2   0   0 1277.67   63.19
  -2   0   0 1156.58   62.49
  -2   0   0 1253.77   54.49
   2   0   0 1121.09   58.39
   2   0   0 1171.58   61.49
   2   0   0 1163.68   51.39
   2   0   0 1197.68   62.49
  -3   0   0 4763.32  174.18
  -3   0   0 4773.52  191.38
  -3   0   0 4577.44  188.48
  -3   0   0 4514.55  190.48
   3   0   0 4549.74  189.78
   3   0   0 4639.14  184.18
   3   0   0 4621.14  191.38
  -4   0   0 3367.96  135.69
  -4   0   0 3293.47  159.08
  -4   0   0 3122.59  161.48
  -4   0   0 3170.48  155.78
   4   0   0 3446.76  163.28
   4   0   0 3241.98  134.79
   4   0   0 3373.46  162.88
  -5   0   0 2543.85  110.39
  -5   0   0 2397.96  115.49
   5   0   0 2337.47  137.99
   5   0   0 2270.67  136.59
  -6   0   0 1414.46   76.69
  -6   0   0 1381.66   81.99
  -6   0   0 1411.36  109.19
  -6   0   0 1451.15  103.59
   6   0   0 1468.05  116.99
   6   0   0 1368.56  113.89
  -7   0   0  668.13   49.80
  -7   0   0  676.33   86.49
  -7   0   0  581.74   81.19
  -7   0   0  575.74   61.69
   7   0   0  568.24   96.99
   7  -1   0   62.69   42.00
  -7   1   0   62.39   35.50
  -7   1   0   54.69   33.20
  -7   1   0   64.29   28.90
   6  -1   0  317.97   60.29
   6  -1   0  205.18   50.79
  -6   1   0  320.47   44.20
  -6   1   0  210.78   47.80
  -6   1   0  277.07   47.50
  -6   1   0  277.77   50.09
   5  -1   0  113.59   33.10
   5  -1   0  126.19   37.00
  -5   1   0  100.49   23.50
  -5   1   0  137.09   56.49
  -5   1   0  161.08   34.20
   4  -1   0  249.28   41.20
   4  -1   0  211.98   38.30
   4  -1   0  188.78   30.80
  -4   1   0  177.68   36.50
  -4   1   0  181.68   30.70
  -4   1   0  272.27   46.40
  -4   1   0  181.88   33.60
  -4   1   0  140.39   36.60
   3  -1   0   31.40   11.10
   3  -1   0   58.39   15.80
   3  -1   0   58.09   18.20
  -3   1   0   40.40   15.60
  -3   1   0   59.69   18.70
  -3   1   0   48.00   13.50
  -3   1   0   50.99   16.40
  -3   1   0   24.20   14.10
   2  -1   0  239.48   24.20
   2  -1   0  207.38   21.70
   2  -1   0  217.68   28.90
   2  -1   0  210.38   22.50
  -2   1   0  266.47   24.50
  -2   1   0  240.38   23.70
  -2   1   0  215.88   23.00
  -2   1   0  284.97   33.80
   1  -1   0 1341.27   58.19
   1  -1   0 1524.95   65.59
   1  -1   0 1508.75   63.99
   1  -1   0 1549.64   61.09
  -1   1   0 1421.16   62.59
  -1   1   0 1394.26   63.39
  -1   1   0 1481.05   57.99
  -1   1   0 1475.75   59.49
   0  -1   0 2849.42  101.69
   0  -1   0 2801.42   98.19
   0  -1   0 2830.82   92.59
   0  -1   0 2835.82  103.49
   0   1   0 2823.32  103.79
   0   1   0 2875.51  102.39
   0   1   0 2857.11   99.09
  -1  -1   0   58.89   10.90
  -1  -1   0   84.79   13.00
  -1  -1   0   92.59    8.40
  -1  -1   0   91.39   14.30
   1   1   0   78.79   12.70
   1   1   0   62.19   12.10
   1   1   0   68.99    8.50
  -2  -1   0 1705.23   64.29
  -2  -1   0 1717.43   81.89
  -2  -1   0 1669.43   80.39
  -2  -1   0 1636.74   80.09
   2   1   0 1652.13   83.59
   2   1   0 1860.41   69.09
   2   1   0 1752.62   80.39
   2   1   0 1785.92   85.39
  -3  -1   0 3454.25  152.68
  -3  -1   0 3543.55  127.79
  -3  -1   0 3569.84  167.78
  -3  -1   0 3451.75  154.88
   3   1   0 3059.79  148.59
   3   1   0 3653.53  128.79
   3   1   0 3597.54  157.48
   3   1   0 3708.43  158.68
  -4  -1   0 1496.55   91.89
  -4  -1   0 1405.96   65.29
   4   1   0 1413.16   90.59
   4   1   0 1575.74   98.49
   4   1   0 1479.55   66.39
   4   1   0 1552.94   98.59
  -5  -1   0 2386.56   98.39
  -5  -1   0 2464.85  137.79
   5   1   0 2176.88  137.39
   5   1   0 2362.56  140.39
  -6  -1   0 1255.17   60.59
  -6  -1   0 1334.27   67.29
  -6  -1   0 1482.85  108.39
  -6  -1   0 1169.88   95.09
   6   1   0 1384.76  117.29
   6   1   0 1515.45  119.09
  -7  -1   0  634.34   82.49
  -7  -1   0  638.64   90.29
   7   1   0  521.45   84.99
   7  -2   0 1200.48  117.49
  -7   2   0 1218.78   99.49
  -7   2   0 1209.88   91.79
  -7   2   0 1072.09  112.79
   6  -2   0 1553.44  120.09
   6  -2   0 1715.73  123.39
  -6   2   0 1695.93  109.59
  -6   2   0 2062.09  123.69
  -6   2   0 2005.10  133.99
   5  -2   0 2188.28  131.59
   5  -2   0 2331.57  135.89
  -5   2   0 2608.74  141.99
  -5   2   0 2612.64  131.29
  -5   2   0 2428.76  133.79
   4  -2   0 2166.68  118.69
   4  -2   0 2268.87  121.29
  -4   2   0 2300.77  121.59
  -4   2   0 2285.67  119.79
  -4   2   0 2483.05  118.29
  -4   2   0 2281.17  120.79
  -4   2   0 2248.18  128.49
   3  -2   0 3901.41  168.38
   3  -2   0 4164.48  180.28
   3  -2   0 4148.69  171.88
  -3   2   0 4167.08  165.48
  -3   2   0 3952.00  162.78
  -3   2   0 3928.61  165.88
  -3   2   0 3923.31  173.88
  -3   2   0 3886.21  167.28
   2  -2   0 4029.60  164.98
   2  -2   0 3932.91  151.98
  -2   2   0 4283.07  173.18
  -2   2   0 4312.57  170.18
  -2   2   0 4179.58  159.58
  -2   2   0 4393.16  164.08
  -2   2   0 4192.98  157.78
  -2   2   0 4346.96  172.28
   1  -2   0 4811.92  167.98
   1  -2   0 5067.49  188.48
   1  -2   0 4931.11  171.18
  -1   2   0 4999.70  173.28
  -1   2   0 4955.30  187.78
  -1   2   0 5077.09  186.08
  -1   2   0 4933.31  167.58
  -1   2   0 4762.82  186.58
   0  -2   0  995.90   51.19
   0  -2   0 1038.70   46.90
   0  -2   0 1052.39   36.90
   0  -2   0 1061.89   37.90
   0  -2   0 1014.60   54.59
   0   2   0 1033.00   53.59
   0   2   0  957.10   50.39
   0   2   0 1025.80   46.00
  -1  -2   0  579.44   33.20
  -1  -2   0  561.14   38.90
  -1  -2   0  551.34   35.80
   1   2   0  869.01   48.50
   1   2   0  741.63   40.10
   1   2   0  799.32   45.30
   1   2   0  825.12   42.70
  -2  -2   0 3643.94  132.69
  -2  -2   0 3649.73  152.48
  -2  -2   0 3703.53  148.49
  -2  -2   0 3611.74  150.78
   2   2   0 3553.14  148.89
   2   2   0 3573.94  150.78
   2   2   0 3541.15  148.09
   2   2   0 3679.93  132.39
  -3  -2   0 1983.60  104.09
  -3  -2   0 2024.70  106.19
  -3  -2   0 1921.51  105.09
  -3  -2   0 1992.90   78.39
   3   2   0 1706.93   97.39
   3   2   0 1882.71  100.59
   3   2   0 1818.62   74.09
   3   2   0 1678.33   98.59
  -4  -2   0   72.49   24.00
  -4  -2   0   65.19   11.30
   4   2   0   95.09   39.30
   4   2   0  109.79   14.90
   4   2   0   64.39   23.80
  -5  -2   0   -0.80    7.60
  -5  -2   0   -3.00   18.80
  -5  -2   0   -7.30   13.40
   5   2   0    0.60   20.90
   5   2   0   -7.20   16.20
  -6  -2   0   -3.30   27.40
  -6  -2   0   -5.40   17.60
   6   2   0   61.59   33.50
  -7  -2   0   39.80   38.60
  -7  -2   0   55.69   34.10
   7   2   0   13.10   37.70
   7  -3   0  283.17   63.99
  -7   3   0  312.97   54.99
  -7   3   0  467.45   78.49
  -7   3   0  276.27   54.69
  -7   3   0  311.17   60.89
   6  -3   0  888.31   88.69
  -6   3   0 1089.79   83.89
  -6   3   0  907.11   79.79
  -6   3   0  874.61   87.89
  -6   3   0  908.41   78.99
   5  -3   0 1113.19   89.09
   5  -3   0 1230.58   91.09
  -5   3   0 1164.78   85.49
  -5   3   0 1038.80   85.79
  -5   3   0 1177.08   80.29
   4  -3   0  725.63   68.59
   4  -3   0  591.04   54.49
  -4   3   0  578.04   53.59
  -4   3   0  582.04   47.90
  -4   3   0  587.04   60.49
  -4   3   0  571.04   55.59
   3  -3   0 1522.25   94.29
   3  -3   0 1416.36   78.39
  -3   3   0 1615.54   83.69
  -3   3   0 1640.24   99.49
  -3   3   0 1762.02   83.19
  -3   3   0 1628.94   97.09
  -3   3   0 1731.23   96.29
  -3   3   0 1704.53   89.79
   2  -3   0 2027.30  107.99
   2  -3   0 2049.89   86.89
  -2   3   0 2253.97  115.09
  -2   3   0 2322.87  114.69
  -2   3   0 2518.65  119.49
  -2   3   0 2325.97  103.59
  -2   3   0 2224.98   93.79
  -2   3   0 2535.05   99.89
   1  -3   0 2759.42  107.59
   1  -3   0 2708.03   96.39
   1  -3   0 2982.30  130.19
  -1   3   0 2704.93  109.59
  -1   3   0 2675.63  124.79
  -1   3   0 2859.21   95.69
  -1   3   0 2796.82  127.29
  -1   3   0 2834.22  125.09
   0  -3   0 3902.51  165.38
   0  -3   0 4132.49  132.39
   0  -3   0 4032.00  132.89
   0  -3   0 3940.41  150.08
   0  -3   0 3824.22  157.98
   0   3   0 3905.61  148.69
   0   3   0 4037.80  159.68
   0   3   0 3971.50  163.08
  -1  -3   0 6443.26  245.28
  -1  -3   0 6130.19  231.48
  -1  -3   0 6309.37  223.78
  -1  -3   0 6414.36  232.48
  -1  -3   0 6441.66  220.98
   1   3   0 6315.87  235.48
   1   3   0 6368.06  241.48
   1   3   0 6383.16  232.38
  -2  -3   0 4243.98  180.28
  -2  -3   0 4603.54  188.78
  -2  -3   0 4413.26  175.48
  -2  -3   0 4418.26  170.88
  -2  -3   0 4509.85  167.28
   2   3   0 4628.14  181.78
   2   3   0 4327.17  184.48
   2   3   0 4364.76  167.38
   2   3   0 4518.05  186.28
  -3  -3   0 2165.18  114.09
  -3  -3   0 2332.67  121.99
  -3  -3   0 2266.07   93.59
   3   3   0 1986.50  113.49
   3   3   0 2107.79  114.49
   3   3   0 2111.09   91.09
   3   3   0 2093.39  112.59
  -4  -3   0 1278.87   82.49
  -4  -3   0 1166.58   89.19
   4   3   0 1244.68   58.29
   4   3   0 1265.47   97.79
   4   3   0 1247.58   91.79
  -5  -3   0 3073.89  157.08
  -5  -3   0 3034.20  169.48
   5   3   0 3018.20  174.58
  -6  -3   0 1462.45  118.39
  -6  -3   0 1398.96  105.79
   6   3   0 1383.46  123.49
  -7  -3   0 1076.49  103.29
  -7  -3   0  982.30  111.69
   7   3   0  784.12  116.39
  -7   4   0  332.47   60.39
  -7   4   0  245.38   64.09
  -7   4   0  324.57   90.19
  -7   4   0  163.18   52.59
  -6   4   0  309.27   50.89
  -6   4   0  284.37   48.20
  -6   4   0  431.46   73.59
  -6   4   0  220.18   40.10
   5  -4   0  413.96   70.49
  -5   4   0  593.14   65.09
  -5   4   0  473.25   50.39
  -5   4   0  441.56   53.59
   4  -4   0  350.36   60.19
   4  -4   0  364.56   50.39
  -4   4   0  265.97   44.30
  -4   4   0  221.18   37.40
  -4   4   0  287.17   49.30
  -4   4   0  262.97   36.00
   3  -4   0  273.67   49.70
   3  -4   0  242.38   30.70
  -3   4   0  168.18   35.50
  -3   4   0  325.47   40.20
  -3   4   0  272.17   30.60
  -3   4   0  306.07   34.20
   2  -4   0  133.49   33.60
  -2   4   0  157.58   18.90
  -2   4   0  129.99   30.90
  -2   4   0  174.48   33.40
  -2   4   0  188.88   26.50
  -2   4   0  132.29   33.10
  -2   4   0  213.38   32.00
   1  -4   0   51.29   12.70
   1  -4   0   49.00   17.30
  -1   4   0   26.80   19.00
  -1   4   0   46.10   22.30
  -1   4   0   33.20   12.80
  -1   4   0   57.39   19.60
   0  -4   0   79.19   18.40
   0  -4   0   68.69   18.20
   0  -4   0   75.59    6.40
   0  -4   0   67.19   23.10
   0   4   0  102.99   20.50
   0   4   0   87.99   23.70
   0   4   0   91.49   23.10
   0   4   0  114.29   27.60
  -1  -4   0  246.18   35.00
  -1  -4   0  220.18   31.90
  -1  -4   0  190.18   20.30
  -1  -4   0  188.08   17.80
  -1  -4   0  128.59   28.70
   1   4   0  214.28   32.70
   1   4   0  186.38   36.40
   1   4   0  274.57   36.80
  -2  -4   0  374.26   44.90
  -2  -4   0  473.65   49.10
  -2  -4   0  434.26   38.10
  -2  -4   0  384.26   38.70
  -2  -4   0  426.56   34.40
   2   4   0  346.77   46.30
   2   4   0  412.16   36.00
   2   4   0  319.17   42.90
  -3  -4   0  509.85   89.79
  -3  -4   0  697.83   51.29
  -3  -4   0  598.64   43.30
  -3  -4   0  655.33   57.29
   3   4   0  625.04   61.79
   3   4   0  678.53   47.70
  -4  -4   0  857.01   65.99
  -4  -4   0  868.31   49.30
  -4  -4   0  785.12   75.59
   4   4   0  743.63   50.69
   4   4   0  767.52   93.69
  -5  -4   0  650.03   66.39
  -5  -4   0  799.42   82.69
   5   4   0  699.43   93.59
  -6  -4   0  692.53   96.89
   6   4   0  954.00  122.19
  -7   5   0 1278.37  122.59
  -6   5   0 1329.27  115.19
  -6   5   0 1180.08   92.29
  -6   5   0 1460.85   98.19
  -6   5   0 1274.87  113.89
   5  -5   0 1129.99  108.59
  -5   5   0 1132.09   80.29
  -5   5   0 1077.49   74.09
  -5   5   0 1038.80   94.49
   4  -5   0 2632.64  161.08
  -4   5   0 2739.43  123.09
  -4   5   0 2716.13  156.58
  -4   5   0 2836.12  131.49
  -4   5   0 2623.44  140.89
  -4   5   0 2838.72  132.99
   3  -5   0 3711.03  193.58
  -3   5   0 3811.52  144.29
  -3   5   0 3907.61  148.39
  -3   5   0 3639.84  159.78
  -3   5   0 3731.73  165.58
  -3   5   0 3816.02  188.88
   2  -5   0 1796.72   84.89
  -2   5   0 1973.00  118.59
  -2   5   0 1996.50   71.09
  -2   5   0 1940.81   71.99
  -2   5   0 1997.20   96.29
   1  -5   0 1574.94  104.49
   1  -5   0 1571.94   78.69
  -1   5   0 1509.55   78.39
  -1   5   0 1518.25   96.49
   0  -5   0 3406.76  147.09
   0  -5   0 3428.46  172.18
   0   5   0 3502.75  170.88
   0   5   0 3894.61  172.28
   0   5   0 3575.74  153.28
  -1  -5   0 2256.77  114.69
  -1  -5   0 2379.16   93.79
  -1  -5   0 2439.96   97.29
  -1  -5   0 2483.15  147.69
   1   5   0 2457.25  120.09
   1   5   0 2321.77  124.69
   1   5   0 2407.26  121.99
  -2  -5   0 2213.18   97.79
  -2  -5   0 2133.09  102.49
  -2  -5   0 2095.09  128.49
   2   5   0 2038.60  121.89
   2   5   0 2281.77  123.89
   2   5   0 2500.15  116.59
  -3  -5   0  948.11   85.69
  -3  -5   0  992.50   65.49
  -3  -5   0 1068.69   67.59
  -3  -5   0 1098.29   94.69
   3   5   0 1125.09   74.29
   3   5   0 1248.18   91.29
   3   5   0 1132.39   71.69
  -4  -5   0  842.92   84.69
  -4  -5   0  766.02   63.89
   4   5   0  766.62   99.99
   4   5   0  684.93   54.79
   4   5   0  662.83   55.69
  -5  -5   0  462.75   81.39
  -5  -5   0  449.26   63.79
   5   5   0  400.66   31.40
   5   5   0  393.76   70.19
  -6  -5   0   74.09   44.90
  -6  -5   0   83.79   37.30
   6   5   0   39.10   46.40
   6  -6   0  186.38   63.59
  -6   6   0  160.08   37.00
  -6   6   0   91.09   38.60
  -6   6   0  122.19   48.80
   5  -6   0  191.78   55.79
  -5   6   0  300.07   48.90
  -5   6   0  217.78   37.60
  -5   6   0  304.07   65.59
   4  -6   0  574.04   86.49
  -4   6   0  417.16   50.79
  -4   6   0  437.96   46.60
  -4   6   0  511.55   62.29
  -4   6   0  397.16   38.00
  -4   6   0  501.85   78.19
   3  -6   0  816.72   85.79
  -3   6   0  681.03   76.59
  -3   6   0  747.43   42.30
  -3   6   0  754.82   58.39
   2  -6   0 1228.08  102.29
   2  -6   0 1217.58   68.39
  -2   6   0 1378.36  102.69
  -2   6   0 1482.35   81.99
   1  -6   0 1643.34   88.59
   1  -6   0 1748.03  120.39
  -1   6   0 1774.92   91.19
  -1   6   0 1689.93  111.89
   0  -6   0 2137.79  134.59
   0  -6   0 2057.39  109.09
   0   6   0 2438.06  120.69
   0   6   0 2599.44  139.89
  -1  -6   0 2241.78  138.09
  -1  -6   0 1969.80   81.29
  -1  -6   0 1900.41   82.79
   1   6   0 1978.30  112.69
   1   6   0 2430.96  170.68
  -2  -6   0 2198.08  100.69
  -2  -6   0 2255.27  106.89
  -2  -6   0 2188.88  141.89
   2   6   0 2407.06  127.29
   2   6   0 2423.06  135.59
  -3  -6   0 1582.84   89.39
  -3  -6   0 1644.04  125.19
   3   6   0 1683.83  108.79
   3   6   0 1945.21  106.29
   3   6   0 1719.13  118.69
  -4  -6   0 1487.15  126.39
  -4  -6   0 1578.74   96.89
   4   6   0 1361.86   86.49
   4   6   0 1273.07  121.29
   4   6   0 1348.27   97.19
  -5  -6   0 1365.26   99.99
  -5  -6   0 1300.57  124.69
   5   6   0 1449.35  134.49
   5   6   0 1347.47   74.39
   5  -7   0  566.64   96.59
  -5   7   0  567.84   70.29
  -5   7   0  673.73  100.59
  -5   7   0  579.34   52.19
   4  -7   0  525.05   83.89
  -4   7   0  599.84   46.20
  -4   7   0  659.73  132.09
  -4   7   0  636.44   38.30
  -4   7   0  719.83   65.49
   3  -7   0  162.58   45.00
  -3   7   0  169.08   32.40
  -3   7   0  104.69   38.90
  -3   7   0  215.68   43.10
   2  -7   0  308.07   40.60
   2  -7   0  239.78   54.69
  -2   7   0  263.77   58.09
  -2   7   0  419.06   43.60
   1  -7   0  637.54   59.29
   1  -7   0  593.74   83.89
  -1   7   0  564.34   79.69
  -1   7   0  622.64   54.49
   0  -7   0  227.78   51.59
   0   7   0  316.97   45.00
   0   7   0  324.37   58.79
  -1  -7   0   52.29   11.30
  -1  -7   0   27.00   34.60
  -1  -7   0   55.19   10.90
   1   7   0   47.60   25.90
   1   7   0   15.40   22.10
  -2  -7   0  194.98   27.60
  -2  -7   0  144.39   45.50
  -2  -7   0  206.88   33.20
   2   7   0  230.28   49.20
   2   7   0  186.88   45.10
  -3  -7   0   42.40   22.90
  -3  -7   0   61.29   37.10
   3   7   0   53.39   30.90
   3   7   0   32.40   26.40
  -4  -7   0   45.20   27.80
  -4  -7   0   65.09   44.70
   4   7   0   51.59   66.79
   4   7   0  -13.30   30.10
  -5  -7   0  101.39   61.29
  -5  -7   0   73.29   35.10
   5   7   0  132.59   62.69
   5   7   0   46.10   38.50
   4  -8   0 1015.60  130.69
  -4   8   0  996.40   86.69
  -4   8   0 1261.07  123.69
   3  -8   0 1216.58  131.79
  -3   8   0 1341.47   86.79
  -3   8   0 1208.78  117.49
   2  -8   0 1001.00  109.49
   2  -8   0  877.71   82.69
  -2   8   0 1197.38  117.39
  -2   8   0 1045.30   77.49
   1  -8   0 1163.08  120.89
  -1   8   0 1286.77  112.69
  -1   8   0 1407.26   88.69
   0  -8   0  807.62  104.29
   0   8   0  605.84   83.79
   0   8   0  837.42   71.09
  -1  -8   0 1554.74  140.99
   1   8   0 1493.55  113.99
   1   8   0 1484.05  103.69
  -2  -8   0 1450.85  137.19
  -2  -8   0 1657.63   74.99
  -2  -8   0 1389.86   76.39
   2   8   0 1532.85  113.99
   2   8   0 1504.75  111.99
  -3  -8   0  924.81   67.49
  -3  -8   0 1142.09  141.79
   3   8   0  948.01   90.69
   3   8   0  845.52   92.69
  -4  -8   0  311.57   77.19
  -4  -8   0  463.55   58.09
   4   8   0  512.55  108.59
   4   8   0  418.16   68.99
   3  -9   0  -35.20   54.49
  -3   9   0   31.40   40.70
  -3   9   0   26.90   47.50
   2  -9   0   69.19   51.49
  -2   9   0   18.50   40.00
  -2   9   0   91.39   32.50
   1  -9   0  499.25   97.49
  -1   9   0  265.67   62.09
  -1   9   0  379.86   55.99
   0  -9   0  305.87   79.19
   0   9   0  298.57   52.99
   0   9   0  321.57   65.99
  -1  -9   0  404.36   86.59
   1   9   0  327.27   57.89
  -2  -9   0  556.34  103.89
   2   9   0  538.25   80.19
   2   9   0  462.05   76.79
   2   9  -1  147.99   50.99
   2   9  -1  165.68   42.50
  -2  -9   1   79.19   56.29
   1   9  -1  268.47   52.29
  -1  -9   1  333.57   85.49
   0   9  -1  283.37   62.59
   0   9  -1  275.47   47.40
   0  -9   1  349.17   88.99
  -1   9  -1  388.86   49.40
  -1   9  -1  331.77   71.39
   1  -9   1  421.66   85.19
  -2   9  -1  551.04   55.09
  -2   9  -1  493.15   89.59
   2  -9   1  509.35  100.79
  -3   9  -1  607.74   94.99
  -3   9  -1  638.84   57.19
   3  -9   1  600.94  101.19
   4   8  -1  856.01  125.39
   4   8  -1  638.24   79.89
  -4  -8   1  578.34   68.09
  -4  -8   1  458.05   89.59
   3   8  -1 1020.50   94.69
   3   8  -1 1155.58  110.69
  -3  -8   1  847.42  117.29
  -3  -8   1  910.81   67.69
   2   8  -1  891.01   83.09
   2   8  -1  870.21   87.69
  -2  -8   1  888.31   61.29
  -2  -8   1  814.72   54.19
   1   8  -1  632.54   86.69
   1   8  -1  538.35   69.59
  -1  -8   1  790.22  116.59
   0   8  -1  156.98   42.80
   0   8  -1  202.28   37.00
   0  -8   1  179.98   56.19
  -1   8  -1  267.97   55.09
  -1   8  -1  291.27   41.90
   1  -8   1  247.58   39.30
   1  -8   1  249.28   62.69
  -2   8  -1  537.15   79.49
  -2   8  -1  492.65   47.10
   2  -8   1  590.94  102.39
  -3   8  -1  258.97   33.80
  -3   8  -1  180.18   55.09
  -3   8  -1  107.19   52.39
   3  -8   1  154.88   59.89
  -4   8  -1  -11.90   41.70
  -4   8  -1   12.90   24.40
   4  -8   1   72.49   54.29
   5   7  -1  742.63   81.09
   5   7  -1  697.23  107.89
  -5  -7   1  821.12   83.09
   4   7  -1  569.54   77.99
   4   7  -1  649.54  104.09
  -4  -7   1  717.53   67.49
   3   7  -1 1122.69   87.39
  -3  -7   1 1258.07  115.09
  -3  -7   1 1104.59   73.79
   2   7  -1 1719.33  112.69
   2   7  -1 1794.22  114.99
  -2  -7   1 1701.63   92.29
  -2  -7   1 1780.52   85.19
  -2  -7   1 1751.82  135.39
   1   7  -1 1526.25  106.89
   1   7  -1 1546.45   96.39
  -1  -7   1 1734.23  130.89
  -1  -7   1 1843.12   74.19
   0   7  -1 1496.15   85.49
   0   7  -1 1342.57  104.39
   0  -7   1 1201.98   81.79
   0  -7   1 1243.18  107.79
  -1   7  -1 2571.14  151.28
  -1   7  -1 2359.56  113.09
   1  -7   1 2206.78  153.18
   1  -7   1 2257.87  106.79
  -2   7  -1 1958.50  133.19
  -2   7  -1 1791.32   89.99
  -2   7  -1 1742.73   98.79
   2  -7   1 1750.82  135.39
  -3   7  -1 1034.60   65.79
  -3   7  -1  932.11   93.19
  -3   7  -1 1017.30   72.99
   3  -7   1 1113.29  110.29
  -4   7  -1 1333.67  120.89
  -4   7  -1 1234.68   73.29
  -4   7  -1 1269.37   80.59
  -4   7  -1 1253.37   64.49
  -4   7  -1 1370.76  100.09
   4  -7   1 1320.57  131.59
  -5   7  -1 1388.46   81.59
  -5   7  -1 1350.06  127.29
  -5   7  -1 1317.77   92.29
   5  -7   1 1247.38  135.29
   6   6  -1  319.87   80.19
  -6  -6   1  164.48   50.29
  -6  -6   1  313.77   73.79
   5   6  -1  155.28   46.00
   5   6  -1   41.10   46.00
   5   6  -1   62.89   32.20
  -5  -6   1   82.39   33.80
  -5  -6   1   70.29   42.80
   4   6  -1  206.38   62.99
   4   6  -1  196.18   45.00
   4   6  -1  213.18   42.00
  -4  -6   1  164.08   39.10
  -4  -6   1  215.38   50.09
  -4  -6   1  206.48   35.50
   3   6  -1   52.79   22.60
   3   6  -1    6.10   20.20
  -3  -6   1   55.99   20.60
  -3  -6   1   11.60   28.10
   2   6  -1   -1.00   16.20
   2   6  -1  -12.00   15.20
  -2  -6   1   -6.70   18.30
  -2  -6   1    5.40   10.90
  -2  -6   1  -10.60   21.20
   1   6  -1   77.49   19.80
  -1  -6   1   68.39   28.20
  -1  -6   1  105.29   17.70
  -1  -6   1  113.69   32.10
  -1  -6   1  130.69   18.30
   0   6  -1  154.28   40.40
   0   6  -1  173.08   28.60
   0  -6   1  152.28   29.30
   0  -6   1  219.18   41.50
  -1   6  -1   77.39   18.80
  -1   6  -1  112.49   33.00
   1  -6   1   44.80   16.10
   1  -6   1   83.09   34.50
  -2   6  -1  189.08   31.70
  -2   6  -1  289.07   30.80
  -2   6  -1  268.47   49.90
   2  -6   1  328.47   60.89
  -3   6  -1 1240.08   97.29
  -3   6  -1 1054.19   53.49
  -3   6  -1 1075.69   67.29
  -3   6  -1 1040.30   58.29
  -3   6  -1 1134.79   72.79
   3  -6   1 1072.59   99.69
  -4   6  -1  650.83   56.49
  -4   6  -1  740.13   51.39
  -4   6  -1  785.02   74.89
  -4   6  -1  747.83   80.49
   4  -6   1  997.20  104.49
  -5   6  -1  368.16   69.79
  -5   6  -1  354.96   55.29
  -5   6  -1  290.17   43.70
   5  -6   1  350.26   73.89
  -6   6  -1  547.15   67.49
  -6   6  -1  761.12   74.49
  -6   6  -1  754.92  105.69
  -6   6  -1  627.54   94.19
   6   5  -1 1250.27  124.29
  -6  -5   1 1119.29   95.69
  -6  -5   1 1044.30  174.58
   5   5  -1 1283.67   74.89
   5   5  -1 1523.75  122.49
   5   5  -1 1126.99   71.49
  -5  -5   1 1274.57   92.79
  -5  -5   1 1168.28   69.89
  -5  -5   1 1240.58  107.39
   4   5  -1 2350.76  119.09
   4   5  -1 2357.56  147.79
  -4  -5   1 2526.55  129.49
  -4  -5   1 2414.86  150.98
  -4  -5   1 2457.15  118.29
   3   5  -1 2210.58  126.99
   3   5  -1 2365.76  116.39
  -3  -5   1 2135.99  105.69
  -3  -5   1 2147.59  116.49
  -3  -5   1 2116.29  119.59
  -3  -5   1 1938.41  126.49
   2   5  -1 1807.72  103.29
   2   5  -1 1811.92   98.79
  -2  -5   1 1857.41   95.39
  -2  -5   1 2069.89  123.19
  -2  -5   1 2023.90  106.59
  -2  -5   1 1709.83  100.99
  -2  -5   1 2012.20   91.99
   1   5  -1 1849.02   95.99
   1   5  -1 1851.51  103.39
  -1  -5   1 2105.49  120.79
  -1  -5   1 1901.81   98.29
  -1  -5   1 2072.49  108.89
  -1  -5   1 2019.50   85.99
  -1  -5   1 1848.92   80.59
   0   5  -1 1608.84   79.59
   0   5  -1 1553.34   93.79
   0  -5   1 1824.12   61.69
   0  -5   1 1493.65   81.29
   0  -5   1 1662.73   98.89
   0  -5   1 1757.62   61.39
   0  -5   1 1443.76  102.09
  -1   5  -1 1142.79   81.49
  -1   5  -1 1099.79   58.39
   1  -5   1 1013.50   53.49
   1  -5   1 1016.30   81.79
  -2   5  -1 1284.07   70.49
  -2   5  -1 1295.67   63.19
  -2   5  -1 1347.47   67.79
  -2   5  -1 1266.67   89.39
   2  -5   1 1233.38   57.19
   2  -5   1 1311.37   98.59
  -3   5  -1  833.12   54.39
  -3   5  -1  836.62   74.79
  -3   5  -1  776.42   57.89
  -3   5  -1  815.02   52.39
   3  -5   1  884.71   56.69
   3  -5   1  928.71   85.99
  -4   5  -1  720.53   60.99
  -4   5  -1  820.92   59.99
  -4   5  -1  770.12   71.79
  -4   5  -1  811.02   74.69
   4  -5   1  832.22   64.69
   4  -5   1  880.41   89.99
  -5   5  -1  208.68   42.80
  -5   5  -1  201.68   45.60
   5  -5   1  378.16   75.79
   5  -5   1  196.18   42.80
  -6   5  -1   85.59   33.30
  -6   5  -1  108.49   33.20
  -6   5  -1  138.69   46.10
  -6   5  -1   67.39   39.90
   7   4  -1    1.80   46.80
  -7  -4   1   54.29   45.30
  -7  -4   1    5.20   34.80
   6   4  -1  131.39   58.69
  -6  -4   1  229.68   47.60
  -6  -4   1  196.98   45.70
   5   4  -1  524.75   40.10
   5   4  -1  450.15   69.59
  -5  -4   1  374.86   56.09
  -5  -4   1  414.16   36.90
  -5  -4   1  567.74   78.49
   4   4  -1 1062.79   89.89
   4   4  -1 1046.20   67.19
  -4  -4   1 1319.67   82.39
  -4  -4   1 1186.38   67.69
  -4  -4   1 1174.48   91.79
   3   4  -1 1770.52   89.09
   3   4  -1 1295.27   76.89
  -3  -4   1 1357.46   77.39
  -3  -4   1 1360.36   74.09
  -3  -4   1 1303.67   84.29
  -3  -4   1 1300.87   89.49
   2   4  -1 1846.72   94.29
   2   4  -1 1898.31  104.49
   2   4  -1 2040.00  104.49
  -2  -4   1 2076.19   99.29
  -2  -4   1 2184.08   94.19
  -2  -4   1 1936.81  103.39
  -2  -4   1 2095.59  114.19
  -2  -4   1 1951.60   98.19
   1   4  -1 2069.79   99.59
   1   4  -1 2126.99  109.99
   1   4  -1 2269.47  107.09
  -1  -4   1 2048.00   87.29
  -1  -4   1 1954.00   99.89
  -1  -4   1 2044.70   95.39
  -1  -4   1 2073.49  110.79
  -1  -4   1 2089.69   83.39
   0   4  -1 2408.16  112.69
   0   4  -1 2183.18  136.69
   0   4  -1 2161.28   94.49
   0  -4   1 2015.30   87.69
   0  -4   1 1997.10  109.09
   0  -4   1 1834.72   99.39
   0  -4   1 2012.60   73.39
   0  -4   1 2022.40   74.39
  -1   4  -1 2822.22  134.59
  -1   4  -1 2945.91  140.29
  -1   4  -1 2794.92  111.09
  -1   4  -1 2784.82  138.39
  -1   4  -1 2890.81  100.09
   1  -4   1 2565.74  100.89
   1  -4   1 2595.74  126.39
   1  -4   1 2566.34   93.09
   1  -4   1 2716.03  135.19
  -2   4  -1 3351.26  135.29
  -2   4  -1 3396.26  159.18
  -2   4  -1 3493.65  129.29
  -2   4  -1 3346.47  162.18
  -2   4  -1 3408.86  132.49
  -2   4  -1 3230.88  160.88
   2  -4   1 3429.16  166.78
   2  -4   1 3366.36  131.19
  -3   4  -1 2360.46  107.59
  -3   4  -1 2191.68  100.29
  -3   4  -1 2424.36  126.39
  -3   4  -1 2106.59  101.39
   3  -4   1 1986.20  100.09
   3  -4   1 2216.18  127.59
  -4   4  -1 1422.36   85.89
  -4   4  -1 1415.36   90.69
  -4   4  -1 1364.66   79.39
  -4   4  -1 1577.94  101.39
   4  -4   1 1453.75  109.89
   4  -4   1 1367.76   87.19
  -5   4  -1 1648.04  115.59
  -5   4  -1 1583.14  111.19
   5  -4   1 1466.15  100.69
  -6   4  -1 1547.25  109.99
  -6   4  -1 1440.26  100.69
  -6   4  -1 1397.46  118.79
   6  -4   1 1448.06  114.19
  -7   4  -1 1171.58  119.89
  -7   4  -1 1171.08  101.19
  -7   4  -1 1045.60   97.59
  -7   4  -1 1084.09  104.29
   7   3  -1  623.84   94.69
  -7  -3   1  639.54   85.29
  -7  -3   1  602.04   89.99
   6   3  -1  454.05   79.39
  -6  -3   1  427.26   26.00
  -6  -3   1  543.75   72.29
  -6  -3   1  553.64   79.99
   5   3  -1  728.73   78.89
   5   3  -1  708.83   44.50
  -5  -3   1  878.21   79.09
  -5  -3   1  627.14   41.40
  -5  -3   1  698.13   63.69
   4   3  -1  301.57   31.70
   4   3  -1  331.97   53.99
  -4  -3   1  305.27   43.40
  -4  -3   1  285.87   29.10
  -4  -3   1  335.57   52.79
   3   3  -1  311.67   31.20
   3   3  -1  382.66   48.00
   3   3  -1  453.45   59.79
  -3  -3   1  305.37   32.90
  -3  -3   1  283.27   27.70
  -3  -3   1  300.17   42.90
  -3  -3   1  332.07   45.60
  -3  -3   1  382.76   49.50
   2   3  -1  406.46   32.10
   2   3  -1  391.26   37.90
   2   3  -1  376.26   37.90
  -2  -3   1  469.45   42.80
  -2  -3   1  486.85   35.90
  -2  -3   1  472.75   38.40
  -2  -3   1  464.05   41.30
  -2  -3   1  441.16   34.10
   1   3  -1 1696.33   78.19
   1   3  -1 1572.44   78.29
   1   3  -1 1661.13   83.69
  -1  -3   1 1722.63   88.09
  -1  -3   1 1658.43   80.29
  -1  -3   1 1711.03   70.99
  -1  -3   1 1710.53   78.99
  -1  -3   1 1667.63   74.49
   0   3  -1   11.60    7.30
   0   3  -1    2.10    4.60
   0   3  -1   -3.20    9.70
   0   3  -1    2.70    3.40
   0  -3   1   14.20   11.00
   0  -3   1   20.30   10.00
   0  -3   1   -0.70    6.30
   0  -3   1    9.90    4.50
  -1   3  -1 1076.49   62.99
  -1   3  -1  964.70   45.40
  -1   3  -1 1003.90   64.39
  -1   3  -1  968.50   42.80
   1  -3   1  975.80   42.70
   1  -3   1  995.50   65.09
   1  -3   1  967.20   60.19
   1  -3   1  987.50   43.00
  -2   3  -1  174.28   31.60
  -2   3  -1  250.87   27.70
  -2   3  -1  212.48   23.20
  -2   3  -1  257.37   37.90
  -2   3  -1  217.28   19.70
  -2   3  -1  174.58   31.60
   2  -3   1  158.98   29.70
   2  -3   1  212.28   22.10
  -3   3  -1  107.49   19.30
  -3   3  -1  127.99   34.20
  -3   3  -1   78.49   18.90
  -3   3  -1  100.09   23.10
  -3   3  -1  144.29   28.40
  -3   3  -1  155.98   31.20
   3  -3   1   92.49   20.50
   3  -3   1   92.89   27.20
  -4   3  -1  240.18   40.40
  -4   3  -1  218.98   35.70
  -4   3  -1  193.48   36.30
  -4   3  -1  200.78   34.70
   4  -3   1  175.18   33.10
   4  -3   1  211.78   39.90
  -5   3  -1  137.49   37.70
   5  -3   1  180.08   43.10
  -6   3  -1  347.87   55.69
  -6   3  -1  255.97   53.49
   6  -3   1  284.27   58.29
   6  -3   1  285.27   51.29
  -7   3  -1  304.37   54.59
  -7   3  -1  340.67   61.39
   7  -3   1  349.87   76.79
   7   2  -1  535.55   96.59
  -7  -2   1  635.64   80.29
  -7  -2   1  657.23   88.89
   6   2  -1 1557.54  125.29
  -6  -2   1 1412.86   99.49
  -6  -2   1 1232.78  101.39
  -6  -2   1 1280.67   62.29
   5   2  -1 3385.66  185.78
   5   2  -1 3628.64  140.79
  -5  -2   1 3261.57  134.29
  -5  -2   1 3905.51  173.78
  -5  -2   1 3343.67  171.58
   4   2  -1 1995.70  117.69
   4   2  -1 2370.46   98.39
   4   2  -1 2374.76  145.09
  -4  -2   1 2315.77   98.39
  -4  -2   1 2530.95  127.49
  -4  -2   1 2355.66  124.09
   3   2  -1 4666.83  193.18
   3   2  -1 4597.34  175.08
   3   2  -1 4684.63  198.48
  -3  -2   1 4492.05  199.58
  -3  -2   1 4396.16  180.08
  -3  -2   1 4348.96  188.78
  -3  -2   1 4469.65  165.48
  -3  -2   1 4728.03  186.68
   2   2  -1 7378.86  263.27
   2   2  -1 6974.10  263.37
  -2  -2   1 6807.42  251.07
  -2  -2   1 6724.03  249.48
  -2  -2   1 6849.11  249.18
  -2  -2   1 6625.54  236.18
  -2  -2   1 6789.72  242.88
   1   2  -1 6565.84  239.58
   1   2  -1 6911.91  238.78
  -1  -2   1 6621.84  225.98
  -1  -2   1 6506.95  230.08
  -1  -2   1 6303.87  230.68
  -1  -2   1 6715.13  230.78
  -1  -2   1 6649.44  236.28
   0   2  -1 5623.94  185.98
   0   2  -1 5641.84  203.68
   0   2  -1 5500.75  188.68
   0   2  -1 5574.14  200.88
   0  -2   1 5385.06  185.78
   0  -2   1 5514.75  202.48
   0  -2   1 5635.24  183.98
   0  -2   1 5445.66  198.38
  -1   2  -1 3712.33  128.19
  -1   2  -1 3559.24  125.29
  -1   2  -1 3578.14  142.39
  -1   2  -1 3567.34  145.59
  -1   2  -1 3689.23  129.19
   1  -2   1 3329.37  129.79
   1  -2   1 3250.37  134.29
   1  -2   1 3158.28  117.09
  -2   2  -1 6371.66  239.08
  -2   2  -1 6295.87  229.18
  -2   2  -1 6519.25  227.78
  -2   2  -1 6342.47  245.38
  -2   2  -1 6413.66  237.38
   2  -2   1 5884.61  216.48
   2  -2   1 6030.10  214.58
   2  -2   1 5763.02  230.28
  -3   2  -1 3274.57  141.19
  -3   2  -1 3063.19  134.79
  -3   2  -1 2917.31  149.88
  -3   2  -1 3102.39  136.69
  -3   2  -1 2955.40  130.19
   3  -2   1 3112.99  133.99
   3  -2   1 2804.62  133.29
   3  -2   1 3083.59  146.69
  -4   2  -1 1393.06   80.49
  -4   2  -1 1371.76   83.79
  -4   2  -1 1357.46   89.39
  -4   2  -1 1319.27   83.79
   4  -2   1 1282.87   87.99
   4  -2   1 1520.95   90.39
  -5   2  -1 1519.25   90.69
  -5   2  -1 1529.75  106.39
  -5   2  -1 1633.64  101.29
   5  -2   1 1515.15  106.89
   5  -2   1 1737.43  112.89
  -6   2  -1  528.55   55.99
  -6   2  -1  630.44   88.09
   6  -2   1  292.57   60.99
   6  -2   1  413.36   66.99
  -7   2  -1  200.98   55.39
  -7   2  -1  327.47   60.59
  -7   2  -1  258.47   45.20
   7  -2   1  284.27   63.29
   7  -2   1  319.37   70.69
   7   1  -1   56.99   37.30
  -7  -1   1   55.69   36.20
  -7  -1   1    4.00   26.20
  -7  -1   1   46.50   19.80
   6   1  -1   31.70   18.70
   6   1  -1   25.90   25.90
  -6  -1   1   39.40   19.10
  -6  -1   1   61.29   27.90
  -6  -1   1   39.50   21.70
   5   1  -1   15.20   16.40
   5   1  -1   39.60   15.80
  -5  -1   1   60.49   20.30
  -5  -1   1   55.69   24.10
  -5  -1   1   65.79   19.00
   4   1  -1  523.65   38.70
   4   1  -1  507.15   54.19
   4   1  -1  522.75   54.39
  -4  -1   1  601.34   42.40
  -4  -1   1  690.23   55.79
  -4  -1   1  662.43   53.39
   3   1  -1 1186.68   73.99
   3   1  -1 1110.79   66.09
   3   1  -1 1226.78   74.89
   3   1  -1 1005.50   63.59
  -3  -1   1 1054.69   55.19
  -3  -1   1 1040.70   68.39
  -3  -1   1 1082.39   69.79
  -3  -1   1 1129.79   64.99
   2   1  -1 1649.04   82.99
   2   1  -1 1789.42   84.39
   2   1  -1 1716.53   79.39
   2   1  -1 1755.42   73.89
  -2  -1   1 1467.35   77.09
  -2  -1   1 1638.04   79.09
  -2  -1   1 1606.04   68.49
  -2  -1   1 1703.43   75.09
  -2  -1   1 1694.73   74.89
   1   1  -1 2678.73   99.49
   1   1  -1 2556.94   98.79
   1   1  -1 2793.42  103.79
   1   1  -1 2716.33   99.79
  -1  -1   1 2923.01  111.49
  -1  -1   1 2861.71  106.99
  -1  -1   1 2873.21  107.99
  -1  -1   1 3097.79  108.29
  -1  -1   1 3035.90  113.39
   0   1  -1 5451.85  190.18
   0   1  -1 5565.54  180.28
   0   1  -1 5549.14  189.58
   0   1  -1 5551.24  183.38
   0  -1   1 5213.48  177.18
   0  -1   1 5428.16  183.28
   0  -1   1 5380.66  184.48
  -1   1  -1  706.93   35.00
  -1   1  -1  697.53   41.20
  -1   1  -1  750.72   36.90
  -1   1  -1  720.83   32.60
   1  -1   1  754.72   36.80
   1  -1   1  755.82   34.60
   1  -1   1  767.52   43.30
   1  -1   1  746.63   37.40
  -2   1  -1 3106.39  127.59
  -2   1  -1 3237.88  124.79
  -2   1  -1 3274.67  124.29
  -2   1  -1 3132.79  124.69
  -2   1  -1 3188.08  131.39
  -2   1  -1 3218.98  136.89
   2  -1   1 2960.40  125.49
   2  -1   1 3194.58  124.79
  -3   1  -1 5010.70  187.28
  -3   1  -1 4869.61  194.28
  -3   1  -1 4741.93  195.68
  -3   1  -1 4948.60  206.38
  -3   1  -1 5023.20  184.98
  -3   1  -1 4875.01  199.68
   3  -1   1 4646.14  191.88
   3  -1   1 4657.73  189.78
  -4   1  -1 2530.35  131.49
  -4   1  -1 2939.91  143.19
  -4   1  -1 2643.34  121.19
  -4   1  -1 2682.13  144.29
  -4   1  -1 2711.43  117.39
   4  -1   1 2898.31  144.79
   4  -1   1 2732.73  139.99
  -5   1  -1 2588.14  126.59
  -5   1  -1 2596.74  119.99
  -5   1  -1 2913.11  156.38
   5  -1   1 2799.22  155.98
   5  -1   1 2680.73  150.58
  -6   1  -1 1577.34   86.19
  -6   1  -1 1714.53  125.19
  -6   1  -1 1432.26   93.19
   6  -1   1 1147.09  105.59
   6  -1   1 1539.35  115.99
  -7   1  -1 1232.58   75.39
  -7   1  -1 1219.18  104.09
  -7   1  -1 1235.38  117.19
   7  -1   1 1085.89  113.69
   7  -1   1 1123.29  113.09
  -7   0   1 2079.69  137.09
  -7   0   1 2031.60  106.79
  -7   0   1 1963.60  137.29
  -7   0   1 1948.80  137.29
   6   0  -1 2556.74  162.38
   6   0  -1 2613.54  124.59
  -6   0   1 2669.83  151.18
  -6   0   1 2728.83  148.89
  -6   0   1 2374.86  126.49
   5   0  -1  904.31   82.39
   5   0  -1 1185.08   70.59
  -5   0   1 1076.99   78.69
  -5   0   1 1130.59   84.29
  -5   0   1 1024.50   73.69
   4   0  -1 1093.69   79.69
   4   0  -1 1046.10   77.79
   4   0  -1 1137.49   65.39
  -4   0   1 1110.99   77.49
  -4   0   1 1101.69   74.59
  -4   0   1 1099.09   65.99
  -4   0   1 1107.29   77.79
   3   0  -1 3850.81  150.08
   3   0  -1 3842.52  165.18
   3   0  -1 3744.83  163.78
  -3   0   1 3778.92  160.58
  -3   0   1 3898.31  152.08
  -3   0   1 3845.72  158.48
  -3   0   1 3828.32  158.58
  -3   0   1 3672.03  160.78
   2   0  -1 4652.53  170.08
   2   0  -1 4918.81  181.68
   2   0  -1 4478.25  178.78
   2   0  -1 4748.52  171.88
  -2   0   1 4652.13  175.78
  -2   0   1 4272.17  174.98
  -2   0   1 4698.93  170.78
  -2   0   1 4837.22  177.08
   1   0  -1 4017.60  141.39
   1   0  -1 4035.70  139.09
   1   0  -1 3890.31  143.39
  -1   0   1 4050.49  139.39
  -1   0   1 3794.82  142.79
  -1   0   1 3967.30  135.69
  -1   0   1 4115.39  142.29
  -1   0   1 4020.30  137.09
   0   0  -1 2169.88   75.49
  -1   0  -1   29.10    4.20
  -1   0  -1   32.10    9.30
  -1   0  -1   13.30    6.50
  -1   0  -1   35.00    8.00
   1   0   1    3.70    3.80
   1   0   1   14.80    5.90
   1   0   1    1.50    4.40
  -2   0  -1   46.20   13.00
  -2   0  -1   58.69    8.90
  -2   0  -1   47.50   11.70
  -2   0  -1   45.90   14.10
  -2   0  -1   61.39    9.30
   2   0   1   46.80   13.60
   2   0   1   64.89   15.50
   2   0   1   40.30   12.40
  -3   0  -1  118.39   26.30
  -3   0  -1  106.69   15.30
  -3   0  -1   94.39   14.50
  -3   0  -1  129.69   26.70
  -3   0  -1  171.58   33.70
   3   0   1   82.39   20.60
   3   0   1  107.39   23.50
   3   0   1   65.89   18.20
  -4   0  -1  208.78   20.80
  -4   0  -1  128.79   32.60
  -4   0  -1  216.98   40.30
  -4   0  -1  223.38   27.90
   4   0   1  242.08   43.20
   4   0   1  125.29   28.10
   4   0   1  126.99   29.50
  -5   0  -1   61.99   18.50
  -5   0  -1   16.80   10.40
  -5   0  -1   70.19   25.00
   5   0   1   17.40   17.80
   5   0   1   27.00   23.40
  -6   0  -1   42.10   28.20
  -6   0  -1  131.39   21.40
  -6   0  -1  116.89   22.70
   6   0   1   72.79   33.30
   6   0   1   60.49   32.60
  -7   0  -1   12.90   23.50
  -7   0  -1   19.80   15.60
  -7   0  -1    5.00   25.80
  -7   0  -1   13.30   34.50
   7   0   1   25.60   36.10
   7   0   1   33.00   39.10
   7  -1  -1  741.73  100.49
  -7   1   1  835.32   92.09
  -7   1   1 1069.89   96.19
   6  -1  -1  768.62   82.99
  -6   1   1  687.43   67.69
  -6   1   1  651.53   71.89
  -6   1   1  660.33   73.89
  -6   1   1  788.12   64.99
   5  -1  -1 1671.43   93.89
   5  -1  -1 1409.96  105.39
  -5   1   1 1627.34   97.89
  -5   1   1 1504.95  110.19
  -5   1   1 1613.44  103.69
   4  -1  -1 4148.79  170.68
   4  -1  -1 3959.10  181.58
   4  -1  -1 3640.44  177.28
  -4   1   1 3371.96  159.98
  -4   1   1 3435.16  161.58
  -4   1   1 3633.44  158.88
  -4   1   1 3576.64  162.48
  -4   1   1 3362.76  152.28
   3  -1  -1 2334.27  114.39
   3  -1  -1 2390.66  108.69
   3  -1  -1 2262.87  111.39
  -3   1   1 2599.24  117.09
  -3   1   1 2358.56  115.39
  -3   1   1 2424.06  113.09
  -3   1   1 2619.64  113.09
  -3   1   1 2466.85  115.59
   2  -1  -1 5758.42  211.38
   2  -1  -1 5747.73  209.88
   2  -1  -1 5683.03  212.78
   2  -1  -1 5532.05  208.68
  -2   1   1 6611.94  236.18
  -2   1   1 6328.27  237.08
  -2   1   1 6540.85  235.18
  -2   1   1 6585.64  237.78
   1  -1  -1 8654.53  291.87
   1  -1  -1 8678.33  299.67
   1  -1  -1 8720.63  295.37
  -1   1   1 8283.27  279.07
  -1   1   1 8471.65  284.87
  -1   1   1 8520.35  287.27
  -1   1   1 8571.44  283.17
  -1   1   1 8355.46  290.97
   0  -1  -1 5083.99  171.18
   0  -1  -1 4841.92  169.08
   0  -1  -1 4617.24  160.68
   0  -1  -1 4904.91  169.28
   0   1   1 4967.50  174.38
   0   1   1 5046.00  173.88
   0   1   1 4944.51  165.78
   0   1   1 5054.29  173.88
  -1  -1  -1 3088.09  122.39
  -1  -1  -1 3094.49  119.49
  -1  -1  -1 3131.49  116.69
   1   1   1 3128.59  104.49
   1   1   1 3087.09  116.39
   1   1   1 3048.99  118.59
   1   1   1 2953.60  103.69
   1   1   1 3060.89  120.09
  -2  -1  -1 4559.94  180.88
  -2  -1  -1 4567.04  176.48
   2   1   1 4605.74  187.38
   2   1   1 4673.73  184.78
   2   1   1 4890.21  184.98
  -3  -1  -1 3834.82  168.98
  -3  -1  -1 3878.11  168.58
  -3  -1  -1 3941.81  131.59
  -3  -1  -1 4094.19  174.58
   3   1   1 3492.95  162.98
   3   1   1 3921.91  164.28
   3   1   1 3842.52  166.78
  -4  -1  -1 3321.27  115.89
  -4  -1  -1 3438.46  116.19
  -4  -1  -1 3300.37  164.08
   4   1   1 3360.36  166.38
  -5  -1  -1 1419.46   48.30
  -5  -1  -1 1351.06   48.10
  -5  -1  -1 1289.97   99.19
   5   1   1 1318.87  101.89
   5   1   1 1347.87  103.59
  -6  -1  -1  963.70   92.49
   6   1   1  975.20   97.79
   6   1   1  787.72  102.29
  -7  -1  -1 1168.58  114.79
  -7  -1  -1 1325.67  110.39
   7   1   1 1195.08  119.89
   7  -2  -1   19.50   45.50
  -7   2   1   88.79   42.50
  -7   2   1   81.29   32.30
   6  -2  -1   85.09   31.90
  -6   2   1   12.30   22.60
  -6   2   1   43.20   22.70
  -6   2   1    8.80   24.80
   5  -2  -1  270.97   49.99
   5  -2  -1  299.67   45.50
  -5   2   1  331.67   51.99
  -5   2   1  416.46   53.39
  -5   2   1  303.17   56.29
   4  -2  -1  207.58   39.60
   4  -2  -1  240.08   40.70
   4  -2  -1  220.18   38.60
  -4   2   1  206.88   39.70
  -4   2   1  209.08   39.60
  -4   2   1  250.67   41.00
  -4   2   1  232.88   42.30
  -4   2   1  285.67   39.80
  -4   2   1  200.48   33.50
   3  -2  -1  105.19   24.20
   3  -2  -1  102.89   24.40
   3  -2  -1   80.99   19.20
   3  -2  -1  130.79   27.50
  -3   2   1  148.89   25.50
  -3   2   1  126.59   25.50
  -3   2   1   83.29   20.30
  -3   2   1  112.89   24.60
  -3   2   1  116.89   25.00
   2  -2  -1 1651.93   83.99
   2  -2  -1 1426.96   78.39
  -2   2   1 1435.76   78.79
  -2   2   1 1579.84   70.39
  -2   2   1 1408.46   75.59
  -2   2   1 1426.36   63.59
  -2   2   1 1466.65   74.49
  -2   2   1 1484.45   67.39
   1  -2  -1 1331.27   66.69
   1  -2  -1 1302.27   58.29
   1  -2  -1 1248.18   66.79
  -1   2   1 1103.79   61.89
  -1   2   1 1184.58   44.00
  -1   2   1 1159.78   60.79
  -1   2   1 1152.08   55.29
  -1   2   1 1159.98   45.90
   0  -2  -1  448.96   30.10
   0  -2  -1  437.76   19.70
   0  -2  -1  458.25   33.70
   0   2   1  304.97   24.70
   0   2   1  334.37   16.50
   0   2   1  345.37   25.50
   0   2   1  323.17   28.00
   0   2   1  353.86   28.10
  -1  -2  -1 1109.29   51.79
  -1  -2  -1 1061.69   60.89
  -1  -2  -1 1071.99   56.39
   1   2   1 1169.98   62.49
   1   2   1 1129.49   59.89
   1   2   1 1128.39   52.99
   1   2   1 1101.19   50.99
   1   2   1 1088.09   59.09
  -2  -2  -1  707.93   46.40
  -2  -2  -1  654.73   32.10
  -2  -2  -1  644.54   49.60
  -2  -2  -1  667.83   48.50
   2   2   1  613.54   48.00
   2   2   1  589.44   30.10
   2   2   1  644.54   45.50
   2   2   1  618.44   31.00
   2   2   1  626.74   48.20
  -3  -2  -1 1776.42  103.29
  -3  -2  -1 2001.20  102.89
  -3  -2  -1 1988.20  108.39
   3   2   1 1653.53  101.19
   3   2   1 1703.43   60.89
   3   2   1 1641.44   97.09
   3   2   1 1751.52   99.59
   3   2   1 1886.21   61.89
  -4  -2  -1 2111.89  128.29
   4   2   1 1661.43  108.79
   4   2   1 1778.12  110.79
  -5  -2  -1 1322.57  102.89
   5   2   1 1347.07  105.39
   5   2   1 1250.97  100.59
  -6  -2  -1  720.73   94.39
   6   2   1  896.61   97.59
   6   2   1  833.02  110.39
  -7  -2  -1  881.61   92.89
  -7  -2  -1  993.40  108.79
   7   2   1  762.02  104.79
  -7   3   1 1008.10  103.89
  -7   3   1  944.81   92.69
  -7   3   1 1027.30  107.49
  -7   3   1  946.01   92.39
  -6   3   1 1361.36   95.19
  -6   3   1 1373.56   98.79
  -6   3   1 1448.36  107.39
  -6   3   1 1299.97  100.89
  -5   3   1 3093.79  150.68
  -5   3   1 3136.09  147.49
  -5   3   1 3166.38  159.78
  -5   3   1 2746.53  153.98
   4  -3  -1 1295.47   91.39
  -4   3   1 1389.26  120.19
  -4   3   1 1263.17   77.99
  -4   3   1 1360.96   76.09
  -4   3   1 1232.58   86.69
  -4   3   1 1371.36   90.79
  -4   3   1 1227.38   80.59
   3  -3  -1 2546.65  132.49
   3  -3  -1 2723.23  134.99
  -3   3   1 2761.42  111.99
  -3   3   1 2567.64  133.49
  -3   3   1 2628.14  125.39
  -3   3   1 2657.23  116.39
  -3   3   1 2713.73  118.69
  -3   3   1 2445.06  145.19
  -3   3   1 2681.53  133.29
   2  -3  -1 3431.66  155.48
   2  -3  -1 3500.95  156.68
  -2   3   1 3092.19  146.49
  -2   3   1 3296.07  131.69
  -2   3   1 3153.88  143.89
  -2   3   1 3193.98  145.59
  -2   3   1 3297.57  138.69
  -2   3   1 3203.48  121.59
   1  -3  -1 4939.01  199.88
   1  -3  -1 4898.11  182.38
  -1   3   1 4540.15  172.48
  -1   3   1 4848.51  147.39
  -1   3   1 4267.77  181.08
  -1   3   1 4316.37  146.29
  -1   3   1 4489.45  182.68
  -1   3   1 4527.05  185.38
   0  -3  -1 3383.66  116.19
   0  -3  -1 3483.95  139.39
   0  -3  -1 3554.84  150.58
   0  -3  -1 3459.55  115.99
   0   3   1 3966.50  153.18
   0   3   1 3912.51  157.28
   0   3   1 3807.92  160.28
   0   3   1 3840.22  158.68
  -1  -3  -1 1843.42   96.59
  -1  -3  -1 1758.32   87.49
  -1  -3  -1 1834.72   77.99
   1   3   1 1875.91   85.19
   1   3   1 1797.72   82.99
   1   3   1 1696.83   90.99
   1   3   1 1764.62   88.29
   1   3   1 1768.12   78.79
  -2  -3  -1  992.30   59.69
  -2  -3  -1  932.11   67.69
  -2  -3  -1 1020.60   66.89
   2   3   1  970.30   51.99
   2   3   1 1031.90   68.29
   2   3   1 1027.30   51.49
   2   3   1  975.50   68.39
   2   3   1  976.70   66.89
  -3  -3  -1  502.75   63.79
  -3  -3  -1  464.85   54.49
   3   3   1  300.27   25.50
   3   3   1  479.85   60.99
   3   3   1  308.87   24.40
   3   3   1  295.37   42.20
  -4  -3  -1  159.48   37.40
  -5  -3  -1  683.83   86.09
   5   3   1  584.44   88.09
   5   3   1  540.25   73.29
  -6  -3  -1   -9.20   24.10
  -6  -3  -1  -19.70   31.40
   6   3   1  -24.70   34.00
  -7  -3  -1   35.30   46.20
  -7  -3  -1   26.90   37.20
   7   3   1   -0.90   40.10
  -7   4   1  452.15   68.69
  -7   4   1  543.65   87.99
  -7   4   1  309.67   64.79
  -7   4   1  531.85   72.59
  -6   4   1  350.26   61.19
  -6   4   1  377.76   55.19
  -6   4   1  310.87   52.99
  -6   4   1  355.46   64.49
   5  -4  -1  724.23   80.09
  -5   4   1  677.43   72.69
  -5   4   1  736.73   64.29
  -5   4   1  744.03   61.49
   4  -4  -1 2175.28  133.19
  -4   4   1 1698.03  110.09
  -4   4   1 2030.00  105.09
  -4   4   1 1815.92   99.79
  -4   4   1 1986.60   95.99
  -4   4   1 2009.50  121.39
   3  -4  -1 2646.64  143.99
  -3   4   1 2608.34  108.09
  -3   4   1 2672.23  122.29
  -3   4   1 2635.74  112.49
  -3   4   1 2734.43  156.48
  -3   4   1 2630.14  129.69
   2  -4  -1 2560.14  110.69
   2  -4  -1 2559.94  134.49
  -2   4   1 2686.63  135.49
  -2   4   1 2533.35  136.99
  -2   4   1 2807.62  120.39
  -2   4   1 2651.14   96.29
  -2   4   1 2538.35   97.79
  -2   4   1 2611.34  134.09
   1  -4  -1 3009.10  129.19
   1  -4  -1 3273.77  152.98
  -1   4   1 3033.70  126.39
  -1   4   1 2781.12  139.39
  -1   4   1 3098.79  142.09
  -1   4   1 2788.62  141.59
   0  -4  -1 6400.86  254.87
   0  -4  -1 6101.39  236.58
   0   4   1 6568.34  250.57
   0   4   1 6312.67  251.67
   0   4   1 6002.00  251.77
   0   4   1 6608.54  241.18
  -1  -4  -1 4878.41  207.78
  -1  -4  -1 5499.15  226.28
  -1  -4  -1 5251.37  188.58
  -1  -4  -1 5321.47  186.68
   1   4   1 5308.87  203.88
   1   4   1 4724.43  211.58
   1   4   1 5236.88  207.48
   1   4   1 5086.49  205.18
  -2  -4  -1 2673.73  135.09
  -2  -4  -1 2912.11  124.49
  -2  -4  -1 2762.52  144.39
   2   4   1 2506.05  113.09
   2   4   1 2746.73  122.19
   2   4   1 2423.06  114.39
   2   4   1 2570.54  129.79
  -3  -4  -1 2519.95  142.59
   3   4   1 2617.64  133.49
   3   4   1 2638.74  110.29
   3   4   1 2370.06  108.49
   3   4   1 2704.93  143.79
  -4  -4  -1 2771.82  160.08
  -4  -4  -1 2693.43  138.59
   4   4   1 2379.46  146.59
   4   4   1 2768.42  104.89
   4   4   1 2871.71  105.59
   4   4   1 2656.63  150.48
  -5  -4  -1 1684.93  109.99
  -5  -4  -1 1608.04  125.99
   5   4   1 1527.45  126.19
  -6  -4  -1 1287.47  105.99
   6   4   1 1144.99  117.99
  -7   5   1  321.87   61.89
  -7   5   1  371.96   74.39
  -7   5   1  342.77   58.69
  -7   5   1  213.98   60.19
  -6   5   1  765.12   68.19
  -6   5   1  813.12  100.79
  -6   5   1  698.03   75.49
  -6   5   1  598.34   87.09
   5  -5  -1  606.04   89.09
  -5   5   1  727.53   66.79
  -5   5   1  711.83   90.99
   4  -5  -1  137.29   42.30
  -4   5   1  229.18   34.80
  -4   5   1  306.87   42.20
  -4   5   1  183.38   41.80
  -4   5   1  250.27   33.00
   3  -5  -1  191.78   44.50
  -3   5   1  127.79   27.40
  -3   5   1  179.08   34.30
  -3   5   1  147.79   19.80
  -3   5   1  118.29   35.50
  -3   5   1  144.99   22.90
   2  -5  -1  164.98   27.20
  -2   5   1  165.98   37.80
  -2   5   1  175.28   29.80
   1  -5  -1    6.80   15.00
   1  -5  -1   21.80   17.00
  -1   5   1   16.30   13.30
  -1   5   1   26.40   15.70
   0  -5  -1  120.79   33.50
   0   5   1   80.29   30.00
   0   5   1  118.39   23.90
   0   5   1   53.69   18.30
  -1  -5  -1   20.80   12.20
  -1  -5  -1   37.10   22.70
  -1  -5  -1   27.20    8.90
  -1  -5  -1   24.20   18.30
   1   5   1   46.80   20.20
   1   5   1   61.29   27.60
   1   5   1   22.80   14.20
  -2  -5  -1  153.18   24.40
  -2  -5  -1  179.48   40.40
  -2  -5  -1  120.89   25.20
   2   5   1  150.28   38.70
   2   5   1  209.68   35.00
   2   5   1  100.39   28.60
  -3  -5  -1  652.13   86.59
  -3  -5  -1  705.73   54.49
   3   5   1  666.83   70.39
   3   5   1  715.13   57.59
   3   5   1  732.63   53.29
  -4  -5  -1  530.85   54.49
  -4  -5  -1  743.73   98.99
   4   5   1  595.04   44.00
   4   5   1  602.14   83.59
   4   5   1  495.95   45.40
  -5  -5  -1  599.04   92.99
  -5  -5  -1  747.33   70.59
   5   5   1 1056.59  253.47
  -6  -5  -1  774.72  109.79
  -6  -5  -1  750.92   93.09
   6   5   1  480.55   95.09
   6  -6  -1 1392.06  138.69
  -6   6   1 1238.18  121.49
  -6   6   1 1317.27  105.29
  -6   6   1 1341.37   90.39
   5  -6  -1 1308.87  123.19
  -5   6   1 1523.65  101.69
  -5   6   1 1312.27   81.19
  -5   6   1 1473.65  121.29
   4  -6  -1 1462.15  124.09
  -4   6   1 1827.42  108.39
  -4   6   1 1816.22  131.39
  -4   6   1 1643.04   85.29
  -4   6   1 1683.43   80.39
   3  -6  -1 1982.90  138.99
  -3   6   1 2053.29   74.69
  -3   6   1 2043.00  119.99
  -3   6   1 2029.10  112.49
  -3   6   1 1938.81   72.69
  -3   6   1 2309.67  141.79
   2  -6  -1 2729.93  124.79
   2  -6  -1 2526.55  156.28
  -2   6   1 2645.44  129.99
  -2   6   1 2809.62  158.48
   1  -6  -1 1740.53   98.79
   1  -6  -1 2034.70  129.79
  -1   6   1 1868.91  118.49
  -1   6   1 1783.92   98.09
   0  -6  -1 2285.97  141.69
   0  -6  -1 2004.20  114.29
   0   6   1 2546.25  141.89
   0   6   1 2579.44  130.49
  -1  -6  -1 1607.44   69.79
  -1  -6  -1 1814.82  124.09
   1   6   1 1867.21  154.78
   1   6   1 1869.31  127.19
  -2  -6  -1  909.81   88.99
  -2  -6  -1  848.32   52.89
  -2  -6  -1  822.92   57.39
   2   6   1 1082.39   77.39
   2   6   1  955.70   82.39
  -3  -6  -1  707.63   89.59
  -3  -6  -1  621.14   52.19
   3   6   1  529.35   72.29
   3   6   1  617.44   67.59
   3   6   1  577.14   55.89
  -4  -6  -1  698.73   64.69
  -4  -6  -1  833.62  104.19
   4   6   1  634.14   89.09
   4   6   1  595.64   63.49
   4   6   1  630.44   57.29
  -5  -6  -1  234.78   60.49
  -5  -6  -1  341.87   55.99
   5   6   1  310.57   81.19
   5  -7  -1  129.99   55.69
  -5   7   1  125.09   52.79
  -5   7   1  144.39   27.80
  -5   7   1  120.19   40.00
   4  -7  -1  228.98   62.59
  -4   7   1  177.08   17.30
  -4   7   1  183.28   16.20
  -4   7   1  172.28   39.10
  -4   7   1  190.08   58.29
   3  -7  -1  382.56   67.49
  -3   7   1  475.85   57.89
  -3   7   1  405.46   70.89
   2  -7  -1  611.24   90.19
  -2   7   1  527.65   79.49
  -2   7   1  637.84   59.39
   1  -7  -1  889.61   94.59
  -1   7   1  781.32   80.29
  -1   7   1  660.23   61.39
   0  -7  -1  971.90  119.59
   0   7   1 1072.89   78.09
   0   7   1  911.31   85.39
  -1  -7  -1 2168.48  153.68
   1   7   1 2134.69  129.69
   1   7   1 2068.89  123.79
  -2  -7  -1 1526.85   72.79
  -2  -7  -1 1264.57   75.89
  -2  -7  -1 1216.38  114.49
   2   7   1 1164.38  100.49
   2   7   1 1558.04  102.19
  -3  -7  -1  823.32   62.89
  -3  -7  -1  800.62  113.89
   3   7   1  850.11   75.59
   3   7   1  794.62   98.79
  -4  -7  -1 1419.96  137.19
  -4  -7  -1 1248.58   91.59
   4   7   1 1578.64  114.69
   4   7   1 1135.19   86.29
   4  -8  -1  317.67   78.59
  -4   8   1  576.94   95.79
  -4   8   1  460.45   61.59
   3  -8  -1  282.77   68.09
  -3   8   1  226.08   43.40
  -3   8   1  257.37   68.39
   2  -8  -1  107.69   55.49
  -2   8   1  180.48   37.70
   1  -8  -1  339.87   69.89
  -1   8   1  371.16   52.39
  -1   8   1  281.97   67.39
   0  -8  -1  133.49   50.79
   0   8   1  138.59   39.20
   0   8   1  322.27   64.89
  -1  -8  -1   96.69   55.39
   1   8   1   25.70   33.50
  -2  -8  -1   65.89   20.90
  -2  -8  -1  -22.00   44.00
  -2  -8  -1   27.40   28.00
   2   8   1   30.50   35.80
   2   8   1   87.39   40.50
  -3  -8  -1   18.70   26.10
  -3  -8  -1  -32.70   41.60
   3   8   1   33.00   35.80
   3   8   1  -14.10   36.70
   3  -9  -1  985.40  130.69
  -3   9   1  822.22  117.79
  -3   9   1 1075.29   87.29
   2  -9  -1 1033.90  132.59
  -2   9   1 1226.48   93.29
  -2   9   1 1207.68  124.19
   1  -9  -1 1652.33  156.68
  -1   9   1 1503.05  105.09
  -1   9   1 1531.75  134.59
   0  -9  -1 1118.39  135.19
   0   9   1 1417.86  109.19
   0   9   1 1405.16  123.49
  -1  -9  -1 1215.48  155.18
   1   9   1 1010.70   99.59
  -2  -9  -1  728.93  117.39
   2   9   1  706.43   95.89
   2   9   1  558.94   80.79
   3   9  -2 1078.29  124.49
   3   9  -2 1370.26  164.88
  -3  -9   2 1050.39   79.59
  -3  -9   2 1111.59  151.18
   2   9  -2 1214.58  127.09
   2   9  -2  730.53   96.49
  -2  -9   2  937.51  121.49
   1   9  -2  928.61   76.89
  -1  -9   2  926.21  130.29
   0   9  -2  778.92   66.39
   0   9  -2  888.11   98.99
   0  -9   2  788.22  117.29
  -1   9  -2 1223.48   78.59
  -1   9  -2 1444.56  125.39
   1  -9   2 1438.66  141.49
  -2   9  -2 1199.18   66.99
  -2   9  -2 1276.07  122.19
   2  -9   2 1197.98  146.19
  -3   9  -2 1092.29  121.19
   3  -9   2  990.80  135.69
   4   8  -2   37.80   42.30
   4   8  -2  -10.80   42.90
  -4  -8   2    8.10   44.00
  -4  -8   2   28.10   32.50
   3   8  -2   45.80   34.10
   3   8  -2  176.08   56.59
  -3  -8   2  125.29   34.10
  -3  -8   2   47.20   49.20
  -2  -8   2  233.08   38.80
  -2  -8   2  284.37   67.69
  -2  -8   2  254.77   34.60
   1   8  -2  375.96   50.99
   1   8  -2  257.27   53.89
  -1  -8   2  304.87   66.29
   0   8  -2  329.97   58.39
   0   8  -2  362.46   45.70
   0  -8   2  339.97   48.40
   0  -8   2  411.66   72.69
  -1   8  -2  499.25   73.39
  -1   8  -2  535.15   46.50
   1  -8   2  526.95   83.29
   1  -8   2  565.74   49.50
  -2   8  -2  820.22   86.49
  -2   8  -2  592.64   45.20
  -2   8  -2  635.54   55.09
   2  -8   2  632.04   93.49
  -3   8  -2  780.02   48.60
  -3   8  -2  770.12  106.29
  -3   8  -2  634.24   59.59
   3  -8   2  856.81  121.89
  -4   8  -2  859.01   55.59
  -4   8  -2  979.10  124.79
   4  -8   2  713.03  107.39
   5   7  -2 1030.50  128.29
   5   7  -2  978.10  118.19
  -5  -7   2 1023.20   90.59
  -5  -7   2 1101.09  116.99
   4   7  -2  870.41   82.69
   4   7  -2  989.70  104.39
  -4  -7   2  926.11   75.09
  -4  -7   2  842.32  107.49
   3   7  -2  905.11  110.99
   3   7  -2  686.83   72.29
  -3  -7   2  639.24   87.59
  -3  -7   2  663.33   56.09
   2   7  -2 1231.98   92.09
   2   7  -2 1095.59   81.89
  -2  -7   2 1194.48   77.09
  -2  -7   2 1181.78  109.09
  -2  -7   2 1322.07   70.69
   1   7  -2 1094.79   75.29
   1   7  -2  943.91   83.19
  -1  -7   2 1015.50   51.59
  -1  -7   2  918.31   73.69
  -1  -7   2  911.31   94.99
  -1  -7   2  968.30   52.19
   0   7  -2  595.34   65.99
   0   7  -2  597.84   49.90
   0  -7   2  726.83   99.19
   0  -7   2  565.84   51.59
  -1   7  -2  763.72   50.59
  -1   7  -2  754.62   77.49
   1  -7   2  721.33   47.60
   1  -7   2  802.42   87.89
  -2   7  -2  109.19   38.40
  -2   7  -2  138.29   22.70
  -2   7  -2  148.29   27.80
   2  -7   2  135.29   43.80
  -3   7  -2  243.78   32.80
  -3   7  -2  182.68   47.80
  -3   7  -2  270.87   25.80
  -3   7  -2  294.37   32.30
  -3   7  -2  259.67   25.50
   3  -7   2  255.27   63.09
  -4   7  -2  182.28   28.80
  -4   7  -2  194.68   31.10
  -4   7  -2  133.19   35.50
  -4   7  -2  164.38   50.89
   4  -7   2  166.98   55.99
  -5   7  -2   87.49   32.10
  -5   7  -2   92.69   34.00
  -5   7  -2   22.90   41.80
   5  -7   2   46.70   50.69
   6   6  -2  287.57   70.59
   6   6  -2  443.56   49.70
  -6  -6   2  557.84   77.79
  -6  -6   2  608.44  101.29
   5   6  -2  841.32  163.88
   5   6  -2  635.94   70.89
  -5  -6   2  786.42  104.39
  -5  -6   2  723.43   72.19
   4   6  -2 1649.83  125.09
   4   6  -2 1753.62  105.19
  -4  -6   2 1638.74   99.99
  -4  -6   2 1507.35  121.29
   3   6  -2 1644.24  113.79
   3   6  -2 1565.04  100.49
  -3  -6   2 1593.04  116.39
  -3  -6   2 1543.75   88.29
   2   6  -2 1273.07   91.19
   2   6  -2 1420.86   89.89
  -2  -6   2 1470.75   74.99
  -2  -6   2 1504.65  108.89
  -2  -6   2 1304.57   80.19
   1   6  -2 1817.42  109.59
   1   6  -2 1764.92   96.29
  -1  -6   2 1879.01  125.09
  -1  -6   2 1907.11   83.39
  -1  -6   2 1923.11   87.09
  -1  -6   2 2080.39  109.29
   0   6  -2 2726.33  144.59
   0   6  -2 2567.74  115.39
   0  -6   2 2678.83   95.69
   0  -6   2 2420.96  147.99
   0  -6   2 2800.52   95.09
   0  -6   2 2364.26  113.69
  -1   6  -2 2444.46  136.69
  -1   6  -2 2272.37   97.39
  -1   6  -2 2257.37   78.99
   1  -6   2 2605.84  151.78
   1  -6   2 2358.86   99.09
  -2   6  -2 2294.47  100.69
  -2   6  -2 2288.07   96.19
  -2   6  -2 2402.66  141.09
  -2   6  -2 2289.67   89.89
   2  -6   2 2211.58   93.09
   2  -6   2 2396.56  148.49
  -3   6  -2 1672.13  118.09
  -3   6  -2 1631.64   79.89
  -3   6  -2 1602.64   82.19
  -3   6  -2 1650.13   82.29
   3  -6   2 1906.11  135.89
   3  -6   2 1679.63   86.89
  -4   6  -2 1478.65   83.59
  -4   6  -2 1522.95  117.09
  -4   6  -2 1472.45   89.29
   4  -6   2 1467.25   89.99
   4  -6   2 1473.85  127.89
  -5   6  -2 1072.39   75.29
  -5   6  -2  825.62   92.89
  -5   6  -2  680.33   91.99
   5  -6   2  972.70   85.69
   5  -6   2 1201.78  124.59
  -6   6  -2  895.51   82.59
  -6   6  -2  913.31  115.79
  -6   6  -2 1124.29  111.89
  -6   6  -2 1063.29   85.29
   6   5  -2  155.98   58.69
   6   5  -2  200.08   34.50
  -6  -5   2  244.58   61.69
  -6  -5   2  153.08   45.10
   5   5  -2   91.59   41.20
   5   5  -2   60.99   28.20
  -5  -5   2   68.09   34.80
  -5  -5   2  109.39   33.80
  -5  -5   2   37.60   26.90
   4   5  -2   -5.30   23.10
   4   5  -2  -26.00   20.20
  -4  -5   2   -1.70   19.80
  -4  -5   2   26.60   18.90
  -4  -5   2  -19.80   22.50
   3   5  -2  117.19   33.00
   3   5  -2  139.99   28.80
  -3  -5   2  110.09   31.90
  -3  -5   2  138.89   25.70
  -3  -5   2   87.09   30.50
  -3  -5   2  115.39   27.70
   2   5  -2   49.40   19.70
   2   5  -2   70.89   21.00
  -2  -5   2   74.29   25.40
  -2  -5   2   45.30   23.00
  -2  -5   2   76.09   22.60
  -2  -5   2   78.09   17.30
  -2  -5   2   36.10   19.30
   1   5  -2  646.84   47.80
   1   5  -2  566.04   52.89
  -1  -5   2  621.24   48.30
  -1  -5   2  694.03   63.89
  -1  -5   2  670.73   43.00
  -1  -5   2  670.43   39.90
  -1  -5   2  661.43   57.79
   0   5  -2   73.49   22.00
   0   5  -2   75.99   16.30
   0  -5   2   89.79   13.40
   0  -5   2   74.19   24.10
   0  -5   2   67.49   26.40
   0  -5   2   65.99   16.10
  -1   5  -2  -10.20   12.40
  -1   5  -2    5.50    7.00
  -1   5  -2    6.20    8.50
   1  -5   2   21.40   16.70
   1  -5   2   21.10    8.90
   1  -5   2   14.10    7.30
  -2   5  -2  252.67   27.40
  -2   5  -2  313.07   25.10
  -2   5  -2  222.88   38.70
  -2   5  -2  298.97   27.30
   2  -5   2  430.56   66.79
   2  -5   2  309.97   27.40
  -3   5  -2  691.63   48.60
  -3   5  -2  655.13   43.70
  -3   5  -2  589.24   47.10
  -3   5  -2  634.44   64.49
   3  -5   2  658.63   49.10
   3  -5   2  643.64   72.29
  -4   5  -2  727.83   63.49
  -4   5  -2  667.63   68.49
  -4   5  -2  744.63   53.49
   4  -5   2  712.03   80.59
   4  -5   2  759.02   63.49
  -5   5  -2  487.55   69.79
  -5   5  -2  653.73   57.39
   5  -5   2  651.33   78.49
   5  -5   2  531.65   81.09
  -6   5  -2  388.86   70.59
  -6   5  -2  664.83   96.09
  -6   5  -2  740.63   67.79
   6  -5   2  509.75   73.49
   7   4  -2  985.90  129.99
  -7  -4   2  634.04  137.69
  -7  -4   2  927.91   90.89
   6   4  -2 1428.76  140.29
   6   4  -2 1412.06   74.69
  -6  -4   2 1567.64  112.99
  -6  -4   2 1553.34  119.89
  -6  -4   2 1575.04   80.09
   5   4  -2 2147.59  106.69
   5   4  -2 2032.40  140.19
  -5  -4   2 2062.59  119.99
  -5  -4   2 2097.39  129.89
  -5  -4   2 1863.01   97.39
   4   4  -2 1667.03  109.29
   4   4  -2 1434.46   87.39
  -4  -4   2 1614.14   88.09
  -4  -4   2 1738.33   98.99
  -4  -4   2 1734.53  108.49
   3   4  -2 1801.62  105.79
   3   4  -2 1742.23   91.49
   3   4  -2 1550.14   98.89
  -3  -4   2 1647.24   89.19
  -3  -4   2 1790.42  104.09
  -3  -4   2 1766.62   91.49
  -3  -4   2 1692.83   98.89
   2   4  -2 2269.67  119.99
   2   4  -2 2582.04  111.89
   2   4  -2 2422.06  115.39
  -2  -4   2 2150.28  100.79
  -2  -4   2 2248.28  118.09
  -2  -4   2 2333.67  109.49
  -2  -4   2 2226.38  109.39
  -2  -4   2 2396.16  112.09
   1   4  -2 2300.97  101.79
   1   4  -2 2230.38  113.99
   1   4  -2 2222.98  109.09
  -1  -4   2 1873.21   87.79
  -1  -4   2 2130.59  109.29
  -1  -4   2 1990.80   87.89
  -1  -4   2 1967.60   81.69
  -1  -4   2 1737.43   95.59
   0   4  -2 2295.37  115.59
   0   4  -2 2192.18  118.29
   0   4  -2 2710.43  115.79
   0  -4   2 2143.79  112.19
   0  -4   2 1985.30   84.59
   0  -4   2 2076.29  105.49
   0  -4   2 2109.69   82.19
  -1   4  -2 1242.88   51.09
  -1   4  -2 1113.79   74.29
  -1   4  -2 1229.78   54.19
  -1   4  -2 1164.68   80.39
   1  -4   2 1106.89   77.19
   1  -4   2 1114.59   50.19
   1  -4   2 1143.09   73.09
   1  -4   2 1042.80   45.40
  -2   4  -2 1009.40   53.39
  -2   4  -2 1043.30   72.09
  -2   4  -2 1036.20   50.29
  -2   4  -2  864.71   50.69
  -2   4  -2  963.70   73.79
  -2   4  -2  956.40   76.29
   2  -4   2  921.91   75.49
   2  -4   2  965.80   53.59
  -3   4  -2  786.32   51.69
  -3   4  -2  827.72   54.89
  -3   4  -2  721.53   45.30
  -3   4  -2  809.62   65.39
   3  -4   2  839.92   57.79
  -4   4  -2  627.34   53.79
  -4   4  -2  519.15   44.30
  -4   4  -2  642.04   60.79
   4  -4   2  633.34   59.19
   4  -4   2  698.73   89.69
  -5   4  -2  589.54   82.39
  -5   4  -2  734.83   58.79
  -5   4  -2  717.23   69.19
   5  -4   2  579.04   73.69
  -6   4  -2  160.08   37.30
  -6   4  -2  215.48   46.40
  -6   4  -2  264.77   61.79
   6  -4   2  211.48   52.29
  -7   4  -2  -29.40   33.30
  -7   4  -2   13.80   32.50
  -7   4  -2   45.90   39.40
  -7   4  -2   32.90   43.30
   7  -4   2   25.30   43.20
   7   3  -2  117.49   49.60
  -7  -3   2  233.18   57.49
  -7  -3   2  162.38   44.90
   6   3  -2  401.46   41.90
   6   3  -2  410.56   74.29
  -6  -3   2  353.16   39.00
  -6  -3   2  417.76   64.69
  -6  -3   2  353.06   59.79
   5   3  -2 1043.40   65.59
   5   3  -2 1102.49   94.69
  -5  -3   2 1031.50   63.39
  -5  -3   2 1211.98   83.79
  -5  -3   2 1067.09   84.09
   4   3  -2  415.76   40.70
   4   3  -2  361.16   55.19
   4   3  -2  379.96   56.59
  -4  -3   2  566.34   53.39
  -4  -3   2  473.65   40.50
  -4  -3   2  622.64   51.79
   3   3  -2 1009.40   69.19
   3   3  -2 1077.39   64.99
   3   3  -2 1007.30   72.39
  -3  -3   2  947.41   57.09
  -3  -3   2  993.60   70.99
  -3  -3   2 1041.90   67.79
  -3  -3   2  982.10   61.99
   2   3  -2 2948.41  129.89
   2   3  -2 2957.00  126.59
   2   3  -2 3025.30  132.79
  -2  -3   2 2727.33  122.49
  -2  -3   2 2817.12  123.99
  -2  -3   2 2909.61  117.39
  -2  -3   2 2727.73  118.19
  -2  -3   2 2668.73  124.29
   1   3  -2 1136.69   57.79
   1   3  -2 1194.78   63.59
   1   3  -2 1116.19   63.99
   1   3  -2 1100.59   52.99
  -1  -3   2 1292.57   71.49
  -1  -3   2 1349.07   69.09
  -1  -3   2 1230.28   61.89
  -1  -3   2 1360.16   59.89
   0   3  -2 1774.02   69.29
   0   3  -2 1766.32   89.09
   0   3  -2 1816.62   87.59
   0   3  -2 1739.83   68.89
   0  -3   2 1663.63   68.79
   0  -3   2 1781.92   89.89
   0  -3   2 1755.92   85.49
   0  -3   2 1751.72   67.59
  -1   3  -2 6288.47  250.67
  -1   3  -2 6577.54  218.68
  -1   3  -2 6658.83  227.78
  -1   3  -2 6565.24  247.88
  -1   3  -2 6528.75  217.18
   1  -3   2 6345.67  243.28
   1  -3   2 6620.74  230.88
   1  -3   2 6356.06  251.87
  -2   3  -2 5006.00  183.68
  -2   3  -2 4925.11  198.68
  -2   3  -2 4791.32  175.48
  -2   3  -2 4992.50  173.98
  -2   3  -2 4752.32  206.98
  -2   3  -2 4866.81  200.88
   2  -3   2 4860.01  208.78
   2  -3   2 5144.89  187.78
   2  -3   2 4736.73  196.98
  -3   3  -2 2026.10   95.09
  -3   3  -2 2224.18  124.59
  -3   3  -2 2140.79  103.59
  -3   3  -2 2049.99  113.99
  -3   3  -2 2246.68  111.29
   3  -3   2 2376.26  129.29
   3  -3   2 2060.59  106.19
   3  -3   2 2161.98  102.49
  -4   3  -2 1120.79   80.39
  -4   3  -2 1118.59   84.49
  -4   3  -2 1130.49   76.19
  -4   3  -2 1063.59   81.69
   4  -3   2 1191.78   78.69
   4  -3   2 1127.49   80.39
  -5   3  -2 3378.46  177.78
  -5   3  -2 3190.58  158.98
   5  -3   2 3152.98  168.08
   5  -3   2 3066.39  177.38
  -6   3  -2 1663.73  130.29
  -6   3  -2 1835.22  111.99
   6  -3   2 1776.62  129.49
   6  -3   2 1664.23  120.99
  -7   3  -2 1221.18   94.09
  -7   3  -2 1129.19  121.99
   7  -3   2 1486.45  129.99
   7  -3   2 1234.58  124.69
   7   2  -2  683.43  103.59
  -7  -2   2  720.33   76.89
  -7  -2   2  578.44   81.99
   6   2  -2  901.11   59.89
   6   2  -2  694.83   93.19
  -6  -2   2  780.52   76.59
  -6  -2   2  733.53   72.79
  -6  -2   2  753.32   54.69
   5   2  -2 1106.49   67.99
   5   2  -2 1137.39   95.09
  -5  -2   2 1113.39   79.69
  -5  -2   2  940.51   75.39
  -5  -2   2  964.60   59.59
   4   2  -2 1002.00   61.19
  -4  -2   2 1010.30   68.89
  -4  -2   2 1078.39   59.59
  -4  -2   2  986.30   68.89
   3   2  -2 1020.00   70.69
   3   2  -2 1026.00   65.29
   3   2  -2 1070.79   62.69
  -3  -2   2 1100.49   72.49
  -3  -2   2 1136.49   65.79
  -3  -2   2 1035.20   77.99
  -3  -2   2 1124.89   59.49
  -3  -2   2 1105.79   65.29
   2   2  -2  216.28   30.40
   2   2  -2  187.18   24.60
   2   2  -2  243.18   25.00
  -2  -2   2  157.28   27.10
  -2  -2   2  127.49   19.00
  -2  -2   2  125.09   20.40
  -2  -2   2  181.28   24.60
  -2  -2   2  165.28   25.50
   1   2  -2  380.56   24.50
   1   2  -2  374.36   27.90
   1   2  -2  318.67   25.70
  -1  -2   2  350.96   25.70
  -1  -2   2  317.47   26.30
  -1  -2   2  324.47   26.20
  -1  -2   2  362.46   23.80
   0   2  -2   29.70    5.30
   0   2  -2   52.29   12.00
   0   2  -2   56.39    9.50
   0   2  -2   62.09   13.60
   0  -2   2   76.69   11.50
   0  -2   2   62.99    7.20
   0  -2   2   82.09   15.70
   0  -2   2   58.19   13.50
  -1   2  -2  294.47   25.90
  -1   2  -2  311.67   30.10
  -1   2  -2  289.57   21.90
  -1   2  -2  289.77   15.50
   1  -2   2  249.18   27.90
   1  -2   2  244.78   24.30
   1  -2   2  296.27   15.80
  -2   2  -2  429.66   33.70
  -2   2  -2  491.25   45.70
  -2   2  -2  550.84   40.80
  -2   2  -2  424.16   34.90
  -2   2  -2  472.55   31.00
   2  -2   2  485.65   44.50
   2  -2   2  484.75   37.70
   2  -2   2  501.15   37.30
   2  -2   2  497.35   33.20
  -3   2  -2  114.19   24.00
  -3   2  -2   97.99   25.40
  -3   2  -2   82.59   26.70
  -3   2  -2   98.79   20.90
  -3   2  -2  125.09   23.80
  -3   2  -2   88.99   21.20
   3  -2   2   64.09   17.60
   3  -2   2   46.00   16.40
  -4   2  -2  664.13   49.50
  -4   2  -2  636.74   54.29
  -4   2  -2  556.14   54.19
  -4   2  -2  581.64   57.69
   4  -2   2  587.24   55.09
   4  -2   2  700.23   61.99
  -5   2  -2  728.73   65.49
  -5   2  -2  829.62   60.99
  -5   2  -2  827.72   78.69
   5  -2   2  843.72   76.99
   5  -2   2  775.72   71.59
  -6   2  -2  231.88   40.40
  -6   2  -2  192.78   52.69
  -6   2  -2  161.18   41.50
   6  -2   2  232.48   55.29
   6  -2   2  170.98   46.70
  -7   2  -2  217.48   62.89
  -7   2  -2  293.47   43.60
   7  -2   2  306.37   70.39
   7  -2   2  247.08   61.79
   7   1  -2 1449.06  129.59
   7   1  -2 1395.76   84.99
  -7  -1   2 1424.96  109.39
  -7  -1   2 1005.70  102.49
  -7  -1   2 1394.56  108.99
   6   1  -2 1237.78  109.09
   6   1  -2 1240.18   77.49
  -6  -1   2 1327.77   96.19
  -6  -1   2 1124.39   89.69
  -6  -1   2 1135.79   75.19
   5   1  -2 2584.74  130.59
   5   1  -2 2475.35  147.39
   5   1  -2 2486.15  119.09
  -5  -1   2 2582.94  124.39
  -5  -1   2 2663.83  138.39
  -5  -1   2 2795.22  138.79
   4   1  -2 4175.48  178.38
   4   1  -2 4414.06  199.08
   4   1  -2 4357.16  174.28
  -4  -1   2 4216.98  174.38
  -4  -1   2 4364.56  183.78
  -4  -1   2 4321.07  180.58
   3   1  -2 3012.40  139.19
   3   1  -2 2846.22  123.39
   3   1  -2 2968.40  124.29
  -3  -1   2 2783.82  133.19
  -3  -1   2 2866.61  125.39
  -3  -1   2 2854.71  122.59
  -3  -1   2 2681.13  128.49
  -3  -1   2 3152.68  123.59
   2   1  -2 5725.33  206.68
   2   1  -2 5269.67  198.58
   2   1  -2 5101.19  197.88
  -2  -1   2 5831.82  205.28
  -2  -1   2 5716.83  213.78
  -2  -1   2 5407.86  210.28
  -2  -1   2 5616.24  199.08
  -2  -1   2 5558.84  205.08
   1   1  -2 8967.40  292.97
   1   1  -2 8232.58  286.07
   1   1  -2 8573.24  290.47
   1   1  -2 8146.19  281.07
  -1  -1   2 8732.83  297.37
  -1  -1   2 9238.78  312.97
  -1  -1   2 8923.71  302.77
   0   1  -2 4652.43  164.28
   0   1  -2 4507.15  159.78
   0   1  -2 4725.13  153.38
   0   1  -2 4626.04  163.68
   0  -1   2 4520.35  161.38
   0  -1   2 4575.94  161.68
   0  -1   2 4550.24  158.28
   0  -1   2 4587.04  151.28
  -1   1  -2 2650.93   98.39
  -1   1  -2 2761.72  103.79
  -1   1  -2 2721.93  104.89
  -1   1  -2 2769.32  114.09
   1  -1   2 2942.31  118.09
   1  -1   2 2839.32  104.49
   1  -1   2 2866.71  108.69
   1  -1   2 2927.51  119.79
  -2   1  -2 4523.65  176.38
  -2   1  -2 4760.22  173.68
  -2   1  -2 4623.34  170.58
  -2   1  -2 4685.83  189.88
  -2   1  -2 4633.44  183.38
   2  -1   2 4892.81  185.88
   2  -1   2 4715.43  179.18
  -3   1  -2 3236.28  143.69
  -3   1  -2 3720.03  158.28
  -3   1  -2 3350.76  132.89
  -3   1  -2 3410.56  136.29
   3  -1   2 3426.76  155.58
   3  -1   2 3640.34  152.78
  -4   1  -2 2413.46  132.89
  -4   1  -2 2335.27  107.39
  -4   1  -2 2347.17  120.49
  -4   1  -2 2427.26  103.79
   4  -1   2 2380.16  125.09
   4  -1   2 2325.27  128.59
  -5   1  -2 1090.79   69.29
  -5   1  -2 1144.09   64.79
  -5   1  -2 1284.07   99.59
   5  -1   2 1159.48   89.29
   5  -1   2 1113.49   91.29
  -6   1  -2  595.14   81.89
  -6   1  -2  526.35   54.39
  -6   1  -2  546.65   44.40
   6  -1   2  575.34   80.09
   6  -1   2  531.15   80.49
  -7   1  -2  403.06   39.30
   7  -1   2  431.56   76.49
   8   0  -2  -18.10   46.80
  -8   0   2   33.40   41.90
  -8   0   2    3.80   32.00
  -8   0   2  -10.90   40.80
  -7   0   2   27.80   29.90
  -7   0   2  -10.90   21.60
  -7   0   2   -1.10   23.60
   6   0  -2   61.59   25.80
   6   0  -2   10.60   27.00
  -6   0   2   74.69   33.60
  -6   0   2   31.80   23.80
  -6   0   2   74.79   29.80
   5   0  -2  795.22   61.19
   5   0  -2  819.72   77.49
  -5   0   2  790.32   70.39
  -5   0   2  805.72   64.09
  -5   0   2  767.62   65.59
  -5   0   2  782.02   66.09
   4   0  -2 1094.99   79.19
   4   0  -2 1030.30   66.29
  -4   0   2 1171.48   71.69
  -4   0   2 1149.19   72.09
  -4   0   2 1161.68   75.39
  -4   0   2 1163.68   92.59
  -4   0   2 1037.00   69.99
   3   0  -2   71.49   20.60
   3   0  -2  108.69   21.70
  -3   0   2   69.19   18.00
  -3   0   2   73.79   16.30
  -3   0   2   81.69   17.90
  -3   0   2   64.99   20.40
  -3   0   2   75.99   21.10
  -3   0   2   81.19   16.40
   2   0  -2 2118.59   91.09
   2   0  -2 1922.41   92.99
  -2   0   2 1867.71   81.79
  -2   0   2 1870.71   86.79
  -2   0   2 1906.71   77.49
  -2   0   2 1975.70   79.19
  -2   0   2 1973.40   89.99
  -2   0   2 1993.80   90.49
   1   0  -2 1190.48   51.79
   1   0  -2 1289.07   58.59
  -1   0   2 1201.38   42.60
  -1   0   2 1197.18   52.49
  -1   0   2 1236.98   51.19
   0   0  -2 2256.67   82.69
   0   0  -2 2180.38   82.89
   0   0  -2 2286.17   83.19
   0   0  -2 2154.38   84.89
   0   0   2 2264.87   83.99
   0   0   2 2188.58   81.49
   0   0   2 2144.09   81.89
  -1   0  -2 3157.58  117.09
  -1   0  -2 3099.29  106.69
  -1   0  -2 2983.20  122.99
   1   0   2 2974.30  110.29
   1   0   2 2962.30  111.89
   1   0   2 2581.64  112.59
   1   0   2 2930.01   99.29
  -2   0  -2 1735.03   82.69
  -2   0  -2 1741.93   63.29
  -2   0  -2 1613.24   79.79
  -2   0  -2 1760.12   89.49
  -2   0  -2 1725.73   64.19
   2   0   2 1671.13   83.29
   2   0   2 1749.43   85.89
   2   0   2 1625.04   80.29
  -3   0  -2 2474.55  121.29
  -3   0  -2 2720.83   99.59
  -3   0  -2 2775.82  134.99
  -3   0  -2 2548.15  124.09
  -3   0  -2 2692.93   96.79
   3   0   2 2723.83  126.19
   3   0   2 2606.14  127.59
  -4   0  -2 1390.96   59.69
  -4   0  -2 1469.75   63.69
  -4   0  -2 1435.36   98.19
   4   0   2 1454.75   94.09
  -5   0  -2  658.53   72.49
  -5   0  -2  668.83   42.20
  -5   0  -2  602.24   34.20
   5   0   2  763.32   74.49
   5   0   2  691.43   73.59
  -6   0  -2 1311.57   49.50
  -6   0  -2 1343.97   50.49
  -6   0  -2 1371.86  113.09
   6   0   2 1481.35  120.69
   6   0   2 1554.44  121.99
  -7   0  -2 1440.56  152.98
   7   0   2 1317.37  127.49
   7   0   2 1362.36  127.49
   8  -1  -2  761.12  115.99
  -8   1   2 1263.77   98.49
   7  -1  -2 1274.17  120.79
  -7   1   2 1199.08  104.49
  -7   1   2 1166.08   88.99
   6  -1  -2  862.41   92.29
   6  -1  -2 1109.99   82.59
  -6   1   2  956.70   81.59
  -6   1   2 1207.18   91.69
   5  -1  -2 1214.08   83.79
   5  -1  -2 1311.07   99.09
  -5   1   2 1221.98   79.29
  -5   1   2  937.01   81.19
  -5   1   2 1090.29   81.89
  -5   1   2 1030.90   78.69
   4  -1  -2 1516.95   97.89
   4  -1  -2 1486.45   87.69
  -4   1   2 1414.36   85.99
  -4   1   2 1537.75   93.79
  -4   1   2 1497.85   83.69
  -4   1   2 1444.86   90.89
  -4   1   2 1461.55   82.49
  -4   1   2 1414.16   86.69
   3  -1  -2 3379.26  149.39
   3  -1  -2 3556.44  156.68
  -3   1   2 3790.42  147.59
  -3   1   2 3626.74  159.18
  -3   1   2 3520.85  154.48
  -3   1   2 3580.34  155.28
  -3   1   2 3675.33  147.59
  -3   1   2 3711.83  152.98
   2  -1  -2 1963.90   90.49
   2  -1  -2 1909.61   91.59
  -2   1   2 1596.54   76.29
  -2   1   2 1663.53   75.49
  -2   1   2 1650.23   81.29
  -2   1   2 1655.53   81.39
  -2   1   2 1598.64   70.39
  -2   1   2 1598.54   72.69
   1  -1  -2  853.21   44.30
   1  -1  -2  914.91   39.20
   1  -1  -2  905.31   49.99
   1  -1  -2  908.01   43.40
  -1   1   2  753.82   44.60
  -1   1   2  744.83   37.80
  -1   1   2  803.92   41.30
  -1   1   2  788.32   35.00
   0  -1  -2 1459.45   62.19
   0  -1  -2 1360.96   60.49
   0  -1  -2 1358.46   55.19
   0   1   2 1633.64   68.99
   0   1   2 1644.14   63.69
  -1  -1  -2  659.53   29.20
  -1  -1  -2  648.44   39.20
  -1  -1  -2  641.24   37.10
  -1  -1  -2  628.64   42.20
   1   1   2  510.75   32.80
   1   1   2  562.14   38.30
   1   1   2  528.75   25.10
   1   1   2  505.65   34.70
  -2  -1  -2 2029.60   92.59
  -2  -1  -2 1792.22   94.89
  -2  -1  -2 1808.12   88.79
   2   1   2 1960.20   95.89
   2   1   2 2003.40   95.79
  -3  -1  -2  131.29   28.70
  -3  -1  -2  156.58   32.50
  -3  -1  -2  160.58   29.80
   3   1   2  175.18   33.00
   3   1   2  106.19   24.30
   3   1   2  151.98   33.10
  -4  -1  -2  100.79   32.00
   4   1   2   81.39   25.30
   4   1   2  113.79   34.80
  -5  -1  -2   13.00   21.20
   5   1   2   -6.50   19.20
   5   1   2   10.00   24.90
  -6  -1  -2   63.89   36.60
   6   1   2   61.09   34.40
   6   1   2   47.80   34.30
  -7  -1  -2   51.59   43.20
   7   1   2  134.69   56.69
   7   1   2   64.99   49.80
   7  -2  -2  497.85   82.99
  -7   2   2  557.54   74.39
  -7   2   2  619.94   83.99
  -7   2   2  503.65   75.19
  -7   2   2  419.16   75.39
   6  -2  -2  532.65   77.09
   6  -2  -2  691.13   71.59
  -6   2   2  668.63   67.29
  -6   2   2  822.32   78.29
  -6   2   2  737.33   68.79
   5  -2  -2 2403.86  143.29
   5  -2  -2 2406.46  133.49
  -5   2   2 2166.48  117.79
  -5   2   2 2311.67  124.89
   4  -2  -2 1413.96   91.19
  -4   2   2 1590.84   85.39
  -4   2   2 1497.05   95.99
  -4   2   2 1590.14   89.69
  -4   2   2 1480.85   92.09
  -4   2   2 1661.93   90.89
  -4   2   2 1568.04   99.49
   3  -2  -2 4018.70  172.78
   3  -2  -2 4209.98  180.78
  -3   2   2 3924.01  160.58
  -3   2   2 4151.78  164.48
  -3   2   2 3932.51  170.28
  -3   2   2 3738.63  164.78
  -3   2   2 3973.10  162.98
  -3   2   2 4011.30  173.08
   2  -2  -2 8329.57  316.57
   2  -2  -2 8806.82  310.87
  -2   2   2 7914.11  282.17
  -2   2   2 7926.01  286.37
  -2   2   2 7917.21  290.77
  -2   2   2 8112.69  271.77
  -2   2   2 7729.93  293.07
  -2   2   2 7741.53  277.47
   1  -2  -2 3494.95  122.19
   1  -2  -2 3620.34  142.89
   1  -2  -2 3514.25  136.59
   1  -2  -2 3533.85  146.59
  -1   2   2 3125.59  107.49
  -1   2   2 3118.39  125.19
  -1   2   2 3007.40  129.29
  -1   2   2 2971.90  122.69
   0  -2  -2 2148.78   81.29
   0  -2  -2 2256.27   99.39
   0  -2  -2 2245.98   96.19
   0   2   2 2184.68   80.39
   0   2   2 2034.40   92.49
   0   2   2 2164.38   95.09
   0   2   2 2212.28   94.79
  -1  -2  -2 4779.02  186.38
  -1  -2  -2 4676.13  179.88
  -1  -2  -2 4505.75  169.58
   1   2   2 3817.62  141.89
   1   2   2 3815.82  155.58
   1   2   2 3925.41  147.49
   1   2   2 3881.21  157.48
  -2  -2  -2 4404.76  185.88
  -2  -2  -2 4395.86  172.58
  -2  -2  -2 4194.18  177.58
   2   2   2 4297.37  143.99
   2   2   2 4133.79  144.49
   2   2   2 4199.18  170.88
   2   2   2 4083.19  177.28
  -3  -2  -2 3992.50  181.38
  -3  -2  -2 3715.43  168.08
   3   2   2 3684.83  181.18
   3   2   2 4079.59  178.78
   3   2   2 4101.19  181.88
  -4  -2  -2 1502.15  104.69
   4   2   2 1955.70  105.69
   4   2   2 1790.52  114.49
  -5  -2  -2 1881.11  129.79
   5   2   2 1885.71  132.09
   5   2   2 1771.92  126.39
  -6  -2  -2  971.70  103.19
   6   2   2  937.71  100.09
   6   2   2  994.40  100.49
  -7  -2  -2  902.21  116.29
  -7  -2  -2  928.11   98.19
   7   2   2  657.53   99.19
   7   2   2  815.32  113.19
  -7   3   2  186.68   49.99
  -7   3   2  256.27   60.89
  -7   3   2  204.28   51.89
  -7   3   2  216.08   48.20
  -6   3   2  266.67   47.30
  -6   3   2  365.06   59.49
  -6   3   2  205.58   41.40
  -6   3   2  184.28   42.70
   5  -3  -2   37.10   29.70
  -5   3   2   57.49   22.80
  -5   3   2    0.40   18.30
  -5   3   2   57.99   26.10
  -5   3   2   17.40   18.90
   4  -3  -2  116.09   31.70
   4  -3  -2  115.89   31.20
  -4   3   2  165.48   31.50
  -4   3   2  210.18   39.30
  -4   3   2  158.68   27.10
  -4   3   2   98.19   27.10
   3  -3  -2   64.59   22.10
   3  -3  -2   51.39   17.50
  -3   3   2   21.00   19.90
  -3   3   2   38.60   15.80
  -3   3   2   61.29   23.70
  -3   3   2   39.60   23.30
  -3   3   2   37.80   11.80
  -3   3   2   72.29   19.60
   2  -3  -2  260.97   38.40
   2  -3  -2  292.27   29.60
   2  -3  -2  369.66   47.70
  -2   3   2  314.17   24.70
  -2   3   2  303.07   31.20
  -2   3   2  349.77   38.20
  -2   3   2  298.07   46.90
   1  -3  -2  666.53   51.09
   1  -3  -2  684.63   51.69
   1  -3  -2  654.83   44.30
  -1   3   2  541.45   44.90
  -1   3   2  502.45   22.90
  -1   3   2  527.15   24.10
  -1   3   2  512.65   45.00
  -1   3   2  533.15   40.60
   0  -3  -2 1314.57   70.39
   0  -3  -2 1212.78   50.09
   0  -3  -2 1273.77   75.59
   0   3   2 1342.67   74.99
   0   3   2 1352.16   72.69
   0   3   2 1355.76   54.89
   0   3   2 1389.66   73.29
   0   3   2 1376.46   75.89
  -1  -3  -2 2376.46   98.79
  -1  -3  -2 2463.45  121.79
  -1  -3  -2 2440.16  113.29
   1   3   2 2540.75  118.79
   1   3   2 2542.45  110.19
   1   3   2 2535.05  108.09
   1   3   2 2619.84  106.39
   1   3   2 2390.36  119.59
  -2  -3  -2 1165.08   79.19
  -2  -3  -2 1159.08   74.09
  -2  -3  -2 1148.89   66.69
   2   3   2 1094.49   66.09
   2   3   2 1059.69   72.09
   2   3   2 1034.50   53.49
   2   3   2 1073.39   53.39
   2   3   2 1004.00   72.49
  -3  -3  -2 1832.62  101.59
   3   3   2 1885.71   72.39
   3   3   2 1870.21   71.39
   3   3   2 1990.50  116.19
   3   3   2 1828.02  105.69
  -4  -3  -2  820.02   79.29
   4   3   2  535.15   71.19
   4   3   2  711.73   69.39
  -5  -3  -2  866.51   90.49
   5   3   2  982.30  106.39
   5   3   2 1022.50   93.19
  -6  -3  -2 1216.48  121.49
   6   3   2 1275.57  122.19
   6   3   2 1303.77  135.29
  -7  -3  -2 1181.08  111.39
  -7  -3  -2 1276.67  132.09
   7   3   2 1073.29  140.29
  -7   4   2 1239.18  110.39
  -7   4   2 1407.76  103.79
  -7   4   2 1256.17  118.69
  -7   4   2 1484.55  124.49
  -6   4   2 1638.04  100.29
  -6   4   2 1467.75  116.79
  -6   4   2 1518.55  107.59
  -6   4   2 1378.06  109.09
   5  -4  -2 2423.36  150.38
  -5   4   2 2284.27  117.09
  -5   4   2 2195.68  139.69
  -5   4   2 2285.87  125.89
  -4   4   2 2387.86  139.49
  -4   4   2 2440.16  110.59
  -4   4   2 2383.46  122.99
  -4   4   2 2473.85  124.59
   3  -4  -2 2004.20  118.99
  -3   4   2 2262.97  125.59
  -3   4   2 2096.39   90.39
  -3   4   2 2148.39  116.39
  -3   4   2 2156.18  108.99
  -3   4   2 2052.19  120.09
  -3   4   2 2018.40   93.39
   2  -4  -2 1811.72   92.29
   2  -4  -2 2017.60  113.79
  -2   4   2 2141.79  112.09
  -2   4   2 1906.41  111.39
  -2   4   2 1892.01   76.19
  -2   4   2 1964.60   74.29
  -2   4   2 2083.09  102.29
   1  -4  -2 2382.86  112.59
   1  -4  -2 2498.95  128.69
  -1   4   2 2636.24  133.39
  -1   4   2 2326.47  125.49
  -1   4   2 2703.93  120.59
  -1   4   2 2666.13  130.79
   0  -4  -2 2561.74   90.79
   0  -4  -2 2637.44  134.09
   0  -4  -2 2599.14  122.29
   0   4   2 2511.25   88.79
   0   4   2 2531.95  117.99
   0   4   2 2396.66  122.69
   0   4   2 2309.97  117.89
   0   4   2 2461.95  122.39
  -1  -4  -2 1500.25   68.69
  -1  -4  -2 1443.96   92.99
  -1  -4  -2 1484.55   86.49
   1   4   2 1501.55   86.59
   1   4   2 1406.16   92.59
   1   4   2 1379.96   80.29
   1   4   2 1359.26   77.89
   1   4   2 1514.35   71.49
  -2  -4  -2  524.85   44.20
   2   4   2  738.03   63.29
   2   4   2  769.42   49.90
   2   4   2  731.73   52.19
   2   4   2  726.53   55.19
  -3  -4  -2  458.45   69.29
   3   4   2  439.46   57.39
   3   4   2  471.65   63.09
   3   4   2  334.57   29.50
   3   4   2  299.27   31.10
  -4  -4  -2  692.23   77.79
   4   4   2  670.83   73.79
   4   4   2  641.34   81.59
  -5  -4  -2  234.48   61.19
   5   4   2  288.47   77.19
   5   4   2  147.19   44.70
  -6  -4  -2  119.09   58.79
  -6  -4  -2  103.19   37.80
   6   4   2  110.99   55.29
  -7   5   2  238.18   59.59
  -7   5   2  151.28   48.90
  -7   5   2  165.68   78.89
  -7   5   2  113.39   52.39
   6  -5  -2  211.88   58.79
  -6   5   2  206.28   47.20
  -6   5   2  178.08   50.39
  -6   5   2  228.38   57.89
  -6   5   2  190.98   40.60
   5  -5  -2  651.73   88.49
  -5   5   2  551.64   50.69
  -5   5   2  640.94   64.99
  -5   5   2  441.46   70.89
   4  -5  -2 1179.98  100.59
  -4   5   2 1450.35  107.99
  -4   5   2 1460.15   74.69
  -4   5   2 1391.36   79.19
   3  -5  -2 1668.63  116.29
  -3   5   2 1663.63   71.99
  -3   5   2 1630.04   95.69
  -3   5   2 1580.24  110.29
  -3   5   2 1386.46   98.99
  -3   5   2 1605.34   67.49
   2  -5  -2 2065.79  150.48
   2  -5  -2 1811.22   97.19
  -2   5   2 2279.97  114.59
  -2   5   2 2017.20  125.59
   1  -5  -2 2141.09  113.79
   1  -5  -2 2651.93  158.48
  -1   5   2 2351.36  131.19
  -1   5   2 2300.47  116.99
   0  -5  -2 3335.37  178.88
   0  -5  -2 3285.57  153.98
   0   5   2 3436.96  154.98
   0   5   2 3276.87  159.88
  -1  -5  -2 1273.77   62.39
  -1  -5  -2 1340.67   98.09
  -1  -5  -2 1314.77   60.29
   1   5   2 1535.55   93.89
   1   5   2 1470.15   88.39
   1   5   2 1330.37   88.69
  -2  -5  -2 1643.64   84.29
  -2  -5  -2 1838.72  121.19
  -2  -5  -2 1768.82   90.19
   2   5   2 1727.43   94.19
   2   5   2 1624.34   95.89
   2   5   2 1725.13   93.59
   2   5   2 1776.92  110.09
  -3  -5  -2 2727.23  134.19
  -3  -5  -2 3109.89  173.38
   3   5   2 2763.92  157.48
   3   5   2 2862.91  124.49
   3   5   2 2792.12  145.69
   3   5   2 2643.04  123.79
  -4  -5  -2 2451.75  161.38
  -4  -5  -2 2178.68  124.59
   4   5   2 1897.71  101.69
   4   5   2 2303.27  150.68
   4   5   2 2567.64  106.09
  -5  -5  -2 1161.18   91.99
  -5  -5  -2 1051.69  139.59
   5   5   2 1444.36  165.88
  -6  -5  -2  983.10   94.79
  -6  -5  -2 1075.69  138.99
   6   5   2 1034.60  132.59
  -6   6   2  398.56   73.39
  -6   6   2  589.74   83.39
  -6   6   2  504.35   62.69
   5  -6  -2  242.38   59.39
  -5   6   2  218.18   46.50
  -5   6   2  172.48   40.60
  -5   6   2  194.38   33.50
  -5   6   2  261.77   98.29
   4  -6  -2   93.79   46.10
  -4   6   2  102.69   18.50
  -4   6   2  102.39   23.70
  -4   6   2   43.70   34.10
  -4   6   2   98.69   32.50
   3  -6  -2   59.79   31.50
  -3   6   2   77.59   33.00
  -3   6   2  150.18   32.10
   2  -6  -2  421.16   69.19
  -2   6   2  274.27   50.39
  -2   6   2  438.86   56.19
   1  -6  -2  217.08   49.80
  -1   6   2  169.18   33.50
  -1   6   2  135.09   32.20
   0  -6  -2  183.58   41.30
   0   6   2  155.98   35.70
   0   6   2  150.78   37.70
  -1  -6  -2  173.48   18.70
  -1  -6  -2  101.89   37.80
  -1  -6  -2  210.68   23.80
   1   6   2  271.87   49.00
  -2  -6  -2   26.60   15.60
  -2  -6  -2  -14.50   25.10
  -2  -6  -2   37.80   24.00
   2   6   2   38.10   23.60
   2   6   2   12.30   17.10
  -3  -6  -2  126.99   47.90
  -3  -6  -2   67.49   29.60
   3   6   2  107.59   27.50
   3   6   2   87.79   39.10
   3   6   2  129.99   43.10
  -4  -6  -2  178.98   39.40
   4   6   2  139.09   55.69
   4   6   2  181.98   31.70
   4   6   2  168.58   35.30
  -5  -6  -2  311.07   55.19
  -5  -6  -2  300.27   77.79
   5   6   2  242.58   94.39
   5  -7  -2 1264.87  147.99
  -5   7   2 1109.79   61.79
  -5   7   2 1177.78  100.69
  -5   7   2  905.21  117.99
   4  -7  -2 1260.67  123.19
  -4   7   2 1515.75  124.69
  -4   7   2 1203.48   95.49
   3  -7  -2 1267.47  121.49
  -3   7   2 1375.56  117.99
  -3   7   2 1376.36   94.69
   2  -7  -2 1767.22  140.09
  -2   7   2 2074.39  142.99
  -2   7   2 1909.71  115.09
   1  -7  -2 1878.61  138.79
  -1   7   2 1810.42  110.79
  -1   7   2 1858.81  130.09
   0  -7  -2 1259.07  116.79
   0   7   2 1242.28  101.09
   0   7   2 1392.46   96.29
  -1  -7  -2 1831.32  142.69
   1   7   2 1641.94  113.19
   1   7   2 1618.04  111.49
  -2  -7  -2  976.10   66.39
  -2  -7  -2 1121.19  111.09
  -2  -7  -2  949.71   58.99
   2   7   2 1088.89   95.79
   2   7   2  998.50   85.39
  -3  -7  -2  634.34  100.09
   3   7   2  484.95   80.39
  -4  -7  -2  474.75   60.09
  -4  -7  -2  466.35   92.39
   4   7   2  485.65   55.09
   4   7   2  487.85   87.29
   4  -8  -2  168.18   70.99
  -4   8   2  183.58   48.30
  -4   8   2  319.37   73.09
   3  -8  -2  739.13  113.69
  -3   8   2  460.15   64.89
  -3   8   2  642.34   98.99
  -2   8   2  673.33   68.89
  -2   8   2  524.15   82.99
   1  -8  -2  613.54  133.89
  -1   8   2  660.53   92.59
  -1   8   2  659.83   70.99
   0  -8  -2 1028.40  161.68
   0   8   2 1023.10   89.69
   0   8   2  998.70   98.69
  -1  -8  -2 1130.89  124.79
   1   8   2  930.31   92.49
   1   8   2  810.62   84.69
  -2  -8  -2  593.94   44.00
  -2  -8  -2  506.35   86.79
   2   8   2  517.65   75.69
   2   8   2  695.93   94.79
  -3  -8  -2 1330.87  141.89
  -3  -8  -2 1254.07   82.19
   3   8   2 1318.97  124.39
   3   8   2 1223.08  103.19
   2  -9  -2  383.36   95.19
  -2   9   2  258.67   67.09
  -2   9   2  440.96   68.69
   1  -9  -2  119.89   66.89
  -1   9   2  149.79   55.89
  -1   9   2  227.18   51.29
   0  -9  -2   76.79   61.99
   0   9   2   36.90   44.30
   0   9   2   78.89   39.20
  -1  -9  -2   -1.10   49.60
   1   9   2  -10.10   38.70
   1   9   2   61.29   53.79
   3   9  -3  389.46   75.79
   3   9  -3  477.55   78.19
  -3  -9   3  458.65   65.89
  -3  -9   3  405.96   85.69
   2   9  -3  344.97   80.99
   2   9  -3  384.66   67.59
  -2  -9   3  393.66   42.70
  -2  -9   3  233.08   72.79
   1   9  -3  181.98   45.90
   1   9  -3  171.28   55.59
  -1  -9   3  107.89   54.49
   0   9  -3  207.78   39.10
   0   9  -3  158.78   48.80
   0  -9   3  178.38   60.19
  -1   9  -3  223.58   62.99
   1  -9   3   96.29   51.29
  -2   9  -3  -16.30   33.40
   2  -9   3   51.49   51.99
  -3   9  -3    5.00   42.30
   3  -9   3  -15.20   45.00
   4   8  -3 1054.59  173.78
   4   8  -3 1030.70  101.89
  -4  -8   3  984.00   85.19
  -4  -8   3 1182.58  141.19
   3   8  -3 1955.30  134.09
   3   8  -3 1921.31  136.49
  -3  -8   3 2366.26  222.48
  -3  -8   3 1970.30  113.69
   2   8  -3 1264.97  106.49
   2   8  -3 1250.27  103.49
  -2  -8   3 1420.76   76.89
  -2  -8   3 1335.47  125.39
  -2  -8   3 1154.38   82.79
   1   8  -3 1264.97   90.69
   1   8  -3 1222.08  106.09
  -1  -8   3  909.21   66.09
  -1  -8   3 1333.77   60.89
  -1  -8   3 1371.16  122.79
   0   8  -3 1860.41   91.79
   0   8  -3 1956.60  138.29
   0  -8   3 1852.81  147.19
   0  -8   3 1858.41   96.59
  -1   8  -3 2309.97   98.19
  -1   8  -3 2148.78  149.99
   1  -8   3 2382.76  168.08
   1  -8   3 2197.58   92.09
  -2   8  -3 1265.17   50.89
  -2   8  -3 1274.07   48.40
  -2   8  -3 1273.57  113.19
   2  -8   3 1297.77  126.89
  -3   8  -3 1017.60   38.90
  -3   8  -3 1064.59   39.40
  -3   8  -3 1199.98  112.19
   3  -8   3  840.02  112.39
  -4   8  -3  874.51  115.09
  -4   8  -3  772.22   51.79
   4  -8   3  757.12  114.69
   5   7  -3   40.80   40.30
   5   7  -3   16.10   40.30
  -5  -7   3   12.20   44.00
  -5  -7   3   56.29   35.40
   4   7  -3  130.69   42.00
   4   7  -3  100.89   47.50
  -4  -7   3   72.89   41.90
  -4  -7   3  113.39   32.90
   3   7  -3  113.09   38.40
   3   7  -3  157.98   44.90
  -3  -7   3  102.89   42.30
   2   7  -3   51.39   32.50
   2   7  -3  102.49   31.00
  -2  -7   3   89.69   40.00
  -2  -7   3   69.69   22.50
  -1  -7   3  561.84   77.99
  -1  -7   3  427.96   36.20
  -1  -7   3  425.16   40.10
  -1  -7   3  361.76   46.60
   0   7  -3  364.26   57.19
   0   7  -3  370.36   36.10
   0  -7   3  505.15   30.60
   0  -7   3  422.36   41.70
   0  -7   3  492.35   29.70
   0  -7   3  565.04   82.19
  -1   7  -3 1045.00   91.69
  -1   7  -3  952.70   51.09
   1  -7   3  986.40   97.29
   1  -7   3  851.71   44.50
  -2   7  -3 1028.30   44.60
  -2   7  -3 1072.19   95.89
  -2   7  -3 1006.20   46.60
  -2   7  -3  986.20   48.60
   2  -7   3  978.70  102.19
   2  -7   3  977.90   50.89
  -3   7  -3  810.82   88.09
  -3   7  -3  676.83   35.50
  -3   7  -3  719.13   42.90
  -3   7  -3  699.73   49.99
   3  -7   3  752.32  100.49
   3  -7   3  835.62   55.99
  -4   7  -3  857.31   90.89
  -4   7  -3  843.32   53.29
  -4   7  -3  747.53   72.89
  -4   7  -3  812.52   48.60
   4  -7   3  879.91   71.59
  -5   7  -3 1045.50  108.19
  -5   7  -3  933.81   67.89
   5  -7   3 1100.79   93.99
   5  -7   3 1066.59  143.69
   6   6  -3 1209.88  129.69
   6   6  -3 1362.86   97.89
  -6  -6   3 1069.79  119.99
  -6  -6   3 1166.28  102.19
   5   6  -3  865.31   85.19
   5   6  -3  820.52  106.99
  -5  -6   3  802.12  101.99
  -5  -6   3  828.52   76.89
   4   6  -3  889.51   85.49
   4   6  -3  994.70   89.69
  -4  -6   3  932.21   73.89
  -4  -6   3  882.91   89.79
   3   6  -3 1399.76  100.19
  -3  -6   3 1211.58   96.29
  -3  -6   3 1108.19   73.29
   2   6  -3 1186.08   85.59
   2   6  -3 1077.89   82.59
  -2  -6   3 1074.79   63.39
  -2  -6   3 1063.79   72.69
  -2  -6   3 1108.39   78.59
  -2  -6   3 1158.38   93.89
   1   6  -3  969.70   51.79
   1   6  -3  707.43   67.09
  -1  -6   3  805.92   54.19
  -1  -6   3  758.62   58.09
  -1  -6   3  917.91   50.79
  -1  -6   3  789.32   77.99
   0   6  -3 1484.15   72.09
   0   6  -3 1428.66   99.09
   0   6  -3 1465.75   63.79
   0  -6   3 1458.95  103.69
   0  -6   3 1199.18   65.69
   0  -6   3 1380.26   62.19
  -1   6  -3  507.95   67.99
  -1   6  -3  386.66   27.20
  -1   6  -3  379.76   25.80
   1  -6   3  641.94   69.89
   1  -6   3  497.85   32.90
  -2   6  -3   93.99   11.90
  -2   6  -3  116.39   19.90
  -2   6  -3   99.09   13.70
  -2   6  -3  108.59   35.30
   2  -6   3  229.58   55.49
   2  -6   3  156.58   25.50
  -3   6  -3  170.28   21.50
  -3   6  -3  227.28   27.70
  -3   6  -3  186.98   31.90
  -3   6  -3  178.48   41.30
   3  -6   3  164.48   30.10
   3  -6   3  195.48   54.99
  -4   6  -3  145.79   27.30
  -4   6  -3   76.09   32.30
  -4   6  -3  121.29   24.80
   4  -6   3  151.38   53.39
   4  -6   3  103.69   32.20
  -5   6  -3   28.60   35.60
  -5   6  -3  -25.30   32.10
  -5   6  -3   48.10   24.70
   5  -6   3  -23.00   30.00
  -6   6  -3   34.60   44.80
  -6   6  -3   73.39   37.00
  -6   6  -3   84.79   45.30
   6  -6   3   78.49   50.19
   6   5  -3  452.55   83.49
   6   5  -3  591.94   61.99
  -6  -5   3  788.42   82.09
  -6  -5   3  756.12   93.29
   5   5  -3  729.93   69.89
   5   5  -3  592.54   83.29
  -5  -5   3  654.23   66.69
  -5  -5   3  640.84   84.19
  -5  -5   3  595.64   64.69
   4   5  -3 1362.06   92.69
   4   5  -3 1297.37  100.99
  -4  -5   3 1331.07   87.49
  -4  -5   3 1331.67   89.49
  -4  -5   3 1296.87   99.19
   3   5  -3 2612.54  132.69
  -3  -5   3 2274.67  121.99
  -3  -5   3 2337.27  133.99
  -3  -5   3 2368.46  116.29
   2   5  -3 1830.42  105.39
   2   5  -3 1917.21  103.59
  -2  -5   3 1722.13   94.69
  -2  -5   3 1643.04  105.89
  -2  -5   3 1606.94   92.99
  -2  -5   3 1838.02  103.09
  -2  -5   3 1995.60   89.49
   1   5  -3 1138.49   60.89
   1   5  -3 1389.86   65.39
   1   5  -3 1306.67   83.29
  -1  -5   3 1385.76   71.89
  -1  -5   3 1312.37   86.09
  -1  -5   3 1392.46   66.79
  -1  -5   3 1317.07   91.29
   0   5  -3 3585.74  135.29
   0   5  -3 3533.25  137.09
   0   5  -3 3868.41  172.58
   0  -5   3 3385.36  169.18
   0  -5   3 3560.44  132.89
   0  -5   3 3362.26  130.79
  -1   5  -3 2157.68   80.09
  -1   5  -3 2113.19   86.79
  -1   5  -3 2086.29  118.89
  -1   5  -3 2071.79   77.59
   1  -5   3 2348.97  134.69
   1  -5   3 2243.18   93.79
  -2   5  -3 2860.51  120.79
  -2   5  -3 2958.50  150.68
  -2   5  -3 2936.31  103.99
  -2   5  -3 2840.72  104.49
   2  -5   3 3027.50  128.39
   2  -5   3 3228.18  171.08
  -3   5  -3 3053.49  145.29
  -3   5  -3 3082.39  123.29
  -3   5  -3 3185.28  123.89
  -3   5  -3 3276.67  163.78
   3  -5   3 3165.18  138.59
   3  -5   3 2864.31  171.48
  -4   5  -3 2164.18   99.89
  -4   5  -3 1840.52   98.69
  -4   5  -3 2399.56  134.99
   4  -5   3 2003.30  113.89
   4  -5   3 1935.91  140.19
  -5   5  -3 1217.18   77.89
  -5   5  -3 1184.28   96.49
  -5   5  -3 1268.17  111.09
  -5   5  -3 1184.68   84.79
   5  -5   3 1142.79   93.09
  -6   5  -3 1000.10   94.69
  -6   5  -3  948.11   78.89
  -6   5  -3 1058.09  109.89
   6  -5   3  884.31   93.69
   7   4  -3  304.07   41.30
   7   4  -3  210.48   67.99
  -7  -4   3  126.89   45.50
  -7  -4   3  225.88   54.89
   6   4  -3  259.97   44.70
  -6  -4   3  210.78   48.80
  -6  -4   3  226.58   40.40
  -6  -4   3  279.87   52.59
   5   4  -3   64.69   27.90
   5   4  -3  104.09   37.10
  -5  -4   3   51.59   23.00
  -5  -4   3  133.59   34.10
   4   4  -3   50.79   22.30
   4   4  -3   28.20   20.70
  -4  -4   3   25.40   20.30
  -4  -4   3   50.59   19.70
  -4  -4   3   50.49   25.20
   3   4  -3  188.48   36.00
   3   4  -3  258.47   41.60
   3   4  -3  196.08   34.80
  -3  -4   3  183.38   37.20
  -3  -4   3  177.78   32.00
  -3  -4   3  186.88   32.40
  -3  -4   3  226.98   34.20
   2   4  -3   16.30   11.80
   2   4  -3    8.30   10.90
  -2  -4   3   14.80   14.40
  -2  -4   3  -12.80   11.10
  -2  -4   3   13.90   14.50
  -2  -4   3   11.60   14.60
  -2  -4   3    1.90    8.40
   1   4  -3  220.28   35.70
   1   4  -3  155.78   30.60
   1   4  -3  181.58   26.80
   1   4  -3  148.69   20.60
  -1  -4   3  194.78   32.60
  -1  -4   3  159.68   22.00
  -1  -4   3  211.88   26.40
  -1  -4   3  176.78   32.90
   0   4  -3  518.45   31.80
   0   4  -3  485.95   47.50
   0   4  -3  586.74   27.40
   0   4  -3  494.65   45.80
   0  -4   3  517.65   48.50
   0  -4   3  473.55   31.80
   0  -4   3  434.06   26.10
  -1   4  -3  265.47   24.20
  -1   4  -3  338.27   45.00
  -1   4  -3  288.67   42.80
   1  -4   3  259.07   42.00
   1  -4   3  281.57   42.40
   1  -4   3  239.48   23.20
  -2   4  -3  419.76   24.20
  -2   4  -3  416.06   24.50
  -2   4  -3  424.16   44.60
  -2   4  -3  387.56   34.50
   2  -4   3  518.45   55.49
   2  -4   3  446.76   37.10
   2  -4   3  493.95   50.99
  -3   4  -3  749.03   55.19
  -3   4  -3  694.53   61.59
  -3   4  -3  705.63   44.00
  -3   4  -3  652.63   40.90
   3  -4   3  668.13   53.29
   3  -4   3  703.03   71.59
  -4   4  -3  553.84   48.10
  -4   4  -3  683.33   48.90
  -4   4  -3  650.43   62.19
   4  -4   3  585.64   80.39
   4  -4   3  655.43   60.59
  -5   4  -3  918.91   89.59
  -5   4  -3  942.51   77.99
  -5   4  -3  825.22   64.89
   5  -4   3  936.21   79.49
   5  -4   3  913.31   83.19
  -6   4  -3  999.70  103.69
  -6   4  -3  896.51   77.89
  -6   4  -3  851.91   84.19
   6  -4   3  922.41   93.19
   6  -4   3 1041.90  101.99
  -7   4  -3  769.12   82.09
  -7   4  -3  618.04   80.89
  -7   4  -3  720.63  111.79
   7  -4   3  851.01  119.19
   7   3  -3 1328.47  130.79
   7   3  -3 1447.66   84.49
  -7  -3   3 1357.36  110.69
  -7  -3   3 1396.86  112.99
   6   3  -3 2087.39  150.18
   6   3  -3 2107.39  110.19
  -6  -3   3 2044.00  126.49
  -6  -3   3 1893.11  101.69
  -6  -3   3 2015.50  124.79
   5   3  -3 2346.27  146.89
   5   3  -3 2349.86  118.39
  -5  -3   3 2341.97  126.89
  -5  -3   3 2205.28  123.99
  -5  -3   3 2186.28  109.39
   4   3  -3 1257.07   88.09
   4   3  -3 1552.34   87.69
   4   3  -3 1405.46   99.19
  -4  -3   3 1485.35   90.39
  -4  -3   3 1635.54   85.39
  -4  -3   3 1542.45   91.49
   3   3  -3 2792.62  129.29
   3   3  -3 2435.66  121.59
   3   3  -3 2830.32  136.39
  -3  -3   3 2693.73  124.09
  -3  -3   3 2645.54  118.49
  -3  -3   3 2627.34  130.19
  -3  -3   3 2541.75  130.99
  -3  -3   3 2666.43  122.39
   2   3  -3 2927.81  132.89
   2   3  -3 3126.79  134.09
   2   3  -3 3143.39  126.69
   2   3  -3 2986.30  130.09
  -2  -3   3 3124.19  137.09
  -2  -3   3 3005.10  134.09
  -2  -3   3 3354.56  133.29
  -2  -3   3 3297.97  138.19
   1   3  -3 7170.88  240.08
   1   3  -3 6448.15  249.18
   1   3  -3 6598.54  240.68
   1   3  -3 6862.41  253.47
  -1  -3   3 6655.73  254.97
  -1  -3   3 6909.51  241.18
  -1  -3   3 6751.42  253.37
  -1  -3   3 6902.41  240.88
   0   3  -3 5480.75  187.98
   0   3  -3 5342.17  215.18
   0   3  -3 5804.42  197.98
   0   3  -3 5681.33  215.68
   0  -3   3 5285.27  206.88
   0  -3   3 5383.06  211.68
   0  -3   3 5354.06  191.98
   0  -3   3 5399.06  179.58
  -1   3  -3 3084.49  132.89
  -1   3  -3 2892.91  136.19
  -1   3  -3 2953.80  117.69
   1  -3   3 2704.23  128.39
   1  -3   3 3015.00  139.49
   1  -3   3 3118.29  118.89
  -2   3  -3 2310.07  109.39
  -2   3  -3 2177.28   86.79
  -2   3  -3 2198.38   99.29
  -2   3  -3 2204.48  119.79
   2  -3   3 2224.48  106.69
   2  -3   3 2172.08   86.39
   2  -3   3 1929.41  112.79
   2  -3   3 2140.69   98.69
  -3   3  -3  862.61   66.29
  -3   3  -3  894.61   62.59
  -3   3  -3  894.11   60.99
  -3   3  -3  846.02   52.29
   3  -3   3  938.61   57.29
   3  -3   3  931.21   77.39
   3  -3   3  865.81   62.69
  -4   3  -3  562.84   71.39
  -4   3  -3  543.95   51.19
  -4   3  -3  420.96   55.09
   4  -3   3  443.96   46.90
  -5   3  -3  993.60   74.09
  -5   3  -3 1009.80   89.99
   5  -3   3  867.81   81.79
   5  -3   3  831.02   84.49
  -6   3  -3   72.19   43.70
  -6   3  -3  115.99   32.50
   6  -3   3   88.19   40.60
   6  -3   3   67.09   37.60
  -7   3  -3  116.29   55.29
  -7   3  -3   17.90   32.70
   7  -3   3   23.50   44.00
   7  -3   3   68.39   45.30
   7   2  -3  365.76   47.80
   7   2  -3  208.48   56.19
  -7  -2   3  297.47   59.19
  -7  -2   3  236.78   51.39
   6   2  -3  401.96   73.49
   6   2  -3  421.56   51.49
  -6  -2   3  431.16   61.79
  -6  -2   3  512.15   71.99
   5   2  -3  551.44   59.09
   5   2  -3  745.43   58.09
   5   2  -3  703.03   75.19
  -5  -2   3  710.93   61.09
  -5  -2   3  652.13   61.19
  -5  -2   3  646.44   53.89
   4   2  -3  595.14   50.39
   4   2  -3  751.52   93.09
   4   2  -3  536.95   49.70
  -4  -2   3  477.45   46.30
  -4  -2   3  493.45   44.60
  -4  -2   3  508.75   44.40
   3   2  -3 2079.19  108.09
   3   2  -3 1843.02   98.29
   3   2  -3 1898.81   92.59
  -3  -2   3 1782.32   89.29
  -3  -2   3 1892.61   87.89
  -3  -2   3 1721.33   95.99
  -3  -2   3 1917.31   92.99
  -3  -2   3 1853.71  102.29
   2   2  -3 6027.70  227.68
   2   2  -3 5822.62  214.48
   2   2  -3 5875.01  218.38
   2   2  -3 6147.88  227.88
  -2  -2   3 5980.10  218.78
  -2  -2   3 6004.90  214.78
  -2  -2   3 6032.20  220.88
  -2  -2   3 5645.44  220.78
   1   2  -3 3539.05  142.99
   1   2  -3 3559.74  136.39
   1   2  -3 3729.93  136.29
  -1  -2   3 3933.71  151.48
  -1  -2   3 3838.92  143.59
  -1  -2   3 3805.92  143.59
   0   2  -3 1142.89   61.69
   0   2  -3 1353.16   56.99
   0   2  -3 1234.98   63.09
   0  -2   3 1874.11   74.29
   0  -2   3 1799.22   61.39
   0  -2   3 1690.13   80.29
   0  -2   3 1703.03   62.09
   0  -2   3 1550.74   77.79
  -1   2  -3 2685.63   90.89
  -1   2  -3 2489.65  104.49
  -1   2  -3 2598.14  110.09
  -1   2  -3 2572.64  117.59
   1  -2   3 2751.42  117.49
   1  -2   3 2936.01  114.99
   1  -2   3 2792.92   99.09
   1  -2   3 2910.81  127.19
  -2   2  -3 3499.95  159.58
  -2   2  -3 3578.94  133.19
  -2   2  -3 3583.24  143.69
  -2   2  -3 3374.86  141.99
   2  -2   3 3431.46  132.99
   2  -2   3 3571.14  144.99
   2  -2   3 3303.67  140.29
   2  -2   3 3542.65  158.68
  -3   2  -3 4186.68  197.28
  -3   2  -3 4257.37  179.58
  -3   2  -3 4508.15  190.88
  -3   2  -3 4195.28  169.98
  -3   2  -3 4396.56  177.58
  -3   2  -3 4309.77  172.08
   3  -2   3 4566.64  182.48
   3  -2   3 4474.75  191.68
  -4   2  -3 2582.34  125.49
  -4   2  -3 2622.14  143.29
  -4   2  -3 2595.94  127.09
  -4   2  -3 2730.23  121.19
   4  -2   3 2773.52  158.18
   4  -2   3 2550.34  131.59
  -5   2  -3 2147.79  108.19
  -5   2  -3 2115.89  116.89
  -5   2  -3 2363.46  143.49
   5  -2   3 2414.06  134.39
   5  -2   3 2046.50  134.09
  -6   2  -3 1109.89   72.79
  -6   2  -3  970.20   83.49
  -6   2  -3 1182.28  110.89
   6  -2   3 1090.69  103.79
   6  -2   3  971.80   96.09
  -7   2  -3 1122.29  121.49
  -7   2  -3 1116.29   72.89
   7  -2   3 1210.18  122.39
   7  -2   3 1009.40  123.79
   7   1  -3  681.63   69.89
   7   1  -3  794.52  112.09
  -7  -1   3  771.12   81.79
  -7  -1   3  757.12   88.09
   6   1  -3  453.45   73.49
   6   1  -3  551.24   56.09
  -6  -1   3  664.13   65.29
  -6  -1   3  462.85   58.79
   5   1  -3  819.52   76.89
   5   1  -3  741.83   59.59
  -5  -1   3  896.71   71.19
  -5  -1   3  926.01   70.39
  -5  -1   3  794.32   62.49
  -5  -1   3  771.32   65.09
   4   1  -3  769.22   66.89
   4   1  -3  789.52   52.79
   4   1  -3  719.73   54.09
  -4  -1   3  780.52   60.99
  -4  -1   3  858.01   56.09
  -4  -1   3  899.21   61.89
   3   1  -3 1526.75   71.99
   3   1  -3 1583.64   83.99
   3   1  -3 1582.64   90.99
  -3  -1   3 1358.76   77.79
  -3  -1   3 1401.46   85.09
  -3  -1   3 1561.64   77.79
  -3  -1   3 1462.95   68.29
  -3  -1   3 1363.26   82.69
   2   1  -3  232.78   18.60
   2   1  -3  217.98   29.80
   2   1  -3  196.98   24.60
   2   1  -3  201.98   28.60
  -2  -1   3  277.67   28.60
  -2  -1   3  263.17   18.30
  -2  -1   3  279.87   35.40
  -2  -1   3  251.07   23.60
   1   1  -3   50.69   12.90
   1   1  -3   46.30   11.00
   1   1  -3   43.10   10.90
   1   1  -3   51.19    7.40
  -1  -1   3  119.39   17.90
  -1  -1   3   74.99    9.80
  -1  -1   3   67.69   12.60
  -1  -1   3   73.99   14.90
   0   1  -3  157.48   12.60
   0   1  -3  152.18   16.70
   0   1  -3  147.59   15.20
   0  -1   3  138.29   15.30
   0  -1   3  110.99   16.60
   0  -1   3  127.89   11.60
  -1   1  -3  366.26   25.90
  -1   1  -3  338.87   27.00
  -1   1  -3  384.26   30.30
  -1   1  -3  390.56   33.60
  -1   1  -3  396.16   23.60
   1  -1   3  414.56   24.80
   1  -1   3  381.26   26.40
   1  -1   3  396.86   29.70
  -2   1  -3  289.47   26.30
  -2   1  -3  319.07   30.40
  -2   1  -3  270.47   22.50
  -2   1  -3  301.87   40.30
  -2   1  -3  326.17   32.90
   2  -1   3  203.48   27.20
   2  -1   3  279.47   23.20
   2  -1   3  291.87   26.70
  -3   1  -3  367.36   55.69
  -3   1  -3  350.16   36.20
  -3   1  -3  407.76   29.80
  -3   1  -3  402.56   41.00
  -3   1  -3  374.26   31.80
  -3   1  -3  414.26   43.60
   3  -1   3  397.36   41.10
   3  -1   3  385.06   39.70
  -4   1  -3  307.47   29.00
  -4   1  -3  416.96   46.10
  -4   1  -3  353.96   33.90
  -4   1  -3  334.37   56.99
   4  -1   3  474.25   48.80
   4  -1   3  285.67   41.80
  -5   1  -3  180.78   24.60
  -5   1  -3  199.68   44.10
  -5   1  -3  172.98   27.50
   5  -1   3  268.27   52.09
   5  -1   3  246.48   50.99
  -6   1  -3  347.87   34.10
  -6   1  -3  390.96   71.09
  -6   1  -3  348.37   38.70
   6  -1   3  342.47   61.49
   6  -1   3  348.37   69.79
  -7   1  -3  391.96   82.79
   7  -1   3  284.17   65.69
   7  -1   3  295.17   70.69
   8   0  -3  815.22  113.09
  -8   0   3  967.00   87.59
  -8   0   3 1012.70   99.99
  -8   0   3  982.70  100.89
   7   0  -3  977.20  168.98
   7   0  -3 1257.77  116.99
  -7   0   3 1245.68  100.99
  -7   0   3 1068.69   92.79
   6   0  -3 1805.82  108.69
   6   0  -3 1710.63  128.09
  -6   0   3 1551.54  104.89
  -6   0   3 1789.42  112.29
   5   0  -3 2131.39  115.39
   5   0  -3 2183.78  135.09
  -5   0   3 1720.93  108.09
  -5   0   3 1779.72  106.99
  -5   0   3 1931.01  103.99
  -5   0   3 1815.72  104.29
   4   0  -3 1877.61  108.79
   4   0  -3 1540.65   91.29
  -4   0   3 1406.26   82.59
  -4   0   3 1603.44   82.99
  -4   0   3 1508.75   89.79
  -4   0   3 1446.56   82.09
   3   0  -3 3523.25  151.78
   3   0  -3 3458.45  157.98
  -3   0   3 3538.05  148.19
  -3   0   3 3234.08  138.19
  -3   0   3 3371.46  149.99
  -3   0   3 3375.46  132.69
  -3   0   3 3344.27  150.88
  -3   0   3 3321.47  132.89
   2   0  -3 2836.92  123.79
   2   0  -3 2754.42  111.89
  -2   0   3 2689.93  113.49
  -2   0   3 2902.81  102.09
  -2   0   3 2935.71  124.19
  -2   0   3 2855.61  102.69
  -2   0   3 2793.92  121.79
   1   0  -3  587.74   32.90
   1   0  -3  521.85   20.80
   1   0  -3  508.85   29.80
   1   0  -3  526.65   37.30
  -1   0   3  502.85   36.30
  -1   0   3  560.24   31.40
  -1   0   3  508.55   20.90
  -1   0   3  583.74   33.20
   0   0  -3 7491.85  263.97
   0   0  -3 7603.24  267.17
   0   0  -3 7689.23  260.07
   0   0  -3 7466.55  259.37
   0   0   3 7322.37  245.38
   0   0   3 7143.79  253.07
   0   0   3 6940.31  248.58
   0   0   3 7040.10  246.58
  -1   0  -3 2340.77   93.39
  -1   0  -3 2203.98  100.69
  -1   0  -3 2204.78   93.69
  -1   0  -3 2230.58   86.39
   1   0   3 2299.57   92.29
   1   0   3 1935.31   93.49
   1   0   3 2221.58   93.59
   1   0   3 2204.38   81.99
  -2   0  -3 4567.94  191.98
  -2   0  -3 4721.93  179.88
  -2   0  -3 4469.45  180.38
  -2   0  -3 4653.03  158.08
   2   0   3 4556.44  156.98
   2   0   3 4644.24  180.58
  -3   0  -3 1109.89   78.59
  -3   0  -3 1208.48   82.69
  -3   0  -3 1138.29   73.49
  -3   0  -3 1205.88   49.10
  -3   0  -3 1210.88   47.40
   3   0   3 1194.98   73.69
   3   0   3 1217.68   77.99
   3   0   3 1083.39   75.99
  -4   0  -3  513.35   26.10
  -4   0  -3  483.35   23.80
  -4   0  -3  574.84   74.99
   4   0   3  543.25   57.29
   4   0   3  566.84   57.29
  -5   0  -3 1554.34  115.09
   5   0   3 1563.14  108.49
   5   0   3 1495.05  111.19
  -6   0  -3 1151.48  109.29
   6   0   3 1091.89  103.29
   6   0   3 1135.09  106.59
  -7   0  -3  267.37   62.39
   7   0   3  268.57   58.49
   7   0   3  319.57   67.09
   8  -1  -3   23.20   47.20
  -8   1   3    7.20   40.80
  -8   1   3   23.20   41.10
  -8   1   3   37.00   37.50
   7  -1  -3   17.30   31.40
   7  -1  -3   23.20   41.00
  -7   1   3   35.40   32.70
   6  -1  -3   59.19   30.30
   6  -1  -3   28.10   26.90
  -6   1   3    7.00   19.60
   5  -1  -3   53.79   23.10
   5  -1  -3   68.49   27.20
  -5   1   3   91.69   29.70
  -5   1   3   41.40   13.20
  -5   1   3   62.09   25.20
   4  -1  -3  186.48   37.80
   4  -1  -3  195.88   38.40
  -4   1   3  291.07   45.50
  -4   1   3  270.87   37.60
  -4   1   3  171.08   30.30
  -4   1   3  289.07   38.00
  -4   1   3  220.88   39.60
   3  -1  -3 1128.99   62.79
   3  -1  -3 1133.99   72.09
  -3   1   3  958.60   65.39
  -3   1   3 1002.00   56.59
  -3   1   3  977.30   66.89
  -3   1   3  978.90   56.39
  -3   1   3 1005.00   61.49
  -3   1   3  892.61   62.29
   2  -1  -3 1297.17   59.49
   2  -1  -3 1181.28   58.39
   2  -1  -3 1275.87   71.69
  -2   1   3 1046.30   52.79
  -2   1   3  966.00   62.79
  -2   1   3 1161.58   65.39
  -2   1   3 1104.99   65.29
  -2   1   3 1025.00   57.39
   1  -1  -3  793.02   39.90
   1  -1  -3  809.32   49.99
   1  -1  -3  827.72   38.80
   1  -1  -3  760.92   44.20
  -1   1   3 1032.20   46.70
  -1   1   3  990.90   45.60
  -1   1   3  978.20   55.59
  -1   1   3  952.20   51.99
   0  -1  -3 3524.45  132.39
   0  -1  -3 3284.27  125.19
   0   1   3 3588.44  134.49
   0   1   3 3578.94  138.99
   0   1   3 3726.03  142.59
   0   1   3 3789.52  139.79
  -1  -1  -3 1678.23   83.09
  -1  -1  -3 1647.44   73.69
  -1  -1  -3 1579.24   65.39
  -1  -1  -3 1564.04   76.29
   1   1   3 1333.87   69.69
   1   1   3 1330.97   65.49
   1   1   3 1339.37   56.89
   1   1   3 1372.06   71.89
  -2  -1  -3 3325.07  147.89
  -2  -1  -3 3101.99  135.29
  -2  -1  -3 3224.88  138.69
   2   1   3 3017.70  143.19
   2   1   3 3262.77  139.69
   2   1   3 3157.38  137.69
  -3  -1  -3 2338.07  117.69
  -3  -1  -3 2360.76  120.49
  -3  -1  -3 2500.35  130.29
   3   1   3 2769.82  134.59
   3   1   3 2735.53  134.39
   3   1   3 2452.55  132.89
  -4  -1  -3 1018.00   84.69
   4   1   3 1858.91   91.69
  -5  -1  -3 2877.01  167.98
   5   1   3 2500.35  152.48
   5   1   3 2377.36  149.29
  -6  -1  -3 1720.13  135.19
   6   1   3 1779.22  135.79
   6   1   3 2040.10  146.59
  -7  -1  -3 1241.28  129.69
   7   1   3  787.12  106.99
   7   1   3  961.60  125.59
  -7   2   3  893.71   92.69
  -7   2   3 1135.89   92.49
  -7   2   3 1153.98   97.79
  -7   2   3  854.31   94.19
   6  -2  -3  933.11   84.59
  -6   2   3  826.72   77.69
  -6   2   3  946.71   79.09
  -6   2   3  743.23   68.49
   5  -2  -3 1994.30  122.39
  -5   2   3 2226.38  121.69
  -5   2   3 2028.30  113.69
  -5   2   3 1963.60  118.99
  -5   2   3 2023.00  110.69
   4  -2  -3 2255.37  119.69
   4  -2  -3 2442.36  130.59
  -4   2   3 2311.77  117.59
  -4   2   3 2345.17  118.39
  -4   2   3 2290.67  120.09
  -4   2   3 2207.38  137.19
  -4   2   3 2165.98  106.99
   3  -2  -3 1606.14   86.99
   3  -2  -3 1701.23   98.49
  -3   2   3 1500.45   81.69
  -3   2   3 1573.74   82.99
  -3   2   3 1423.76   79.39
  -3   2   3 1453.35   72.69
  -3   2   3 1434.96   90.09
   2  -2  -3  812.32   50.59
   2  -2  -3  808.62   59.79
   2  -2  -3  797.22   51.49
   2  -2  -3  820.42   42.50
  -2   2   3  627.74   36.20
  -2   2   3  616.44   51.79
  -2   2   3  638.24   43.60
  -2   2   3  636.04   45.10
   1  -2  -3 1430.76   71.39
   1  -2  -3 1353.86   76.09
   1  -2  -3 1407.66   71.29
   1  -2  -3 1401.76   57.59
  -1   2   3 1118.89   65.89
  -1   2   3 1111.79   48.50
  -1   2   3 1147.09   59.79
   0  -2  -3 1440.76   73.19
   0  -2  -3 1415.06   59.99
   0  -2  -3 1297.97   69.09
   0  -2  -3 1348.07   71.79
   0   2   3 1441.06   74.09
   0   2   3 1561.24   76.59
   0   2   3 1517.05   77.19
   0   2   3 1562.04   65.29
  -1  -2  -3 1332.57   73.19
  -1  -2  -3 1345.17   77.69
   1   2   3 1377.96   67.89
   1   2   3 1388.16   64.39
   1   2   3 1368.26   75.79
  -2  -2  -3  355.16   38.40
  -2  -2  -3  462.75   47.00
  -2  -2  -3  452.75   38.80
   2   2   3  415.86   37.90
   2   2   3  396.26   21.70
   2   2   3  418.96   45.60
   2   2   3  406.86   22.80
   2   2   3  485.95   44.90
  -3  -2  -3  135.99   33.00
  -3  -2  -3  159.48   33.70
   3   2   3  157.58   32.90
   3   2   3  195.28   40.60
  -4  -2  -3  144.19   38.80
   4   2   3   62.49   26.30
   4   2   3  105.19   35.60
  -5  -2  -3  192.18   48.40
   5   2   3  175.68   48.60
   5   2   3  274.87   58.29
  -6  -2  -3   92.99   43.60
   6   2   3   26.20   45.60
  -7  -2  -3  142.89   65.99
   7   2   3   92.09   49.20
   7   2   3   58.99   51.19
  -7   3   3  546.85   79.69
  -7   3   3  708.23   86.79
  -7   3   3  615.64   82.49
  -7   3   3  523.55   99.89
   6  -3  -3 1032.90   96.29
  -6   3   3 1038.10   86.29
  -6   3   3  905.31   74.19
  -6   3   3  909.91   89.29
  -6   3   3  991.00   85.69
   5  -3  -3 2391.26  143.09
  -5   3   3 2655.43  139.59
  -5   3   3 2576.44  128.39
  -5   3   3 2522.45  135.59
   4  -3  -3 2005.10  117.79
   4  -3  -3 2243.08  131.29
  -4   3   3 2213.68  113.19
  -4   3   3 2149.08  113.19
  -4   3   3 2123.59  103.09
  -4   3   3 2059.49  118.09
   3  -3  -3 1981.80  116.39
   3  -3  -3 2065.59  110.29
  -3   3   3 1928.11   86.19
  -3   3   3 1958.40   99.79
  -3   3   3 1891.21   92.79
  -3   3   3 1738.13  105.09
  -3   3   3 1858.01  102.29
   2  -3  -3 2760.62  138.99
   2  -3  -3 2862.61  123.79
   2  -3  -3 2724.93  131.09
  -2   3   3 2875.71  127.69
  -2   3   3 2754.42  137.19
  -2   3   3 2868.91  106.89
  -2   3   3 2796.22  112.29
  -2   3   3 2674.73  127.19
   1  -3  -3 7163.38  271.87
   1  -3  -3 7002.10  237.18
   1  -3  -3 7233.48  276.27
   1  -3  -3 6959.30  263.47
  -1   3   3 7039.90  275.37
  -1   3   3 7370.26  270.87
  -1   3   3 7169.78  270.37
  -1   3   3 7050.49  241.28
   0  -3  -3 5442.96  212.98
   0  -3  -3 5327.47  203.38
   0  -3  -3 5319.87  211.88
   0  -3  -3 5463.95  219.28
   0   3   3 5567.34  217.98
   0   3   3 5670.43  194.98
   0   3   3 5644.23  219.78
   0   3   3 5210.38  214.58
  -1  -3  -3 2309.27   96.39
  -1  -3  -3 2219.28  110.59
  -1  -3  -3 2181.38  116.59
   1   3   3 2454.45  104.99
   1   3   3 2438.76  106.19
   1   3   3 2245.58  117.29
   1   3   3 2492.15  121.29
   1   3   3 2376.56  106.59
  -2  -3  -3 2544.45  120.59
  -2  -3  -3 2896.31  144.59
   2   3   3 2603.54  123.89
   2   3   3 2650.14  107.59
   2   3   3 2740.03  135.79
   2   3   3 2663.73  106.29
  -3  -3  -3 3226.98  169.58
   3   3   3 3154.88  162.28
   3   3   3 3142.19  154.98
  -4  -3  -3 1546.35  114.39
   4   3   3 1384.66  106.69
   4   3   3 1519.35  104.59
  -5  -3  -3 1534.95  124.29
   5   3   3 1847.72  135.89
   5   3   3 1459.75  118.79
  -6  -3  -3  827.62  105.69
   6   3   3  786.92  108.59
   6   3   3 1042.50  125.79
  -7   4   3  265.37   67.99
  -7   4   3  251.27   58.19
  -7   4   3  237.38   50.69
  -7   4   3  317.67   64.09
  -6   4   3  142.29   39.30
  -6   4   3  229.28   43.50
  -6   4   3  114.29   31.50
  -6   4   3  181.58   50.89
   5  -4  -3   -8.30   26.00
   5  -4  -3    9.20   26.30
  -5   4   3    6.50   23.20
  -5   4   3   38.10   21.40
  -5   4   3   12.10   18.70
   4  -4  -3  158.58   42.70
   4  -4  -3  201.68   46.60
  -4   4   3  139.09   35.70
  -4   4   3  191.78   28.10
  -4   4   3  194.98   43.40
   3  -4  -3    7.70   20.40
   3  -4  -3   54.89   24.50
  -3   4   3   42.90   14.90
  -3   4   3   25.50   10.40
  -3   4   3   64.49   28.00
  -3   4   3   12.80   14.70
  -3   4   3   11.30   22.00
   2  -4  -3   34.60   22.80
   2  -4  -3   20.40   17.10
   2  -4  -3   56.49   22.80
  -2   4   3   -0.60   20.20
  -2   4   3   24.90   13.00
  -2   4   3   37.00   15.70
  -2   4   3   25.40    8.10
   1  -4  -3  296.57   39.90
   1  -4  -3  294.77   44.90
   1  -4  -3  396.76   55.19
  -1   4   3  221.18   39.00
  -1   4   3  289.77   15.60
  -1   4   3  339.67   44.90
  -1   4   3  344.57   51.19
  -1   4   3  321.17   45.40
   0  -4  -3  149.49   16.00
   0  -4  -3  155.58   32.70
   0  -4  -3  161.38   32.70
   0   4   3  188.58   33.40
   0   4   3  309.07   49.40
   0   4   3  211.88   34.50
   0   4   3  182.98   32.40
   0   4   3  226.48   18.70
  -1  -4  -3  563.24   39.60
  -1  -4  -3  691.03   79.99
  -1  -4  -3  528.15   56.79
   1   4   3  698.03   51.09
   1   4   3  740.13   60.49
   1   4   3  727.53   55.39
   1   4   3  641.24   44.30
  -2  -4  -3 1110.89   88.29
  -2  -4  -3 1132.39   71.09
   2   4   3 1120.09   66.59
   2   4   3 1084.79   81.29
   2   4   3 1091.09   62.29
   2   4   3 1120.29   71.29
  -3  -4  -3  398.16   62.29
   3   4   3  417.16   33.50
   3   4   3  448.16   69.29
   3   4   3  460.15   60.99
  -4  -4  -3  457.55   73.59
   4   4   3  411.36   64.39
   4   4   3  503.65   73.89
  -5  -4  -3  669.43   92.69
   5   4   3  811.22   99.89
  -6  -4  -3  614.24   80.19
  -6  -4  -3  688.93  107.99
   6   4   3  536.35  104.59
   6   4   3  776.32  112.49
   6  -5  -3 1340.07  122.59
  -6   5   3 1448.85  161.68
  -6   5   3 1318.77  106.89
  -6   5   3 1386.46   92.89
   5  -5  -3 1034.10   98.69
  -5   5   3 1301.87   94.69
  -5   5   3 1134.39   74.49
  -5   5   3 1152.18  104.99
   4  -5  -3 2095.09  137.49
  -4   5   3 1597.84   87.89
  -4   5   3 1879.61  126.99
  -4   5   3 1697.93  105.69
  -4   5   3 1730.43   83.39
   3  -5  -3 2147.89  136.09
  -3   5   3 2563.34  131.19
  -3   5   3 2374.16   93.99
  -3   5   3 2278.37   97.49
  -3   5   3 2520.65  146.79
   2  -5  -3 1723.53  103.49
   2  -5  -3 2006.80  122.99
  -2   5   3 1885.41  118.39
  -2   5   3 1685.63  101.39
   1  -5  -3  657.33   60.79
   1  -5  -3  905.51   79.49
  -1   5   3  727.93   60.79
  -1   5   3  764.72   69.09
   0  -5  -3  900.01   35.50
   0  -5  -3  886.11   35.80
   0  -5  -3  846.82   77.69
   0   5   3  989.50   70.19
   0   5   3  690.63   62.99
  -1  -5  -3  711.83   71.69
  -1  -5  -3  499.35   38.20
   1   5   3  658.13   45.00
   1   5   3  503.35   57.19
   1   5   3  633.14   54.29
   1   5   3  579.14   56.09
  -2  -5  -3 1417.46  111.89
  -2  -5  -3 1709.63  120.19
   2   5   3 1479.85   89.29
   2   5   3 1615.44  109.49
   2   5   3 1726.53   98.29
   2   5   3 1659.53   91.29
  -3  -5  -3  743.33   82.69
   3   5   3  825.42   59.39
   3   5   3  891.51   86.19
   3   5   3  812.02   54.59
   3   5   3  716.63   78.39
  -4  -5  -3  197.08   54.99
   4   5   3  133.69   48.80
   4   5   3  154.18   44.30
  -5  -5  -3   93.69   30.00
  -5  -5  -3   29.00   48.50
   5   5   3   57.89   38.10
   6  -6  -3  401.16   81.89
  -6   6   3  473.75   77.39
  -6   6   3  453.35   53.69
  -6   6   3  314.37   67.69
   5  -6  -3  402.16   76.09
  -5   6   3  323.37   66.49
  -5   6   3  457.95   44.70
  -5   6   3  400.96   62.79
  -5   6   3  417.26   54.09
   4  -6  -3  455.75   73.69
  -4   6   3  530.85   68.19
  -4   6   3  477.45   35.30
  -4   6   3  544.65   43.50
  -4   6   3  445.06   76.69
   3  -6  -3  486.95   71.59
  -3   6   3  506.15   67.69
  -3   6   3  507.75   77.19
   2  -6  -3 1288.07  107.69
  -2   6   3 1115.49   95.09
  -2   6   3 1157.68   83.79
   1  -6  -3 2312.07  148.39
  -1   6   3 1988.00  123.69
  -1   6   3 1710.73  109.49
   0  -6  -3 1991.60  136.89
   0   6   3 1989.00  121.09
   0   6   3 2011.30  124.29
  -1  -6  -3 1336.67  110.29
  -1  -6  -3 1187.68   61.89
  -1  -6  -3 1291.97   58.69
   1   6   3 1193.98   99.29
   1   6   3 1230.48   91.59
  -2  -6  -3 1453.55   76.99
  -2  -6  -3 1730.83  129.49
  -2  -6  -3 1105.99  105.49
   2   6   3 1403.86   91.99
   2   6   3 1541.95  111.09
  -3  -6  -3 1210.88   78.59
  -3  -6  -3 1225.68  115.99
   3   6   3 1259.27   79.69
   3   6   3 1248.88   87.69
   3   6   3 1262.87  110.59
  -4  -6  -3 1205.48  128.29
  -4  -6  -3 1409.66   94.99
   4   6   3 1309.67  117.99
   4   6   3 1088.29   63.89
   4   6   3 1272.57   66.59
  -5  -6  -3 1231.88  112.69
  -5  -6  -3 1219.58  148.39
   5   6   3 2955.00  154.98
   5  -7  -3  289.17   69.39
  -5   7   3  301.67   30.20
  -5   7   3  289.07   73.19
  -5   7   3  321.57   63.79
   4  -7  -3   98.89   53.39
  -4   7   3  228.88   62.69
  -4   7   3  127.09   39.40
   3  -7  -3   68.69   38.80
  -3   7   3   30.60   26.50
  -3   7   3   61.99   38.60
   2  -7  -3   29.80   38.00
  -2   7   3   49.99   32.40
  -2   7   3  104.99   31.60
   1  -7  -3   61.49   38.60
  -1   7   3   -3.10   22.60
  -1   7   3   24.00   31.90
   0  -7  -3    6.00   33.50
   0   7   3   26.20   26.70
   0   7   3  -32.40   21.40
  -1  -7  -3   33.20    9.30
  -1  -7  -3   59.39   41.80
  -1  -7  -3   34.40   11.70
   1   7   3   36.10   31.60
   1   7   3   41.60   26.50
  -2  -7  -3  237.48   30.70
  -2  -7  -3  139.59   35.20
  -2  -7  -3  146.09   74.49
   2   7   3  208.78   48.20
   2   7   3  240.28   51.29
  -3  -7  -3  175.08   56.99
  -3  -7  -3  171.38   33.50
   3   7   3  174.18   53.19
   3   7   3  151.08   40.40
  -4  -7  -3  251.97   49.00
  -4  -7  -3  310.37   83.69
   4   7   3  165.58   38.10
   4   7   3  185.98   57.79
   4  -8  -3 1206.98  135.89
  -4   8   3 1134.09  125.99
  -4   8   3 1145.09  103.69
   3  -8  -3 1528.05  146.09
  -3   8   3 1479.65  113.99
  -3   8   3 1769.92  146.89
   2  -8  -3 1448.06  141.69
  -2   8   3 1260.97   99.99
  -2   8   3 1293.27  120.09
   1  -8  -3 1059.79  133.69
  -1   8   3 1107.49   98.79
  -1   8   3 1018.40  105.19
   0  -8  -3  727.83  109.39
   0   8   3  633.74   82.99
   0   8   3  790.12   81.29
  -1  -8  -3 1315.77  132.39
   1   8   3 1081.99  100.79
   1   8   3  943.11   97.69
  -2  -8  -3  832.32  120.49
  -2  -8  -3  724.03   49.00
   2   8   3  869.81   95.69
   2   8   3  736.53   92.89
  -3  -8  -3  618.44  108.59
   3   8   3  655.93  101.69
   3   8   3  789.42   86.49
   2  -9  -3  299.27   82.09
  -2   9   3  319.17   64.29
  -2   9   3  371.16   79.49
   1  -9  -3  795.82  128.49
  -1   9   3  649.93   99.59
  -1   9   3  599.04   82.79
   0  -9  -3  927.91  138.89
   0   9   3  667.23  101.49
   0   9   3  839.82  101.19
   3   9  -4  234.68   58.89
  -3  -9   4  313.17   51.29
  -3  -9   4  125.59   61.69
   2   9  -4  433.76   61.89
   2   9  -4  439.46   91.39
  -2  -9   4  343.37   45.20
  -2  -9   4  327.87   76.79
   1   9  -4  615.74   95.19
   1   9  -4  585.54   62.49
  -1  -9   4  801.22  118.89
   0   9  -4  725.23   55.89
   0   9  -4  611.34   94.29
   0  -9   4  587.04   63.09
   0  -9   4  676.43  105.29
  -1   9  -4  888.31  113.99
   1  -9   4  723.83  108.09
  -2   9  -4  769.12  105.89
   2  -9   4  924.81  126.79
  -3   9  -4 1008.60  128.29
   3  -9   4  979.50  134.99
   4   8  -4  645.04   85.09
   4   8  -4  557.54   83.59
  -4  -8   4  634.84   96.69
  -4  -8   4  681.23   71.29
   3   8  -4  333.67   62.19
   3   8  -4  365.66   67.19
  -3  -8   4  315.37   71.19
  -3  -8   4  252.87   42.80
   2   8  -4  317.77   51.19
   2   8  -4  215.58   50.99
  -2  -8   4  316.97   52.79
  -2  -8   4  361.06   77.99
  -2  -8   4  256.07   37.20
   1   8  -4  578.94   80.49
   1   8  -4  704.23   62.09
  -1  -8   4  707.73   50.19
  -1  -8   4  703.03   99.99
  -1  -8   4  693.43   52.39
  -1  -8   4  615.74   69.09
   0   8  -4  148.79   42.90
   0   8  -4  183.18   26.90
   0  -8   4  321.47   66.19
   0  -8   4  212.88   21.10
   0  -8   4  212.18   29.40
   0  -8   4  211.08   21.50
  -1   8  -4   92.29   38.00
   1  -8   4  107.69   43.80
  -2   8  -4   22.80   37.50
   2  -8   4   21.00   41.50
  -3   8  -4   -2.40   24.90
  -3   8  -4   69.29   41.30
   3  -8   4    6.20   41.20
   3  -8   4   -7.40   21.70
  -4   8  -4  -54.69   38.40
   4  -8   4   54.29   52.99
   4  -8   4   49.70   35.70
   5   7  -4 1098.29  114.99
   5   7  -4 1314.07  112.59
  -5  -7   4 1410.06  171.38
  -5  -7   4 1229.58  100.09
   4   7  -4 1368.96  113.99
   4   7  -4 1553.24  113.49
  -4  -7   4 1623.24  103.59
  -4  -7   4 1486.15  127.59
   3   7  -4  782.32   76.89
  -3  -7   4 1324.27   83.59
  -3  -7   4 1283.37  113.39
   2   7  -4 1507.65   96.39
   2   7  -4 1528.55  111.79
  -2  -7   4 1566.84   84.79
  -2  -7   4 1459.55   94.29
  -2  -7   4 1493.75  118.39
   1   7  -4 2974.80  167.88
   1   7  -4 3135.69  139.69
  -1  -7   4 2849.71  176.08
  -1  -7   4 3184.78  131.09
  -1  -7   4 3139.69  135.39
  -1  -7   4 2965.70  136.69
   0   7  -4 2069.29   88.79
   0   7  -4 2135.39   93.99
   0   7  -4 2318.57  139.09
   0  -7   4 1867.61   83.89
   0  -7   4 1876.71  135.59
   0  -7   4 1949.51   84.79
  -1   7  -4 2128.69   89.39
  -1   7  -4 2327.87  142.99
   1  -7   4 2175.48   92.89
   1  -7   4 2338.37  156.58
  -2   7  -4 1699.83   77.39
  -2   7  -4 1476.85  118.09
   2  -7   4 1669.23   81.19
   2  -7   4 1632.34  131.99
  -3   7  -4  920.31   65.69
  -3   7  -4 1031.60   97.39
   3  -7   4  952.70   66.09
   3  -7   4  969.20  107.49
  -4   7  -4  898.61   98.49
   4  -7   4  956.00   78.29
   4  -7   4 1071.79  117.19
  -5   7  -4  608.64   46.00
  -5   7  -4  688.33  100.79
   5  -7   4  627.94  113.99
   5  -7   4  603.24   77.89
   6   6  -4    0.50   39.50
  -6  -6   4    4.40   32.50
  -6  -6   4   31.60   47.80
   5   6  -4  101.69   43.60
   5   6  -4   78.99   37.20
  -5  -6   4   39.50   26.00
  -5  -6   4   83.89   37.70
   4   6  -4   16.40   28.40
   4   6  -4   46.50   28.00
  -4  -6   4   -6.10   25.40
  -4  -6   4   -2.30   20.00
   3   6  -4   48.30   28.20
   3   6  -4   23.60   21.60
  -3  -6   4   69.19   28.20
   2   6  -4  145.29   36.10
   2   6  -4  150.58   33.10
  -2  -6   4  137.79   26.70
  -2  -6   4   81.49   31.10
  -2  -6   4  167.98   34.70
  -2  -6   4  195.38   37.00
   1   6  -4  609.04   47.60
   1   6  -4  591.64   61.99
   1   6  -4  626.74   43.90
  -1  -6   4  637.94   48.50
  -1  -6   4  595.34   43.80
  -1  -6   4  611.54   67.59
   0   6  -4 1395.06   64.69
   0   6  -4 1398.86   66.89
   0   6  -4 1501.95  100.49
   0  -6   4 1330.87  102.59
   0  -6   4 1362.96   68.49
   0  -6   4 1297.77   60.59
  -1   6  -4  723.63   44.20
  -1   6  -4  746.13   71.49
   1  -6   4  781.32   82.39
   1  -6   4  863.01   50.39
  -2   6  -4  753.32   50.79
  -2   6  -4  808.52   75.69
   2  -6   4  807.52   52.79
   2  -6   4  748.63   81.99
  -3   6  -4 1203.98   76.79
  -3   6  -4 1080.29   93.69
   3  -6   4  937.51   97.19
   3  -6   4 1008.70   69.09
  -4   6  -4 1088.79   58.49
  -4   6  -4 1111.29   97.09
  -4   6  -4 1148.99   59.79
   4  -6   4 1262.17  120.39
   4  -6   4 1391.16  106.69
  -5   6  -4  952.40   65.59
  -5   6  -4  970.90   95.69
   5  -6   4 1049.09  117.19
   5  -6   4  927.01   89.39
  -6   6  -4 1004.30  106.79
  -6   6  -4 1145.39  122.09
   6  -6   4  853.61  107.59
   6   5  -4 1305.47  125.29
   6   5  -4 1426.56  100.39
  -6  -5   4 1230.68  102.99
  -6  -5   4 1183.88  106.69
   5   5  -4  806.62   81.79
   5   5  -4 1181.18  103.49
  -5  -5   4 1030.50   83.69
  -5  -5   4  920.71   86.39
   4   5  -4 1982.70  126.59
   4   5  -4 1950.90  119.09
  -4  -5   4 2002.30  124.79
  -4  -5   4 2088.09  116.39
   3   5  -4 2448.56  131.79
   3   5  -4 2355.66  128.69
  -3  -5   4 2345.27  130.79
  -3  -5   4 2281.77  116.09
   2   5  -4 1980.20  103.59
   2   5  -4 2115.69  114.59
   2   5  -4 1940.61  105.29
  -2  -5   4 2044.70   96.29
  -2  -5   4 1791.92  111.39
   1   5  -4  833.22   52.19
   1   5  -4  854.11   69.29
   1   5  -4  858.21   50.39
   1   5  -4  902.41   68.59
  -1  -5   4  868.01   70.79
  -1  -5   4  798.92   49.20
  -1  -5   4  757.22   48.80
   0   5  -4 1158.18   52.69
   0   5  -4 1200.58   60.09
   0   5  -4 1299.37   84.99
   0  -5   4 1047.70   47.90
   0  -5   4 1105.09   58.99
   0  -5   4 1046.80   81.39
  -1   5  -4 1552.24  114.29
  -1   5  -4 1656.53   76.39
   1  -5   4 1828.72  116.49
   1  -5   4 1739.13   83.29
  -2   5  -4  944.81   58.59
  -2   5  -4  784.82   70.19
   2  -5   4  813.72   77.89
   2  -5   4  824.52   55.29
  -3   5  -4  139.29   17.50
  -3   5  -4  129.79   32.70
  -3   5  -4  135.09   32.10
   3  -5   4  120.19   29.00
   3  -5   4   85.39   35.40
  -4   5  -4  144.39   26.60
  -4   5  -4  175.28   24.20
  -4   5  -4  120.79   31.60
   4  -5   4  183.18   37.20
   4  -5   4  149.09   48.50
  -5   5  -4   10.30   20.50
  -5   5  -4   45.00   33.50
  -5   5  -4   41.50   33.50
  -5   5  -4   -1.10   34.90
   5  -5   4   65.39   31.80
  -6   5  -4   65.39   39.40
  -6   5  -4    6.90   26.70
  -6   5  -4    3.90   38.70
   6  -5   4  -25.70   35.90
   7   4  -4  822.12  118.59
   7   4  -4  830.02   75.19
  -7  -4   4  744.73   92.09
  -7  -4   4  669.83   87.89
   6   4  -4  461.95   82.89
   6   4  -4  594.34   66.89
  -6  -4   4  490.15   64.19
  -6  -4   4  512.15   69.29
  -6  -4   4  663.73   78.09
   5   4  -4  546.15   65.59
   5   4  -4  537.25   80.19
  -5  -4   4  534.45   58.69
  -5  -4   4  461.75   58.79
  -5  -4   4  476.35   63.29
   4   4  -4 1969.00  122.29
   4   4  -4 1899.51  112.19
   4   4  -4 1747.03  108.39
  -4  -4   4 1783.22  103.89
  -4  -4   4 2000.60  112.99
  -4  -4   4 2023.10  110.29
   3   4  -4 2633.04  131.19
   3   4  -4 2584.54  127.39
   3   4  -4 2586.34  133.49
  -3  -4   4 2608.54  122.79
  -3  -4   4 2545.85  131.19
  -3  -4   4 2686.53  127.59
  -3  -4   4 2505.65  127.69
  -3  -4   4 2443.76  133.59
   2   4  -4 2950.80  130.79
   2   4  -4 2649.83  127.59
   2   4  -4 2906.51  135.39
   2   4  -4 2701.13  120.69
  -2  -4   4 2826.92  123.59
  -2  -4   4 2666.33  125.09
  -2  -4   4 2955.40  136.49
  -2  -4   4 2828.62  133.99
   1   4  -4 3123.29  143.09
   1   4  -4 3117.59  124.89
   1   4  -4 2946.11  123.59
   1   4  -4 3059.19  139.89
  -1  -4   4 3080.09  123.09
  -1  -4   4 3133.59  126.89
  -1  -4   4 3195.98  146.89
  -1  -4   4 3020.20  141.89
   0   4  -4 4384.56  164.08
   0   4  -4 4418.96  198.78
   0   4  -4 4272.57  186.18
   0   4  -4 4430.26  151.38
   0  -4   4 4526.35  194.68
   0  -4   4 4451.85  189.28
   0  -4   4 4368.06  151.38
   0  -4   4 4465.65  169.98
  -1   4  -4 5715.43  229.98
  -1   4  -4 5445.36  206.08
  -1   4  -4 5541.85  233.78
   1  -4   4 5644.94  229.58
   1  -4   4 5460.65  237.58
   1  -4   4 5619.64  209.08
  -2   4  -4 3071.69  106.59
  -2   4  -4 3174.78  134.39
  -2   4  -4 3098.09  107.29
  -2   4  -4 3211.28  151.28
   2  -4   4 3215.88  136.29
   2  -4   4 2889.31  148.19
   2  -4   4 3230.58  164.28
  -3   4  -4 2438.96   97.69
  -3   4  -4 2440.66   99.39
  -3   4  -4 2287.77  125.99
  -3   4  -4 2313.87  116.29
   3  -4   4 2524.15  147.69
   3  -4   4 2371.86  121.39
  -4   4  -4 2909.91  166.28
  -4   4  -4 2994.10  133.69
  -4   4  -4 3263.97  158.58
   4  -4   4 3390.16  164.28
   4  -4   4 3157.88  146.79
  -5   4  -4 1602.14  106.69
  -5   4  -4 1714.53  126.69
   5  -4   4 1720.63  106.09
   5  -4   4 1410.36  108.99
  -6   4  -4 1030.80  109.89
  -6   4  -4 1159.08   91.29
   6  -4   4 1288.07  106.19
   6  -4   4 1146.69  108.29
   7   3  -4  321.27   79.69
   7   3  -4  379.86   55.59
  -7  -3   4  424.26   68.59
  -7  -3   4  396.26   64.29
   6   3  -4  201.98   49.70
   6   3  -4  204.38   41.10
  -6  -3   4  183.38   38.40
  -6  -3   4  199.08   44.50
  -6  -3   4  174.88   38.00
   5   3  -4  374.76   54.99
   5   3  -4  462.95   70.39
   5   3  -4  468.15   58.59
  -5  -3   4  438.66   48.90
  -5  -3   4  418.86   56.19
  -5  -3   4  412.86   52.39
   4   3  -4  273.37   42.10
   4   3  -4  325.77   53.29
   4   3  -4  259.17   43.30
  -4  -3   4  301.57   43.50
  -4  -3   4  342.07   44.30
   3   3  -4   95.19   25.30
   3   3  -4   91.69   24.60
   3   3  -4   91.49   23.60
  -3  -3   4   63.59   19.90
  -3  -3   4   70.29   22.40
  -3  -3   4   72.69   21.50
  -3  -3   4   86.59   28.70
  -3  -3   4  126.29   27.10
   2   3  -4   28.70   12.90
   2   3  -4   27.20   12.30
   2   3  -4    3.80    8.20
   2   3  -4    6.10   11.10
  -2  -3   4   41.60   13.20
  -2  -3   4   26.60   12.80
  -2  -3   4    5.50   12.50
  -2  -3   4   27.30   15.70
   1   3  -4  307.17   36.00
   1   3  -4  212.58   21.40
   1   3  -4  214.88   30.20
   1   3  -4  242.68   23.70
  -1  -3   4  288.97   35.60
  -1  -3   4  233.08   23.60
  -1  -3   4  333.17   41.90
  -1  -3   4  234.18   23.40
   0   3  -4  211.88   31.60
   0   3  -4  174.88   28.00
   0   3  -4  216.08   25.80
   0  -3   4  176.28   23.40
   0  -3   4  153.38   10.00
   0  -3   4  132.09   25.70
   0  -3   4  122.19   22.90
  -1   3  -4 1175.98   62.79
  -1   3  -4 1234.48   71.39
  -1   3  -4 1157.38   75.29
   1  -3   4 1059.09   59.49
   1  -3   4 1043.10   65.89
   1  -3   4 1139.09   73.29
  -2   3  -4 1164.38   66.39
  -2   3  -4 1125.39   70.29
  -2   3  -4 1173.58   51.39
  -2   3  -4  970.30   78.19
   2  -3   4 1187.08   53.39
   2  -3   4 1174.18   82.09
   2  -3   4 1114.39   70.99
   2  -3   4 1127.99   67.69
  -3   3  -4 1521.65   74.79
  -3   3  -4 1425.76   86.09
  -3   3  -4 1556.54   88.19
  -3   3  -4 1457.75   90.19
  -3   3  -4 1774.22  109.29
   3  -3   4 1509.75   78.19
   3  -3   4 1578.24   89.09
   3  -3   4 1592.44  115.09
   3  -3   4 1527.95   90.89
  -4   3  -4  579.74   63.19
  -4   3  -4  541.85   60.29
  -4   3  -4  608.84   53.59
   4  -3   4  548.55   50.59
   4  -3   4  464.85   59.29
  -5   3  -4  567.14   54.09
  -5   3  -4  449.76   69.89
   5  -3   4  682.03   85.29
  -6   3  -4 1059.29  109.49
  -6   3  -4 1120.79   94.99
   6  -3   4  967.40   96.39
   6  -3   4 1173.98  106.89
  -7   3  -4  674.43  109.49
  -7   3  -4  616.24   65.69
   7  -3   4  815.92  111.19
   7  -3   4  685.73   99.39
   7   2  -4  955.50   81.69
   7   2  -4  960.60  124.19
  -7  -2   4 1140.69  100.09
  -7  -2   4 1035.80   92.29
   6   2  -4  879.61   73.19
   6   2  -4  847.72   92.89
  -6  -2   4  831.92   77.19
  -6  -2   4  935.61   74.29
  -6  -2   4  939.01   76.59
   5   2  -4 2995.50  145.09
   5   2  -4 3448.35  181.08
   5   2  -4 3267.17  154.78
  -5  -2   4 2928.41  149.09
  -5  -2   4 3382.96  150.18
  -5  -2   4 3357.96  161.38
   4   2  -4 2044.60  110.29
   4   2  -4 1970.90   98.29
  -4  -2   4 1717.53   95.29
  -4  -2   4 1765.92   87.99
   3   2  -4 3616.34  160.38
   3   2  -4 3389.46  137.89
   3   2  -4 3381.96  156.58
   3   2  -4 3355.86  147.09
  -3  -2   4 3647.64  165.08
  -3  -2   4 3800.42  161.38
  -3  -2   4 4011.40  162.18
  -3  -2   4 3653.63  147.39
  -3  -2   4 3821.32  173.08
   2   2  -4 5462.55  216.38
   2   2  -4 6051.59  224.78
   2   2  -4 5631.54  199.58
   2   2  -4 5267.97  206.98
  -2  -2   4 6474.15  236.98
  -2  -2   4 6209.58  238.88
  -2  -2   4 6511.15  242.58
   1   2  -4 2323.67   97.39
   1   2  -4 2254.97   95.59
   1   2  -4 2277.37   93.79
   1   2  -4 2330.87  104.89
  -1  -2   4 2766.22  117.49
  -1  -2   4 2492.65  114.99
  -1  -2   4 2711.33  107.09
  -1  -2   4 2571.84  107.19
   0   2  -4 2065.69   94.89
   0   2  -4 2041.60   93.79
   0   2  -4 2165.28   89.49
   0  -2   4 1746.93   85.69
   0  -2   4 1899.41   82.99
   0  -2   4 1892.21   71.59
   0  -2   4 1881.21   69.99
   0  -2   4 1839.72   86.99
  -1   2  -4 2833.12  132.89
  -1   2  -4 2974.10  125.29
  -1   2  -4 3013.10  107.09
  -1   2  -4 3015.50  122.49
   1  -2   4 2985.80  137.19
   1  -2   4 3057.59  128.49
   1  -2   4 3196.18  111.59
   1  -2   4 3139.29  128.39
  -2   2  -4 2656.33  147.39
  -2   2  -4 2528.35  115.59
  -2   2  -4 2588.34  123.89
  -2   2  -4 2594.44  113.89
  -2   2  -4 2572.64  104.59
   2  -2   4 2490.05  106.59
   2  -2   4 2642.54  115.59
   2  -2   4 2902.61  124.19
  -3   2  -4 1458.05   86.89
  -3   2  -4 1597.34   97.19
  -3   2  -4 1571.04   80.69
  -3   2  -4 1498.05   78.79
  -3   2  -4 1577.54   83.79
   3  -2   4 1476.85   90.59
   3  -2   4 1590.14   81.69
   3  -2   4 1542.55   81.99
  -4   2  -4  697.23   56.39
  -4   2  -4  694.43   65.69
  -4   2  -4  632.14   57.99
  -4   2  -4  654.63   49.90
   4  -2   4  681.53   57.69
   4  -2   4  638.94   62.49
  -5   2  -4  255.67   41.50
  -5   2  -4  266.77   36.80
  -5   2  -4  384.06   69.09
   5  -2   4  231.98   44.50
   5  -2   4  395.06   65.69
  -6   2  -4   50.79   21.90
  -6   2  -4   61.29   33.50
  -6   2  -4    9.40   34.30
   6  -2   4   97.49   37.40
   6  -2   4   99.39   40.40
  -7   2  -4  155.88   58.09
  -7   2  -4  147.29   31.80
   7  -2   4  209.38   70.59
   7  -2   4  127.99   68.19
   7   1  -4  212.38   63.59
   7   1  -4  105.39   39.50
  -7  -1   4  202.28   47.80
  -7  -1   4  133.39   43.70
   6   1  -4  442.66   61.49
   6   1  -4  334.17   66.39
  -6  -1   4  359.26   47.50
  -6  -1   4  330.27   52.09
   5   1  -4  470.15   60.69
   5   1  -4  379.96   68.19
  -5  -1   4  440.56   58.59
  -5  -1   4  321.67   44.50
  -5  -1   4  415.96   40.60
  -5  -1   4  421.86   51.99
   4   1  -4  611.14   55.09
   4   1  -4  672.83   64.29
  -4  -1   4  562.34   40.20
  -4  -1   4  637.44   51.19
  -4  -1   4  524.55   53.09
   3   1  -4 2374.76  111.19
   3   1  -4 2296.77  117.39
   3   1  -4 2405.16  100.09
   3   1  -4 2427.46  122.29
  -3  -1   4 2443.66  123.49
  -3  -1   4 2731.33  120.69
  -3  -1   4 2672.73  102.19
   2   1  -4 2907.51  100.99
   2   1  -4 2569.64  127.39
   2   1  -4 2959.00  118.79
   2   1  -4 3014.10  129.59
  -2  -1   4 3129.39  132.29
  -2  -1   4 2948.30  133.39
  -2  -1   4 3187.98  126.99
  -2  -1   4 2987.30  106.39
   1   1  -4 1724.23   65.29
   1   1  -4 1698.43   84.69
  -1  -1   4 1473.95   57.99
  -1  -1   4 1460.55   74.39
  -1  -1   4 1447.16   69.99
  -1  -1   4 1518.65   66.29
   0   1  -4 5914.51  212.88
   0   1  -4 5909.31  213.98
   0   1  -4 6029.70  218.28
   0   1  -4 6078.19  215.88
   0   1  -4 5848.61  216.88
   0  -1   4 5565.24  204.98
   0  -1   4 5661.53  196.18
   0  -1   4 5478.55  202.68
  -1   1  -4 5543.75  195.28
  -1   1  -4 5526.85  214.58
  -1   1  -4 5238.18  198.28
  -1   1  -4 5505.55  203.58
  -1   1  -4 5590.34  208.28
   1  -1   4 6575.54  232.38
   1  -1   4 6008.40  223.48
  -2   1  -4 3444.16  146.79
  -2   1  -4 3546.35  163.68
  -2   1  -4 3399.06  154.18
  -2   1  -4 3499.65  139.89
  -2   1  -4 3626.54  136.09
   2  -1   4 3578.44  144.19
   2  -1   4 3655.23  153.58
   2  -1   4 3484.65  136.29
  -3   1  -4 2826.02  117.19
  -3   1  -4 2855.21  114.99
  -3   1  -4 2922.81  154.08
  -3   1  -4 2857.61  135.59
  -3   1  -4 2761.42  127.69
  -3   1  -4 2923.51  146.79
   3  -1   4 2688.73  134.29
   3  -1   4 2699.93  121.29
  -4   1  -4 1866.01  118.39
  -4   1  -4 1746.73   82.69
  -4   1  -4 1639.04   77.89
   4  -1   4 1915.71  116.39
   4  -1   4 1776.52  107.49
  -5   1  -4 2488.75  101.09
  -5   1  -4 2420.56  152.88
  -5   1  -4 2283.47  104.59
   5  -1   4 2527.85  144.79
   5  -1   4 2426.66  151.08
  -6   1  -4 1681.43  136.39
   6  -1   4 1654.23  129.49
   6  -1   4 1571.04  124.89
  -7   1  -4  747.13  108.49
   7  -1   4  932.91  126.79
   7  -1   4  817.52  112.49
   8   0  -4  507.45   90.19
   8   0  -4  764.02   86.69
  -8   0   4  638.54   94.19
  -8   0   4  623.34   77.59
   7   0  -4  376.66   73.59
   7   0  -4  405.56   63.09
  -7   0   4  371.56   56.29
  -7   0   4  273.97   52.39
   6   0  -4  914.91   94.19
  -6   0   4 1012.30   73.79
  -6   0   4  915.61   77.59
  -6   0   4  915.21   84.49
   5   0  -4  995.20   75.69
   5   0  -4  901.31   84.09
  -5   0   4  947.21   69.29
  -5   0   4  942.61   82.19
  -5   0   4  944.21   70.19
  -5   0   4  879.71   61.99
   4   0  -4  261.37   43.80
   4   0  -4  256.37   47.00
  -4   0   4  276.97   29.50
  -4   0   4  304.27   32.90
  -4   0   4  306.87   40.60
  -4   0   4  310.67   47.10
   3   0  -4  404.36   42.50
   3   0  -4  444.06   44.80
   3   0  -4  498.15   39.10
  -3   0   4  468.15   30.00
  -3   0   4  478.75   31.30
  -3   0   4  489.85   46.20
  -3   0   4  507.05   39.70
   2   0  -4  645.14   48.40
   2   0  -4  648.84   40.40
  -2   0   4  600.14   47.00
  -2   0   4  578.94   41.80
  -2   0   4  599.14   47.00
  -2   0   4  642.94   40.60
  -2   0   4  646.54   25.10
  -2   0   4  606.24   24.70
   1   0  -4  289.77   16.60
   1   0  -4  283.17   29.50
   1   0  -4  311.77   25.40
  -1   0   4  318.07   31.50
  -1   0   4  286.07   23.50
  -1   0   4  381.66   28.30
  -1   0   4  318.27   18.10
   0   0  -4  866.41   47.50
   0   0  -4  854.71   50.89
   0   0  -4  874.91   50.19
   0   0   4  932.01   49.99
   0   0   4  922.11   48.00
   0   0   4  928.51   51.99
  -1   0  -4  164.28   18.60
  -1   0  -4  247.78   27.40
  -1   0  -4  212.28   22.50
  -1   0  -4  171.08   22.50
   1   0   4  197.78   25.60
   1   0   4  233.88   31.50
   1   0   4  177.98   26.40
  -2   0  -4  195.38   36.50
  -2   0  -4   93.69   21.40
  -2   0  -4  129.29   23.80
  -2   0  -4  130.99   14.30
   2   0   4  112.59   21.30
   2   0   4  140.89   13.50
   2   0   4  171.38   28.70
   2   0   4  110.09   25.50
  -3   0  -4  655.43   54.39
  -3   0  -4  600.04   59.29
  -3   0  -4  652.43   31.20
  -3   0  -4  648.14   69.29
  -3   0  -4  640.64   31.00
   3   0   4  873.71   62.79
   3   0   4  649.24   68.09
   3   0   4  679.53   59.49
  -4   0  -4   53.19   23.40
   4   0   4   69.49   33.80
   4   0   4   60.69   23.70
  -5   0  -4  297.07   60.69
   5   0   4  192.98   45.00
   5   0   4  227.18   52.79
  -6   0  -4  384.36   74.89
   6   0   4  326.37   70.69
   6   0   4  417.46   73.69
  -7   0  -4  313.57   71.49
   7   0   4  328.17   74.29
   7   0   4  369.86   84.89
  -8   1   4  771.22   96.09
  -8   1   4  724.53   87.99
  -8   1   4  651.53   90.19
  -8   1   4  587.44   78.99
   7  -1  -4 1494.15  115.49
  -7   1   4 1585.04  164.48
  -7   1   4 1585.34  110.39
  -7   1   4 1471.15  153.48
   6  -1  -4 2193.08  151.58
   6  -1  -4 2103.89  129.79
  -6   1   4 1782.02  113.99
  -6   1   4 1847.02  111.09
  -6   1   4 1920.51  124.99
   5  -1  -4 1921.11  128.99
   5  -1  -4 1896.91  116.59
  -5   1   4 2017.90  117.29
  -5   1   4 1968.90  103.39
  -5   1   4 1758.72  104.29
  -5   1   4 1830.52  105.59
   4  -1  -4 2545.35  133.99
  -4   1   4 2329.67  126.19
  -4   1   4 2163.58  125.59
  -4   1   4 2351.46  109.29
  -4   1   4 2418.96  106.89
  -4   1   4 2365.06  121.99
  -4   1   4 2391.16  114.49
   3  -1  -4 4456.95  174.28
   3  -1  -4 4565.04  179.68
   3  -1  -4 4796.42  199.48
  -3   1   4 4376.16  187.38
  -3   1   4 4035.60  167.48
  -3   1   4 4193.58  179.48
  -3   1   4 4110.59  184.18
  -3   1   4 4344.87  161.38
  -3   1   4 4390.26  177.78
   2  -1  -4 6396.66  232.18
   2  -1  -4 6740.13  255.17
   2  -1  -4 6628.64  228.78
   2  -1  -4 6314.37  240.38
  -2   1   4 6774.92  248.48
  -2   1   4 6685.73  258.27
  -2   1   4 6875.11  232.38
  -2   1   4 6477.65  255.57
  -2   1   4 6542.55  238.68
   1  -1  -4 3107.89  131.89
   1  -1  -4 3103.49  122.79
   1  -1  -4 3415.26  125.09
   1  -1  -4 3487.55  142.99
  -1   1   4 3592.14  153.48
  -1   1   4 3711.73  136.29
  -1   1   4 3397.76  148.39
  -1   1   4 3777.82  146.79
   0  -1  -4 7210.78  260.37
   0  -1  -4 7151.38  253.97
   0  -1  -4 7231.68  263.37
   0  -1  -4 7363.06  262.87
   0   1   4 7530.25  269.17
   0   1   4 7574.84  267.47
   0   1   4 7415.76  263.77
  -1  -1  -4 6844.81  243.68
  -1  -1  -4 6603.44  236.18
  -1  -1  -4 6441.06  254.07
  -1  -1  -4 6877.51  248.78
   1   1   4 6171.38  227.88
   1   1   4 6069.99  222.88
   1   1   4 5653.53  229.08
  -2  -1  -4 2827.72  141.59
  -2  -1  -4 3010.90  143.09
  -2  -1  -4 2961.20  131.19
  -2  -1  -4 3023.60  105.09
   2   1   4 2746.43  128.89
   2   1   4 2598.74  132.59
   2   1   4 2859.51   96.49
   2   1   4 2715.83  127.59
  -3  -1  -4 2072.39  121.49
   3   1   4 2249.18  123.79
   3   1   4 2427.96  126.19
  -4  -1  -4 2017.80  128.99
   4   1   4 1966.00  123.19
   4   1   4 2096.79  124.19
  -5  -1  -4  826.82   86.79
   5   1   4  938.31   98.89
   5   1   4 1015.00   94.89
  -6  -1  -4  506.45   79.89
   6   1   4  379.06   74.39
   6   1   4  513.55   83.59
  -7  -1  -4  135.89   53.99
   7   1   4  225.98   65.49
   7   1   4  246.18   66.99
   7  -2  -4   63.19   38.30
  -7   2   4   40.00   29.50
  -7   2   4   35.10   42.30
  -7   2   4   41.10   33.80
   6  -2  -4   59.49   35.90
  -6   2   4  118.79   32.70
  -6   2   4   11.60   22.50
  -6   2   4   36.70   20.80
   5  -2  -4   44.10   23.80
  -5   2   4   65.09   29.60
  -5   2   4   60.49   21.50
  -5   2   4   26.30   19.70
  -5   2   4   58.39   23.90
   4  -2  -4  408.86   57.19
   4  -2  -4  350.66   47.40
  -4   2   4  398.96   44.20
  -4   2   4  487.55   56.19
  -4   2   4  489.25   41.80
  -4   2   4  418.16   45.70
   3  -2  -4  360.16   49.50
   3  -2  -4  351.96   36.00
  -3   2   4  274.47   38.30
  -3   2   4  382.16   52.99
  -3   2   4  279.07   26.50
  -3   2   4  274.77   41.80
  -3   2   4  315.87   42.00
  -3   2   4  236.68   31.80
   2  -2  -4 1054.29   60.39
   2  -2  -4 1096.89   73.19
   2  -2  -4  981.10   62.19
   2  -2  -4 1055.29   52.59
  -2   2   4 1146.09   67.89
  -2   2   4 1225.48   76.69
  -2   2   4 1124.49   61.69
  -2   2   4 1142.69   56.59
   1  -2  -4 1827.22   86.29
   1  -2  -4 1752.62   87.89
   1  -2  -4 1704.53   92.59
   1  -2  -4 1746.13   72.99
  -1   2   4 1928.71   79.69
  -1   2   4 1900.31   94.89
  -1   2   4 1911.41   88.29
  -1   2   4 1935.11   97.89
   0  -2  -4 1330.97   74.29
   0  -2  -4 1285.27   72.59
   0  -2  -4 1328.07   71.99
   0  -2  -4 1320.07   61.79
   0   2   4 1319.37   70.79
   0   2   4 1264.87   69.99
   0   2   4 1328.27   62.79
   0   2   4 1280.87   73.49
  -1  -2  -4 2302.17  111.99
  -1  -2  -4 2343.67  100.79
  -1  -2  -4 2511.95  120.29
  -1  -2  -4 2350.76  102.79
   1   2   4 2377.46  113.89
   1   2   4 2321.47  103.89
   1   2   4 2144.09  110.29
   1   2   4 2327.57   97.99
  -2  -2  -4 1613.74   98.49
  -2  -2  -4 1557.84   91.19
   2   2   4 1639.34   69.69
   2   2   4 1772.02   99.19
   2   2   4 1671.43  101.89
   2   2   4 1742.63   93.79
   2   2   4 1797.82   68.89
  -3  -2  -4 2269.77  132.79
   3   2   4 2683.13  142.49
   3   2   4 2668.43  138.19
  -4  -2  -4 2023.00  134.49
   4   2   4 2119.89  134.59
   4   2   4 2437.36  138.59
  -5  -2  -4 2146.99  149.09
   5   2   4 1983.90  146.19
   5   2   4 2301.07  148.39
  -6  -2  -4 1448.66  131.89
   6   2   4 1227.58  129.99
   6   2   4 1425.16  127.69
   7  -3  -4  896.11   99.29
  -7   3   4  868.51   92.69
  -7   3   4  833.72   96.89
  -7   3   4  942.71   88.29
  -7   3   4  867.21   93.99
   6  -3  -4 1173.08  104.99
  -6   3   4 1067.69   82.39
  -6   3   4 1193.38   89.69
  -6   3   4 1010.10   88.29
   5  -3  -4 1480.35  100.49
   5  -3  -4 1394.96  108.69
  -5   3   4 1740.63  108.19
  -5   3   4 1662.13   97.79
   4  -3  -4  889.41   80.29
   4  -3  -4  916.11   73.09
  -4   3   4  755.12   65.69
  -4   3   4  728.73   62.09
  -4   3   4  868.61   64.89
  -4   3   4  804.72   55.49
   3  -3  -4 2161.98  127.79
   3  -3  -4 2296.97  117.39
  -3   3   4 2266.67   99.79
  -3   3   4 2300.17  114.19
  -3   3   4 2295.17  127.19
  -3   3   4 2373.86  118.29
  -3   3   4 2212.78  107.29
   2  -3  -4  650.23   36.80
   2  -3  -4  664.93   58.09
   2  -3  -4  613.74   50.99
   2  -3  -4  636.74   52.09
  -2   3   4  708.33   53.69
  -2   3   4  589.04   58.29
  -2   3   4  640.44   51.29
  -2   3   4  639.94   37.20
   1  -3  -4  914.81   67.69
   1  -3  -4  978.50   72.99
   1  -3  -4  885.81   63.09
   1  -3  -4  975.10   44.50
  -1   3   4 1019.90   69.19
  -1   3   4 1118.29   68.09
  -1   3   4 1231.98   70.49
   0  -3  -4 1505.55   85.29
   0  -3  -4 1564.94   90.29
   0  -3  -4 1499.65   87.19
   0  -3  -4 1473.35   67.29
   0   3   4 1610.84   89.29
   0   3   4 1463.55   68.79
   0   3   4 1578.34   85.59
   0   3   4 1454.75   92.99
  -1  -3  -4  112.59   23.30
  -1  -3  -4  140.49   22.70
  -1  -3  -4   70.49   23.30
  -1  -3  -4  103.19   26.00
   1   3   4   56.29   19.20
   1   3   4   64.59   16.70
   1   3   4   70.09   17.60
   1   3   4   71.99   25.30
   1   3   4   68.99   19.30
  -2  -3  -4  324.97   40.80
  -2  -3  -4  274.97   49.60
   2   3   4  336.87   27.40
   2   3   4  266.67   27.50
   2   3   4  258.47   44.40
   2   3   4  293.77   41.70
  -3  -3  -4  394.96   67.39
   3   3   4  251.97   44.20
   3   3   4  271.77   60.79
  -4  -3  -4  290.67   63.39
   4   3   4  137.79   40.60
   4   3   4  147.19   36.90
  -5  -3  -4   55.99   39.90
   5   3   4    2.60   27.60
  -6  -3  -4   44.40   42.90
   6   3   4   35.00   48.00
   6   3   4  -26.30   38.30
  -7   4   4  688.73   82.49
  -7   4   4  423.66   70.59
  -7   4   4  551.84   86.99
  -7   4   4  532.55   80.09
   6  -4  -4  722.83   93.89
  -6   4   4 1057.69   80.59
  -6   4   4 1007.60   98.99
  -6   4   4  966.10   87.39
  -6   4   4  953.40   86.49
   5  -4  -4 1466.15  109.29
   5  -4  -4 1234.68  110.19
  -5   4   4 1233.78   95.79
  -5   4   4 1561.14   95.69
   4  -4  -4 1468.35  111.69
   4  -4  -4 1581.84  105.89
  -4   4   4 1242.48   86.39
  -4   4   4 1195.18   69.29
  -4   4   4 1204.48   76.69
   3  -4  -4 1054.99   80.99
   3  -4  -4  884.41   81.29
  -3   4   4 1141.89   58.99
  -3   4   4 1166.08   84.09
  -3   4   4 1031.10   76.19
  -3   4   4 1183.78   64.59
   2  -4  -4 2054.19  114.49
   2  -4  -4 1804.72  101.99
  -2   4   4 2258.87   93.49
  -2   4   4 2431.46   93.99
  -2   4   4 2146.59  118.79
  -2   4   4 2268.27  121.59
   1  -4  -4 2606.14   96.99
   1  -4  -4 2850.91  141.79
   1  -4  -4 2638.84  131.19
   1  -4  -4 2664.13  139.39
  -1   4   4 2522.35  128.19
  -1   4   4 2457.45  126.39
  -1   4   4 2616.44   96.29
  -1   4   4 2398.56  149.19
   0  -4  -4 2079.59   84.39
   0  -4  -4 1994.60  118.29
   0  -4  -4 2054.79  111.29
   0  -4  -4 2073.59  126.69
   0   4   4 2240.58  116.99
   0   4   4 2235.88  120.09
   0   4   4 2370.86   94.89
   0   4   4 2219.58  119.19
  -1  -4  -4 2028.40  152.88
  -1  -4  -4 1663.63   82.09
   1   4   4 1990.60  101.79
   1   4   4 1836.92  102.19
   1   4   4 2120.59  122.39
   1   4   4 2053.79   96.29
  -2  -4  -4 2808.42  134.29
  -2  -4  -4 3343.47  171.48
   2   4   4 2984.50  158.18
   2   4   4 3179.18  131.19
   2   4   4 2887.41  131.19
   2   4   4 3015.80  142.59
  -3  -4  -4 2305.27  148.29
   3   4   4 2061.89  132.99
   3   4   4 2118.29   88.39
   3   4   4 2279.47  125.89
   3   4   4 2088.49   86.89
  -4  -4  -4  965.70  100.59
   4   4   4 1163.08   96.99
   4   4   4  944.91   96.99
  -5  -4  -4 1199.98  120.09
   5   4   4 1222.08  111.29
   5   4   4 1075.79  108.79
  -6  -4  -4  867.81  125.59
   6   4   4 1299.27  172.28
   6   4   4  709.73  104.59
   6  -5  -4  238.38   55.99
  -6   5   4  135.39   53.69
  -6   5   4  116.49   37.70
  -6   5   4  120.29   36.90
   5  -5  -4   32.70   34.70
  -5   5   4   61.79   27.60
  -5   5   4   53.19   21.00
  -5   5   4   74.79   39.70
   4  -5  -4   13.90   30.40
   4  -5  -4   23.30   33.50
  -4   5   4   14.30   19.20
  -4   5   4   38.70   28.60
  -4   5   4   20.70   14.20
  -4   5   4   15.50   23.60
   3  -5  -4   11.30   22.40
   3  -5  -4   -7.00   20.90
  -3   5   4  -26.50   17.70
  -3   5   4   10.50   10.20
  -3   5   4    4.80   20.20
  -3   5   4    0.60   14.20
   2  -5  -4  232.18   47.00
  -2   5   4  220.88   44.30
  -2   5   4  184.88   13.20
  -2   5   4  218.68   14.30
   1  -5  -4  240.48   49.40
  -1   5   4  253.17   48.90
  -1   5   4  195.98   50.49
   0  -5  -4  112.89   24.10
   0  -5  -4  140.19   36.70
   0   5   4  289.87   47.90
   0   5   4  218.98   42.40
   0   5   4  249.08   26.30
  -1  -5  -4  513.95   76.09
  -1  -5  -4  307.57   36.50
   1   5   4  243.08   44.30
   1   5   4  224.48   38.20
   1   5   4  206.18   42.00
   1   5   4  229.08   32.10
  -2  -5  -4  474.55   72.09
   2   5   4  392.26   48.90
   2   5   4  335.57   57.79
   2   5   4  368.66   46.30
  -3  -5  -4  484.55   78.69
   3   5   4  578.24   50.19
   3   5   4  508.65   75.19
   3   5   4  598.24   46.20
   3   5   4  610.24   64.99
  -4  -5  -4  295.97   63.59
   4   5   4  549.15   77.59
   4   5   4  409.76   73.69
  -5  -5  -4  710.53  107.99
   5   5   4  658.63  100.79
   5   5   4  703.23   93.89
   6  -6  -4  931.71  117.59
  -6   6   4 1284.67   86.69
  -6   6   4 1243.58  129.79
  -6   6   4 1219.98  112.39
   5  -6  -4  655.43   93.29
  -5   6   4  587.04   76.09
  -5   6   4  573.14   52.29
  -5   6   4  712.13  102.69
   4  -6  -4 1027.40  104.39
  -4   6   4  811.52  104.09
  -4   6   4  986.30   52.29
  -4   6   4 1051.89   88.69
  -4   6   4  976.60   58.19
   3  -6  -4 1645.74  125.69
  -3   6   4 1604.54  124.69
  -3   6   4 1719.43  113.19
   2  -6  -4 1706.73  126.69
  -2   6   4 1380.26  111.59
  -2   6   4 1501.85  101.29
   1  -6  -4  951.50   92.69
  -1   6   4  919.81   84.29
  -1   6   4  868.31   77.59
   0  -6  -4 1072.59  102.39
   0   6   4 1595.24  108.49
   0   6   4 1491.35  104.59
  -1  -6  -4  813.62   46.10
  -1  -6  -4  870.41   93.89
  -1  -6  -4  721.63   50.39
   1   6   4  785.92   70.19
   1   6   4  686.33   70.99
  -2  -6  -4  628.54   59.39
  -2  -6  -4  619.64   88.99
   2   6   4  561.24   59.39
   2   6   4  625.84   58.79
   2   6   4  705.83   91.69
  -3  -6  -4  619.04  124.09
   3   6   4  418.56   77.29
   3   6   4  398.26   49.40
   3   6   4  423.16   60.29
  -4  -6  -4  218.68   69.39
  -4  -6  -4  174.58   44.60
   4   6   4  211.98   56.79
   5  -7  -4  453.25   94.49
  -5   7   4  490.95   88.09
  -5   7   4  372.56   69.09
   4  -7  -4  893.41  110.39
  -4   7   4  864.91   89.29
  -4   7   4  790.32  114.19
   3  -7  -4  934.51  103.89
  -3   7   4  938.31   86.39
   2  -7  -4  748.03   95.69
  -2   7   4  699.23   73.59
  -2   7   4  821.22  107.39
   1  -7  -4 1274.77  121.49
  -1   7   4 1340.17  100.59
  -1   7   4 1337.67  110.19
   0  -7  -4 1117.29  116.79
   0   7   4 1300.07  106.39
   0   7   4 1402.66  107.69
  -1  -7  -4 1456.05   62.39
  -1  -7  -4 1743.13  140.59
   1   7   4 1488.95  108.49
   1   7   4 1369.96  111.79
  -2  -7  -4 1455.25  135.89
  -2  -7  -4 1229.78   70.19
  -2  -7  -4 1169.58   93.09
   2   7   4 1142.89  107.79
   2   7   4 1313.07   98.89
  -3  -7  -4 1219.98   83.79
   3   7   4 1042.30   84.29
   3   7   4 1210.98  118.29
   4  -8  -4   47.90   58.79
  -4   8   4   85.59   50.99
  -4   8   4  107.79   48.10
   3  -8  -4  147.09   59.99
  -3   8   4  184.48   58.99
  -3   8   4  191.48   47.90
   2  -8  -4   42.50   50.49
  -2   8   4   23.20   35.30
  -2   8   4  -32.00   35.90
   1  -8  -4   -0.60   45.90
  -1   8   4   29.00   34.50
   0  -8  -4   -1.10   47.10
   0   8   4   66.19   35.90
   0   8   4   44.00   38.20
  -1  -8  -4   48.20   52.89
   1   8   4   71.69   45.50
  -2  -8  -4   42.80   23.90
  -2  -8  -4   -9.50   47.70
   2   8   4   28.70   43.60
   2   8   4   -4.70   37.70
   3   9  -5 1260.77  121.79
   3   9  -5 1141.49  105.59
  -3  -9   5 1108.29   84.59
  -3  -9   5  890.11  120.69
   2   9  -5 1275.57  115.59
   2   9  -5 1051.19   90.19
  -2  -9   5 1205.48   81.19
  -2  -9   5 1228.18  131.79
   1   9  -5 1444.76   88.39
   1   9  -5 1383.66  126.99
  -1  -9   5 1756.42   82.39
  -1  -9   5 1448.85  140.89
   0   9  -5  971.20   43.60
   0   9  -5  930.91  103.19
   0  -9   5  859.91  120.19
  -1   9  -5  921.71  116.29
   1  -9   5  914.81  120.09
  -2   9  -5  439.06   78.09
   2  -9   5  320.67   88.19
  -3   9  -5  737.93  106.19
   3  -9   5  638.94  117.49
   4   8  -5  145.79   51.59
   4   8  -5  252.17   61.89
  -4  -8   5  234.78   62.89
  -4  -8   5  266.37   51.49
   3   8  -5  277.87   61.69
   3   8  -5  228.58   48.50
  -3  -8   5  244.98   44.80
  -3  -8   5  319.87   67.99
   2   8  -5  645.94   84.39
  -2  -8   5  435.86   87.99
  -2  -8   5  764.32   76.49
  -2  -8   5  630.44   57.79
   1   8  -5  962.90   67.39
   1   8  -5 1096.29  100.29
  -1  -8   5  984.80  108.39
  -1  -8   5  876.11   62.79
  -1  -8   5  865.01   68.99
  -1  -8   5  999.70   71.69
   0   8  -5  624.94   40.90
   0   8  -5  631.24   89.79
   0  -8   5  482.75   47.10
   0  -8   5  409.96   75.79
   0  -8   5  463.25   30.70
   0  -8   5  514.55   42.80
  -1   8  -5  754.52   84.59
  -1   8  -5  709.93   44.70
   1  -8   5  973.30  107.59
   1  -8   5  758.92   49.80
  -2   8  -5  818.52  149.09
  -2   8  -5  870.81   53.79
   2  -8   5  604.64  147.49
   2  -8   5  874.31   55.29
  -3   8  -5  979.90  105.59
   3  -8   5  993.30   71.09
   3  -8   5 1102.39  122.99
  -4   8  -5 1135.49  117.69
   4  -8   5 1014.60   88.49
   4  -8   5  851.31  114.49
   5   7  -5  662.23   88.09
   5   7  -5  845.72  105.49
  -5  -7   5  729.93   78.19
  -5  -7   5  762.22   97.69
   4   7  -5  833.72   98.69
   4   7  -5  658.93   86.09
  -4  -7   5  863.61   96.39
  -4  -7   5  763.02   72.59
   3   7  -5  280.57   52.99
   3   7  -5  248.98   48.30
  -3  -7   5  307.37   46.60
  -3  -7   5  433.66   75.99
   2   7  -5  687.73   72.29
   2   7  -5  555.14   55.39
  -2  -7   5  538.75   61.49
  -2  -7   5  602.94   51.99
  -2  -7   5  414.36   70.69
  -2  -7   5  522.55   63.09
   1   7  -5  976.10   59.29
   1   7  -5  903.91   61.59
   1   7  -5  950.00   86.09
  -1  -7   5  801.52   59.19
  -1  -7   5  793.62   58.89
  -1  -7   5  893.51   88.99
   0   7  -5  191.58   20.70
   0   7  -5  145.69   24.60
   0   7  -5  175.28   46.10
   0  -7   5  139.19   15.00
   0  -7   5  168.28   46.60
   0  -7   5  159.78   28.20
  -1   7  -5  -14.30   22.30
  -1   7  -5   15.90   17.20
   1  -7   5    7.90   24.90
   1  -7   5   15.30   17.10
  -2   7  -5   14.00   23.00
  -2   7  -5   -1.40   19.90
   2  -7   5   26.20   33.80
   2  -7   5   18.80   18.30
  -3   7  -5    7.90   30.80
  -3   7  -5   19.10   29.00
   3  -7   5   26.80   42.20
   3  -7   5   17.50   24.10
   4  -7   5   35.90   44.80
   4  -7   5   70.69   32.30
  -5   7  -5   43.50   42.10
   5  -7   5   21.70   55.39
   5  -7   5   15.40   43.30
   6   6  -5  964.50  107.79
   6   6  -5  867.31   94.19
  -6  -6   5  691.23   93.19
  -6  -6   5  882.51   89.29
   5   6  -5  896.21   92.39
   5   6  -5  874.71   96.99
  -5  -6   5 1052.89   96.49
  -5  -6   5  928.41   84.69
   4   6  -5 1260.47  102.39
   4   6  -5 1283.57  103.69
  -4  -6   5 1232.88   86.39
  -4  -6   5 1311.07  106.29
   3   6  -5 1375.26   98.19
   3   6  -5 1639.74  108.89
  -3  -6   5 1545.55   91.89
  -3  -6   5 1567.14  113.69
   2   6  -5 3032.80  143.29
   2   6  -5 3065.39  160.18
   2   6  -5 2919.71  134.99
  -2  -6   5 3104.79  137.29
  -2  -6   5 3059.09  149.09
  -2  -6   5 2924.71  140.39
  -2  -6   5 3034.70  165.78
   1   6  -5 2592.34  113.29
   1   6  -5 2499.45  113.39
   1   6  -5 2609.64  143.79
  -1  -6   5 2493.35  147.79
  -1  -6   5 2651.53  117.99
  -1  -6   5 2562.54  112.09
   0   6  -5 2382.46   86.79
   0   6  -5 2470.95  137.59
   0   6  -5 2116.39  100.09
   0  -6   5 2107.89  134.79
   0  -6   5 2355.06  105.19
   0  -6   5 2136.09   79.19
  -1   6  -5 2438.56  141.99
  -1   6  -5 2361.26  106.69
   1  -6   5 2518.55  154.48
   1  -6   5 2554.04  114.19
  -2   6  -5 2457.15  145.69
   2  -6   5 2111.09  105.79
   2  -6   5 2117.79  142.59
  -3   6  -5 1513.85  113.39
   3  -6   5 1401.66   88.99
   3  -6   5 1554.34  126.89
  -4   6  -5 1334.17  106.69
  -4   6  -5 1297.47   56.49
  -4   6  -5 1370.96   60.69
   4  -6   5 1254.77  125.19
   4  -6   5 1399.06   96.99
  -5   6  -5 1032.50  111.59
  -5   6  -5  945.51   61.59
  -5   6  -5  960.30   96.29
   5  -6   5  928.91   89.09
   6   5  -5  324.97   71.39
   6   5  -5  259.47   59.49
  -6  -5   5  251.27   53.89
  -6  -5   5  189.68   49.10
   5   5  -5   22.10   30.40
   5   5  -5   41.40   32.90
  -5  -5   5   44.70   24.50
  -5  -5   5   36.70   30.60
   4   5  -5   20.60   21.90
   4   5  -5    7.10   27.10
  -4  -5   5    7.40   17.10
  -4  -5   5   10.50   20.40
   3   5  -5   94.09   32.30
   3   5  -5  136.79   32.50
  -3  -5   5  134.19   28.60
  -3  -5   5  124.89   32.20
   2   5  -5  511.95   44.90
   2   5  -5  456.35   44.70
   2   5  -5  471.35   53.09
   2   5  -5  492.75   62.49
  -2  -5   5  551.84   67.29
  -2  -5   5  482.25   45.20
  -2  -5   5  425.16   40.10
   1   5  -5  684.23   63.09
   1   5  -5  771.92   50.29
   1   5  -5  763.72   47.70
   1   5  -5  787.42   65.99
  -1  -5   5  624.34   43.00
  -1  -5   5  774.42   50.59
  -1  -5   5  750.02   66.49
   0   5  -5  638.04   44.80
   0   5  -5  684.43   61.99
   0  -5   5  669.43   64.39
   0  -5   5  677.53   27.20
   0  -5   5  747.73   49.40
   0  -5   5  676.63   28.00
  -1   5  -5  748.73   64.59
  -1   5  -5  641.04   46.70
   1  -5   5  783.42   52.89
  -2   5  -5  793.02   71.39
  -2   5  -5 1043.50   79.29
   2  -5   5  799.92   79.89
   2  -5   5  855.81   59.89
  -3   5  -5 1707.73   63.79
  -3   5  -5 1652.63  109.29
  -3   5  -5 1643.24   63.79
   3  -5   5 1825.22  102.19
   3  -5   5 1563.14  122.39
  -4   5  -5 2245.18  134.49
  -4   5  -5 2013.90   94.59
  -4   5  -5 2122.09   94.29
   4  -5   5 1791.02  139.99
   4  -5   5 1904.71  116.39
  -5   5  -5 1001.30   90.49
  -5   5  -5 1134.59   79.99
  -5   5  -5 1236.78  120.19
  -5   5  -5 1049.49   69.69
   5  -5   5 1105.29   95.19
  -6   5  -5 1000.90  112.49
  -6   5  -5  874.61   77.39
  -6   5  -5 1154.58  100.39
   6  -5   5 1151.28  176.38
   7   4  -5 1268.87  132.99
   7   4  -5  887.51  124.69
  -7  -4   5 1312.07  114.69
  -7  -4   5 1236.48  104.09
   6   4  -5 1427.36  128.09
  -6  -4   5 1312.97  104.19
  -6  -4   5 1335.57  100.29
   5   4  -5 1663.13  113.09
   5   4  -5 1998.20  133.99
  -5  -4   5 1691.33  105.69
  -5  -4   5 1799.02  113.49
   4   4  -5 2213.98  130.89
   4   4  -5 2426.36  138.59
   4   4  -5 2267.87  121.69
  -4  -4   5 2444.56  129.49
  -4  -4   5 2742.13  135.59
   3   4  -5 2691.43  139.39
   3   4  -5 2556.44  125.59
   3   4  -5 2703.23  137.19
  -3  -4   5 2826.82  132.69
  -3  -4   5 2604.14  133.19
  -3  -4   5 2698.73  129.49
  -3  -4   5 2612.04  133.79
   2   4  -5 1911.31   98.59
   2   4  -5 2019.60   95.99
   2   4  -5 1865.01   98.89
   2   4  -5 2034.10  109.69
  -2  -4   5 2065.39   99.59
  -2  -4   5 2013.00  100.39
  -2  -4   5 2023.60  106.39
   1   4  -5 1640.44   91.89
   1   4  -5 1705.83   78.69
   1   4  -5 1841.52   98.39
   1   4  -5 1524.75   79.19
  -1  -4   5 1727.03   77.29
  -1  -4   5 1743.03   97.69
  -1  -4   5 1657.73   82.69
   0   4  -5 3326.07  136.49
   0   4  -5 3410.26  156.58
   0  -4   5 3520.85  144.29
   0  -4   5 3401.96  116.49
   0  -4   5 3592.44  163.78
   0  -4   5 3281.17  155.68
   0  -4   5 3530.05  116.49
  -1   4  -5 1267.57   80.49
  -1   4  -5 1216.08   84.69
  -1   4  -5 1123.19   66.49
   1  -4   5 1288.17   71.69
   1  -4   5 1285.67   88.99
   1  -4   5 1224.78   81.09
  -2   4  -5  238.98   34.80
  -2   4  -5  220.28   40.70
   2  -4   5  235.08   46.00
   2  -4   5  201.28   33.70
  -3   4  -5  367.36   48.80
  -3   4  -5  323.07   27.90
   3  -4   5  401.26   32.90
   3  -4   5  474.25   49.10
   3  -4   5  405.86   61.49
  -4   4  -5  414.16   63.99
  -4   4  -5  502.45   54.79
  -4   4  -5  425.46   46.10
   4  -4   5  375.76   55.09
   4  -4   5  509.55   48.40
  -5   4  -5  107.29   40.50
  -5   4  -5  101.59   33.00
   5  -4   5   81.79   29.20
   5  -4   5   21.20   27.90
  -6   4  -5  -28.50   37.50
  -6   4  -5   23.10   30.60
   6  -4   5   -6.80   36.30
   6  -4   5    1.20   44.00
   7   3  -5  310.37   69.09
   7   3  -5  319.97   56.59
  -7  -3   5  178.28   46.00
  -7  -3   5  186.78   48.30
   6   3  -5  495.25   62.29
   6   3  -5  360.06   72.39
  -6  -3   5  437.16   66.09
  -6  -3   5  652.43   80.39
   5   3  -5 1957.40  109.19
   5   3  -5 1976.00  132.59
   5   3  -5 1981.80  119.99
  -5  -3   5 1921.41  107.29
  -5  -3   5 2219.08  124.69
   4   3  -5 1505.15   99.19
   4   3  -5 1449.46   85.29
   4   3  -5 1511.75  102.89
  -4  -3   5 1635.04   88.29
  -4  -3   5 1580.64   96.49
  -4  -3   5 1669.03   97.69
   3   3  -5 1926.11  102.29
   3   3  -5 2172.28  115.59
   3   3  -5 2094.99   98.09
   3   3  -5 2128.49  117.19
  -3  -3   5 2237.28  111.39
  -3  -3   5 2495.55  108.59
  -3  -3   5 2149.48  104.19
  -3  -3   5 2110.09  114.29
   2   3  -5 2706.53  129.69
   2   3  -5 2684.63  113.59
   2   3  -5 2594.34  122.79
   2   3  -5 2655.33  117.49
  -2  -3   5 2658.53  120.19
  -2  -3   5 2635.34  127.99
  -2  -3   5 2809.22  120.99
  -2  -3   5 2676.93  118.19
   1   3  -5 3778.82  145.89
   1   3  -5 3649.33  147.09
   1   3  -5 3963.80  163.48
   1   3  -5 3473.85  149.39
  -1  -3   5 4102.79  153.48
  -1  -3   5 3935.71  164.08
  -1  -3   5 4065.39  170.78
  -1  -3   5 4012.20  158.78
   0   3  -5 7654.13  294.57
   0   3  -5 7639.44  292.27
   0   3  -5 8204.38  282.07
   0  -3   5 7776.32  261.47
   0  -3   5 7735.33  294.17
   0  -3   5 7789.42  295.67
   0  -3   5 7895.61  284.47
   0  -3   5 7986.90  261.27
  -1   3  -5 4472.15  183.68
  -1   3  -5 4355.06  189.78
  -1   3  -5 4328.67  144.89
  -1   3  -5 4301.57  172.98
   1  -3   5 4094.89  173.18
   1  -3   5 4132.79  183.78
   1  -3   5 4337.27  169.98
   1  -3   5 4082.29  137.89
  -2   3  -5 2171.88   88.19
  -2   3  -5 2138.29  125.89
  -2   3  -5 2200.58  108.19
  -2   3  -5 2210.88  110.19
   2  -3   5 2167.38   87.49
   2  -3   5 2014.20  121.19
   2  -3   5 2256.07  109.09
  -3   3  -5 3119.69  130.39
  -3   3  -5 3198.28  160.88
  -3   3  -5 3209.78  146.89
   3  -3   5 3121.69  133.19
   3  -3   5 3161.68  151.78
   3  -3   5 3058.19  144.69
  -4   3  -5 1175.98   77.09
  -4   3  -5 1245.58   97.49
  -4   3  -5 1034.30   71.79
  -4   3  -5 1146.09   85.79
   4  -3   5 1151.88   88.69
   4  -3   5 1162.58   77.09
  -5   3  -5 1529.05   93.19
  -5   3  -5 1425.96  117.59
   5  -3   5 1516.15  113.69
   5  -3   5 1597.64  106.39
  -6   3  -5 1062.29  114.99
  -6   3  -5 1099.49   87.09
   6  -3   5 1120.99  103.69
   6  -3   5 1205.58  183.28
   7   2  -5  182.78   65.69
   7   2  -5  261.37   50.89
  -7  -2   5  206.98   46.20
  -7  -2   5  239.18   44.80
   6   2  -5  194.28   54.39
   6   2  -5  175.08   44.60
  -6  -2   5  108.49   27.20
  -6  -2   5  213.88   47.30
  -6  -2   5  213.48   45.20
   5   2  -5  428.96   57.39
   5   2  -5  418.06   42.70
   5   2  -5  414.36   63.59
  -5  -2   5  493.65   43.90
  -5  -2   5  505.35   52.19
  -5  -2   5  395.76   61.39
   4   2  -5  601.44   58.89
   4   2  -5  577.14   83.09
   4   2  -5  514.45   40.80
  -4  -2   5  578.04   50.49
  -4  -2   5  495.25   40.10
  -4  -2   5  588.84   55.59
   3   2  -5   81.99   16.30
   3   2  -5  100.99   29.50
   3   2  -5  128.39   30.80
   3   2  -5  102.09   23.60
  -3  -2   5  111.19   24.50
  -3  -2   5   97.59   22.00
  -3  -2   5  103.39   18.10
  -3  -2   5   69.89   25.20
   2   2  -5  377.66   40.60
   2   2  -5  275.57   26.20
   2   2  -5  324.67   41.00
   2   2  -5  354.96   31.90
  -2  -2   5  294.97   33.10
  -2  -2   5  396.16   26.90
  -2  -2   5  299.17   30.00
  -2  -2   5  297.97   39.60
   1   2  -5  156.08   28.10
   1   2  -5  193.98   25.60
   1   2  -5  181.28   20.00
  -1  -2   5  154.28   22.90
  -1  -2   5  163.08   17.00
  -1  -2   5  163.58   29.00
  -1  -2   5  186.68   24.90
   0   2  -5   87.19   17.00
   0   2  -5   64.49   16.30
   0   2  -5   71.19   19.80
   0   2  -5   76.49   11.80
   0  -2   5   95.29   13.70
   0  -2   5   80.89   16.90
   0  -2   5   93.39   20.50
   0  -2   5  151.98   24.30
  -1   2  -5  356.66   39.40
  -1   2  -5  303.77   30.80
  -1   2  -5  265.87   29.10
   1  -2   5  364.26   24.80
   1  -2   5  327.07   32.80
   1  -2   5  372.66   38.50
   1  -2   5  401.96   35.70
  -2   2  -5  211.48   41.10
  -2   2  -5  288.17   30.10
  -2   2  -5  241.98   36.30
  -2   2  -5  346.07   43.00
  -2   2  -5  244.88   24.90
   2  -2   5  249.48   35.10
   2  -2   5  294.87   40.90
   2  -2   5  257.17   25.90
  -3   2  -5  802.82   75.29
  -3   2  -5  814.62   55.79
  -3   2  -5  792.72   53.79
   3  -2   5  824.82   55.79
   3  -2   5  733.53   55.89
   3  -2   5  769.42   63.29
  -4   2  -5  901.91   57.09
  -4   2  -5  754.92   61.89
  -4   2  -5  769.52   75.59
  -4   2  -5  787.92   64.29
   4  -2   5  673.93   66.59
   4  -2   5  770.72   63.19
  -5   2  -5  924.61   71.49
  -5   2  -5  959.50   62.59
  -5   2  -5 1159.38  102.79
   5  -2   5  900.11   88.09
   5  -2   5 1088.39   86.89
  -6   2  -5  656.93   68.69
  -6   2  -5  711.93   54.09
   6  -2   5  716.23   91.09
  -7   2  -5  434.96   80.59
   7  -2   5  556.64   96.69
   7  -2   5  461.05   80.39
   7   1  -5 1489.35  135.19
   7   1  -5 1433.66  108.99
  -7  -1   5 1556.74  104.39
  -7  -1   5 1433.16  112.69
   6   1  -5 1899.81  141.19
   6   1  -5 1825.92  117.99
  -6  -1   5 1943.51  122.29
  -6  -1   5 1843.22  111.89
  -6  -1   5 1931.61  103.69
   5   1  -5 2287.47  130.99
   5   1  -5 2308.77  144.39
  -5  -1   5 2048.79   99.59
  -5  -1   5 2069.29  105.89
  -5  -1   5 2335.67  123.59
   4   1  -5 2506.05  156.88
   4   1  -5 2539.65  133.19
  -4  -1   5 2114.09  126.19
  -4  -1   5 2486.05  101.09
  -4  -1   5 2505.65  105.59
  -4  -1   5 2687.73  138.79
   3   1  -5 3780.92  170.18
   3   1  -5 3717.23  168.98
   3   1  -5 3470.35  152.78
  -3  -1   5 3422.06  164.38
  -3  -1   5 3799.72  156.68
  -3  -1   5 3837.22  132.69
  -3  -1   5 3521.65  165.28
  -3  -1   5 3741.53  130.09
   2   1  -5 5509.65  208.98
   2   1  -5 5604.94  225.48
  -2  -1   5 5172.98  196.68
  -2  -1   5 5089.89  196.28
  -2  -1   5 5163.08  204.28
   1   1  -5 3592.74  142.39
   1   1  -5 3666.93  158.58
   1   1  -5 3880.51  132.69
   1   1  -5 3786.62  134.29
  -1  -1   5 3267.87  140.59
  -1  -1   5 3182.18  130.69
  -1  -1   5 3394.06  130.19
   0   1  -5 4962.00  194.58
   0   1  -5 5015.00  184.98
   0   1  -5 5197.18  191.08
   0   1  -5 4805.62  188.08
   0   1  -5 5069.19  182.98
   0  -1   5 4449.15  163.98
   0  -1   5 4213.28  170.78
   0  -1   5 4463.25  170.48
  -1   1  -5 2202.98  101.89
  -1   1  -5 2360.56   99.39
  -1   1  -5 2158.58   94.29
  -1   1  -5 2231.88  111.79
  -1   1  -5 2219.78  105.49
   1  -1   5 2507.95  106.39
   1  -1   5 2512.35  113.39
   1  -1   5 2471.15  104.49
  -2   1  -5 2319.27  104.39
  -2   1  -5 2417.66  121.19
  -2   1  -5 2336.87  100.69
  -2   1  -5 2284.17  127.09
  -2   1  -5 2344.57  111.99
   2  -1   5 2373.76   99.29
   2  -1   5 2216.38  112.79
   2  -1   5 2364.46  106.29
  -3   1  -5  957.00   52.69
  -3   1  -5 1112.09   81.09
  -3   1  -5  886.11   69.39
   3  -1   5  824.22   47.70
   3  -1   5  799.52   65.59
   3  -1   5  787.52   59.79
  -4   1  -5  712.13   73.79
  -4   1  -5  786.32   50.09
  -4   1  -5  703.43   43.40
   4  -1   5  667.33   66.09
   4  -1   5  630.84   66.99
  -5   1  -5  642.34   94.39
  -5   1  -5  550.44   37.30
  -5   1  -5  550.84   41.20
   5  -1   5  586.74   80.89
   5  -1   5  626.14   68.89
   6  -1   5   71.29   39.90
   6  -1   5   65.79   41.20
  -7   1  -5   63.39   46.30
   7  -1   5    8.00   49.80
   7  -1   5   34.20   47.90
   8   0  -5  -19.60   43.70
   8   0  -5    5.80   40.50
  -8   0   5   78.29   42.40
  -8   0   5  -38.80   37.20
  -8   0   5    2.50   37.20
   7   0  -5  357.36   63.09
   7   0  -5  215.38   61.69
  -7   0   5  211.68   48.80
   6   0  -5   83.09   30.40
   6   0  -5   34.30   28.10
  -6   0   5   35.40   32.20
  -6   0   5   51.29   25.20
  -6   0   5   24.20   20.50
   5   0  -5  321.77   58.99
   5   0  -5  298.37   47.40
  -5   0   5  331.67   35.00
  -5   0   5  302.67   46.70
  -5   0   5  264.57   37.30
   4   0  -5 1536.55   96.89
   4   0  -5 1327.87   98.39
  -4   0   5 1367.56   83.89
  -4   0   5 1479.65   68.79
  -4   0   5 1502.85  100.29
  -4   0   5 1407.66   90.49
  -4   0   5 1547.85   71.79
   3   0  -5 1823.22  101.59
   3   0  -5 1556.54   84.89
  -3   0   5 1897.91   94.19
  -3   0   5 1696.23   66.09
  -3   0   5 1640.54   64.69
  -3   0   5 1559.14   95.99
  -3   0   5 1777.92   88.19
   2   0  -5 1849.02  100.29
   2   0  -5 1872.61   86.29
  -2   0   5 1893.61   87.89
  -2   0   5 1864.51  100.79
  -2   0   5 2000.80   92.99
  -2   0   5 1800.52   97.79
   1   0  -5  733.03   34.10
   1   0  -5  624.14   48.00
   1   0  -5  635.24   40.70
   1   0  -5  587.24   41.00
  -1   0   5  706.13   35.00
  -1   0   5  705.63   45.40
  -1   0   5  721.73   51.59
  -1   0   5  713.63   43.20
   0   0  -5 9235.68  328.67
   0   0  -5 9318.57  330.47
   0   0  -5 9179.28  335.17
   0   0  -5 9823.02  331.07
   0   0   5 9435.46  330.27
   0   0   5 9010.30  328.17
   0   0   5 9583.94  327.17
   0   0   5 9297.27  332.77
  -1   0  -5 9217.88  329.87
  -1   0  -5 9447.35  342.07
  -1   0  -5 9607.94  329.07
  -1   0  -5 8936.51  330.57
   1   0   5 9752.52  344.97
   1   0   5 9295.37  332.07
   1   0   5 9999.00  341.97
   1   0   5 9274.77  345.17
  -2   0  -5 3249.18  142.69
  -2   0  -5 3260.57  145.19
  -2   0  -5 3227.58  128.19
  -2   0  -5 3580.24  161.78
   2   0   5 3347.27  125.39
   2   0   5 3296.17  150.28
   2   0   5 3344.17  146.39
   2   0   5 3300.07  153.28
  -3   0  -5 2340.77  122.19
  -3   0  -5 2625.74   97.79
  -3   0  -5 2733.13  145.59
   3   0   5 2434.66  128.99
   3   0   5 2708.23  137.59
  -4   0  -5 2768.62  160.88
   4   0   5 2462.95  142.29
   4   0   5 2298.17  132.19
  -5   0  -5 2668.03  169.48
   5   0   5 2584.44  157.88
   5   0   5 2537.65  160.28
  -6   0  -5 1919.01  192.88
   6   0   5 1926.71  145.19
   6   0   5 2076.99  150.88
  -7   0  -5  970.80  122.69
   7   0   5  868.51  122.39
   7   0   5  781.62  110.79
   7  -1  -5  822.72  100.49
  -7   1   5  823.22   88.89
  -7   1   5  842.52   75.89
   6  -1  -5 1157.48   96.29
  -6   1   5 1183.68   89.49
  -6   1   5 1290.57   85.59
  -6   1   5 1328.27   94.59
  -6   1   5 1279.47  100.39
   5  -1  -5 1174.28   92.89
  -5   1   5 1063.89   82.79
  -5   1   5 1089.49   77.29
  -5   1   5  989.80   70.09
  -5   1   5 1056.59   66.79
   4  -1  -5  697.63   64.49
  -4   1   5  796.22   51.29
  -4   1   5  847.72   60.09
  -4   1   5  794.22   48.90
   3  -1  -5 1310.37   71.89
   3  -1  -5 1383.16   65.29
   3  -1  -5 1393.36   90.09
  -3   1   5 1696.23   90.49
  -3   1   5 1436.96   94.29
  -3   1   5 1608.44   69.89
  -3   1   5 1505.25   80.19
  -3   1   5 1612.54   97.99
   2  -1  -5  241.08   38.70
   2  -1  -5  222.68   23.90
   2  -1  -5  310.67   37.80
   2  -1  -5  237.78   21.40
  -2   1   5  281.77   21.50
  -2   1   5  281.27   26.80
  -2   1   5  356.86   47.90
  -2   1   5  221.08   32.80
   1  -1  -5  312.57   27.10
   1  -1  -5  286.57   40.50
   1  -1  -5  283.57   24.90
   1  -1  -5  270.97   29.20
  -1   1   5  365.96   27.00
  -1   1   5  326.47   27.00
  -1   1   5  312.27   32.30
  -1   1   5  267.77   37.40
   0  -1  -5  365.86   34.60
   0  -1  -5  366.46   34.70
   0  -1  -5  323.77   31.90
   0  -1  -5  389.66   31.20
   0   1   5  377.26   31.30
   0   1   5  406.26   35.00
   0   1   5  416.56   36.60
   0   1   5  444.46   37.70
  -1  -1  -5  202.08   28.90
  -1  -1  -5  194.48   28.50
  -1  -1  -5  168.28   31.80
  -1  -1  -5  212.58   26.70
   1   1   5  178.98   29.20
   1   1   5  159.28   28.30
   1   1   5  165.78   23.70
  -2  -1  -5   24.80   16.50
  -2  -1  -5   41.40   16.50
  -2  -1  -5   47.60   10.20
  -2  -1  -5   13.70   16.30
   2   1   5   53.79   10.50
   2   1   5   92.09   25.40
   2   1   5   57.79   16.50
   2   1   5   16.70   19.30
  -3  -1  -5  287.37   47.70
   3   1   5  309.97   45.90
  -4  -1  -5  298.07   53.29
   4   1   5  447.66   63.79
   4   1   5  312.97   53.59
  -5  -1  -5  273.27   63.19
   5   1   5  276.07   69.79
   5   1   5  289.27   58.89
  -6  -1  -5  633.04   99.79
   6   1   5  355.16   93.39
   6   1   5  468.65   84.79
   7  -2  -5  905.41  111.69
  -7   2   5 1077.89   89.99
  -7   2   5  893.41   92.19
  -7   2   5 1012.10   93.09
   6  -2  -5 1273.77  107.29
  -6   2   5 1300.87  120.69
  -6   2   5 1411.66   92.29
  -6   2   5 1146.89   89.19
  -6   2   5 1237.58   99.69
   5  -2  -5 2500.15  149.69
  -5   2   5 2434.36  118.79
  -5   2   5 2259.17  121.89
  -5   2   5 2452.75  136.19
  -5   2   5 2396.06  125.19
   4  -2  -5 1856.51  119.19
   4  -2  -5 1941.81  100.29
  -4   2   5 2198.78  106.39
  -4   2   5 2457.25  124.19
  -4   2   5 2018.10  116.59
  -4   2   5 2056.39  105.79
   3  -2  -5 3467.85  167.38
   3  -2  -5 3088.99  134.69
   3  -2  -5 3347.27  140.29
  -3   2   5 3503.55  143.39
  -3   2   5 3458.65  144.59
  -3   2   5 3646.44  159.48
  -3   2   5 3404.96  168.78
   2  -2  -5 5171.88  217.28
   2  -2  -5 5046.20  201.28
   2  -2  -5 4880.61  184.68
   2  -2  -5 4881.91  192.88
  -2   2   5 5200.98  198.38
  -2   2   5 5429.16  215.18
  -2   2   5 5392.86  196.28
  -2   2   5 5030.50  218.98
   1  -2  -5 5621.74  231.48
   1  -2  -5 5316.27  221.48
   1  -2  -5 6026.40  220.58
   1  -2  -5 5829.12  206.88
  -1   2   5 6125.99  239.98
  -1   2   5 5970.00  219.18
  -1   2   5 6010.50  225.98
  -1   2   5 6095.19  238.38
   0  -2  -5 3533.75  152.48
   0  -2  -5 3582.24  155.88
   0  -2  -5 3492.05  138.29
   0  -2  -5 3428.06  151.38
   0   2   5 3638.24  156.18
   0   2   5 3558.64  149.39
   0   2   5 3550.84  141.29
   0   2   5 3254.57  147.29
  -1  -2  -5 1752.02   99.69
  -1  -2  -5 1941.01   92.89
  -1  -2  -5 2114.69   93.79
  -1  -2  -5 2042.30  109.39
   1   2   5 2015.20  103.79
   1   2   5 1920.91   93.89
   1   2   5 1765.72   86.69
   1   2   5 1810.12  100.89
  -2  -2  -5 2859.01  135.09
  -2  -2  -5 2978.20  114.99
  -2  -2  -5 3119.29  156.38
   2   2   5 3391.86  165.08
   2   2   5 3606.94  160.48
  -3  -2  -5 2678.13  153.08
   3   2   5 2652.43  146.79
   3   2   5 2744.73  144.79
  -4  -2  -5 1314.17  108.19
   4   2   5 1272.17   99.29
   4   2   5 1464.35  109.29
  -5  -2  -5 1163.78  112.49
   5   2   5 1270.77  101.79
   5   2   5 1255.37  110.49
  -6  -2  -5   17.10   42.10
   6   2   5  147.59   50.39
   6   2   5  109.39   65.89
   7  -3  -5   91.69   47.20
  -7   3   5   66.89   29.40
  -7   3   5   50.19   36.50
  -7   3   5   46.80   37.70
   6  -3  -5   35.30   40.80
  -6   3   5   56.19   26.80
  -6   3   5  106.49   35.10
  -6   3   5   36.30   29.90
   5  -3  -5  248.48   47.20
   5  -3  -5  152.28   47.90
  -5   3   5  283.67   49.10
  -5   3   5  128.89   34.50
  -5   3   5  230.68   38.10
   4  -3  -5   27.60   21.50
   4  -3  -5   33.40   23.40
  -4   3   5  -13.50   26.60
  -4   3   5   17.00   13.10
  -4   3   5   11.90   22.20
  -4   3   5    4.50   14.10
   3  -3  -5  287.47   43.50
   3  -3  -5  304.57   55.19
  -3   3   5  231.38   29.60
  -3   3   5  242.98   37.10
  -3   3   5  253.97   39.30
  -3   3   5  311.77   41.80
   2  -3  -5 1215.28   79.49
   2  -3  -5 1404.76   82.39
   2  -3  -5 1227.08   60.69
   2  -3  -5 1365.66   91.69
  -2   3   5 1331.47   65.09
  -2   3   5 1376.16   79.69
   1  -3  -5  272.57   41.80
   1  -3  -5  400.96   42.90
   1  -3  -5  239.48   22.70
   1  -3  -5  357.86   47.20
  -1   3   5  255.97   36.70
  -1   3   5  333.57   45.20
  -1   3   5  276.07   44.50
  -1   3   5  234.18   23.60
   0  -3  -5 1441.36   88.19
   0  -3  -5 1318.47   81.89
   0  -3  -5 1295.67   84.89
   0  -3  -5 1440.66   68.69
   0   3   5 1363.56   84.19
   0   3   5 1260.37   79.89
   0   3   5 1348.86   68.49
   0   3   5 1283.07   80.29
  -1  -3  -5 2038.60  115.89
  -1  -3  -5 1775.82   92.69
  -1  -3  -5 2189.18  101.69
   1   3   5 2048.50  114.49
   1   3   5 2104.49  101.39
   1   3   5 2006.50  100.39
  -2  -3  -5 1033.40   85.09
  -2  -3  -5  973.60   67.49
   2   3   5 1151.18   59.89
   2   3   5 1246.48   79.29
   2   3   5 1099.29   84.89
   2   3   5 1149.39   62.39
  -3  -3  -5 1379.76  108.29
   3   3   5 1562.44  110.39
   3   3   5 1651.53  104.79
  -4  -3  -5 1004.20   99.19
   4   3   5  858.51   82.59
   4   3   5  880.91   89.29
  -5  -3  -5 1060.69  168.88
   5   3   5 1122.59  105.89
  -6  -3  -5  921.91  120.99
   6   3   5  917.21  125.09
   6   3   5 1222.18  169.28
  -7   4   5  983.70  121.99
  -7   4   5 1243.58  111.29
  -7   4   5  878.71   95.09
  -7   4   5  978.60   88.99
   6  -4  -5  476.25   83.29
  -6   4   5  501.35   70.29
  -6   4   5  613.64   68.49
  -6   4   5  560.94   60.59
   5  -4  -5 1130.09   94.49
   5  -4  -5 1020.80  101.09
  -5   4   5 1070.79   73.39
  -5   4   5 1221.08   94.09
   4  -4  -5 1505.15  116.49
   4  -4  -5 1646.34  108.49
  -4   4   5 1661.83   84.39
  -4   4   5 1670.63   96.09
  -4   4   5 1462.55  102.99
   3  -4  -5  816.32   80.39
   3  -4  -5  863.31   71.89
  -3   4   5  752.22   56.49
  -3   4   5  966.60   73.29
  -3   4   5  786.92   48.40
  -3   4   5  858.61   71.89
   2  -4  -5  947.21   75.79
   2  -4  -5  834.52   45.30
   2  -4  -5  866.61   78.49
  -2   4   5  908.01   72.39
  -2   4   5 1093.49   77.69
  -2   4   5  953.90   50.69
   1  -4  -5  999.10   79.09
   1  -4  -5 1089.39   79.09
   1  -4  -5  907.91   46.80
  -1   4   5 1306.07   84.29
  -1   4   5 1159.38   95.19
  -1   4   5 1097.09   56.49
   0  -4  -5  692.03   58.79
   0  -4  -5  582.34   40.70
   0  -4  -5  637.44   63.79
   0   4   5  532.35   58.39
   0   4   5  406.36   65.59
   0   4   5  605.84   41.70
  -1  -4  -5 1317.67   73.39
  -1  -4  -5 1365.26  100.09
   1   4   5 1311.47   86.39
   1   4   5 1273.37   92.49
   1   4   5 1269.47   78.49
   1   4   5 1277.47   74.69
  -2  -4  -5  413.66   49.70
  -2  -4  -5  279.97   56.59
   2   4   5  415.86   53.69
   2   4   5  454.05   42.40
   2   4   5  380.96   37.30
   2   4   5  365.76   58.59
  -3  -4  -5   13.30   29.50
   3   4   5    1.90   23.20
   3   4   5   21.90   24.60
   3   4   5    3.30   11.10
  -4  -4  -5   23.10   32.50
   4   4   5   -5.00   25.50
   4   4   5   -0.80   28.50
  -5  -4  -5   26.90   38.90
   5   4   5   53.49   45.40
   5   4   5   32.20   39.60
   6  -5  -5  733.73   97.79
  -6   5   5  593.34   90.79
  -6   5   5  767.72   84.19
  -6   5   5  600.44   63.99
   5  -5  -5  662.13   83.59
   5  -5  -5  746.03  102.09
  -5   5   5  546.75   81.09
  -5   5   5  669.33   53.69
  -5   5   5  423.76   62.39
   4  -5  -5 1091.09   97.79
   4  -5  -5 1092.69  103.99
  -4   5   5 1124.49   71.89
  -4   5   5 1029.40   87.99
  -4   5   5 1079.99   62.89
   3  -5  -5 1723.33  129.89
   3  -5  -5 2084.39  130.59
  -3   5   5 1713.03   80.59
  -3   5   5 1665.93   75.39
  -3   5   5 1796.22  114.09
   2  -5  -5 2527.15  149.19
   2  -5  -5 2543.35  152.58
  -2   5   5 2820.92  145.79
  -2   5   5 2458.15   97.09
   1  -5  -5 1550.04   60.49
   1  -5  -5 1579.84  109.59
   1  -5  -5 1715.43  116.29
  -1   5   5 1658.83   68.49
  -1   5   5 1734.53  111.09
  -1   5   5 1664.73  107.49
   0  -5  -5 1903.31   83.29
   0  -5  -5 2056.99  130.09
   0   5   5 2033.80  123.09
   0   5   5 1998.90   88.89
  -1  -5  -5 2069.09   99.99
  -1  -5  -5 2232.58  144.19
   1   5   5 2234.18  134.19
   1   5   5 2107.79  116.79
   1   5   5 2096.79  150.18
   1   5   5 2095.79  104.09
  -2  -5  -5 2079.99  144.39
  -2  -5  -5 1930.41  109.69
   2   5   5 1910.31  113.89
   2   5   5 2097.09  113.49
   2   5   5 1970.70  132.59
   2   5   5 1985.80  105.99
  -3  -5  -5 1438.66  126.09
   3   5   5 1361.66   72.19
   3   5   5 1310.87   77.39
   3   5   5 1436.46  117.49
   3   5   5 1549.74  107.29
  -4  -5  -5 1270.87  130.39
   4   5   5 1215.98  117.89
   4   5   5 1255.97  106.39
  -5  -5  -5  762.02  111.79
   5   5   5  752.52  108.79
   5   5   5 1006.50  107.99
   6  -6  -5  305.77   80.19
  -6   6   5  309.17   65.09
  -6   6   5  141.59   49.90
  -6   6   5  237.28   46.30
   5  -6  -5   57.19   48.00
  -5   6   5   57.09   24.40
  -5   6   5   56.69   41.20
  -5   6   5   42.60   34.70
   4  -6  -5   76.19   39.40
  -4   6   5   90.69   46.30
  -4   6   5   62.99   17.80
  -4   6   5   -4.60   27.40
  -4   6   5   39.00   22.90
   3  -6  -5   12.50   32.40
  -3   6   5  134.89   40.80
  -3   6   5  121.79   35.70
   2  -6  -5   63.29   36.40
  -2   6   5   71.19   31.00
  -2   6   5   71.09   34.60
   1  -6  -5   90.19   39.80
  -1   6   5  266.17   51.49
  -1   6   5  105.99   32.40
   0  -6  -5  231.18   18.80
   0  -6  -5  291.67   61.69
   0   6   5  201.38   40.40
   0   6   5  169.78   42.50
  -1  -6  -5  397.66   71.49
  -1  -6  -5  451.25   43.80
   1   6   5  567.74   79.69
   1   6   5  457.35   61.09
   1   6   5  460.15   45.50
  -2  -6  -5  522.25   61.39
  -2  -6  -5  694.83   93.19
   2   6   5  731.63   65.39
   2   6   5  658.63   63.99
   2   6   5  807.42   86.39
  -3  -6  -5  660.73   99.59
   3   6   5  671.83   58.39
   3   6   5  589.04   73.69
   3   6   5  857.51   89.49
   3   6   5  755.12  101.69
  -4  -6  -5  268.27   80.89
   4   6   5  554.84  104.29
   4   6   5  423.06   74.89
   5  -7  -5 1093.19  132.99
  -5   7   5  671.23  104.49
  -5   7   5  701.23  118.99
   4  -7  -5 1266.67  127.19
  -4   7   5 1271.57  126.29
  -4   7   5 1057.89  102.19
   3  -7  -5  823.82  108.69
  -3   7   5  667.13   96.19
  -3   7   5  794.62   85.09
   2  -7  -5  774.42  110.69
  -2   7   5  827.82   84.39
  -2   7   5  685.93   94.19
   1  -7  -5  693.73   97.49
  -1   7   5 1023.60   92.69
  -1   7   5  899.71   94.29
   0  -7  -5  949.51  122.69
   0   7   5  977.70   98.19
   0   7   5  930.21   92.59
  -1  -7  -5  903.81   52.99
  -1  -7  -5  932.91   48.10
  -1  -7  -5 1014.90  131.19
   1   7   5  937.51   92.89
   1   7   5 1122.59  102.69
  -2  -7  -5  264.47   69.49
  -2  -7  -5  298.47   40.30
   2   7   5  294.27   65.39
   2   7   5  347.07   56.09
  -3  -7  -5  205.18   44.80
  -3  -7  -5  282.07   76.19
   3   7   5  245.78   46.60
   3   7   5  161.08   53.59
   3  -8  -5  537.85   98.19
  -3   8   5  563.24   92.09
  -3   8   5  486.85   75.69
   2  -8  -5  620.94  104.19
  -2   8   5  713.73   92.39
  -2   8   5  604.84   99.89
   1  -8  -5  823.12  124.19
  -1   8   5  777.22  105.49
  -1   8   5  698.23   91.69
   0  -8  -5  797.02  122.99
   0   8   5  681.93   94.79
  -1  -8  -5 1081.89  146.39
   1   8   5 1126.49  110.79
   1   8   5  929.41  102.59
  -2  -8  -5  546.25   97.89
   2   8   5  772.92   92.19
   2   8   5  766.82  109.69
   3   9  -6   69.29   50.39
   3   9  -6  190.28   48.50
  -3  -9   6  154.58   64.49
  -3  -9   6  145.19   46.40
   2   9  -6   32.00   55.89
   2   9  -6   74.49   42.70
  -2  -9   6  137.79   55.19
  -2  -9   6  155.18   40.30
   1   9  -6   42.50   43.60
   1   9  -6  -26.20   23.20
  -1  -9   6    1.80   27.00
  -1  -9   6   -2.10   45.60
   0   9  -6   21.80   36.20
   0  -9   6   35.00   51.89
   0  -9   6    1.20   22.00
  -1   9  -6  -13.10   39.20
   1  -9   6   68.89   29.20
   1  -9   6   32.00   48.60
  -2   9  -6   25.30   40.90
   2  -9   6   75.79   28.20
   2  -9   6   56.39   55.39
   3  -9   6   35.00   38.50
   4   8  -6  849.81   93.79
   4   8  -6  910.51  107.39
  -4  -8   6 1108.89  210.18
  -4  -8   6  969.40   87.09
   3   8  -6 1260.37  101.09
   3   8  -6 1414.26  119.09
  -3  -8   6 1161.58  117.19
  -3  -8   6 1067.49   81.69
   2   8  -6 1223.58  109.19
   2   8  -6 1325.27   88.19
  -2  -8   6 1388.16  123.39
  -2  -8   6 1287.47   88.19
   1   8  -6 1412.56  117.99
   1   8  -6 1383.16   78.29
  -1  -8   6 1148.39   72.59
  -1  -8   6 1519.35  128.09
  -1  -8   6 1375.76   82.19
  -1  -8   6 1275.57   90.09
   0   8  -6  684.63   91.09
   0   8  -6  549.35   48.10
   0  -8   6  692.43   56.89
   0  -8   6  784.22  106.59
  -1   8  -6  794.22   55.59
  -1   8  -6  751.32  100.39
   1  -8   6  834.72   61.59
   1  -8   6  967.40  122.59
  -2   8  -6 1082.09   74.69
  -2   8  -6 1307.07  116.69
   2  -8   6 1153.68  122.49
   2  -8   6 1157.58   75.39
  -3   8  -6 1236.18  118.99
   3  -8   6 1126.49   79.59
   3  -8   6  913.91  124.69
  -4   8  -6  327.77   79.69
   4  -8   6  247.08   79.79
   4  -8   6  247.98   51.49
   5   7  -6   94.09   76.89
   5   7  -6  111.49   51.99
  -5  -7   6   82.79   41.70
  -5  -7   6   66.49   44.10
   4   7  -6  137.49   41.30
   4   7  -6  146.39   51.69
  -4  -7   6  116.99   44.30
  -4  -7   6   61.19   27.80
   3   7  -6  488.55   64.79
   3   7  -6  520.65   75.39
  -3  -7   6  634.94   87.29
  -3  -7   6  771.02   66.39
   2   7  -6  623.24   81.89
   2   7  -6  706.13   60.59
  -2  -7   6  571.14   61.89
  -2  -7   6  562.34   78.49
  -2  -7   6  627.94   54.99
   1   7  -6  895.11   84.19
   1   7  -6  678.13   54.39
   1   7  -6  825.02   53.69
  -1  -7   6  824.12   85.09
  -1  -7   6  786.62   60.79
  -1  -7   6  665.23   50.99
   0   7  -6  680.63   72.49
   0   7  -6  475.35   70.89
   0  -7   6  682.23   54.69
   0  -7   6  635.14   94.49
  -1   7  -6 1148.19   99.89
  -1   7  -6  990.40   83.79
   1  -7   6 1333.17  118.39
   1  -7   6 1380.56   80.39
  -2   7  -6 1575.34   90.79
  -2   7  -6 1755.12  126.19
   2  -7   6 1606.34   91.59
   2  -7   6 1533.95  133.19
  -3   7  -6  996.60   98.19
   3  -7   6  939.91   76.49
   3  -7   6  731.03  104.79
  -4   7  -6  714.03  103.59
   4  -7   6  908.51   82.59
   4  -7   6  574.84   95.09
  -5   7  -6  767.52  107.79
  -5   7  -6  900.21  100.39
   5  -7   6 1042.30  102.49
   6   6  -6  911.91  115.19
   6   6  -6  885.01  103.99
  -6  -6   6  665.33   89.89
  -6  -6   6  822.92   94.59
   5   6  -6  889.61  107.09
   5   6  -6  730.73   95.19
  -5  -6   6  758.32   92.39
  -5  -6   6  781.82   75.29
   4   6  -6  812.42   84.49
   4   6  -6  850.61   80.29
  -4  -6   6  702.93   79.89
  -4  -6   6  923.01   74.59
   3   6  -6  987.30   79.49
   3   6  -6 1070.89   88.99
  -3  -6   6 1090.59   90.89
  -3  -6   6 1067.39   76.69
   2   6  -6 1121.79   73.69
   2   6  -6 1032.50   85.39
  -2  -6   6 1167.18   74.39
  -2  -6   6 1235.88   96.09
  -2  -6   6 1158.48   74.29
   1   6  -6  526.85   47.50
   1   6  -6  630.34   44.40
   1   6  -6  628.64   67.39
  -1  -6   6  535.45   70.09
  -1  -6   6  571.04   48.20
  -1  -6   6  503.65   39.90
   0   6  -6  568.34   63.59
   0  -6   6  651.23   71.59
   0  -6   6  599.34   50.09
  -1   6  -6  262.67   49.90
  -1   6  -6  278.27   37.50
   1  -6   6  400.16   47.30
   1  -6   6  338.47   62.99
  -2   6  -6  216.58   36.00
  -2   6  -6  193.08   40.50
   2  -6   6  223.28   38.10
   2  -6   6  169.08   45.10
  -3   6  -6   41.90   27.30
   3  -6   6   54.09   32.00
   3  -6   6   48.80   34.00
  -4   6  -6    1.90   28.60
   4  -6   6   37.40   29.90
   4  -6   6   12.70   35.20
  -5   6  -6   79.89   46.60
  -5   6  -6   80.99   22.60
  -5   6  -6   54.29   37.50
   5  -6   6  110.09   46.40
   6   5  -6  790.52   88.99
   6   5  -6 1059.99  129.69
  -6  -5   6  762.02   86.39
  -6  -5   6  999.80   91.19
   5   5  -6  988.00   94.89
   5   5  -6  913.31   95.39
  -5  -5   6 1070.59   84.49
  -5  -5   6  997.70   84.69
   4   5  -6 2360.36  146.19
   4   5  -6 2651.03  148.69
  -4  -5   6 2633.84  141.89
  -4  -5   6 2578.84  137.59
   3   5  -6 3293.17  162.58
   3   5  -6 3767.62  172.58
   3   5  -6 3470.05  175.88
  -3  -5   6 3608.84  164.18
  -3  -5   6 3538.45  172.58
   2   5  -6 2284.37  115.59
   2   5  -6 2379.36  125.69
   2   5  -6 2514.45  136.29
   2   5  -6 2352.66  114.29
  -2  -5   6 2201.38  109.49
  -2  -5   6 2244.58  124.49
  -2  -5   6 2108.39  105.99
   1   5  -6 2091.79  118.09
   1   5  -6 2160.28   96.69
   1   5  -6 2297.17  124.69
   1   5  -6 1980.30  100.19
  -1  -5   6 2379.56  130.79
  -1  -5   6 2360.36  112.49
  -1  -5   6 2322.17   99.19
   0   5  -6 3576.24  174.98
   0   5  -6 3679.73  152.08
   0  -5   6 3895.31  189.28
   0  -5   6 3930.31  164.78
  -1   5  -6 1303.97   91.79
  -1   5  -6 1332.57   76.29
   1  -5   6 1382.86   81.99
   1  -5   6 1613.74  109.79
  -2   5  -6 2460.65  134.49
  -2   5  -6 2156.88  113.69
   2  -5   6 2077.09  137.19
   2  -5   6 2213.78  112.49
  -3   5  -6 2266.37  133.09
   3  -5   6 2408.66  160.58
   3  -5   6 2613.74  136.79
  -4   5  -6 1465.75   74.89
  -4   5  -6 1574.24  109.69
  -4   5  -6 1740.13  129.09
  -4   5  -6 1686.43   75.49
   4  -5   6 1711.63  114.69
  -5   5  -6  870.01   82.59
  -5   5  -6  834.22   59.99
  -5   5  -6  712.23   98.79
  -5   5  -6  815.92   68.09
   5  -5   6  836.42   85.29
  -6   5  -6  615.04   65.49
  -6   5  -6  538.25   77.49
  -6   5  -6  481.25   83.09
   6  -5   6  716.33   98.09
   7   4  -6   97.49   44.50
   7   4  -6  102.49   56.69
  -7  -4   6  177.08   47.00
  -7  -4   6  113.49   45.60
   6   4  -6  199.98   57.39
   6   4  -6  213.28   49.40
  -6  -4   6  162.68   42.80
  -6  -4   6  191.28   42.90
   5   4  -6   50.29   28.60
   5   4  -6   81.39   33.40
   5   4  -6   31.20   30.90
  -5  -4   6   42.60   20.80
  -5  -4   6   69.69   28.40
   4   4  -6  163.68   38.50
   4   4  -6  103.09   37.70
  -4  -4   6  187.68   34.10
  -4  -4   6  111.39   27.60
   3   4  -6  102.79   26.00
   3   4  -6   70.69   25.70
   3   4  -6   72.19   27.50
  -3  -4   6   35.20   24.20
  -3  -4   6  113.59   27.10
  -3  -4   6   93.69   22.30
   2   4  -6   38.80   17.60
   2   4  -6   46.10   21.30
   2   4  -6   59.09   18.30
   2   4  -6   30.70   18.90
  -2  -4   6    7.30   13.10
  -2  -4   6   20.00   16.30
  -2  -4   6   22.20   12.00
   1   4  -6  562.44   49.99
   1   4  -6  588.34   54.39
   1   4  -6  519.15   47.50
  -1  -4   6  612.64   37.80
  -1  -4   6  671.73   42.50
  -1  -4   6  667.33   47.70
  -1  -4   6  672.73   54.99
  -1  -4   6  605.64   57.29
   0   4  -6  693.23   58.49
   0   4  -6  670.13   61.09
   0   4  -6  696.83   49.10
   0  -4   6  611.44   56.69
   0  -4   6  661.93   27.60
   0  -4   6  573.94   54.79
   0  -4   6  585.14   26.10
   0  -4   6  661.83   49.20
  -1   4  -6  839.92   65.59
  -1   4  -6  848.32   74.09
   1  -4   6  648.24   62.49
   1  -4   6  728.83   53.99
  -2   4  -6 2000.00  108.39
  -2   4  -6 2151.28   72.59
  -2   4  -6 2149.98  117.09
   2  -4   6 2221.18  134.59
   2  -4   6 2240.18  115.59
  -3   4  -6 1069.79   55.09
  -3   4  -6 1199.78   90.89
   3  -4   6 1130.99   98.09
   3  -4   6 1096.09   79.89
   3  -4   6 1081.09   59.29
  -4   4  -6  391.26   63.99
  -4   4  -6  393.96   43.20
  -4   4  -6  414.06   54.99
   4  -4   6  406.66   60.69
   4  -4   6  408.56   47.80
  -5   4  -6  989.10   79.09
  -5   4  -6  953.80  100.29
   5  -4   6  963.60   80.29
   5  -4   6 1012.50   92.59
  -6   4  -6  880.21   80.89
  -6   4  -6  903.41  120.79
   6  -4   6  776.82  100.09
   6  -4   6  967.60  100.29
   7   3  -6 1126.59  105.29
   7   3  -6 1500.45  137.19
  -7  -3   6 1149.78   90.99
  -7  -3   6 1191.98  105.79
   6   3  -6 1282.27   89.39
   6   3  -6 1479.95  126.59
   6   3  -6 1489.15  108.39
  -6  -3   6 1501.05  108.09
  -6  -3   6 1305.87   88.39
   5   3  -6 1936.01  133.29
   5   3  -6 2013.10  103.39
  -5  -3   6 1807.42  113.99
  -5  -3   6 1859.61   98.29
   4   3  -6 1443.26   82.39
   4   3  -6 1720.33  110.59
   4   3  -6 1668.13  109.49
  -4  -3   6 1630.94   84.79
  -4  -3   6 1662.93   98.99
   3   3  -6 1831.82  110.99
   3   3  -6 1764.22  104.69
   3   3  -6 1779.52   84.69
  -3  -3   6 1799.52   98.69
  -3  -3   6 1807.72  103.19
  -3  -3   6 1784.22   88.19
  -3  -3   6 1942.01  105.69
   2   3  -6 1199.08   71.59
   2   3  -6 1127.09   66.99
   2   3  -6 1094.79   76.49
   2   3  -6 1086.59   59.89
  -2  -3   6 1232.08   65.99
  -2  -3   6 1280.27   71.89
  -2  -3   6 1043.10   74.19
  -2  -3   6 1108.39   69.29
   1   3  -6 3386.46  143.69
   1   3  -6 3502.05  157.68
   1   3  -6 3555.74  146.19
  -1  -3   6 3252.37  127.69
  -1  -3   6 3416.76  152.18
  -1  -3   6 3362.66  140.09
  -1  -3   6 3118.49  130.59
  -1  -3   6 3343.47  142.19
   0   3  -6 1518.45   86.69
   0   3  -6 1505.65   78.39
   0   3  -6 1507.85   87.39
   0  -3   6 1490.15   87.19
   0  -3   6 1682.23   84.09
   0  -3   6 1533.25   65.19
   0  -3   6 1520.45   64.09
   0  -3   6 1575.04   93.19
  -1   3  -6   52.99   21.30
  -1   3  -6  109.09   25.60
  -1   3  -6   66.49   21.20
  -1   3  -6  111.99   12.70
   1  -3   6  146.09   31.00
   1  -3   6  111.49   23.50
   1  -3   6  138.99   13.70
   1  -3   6  179.28   39.00
  -2   3  -6  499.45   32.50
  -2   3  -6  444.86   43.30
  -2   3  -6  487.95   49.60
  -2   3  -6  418.36   43.50
   2  -3   6  379.66   55.99
   2  -3   6  375.86   41.10
   2  -3   6  441.66   31.90
   2  -3   6  417.96   45.40
  -3   3  -6  722.93   68.29
  -3   3  -6  645.54   46.00
  -3   3  -6  675.33   56.79
   3  -3   6  762.02   64.89
   3  -3   6  787.92   66.89
   3  -3   6  779.12   52.19
  -4   3  -6  230.08   53.19
  -4   3  -6  214.48   36.40
  -4   3  -6  189.38   35.40
  -4   3  -6  110.49   34.80
   4  -3   6  357.66   61.09
   4  -3   6  191.88   34.80
  -5   3  -6  135.89   32.00
  -5   3  -6  148.49   47.10
   5  -3   6  110.59   38.70
   5  -3   6   83.99   32.90
  -6   3  -6   30.50   26.30
  -6   3  -6   10.70   39.10
   6  -3   6   38.20   40.60
   6  -3   6   13.70   41.00
   7   2  -6  427.36   64.69
   7   2  -6  380.36   79.29
  -7  -2   6  521.25   77.49
  -7  -2   6  374.86   52.19
   6   2  -6  462.15   66.29
   6   2  -6  307.57   63.69
  -6  -2   6  397.56   57.59
  -6  -2   6  427.46   46.50
   5   2  -6 1143.99  100.09
   5   2  -6 1434.46  108.99
  -5  -2   6 1249.38   68.29
  -5  -2   6 1106.49   83.99
   4   2  -6 1836.42   81.89
   4   2  -6 1950.90  118.19
   4   2  -6 2007.80  122.59
  -4  -2   6 1654.43   76.69
  -4  -2   6 1815.52  100.69
  -4  -2   6 1680.43  116.59
   3   2  -6 1594.94   65.09
   3   2  -6 1540.05   99.49
   3   2  -6 1427.86   92.69
   3   2  -6 1332.27   81.89
  -3  -2   6 1597.44   92.69
  -3  -2   6 1456.65   83.59
  -3  -2   6 1491.55   64.59
  -3  -2   6 1428.96   90.79
   2   2  -6 2966.00  142.09
   2   2  -6 3305.67  151.78
   2   2  -6 2994.30  113.39
  -2  -2   6 2880.11  131.49
  -2  -2   6 2997.50  111.59
  -2  -2   6 2621.64  179.18
  -2  -2   6 3009.10  130.29
  -2  -2   6 2910.41  125.29
   1   2  -6 6486.35  231.98
   1   2  -6 6240.68  238.28
   1   2  -6 6581.94  255.07
  -1  -2   6 6373.86  234.48
  -1  -2   6 6357.66  226.68
  -1  -2   6 5764.52  240.98
  -1  -2   6 6387.56  225.98
  -1  -2   6 6171.28  230.78
   0   2  -6 3489.95  148.99
   0   2  -6 3577.04  151.88
   0   2  -6 3572.04  132.49
   0   2  -6 3329.87  143.49
   0  -2   6 3575.34  152.98
   0  -2   6 3476.75  149.09
   0  -2   6 3553.34  135.39
   0  -2   6 3514.55  148.39
  -1   2  -6 3144.49  136.99
  -1   2  -6 3058.59  121.99
  -1   2  -6 3072.39  138.39
  -1   2  -6 3171.08  148.19
  -1   2  -6 3095.39  136.89
   1  -2   6 3542.85  134.99
   1  -2   6 3498.15  148.89
   1  -2   6 3320.17  149.29
  -2   2  -6 3816.92  155.58
  -2   2  -6 3481.05  165.78
  -2   2  -6 3414.26  175.98
  -2   2  -6 3738.33  145.29
  -2   2  -6 3653.23  160.38
   2  -2   6 3343.97  144.99
   2  -2   6 3343.87  154.78
   2  -2   6 3416.76  138.59
  -3   2  -6 3414.26  166.48
  -3   2  -6 3165.78  137.79
  -3   2  -6 2926.21  135.99
   3  -2   6 2698.83  125.69
   3  -2   6 3031.50  149.09
   3  -2   6 2745.63  123.79
  -4   2  -6 2444.26  152.48
  -4   2  -6 2542.65  116.39
  -4   2  -6 2431.46  121.59
   4  -2   6 2400.46  145.79
   4  -2   6 2650.73  136.29
  -5   2  -6 2540.55  115.99
  -5   2  -6 2399.86  121.39
  -5   2  -6 2286.77  161.18
   5  -2   6 2570.64  149.29
   5  -2   6 2797.52  166.28
  -6   2  -6  719.23  104.09
  -6   2  -6  739.93   53.29
   6  -2   6  794.12   97.69
   6  -2   6 1021.50  121.09
   7   1  -6  482.55   89.39
   7   1  -6  501.95   74.29
  -7  -1   6  380.66   61.19
  -7  -1   6  423.06   52.19
   6   1  -6  419.06   74.59
   6   1  -6  568.74   71.59
  -6  -1   6  572.64   59.39
  -6  -1   6  575.14   49.10
  -6  -1   6  632.64   65.49
   5   1  -6  618.44   95.29
   5   1  -6  760.22   78.59
  -5  -1   6  731.53   51.69
  -5  -1   6  739.33   64.29
  -5  -1   6  771.72   46.60
   4   1  -6  202.88   40.30
   4   1  -6  146.39   33.00
  -4  -1   6  135.09   17.70
  -4  -1   6  133.19   15.30
  -4  -1   6   90.19   20.20
  -4  -1   6  112.39   46.80
   3   1  -6  603.04   48.10
   3   1  -6  601.04   58.09
  -3  -1   6  536.95   54.69
  -3  -1   6  630.24   57.49
  -3  -1   6  638.64   49.00
  -3  -1   6  628.24   49.80
   2   1  -6   35.00   14.60
   2   1  -6    1.00   10.90
  -2  -1   6   19.30   12.70
  -2  -1   6   14.30   10.50
  -2  -1   6    1.60   13.30
  -2  -1   6   -4.70    7.70
   1   1  -6  274.27   26.90
   1   1  -6  211.58   20.80
   1   1  -6  186.38   25.80
   1   1  -6  239.18   37.90
   1   1  -6  224.88   18.90
  -1  -1   6  192.18   24.90
  -1  -1   6  248.68   25.10
  -1  -1   6  179.38   28.80
   0   1  -6   67.19   16.60
   0   1  -6   91.59   18.20
   0   1  -6   64.69   16.70
   0   1  -6   76.79   16.10
   0   1  -6   92.19   22.10
   0  -1   6   46.50   14.30
   0  -1   6   59.89   16.00
   0  -1   6   31.10   14.00
  -1   1  -6  659.43   45.40
  -1   1  -6  668.63   50.49
  -1   1  -6  645.84   57.09
  -1   1  -6  692.03   52.29
  -1   1  -6  739.13   49.60
   1  -1   6  702.53   46.60
   1  -1   6  572.14   47.60
   1  -1   6  609.14   42.80
  -2   1  -6  294.17   37.30
  -2   1  -6  232.38   44.00
  -2   1  -6  351.96   51.19
  -2   1  -6  284.07   28.90
  -2   1  -6  346.87   45.50
   2  -1   6  256.27   31.60
   2  -1   6  315.27   33.20
   2  -1   6  247.58   36.50
  -3   1  -6  718.33   57.79
  -3   1  -6  824.82   72.89
  -3   1  -6  742.23   46.80
   3  -1   6  769.42   60.29
   3  -1   6  622.04   43.60
   3  -1   6  648.24   60.49
  -4   1  -6  927.91   89.29
  -4   1  -6  735.93   49.90
  -4   1  -6  768.02   46.40
   4  -1   6  849.72   82.29
   4  -1   6 1210.58   70.29
  -5   1  -6  634.34   91.39
  -5   1  -6  736.63   41.40
   5  -1   6  779.02   92.19
   5  -1   6  779.12   98.09
  -6   1  -6  730.23  105.19
   6  -1   6  488.85   84.19
   6  -1   6  495.35   74.99
   7   0  -6 1622.64  125.09
  -7   0   6 1731.53  132.69
  -7   0   6 1850.71  127.19
  -7   0   6 1655.03   97.69
   6   0  -6 2189.08  137.29
  -6   0   6 2506.35  145.29
  -6   0   6 2023.70  102.39
  -6   0   6 2082.69  128.89
  -6   0   6 2168.58  112.19
   5   0  -6 2251.57  136.99
  -5   0   6 2182.08   93.49
  -5   0   6 2138.89   98.49
  -5   0   6 2052.89  125.59
  -5   0   6 2201.98  120.79
   4   0  -6 2938.31  156.48
  -4   0   6 2960.10  110.69
  -4   0   6 2999.90  108.19
  -4   0   6 2899.81  144.69
  -4   0   6 2840.82  153.78
   3   0  -6 4951.60  215.28
   3   0  -6 4666.73  190.28
  -3   0   6 4931.71  202.48
  -3   0   6 4742.93  210.98
  -3   0   6 4866.21  196.48
  -3   0   6 4905.41  215.48
   2   0  -6 5214.68  207.58
   2   0  -6 5532.15  203.98
   2   0  -6 5222.48  223.78
  -2   0   6 5514.35  230.98
  -2   0   6 5716.73  213.88
  -2   0   6 5596.94  218.08
  -2   0   6 5436.46  227.48
   1   0  -6 5304.07  209.48
   1   0  -6 5543.95  227.28
   1   0  -6 5808.92  214.28
   1   0  -6 5722.83  199.58
  -1   0   6 5208.18  204.48
  -1   0   6 5447.16  218.48
  -1   0   6 5615.04  210.58
   0   0  -6 6765.62  254.37
   0   0  -6 6791.92  256.17
   0   0  -6 6843.62  262.37
   0   0  -6 7248.27  257.27
   0   0   6 7034.20  254.47
   0   0   6 6851.61  257.57
   0   0   6 6871.81  260.97
   0   0   6 6973.30  258.77
  -1   0  -6  984.70   62.19
  -1   0  -6 1050.09   60.79
  -1   0  -6  961.00   61.89
  -1   0  -6 1104.29   70.49
   1   0   6 1186.98   69.49
   1   0   6  943.11   57.49
   1   0   6 1081.89   65.29
   1   0   6 1108.29   68.29
  -2   0  -6 2299.67   98.09
  -2   0  -6 2155.88  110.89
  -2   0  -6 2130.79  120.39
  -2   0  -6 2195.58  109.39
   2   0   6 2191.38  119.09
   2   0   6 2253.47  113.09
   2   0   6 2222.68  115.49
   2   0   6 2086.09   90.99
  -3   0  -6 1300.97   59.89
  -3   0  -6 1335.97   97.19
   3   0   6 1179.08   86.89
   3   0   6 1372.76   88.99
   3   0   6 1302.67   58.29
  -4   0  -6 1021.60   93.89
   4   0   6  866.51   83.09
   4   0   6  934.11   79.89
  -5   0  -6  665.63   98.49
   5   0   6  610.64   87.59
   5   0   6  780.52  106.99
  -6   0  -6  105.99   49.60
   6   0   6  164.28   50.59
   6   0   6  125.69   48.50
   7  -1  -6  128.49   49.10
  -7   1   6   92.39   40.80
  -7   1   6  169.88   36.10
  -7   1   6  158.18   40.00
   6  -1  -6   23.00   33.80
  -6   1   6   83.19   32.00
  -6   1   6   80.69   30.30
  -6   1   6   88.79   32.00
  -6   1   6   65.09   23.30
   5  -1  -6  461.95   66.59
  -5   1   6  622.94   49.40
  -5   1   6  525.95   43.70
  -5   1   6  581.54   54.89
  -5   1   6  558.54   59.39
  -4   1   6 1340.37   67.19
  -4   1   6 1415.46   66.49
  -4   1   6 1557.24   87.09
  -4   1   6 1388.86   91.29
   3  -1  -6 1835.02  108.59
   3  -1  -6 1494.15   82.09
   3  -1  -6 1636.34   71.09
  -3   1   6 1481.25   63.19
  -3   1   6 1392.96   85.29
  -3   1   6 1499.25   79.39
  -3   1   6 1311.77   92.79
   2  -1  -6 1767.22   74.59
   2  -1  -6 1718.63   82.49
   2  -1  -6 1509.55   87.89
   2  -1  -6 1782.82  104.19
  -2   1   6 1754.12  103.29
  -2   1   6 1923.21   98.49
  -2   1   6 1835.52   88.19
   1  -1  -6 2243.28   99.79
   1  -1  -6 2192.28  107.39
   1  -1  -6 2210.38   97.09
   1  -1  -6 2215.48  115.19
  -1   1   6 2319.77  104.19
  -1   1   6 2321.17   99.89
  -1   1   6 2450.05  118.19
   0  -1  -6 3109.29  140.69
   0  -1  -6 3002.90  130.39
   0  -1  -6 3212.38  138.49
   0  -1  -6 3190.98  140.79
   0   1   6 3219.48  145.29
   0   1   6 3450.25  141.69
   0   1   6 3175.58  141.79
   0   1   6 3561.64  149.79
  -1  -1  -6 2661.83  128.49
  -1  -1  -6 2505.45  121.49
  -1  -1  -6 2434.86  111.69
  -1  -1  -6 2489.35  117.99
   1   1   6 2486.45  110.59
   1   1   6 2362.76  116.89
   1   1   6 2620.54  123.49
  -2  -1  -6 2752.22  134.69
  -2  -1  -6 2705.23  141.39
  -2  -1  -6 2955.10  116.49
  -2  -1  -6 2779.22  145.39
   2   1   6 2992.90  141.69
   2   1   6 2619.44  108.69
   2   1   6 2884.31  139.99
  -3  -1  -6 2717.43  153.58
   3   1   6 2855.91  147.49
   3   1   6 2670.73  146.59
  -4  -1  -6 1897.91  132.59
   4   1   6 2133.19  134.69
   4   1   6 1880.21  127.29
  -5  -1  -6 1527.15  125.79
   5   1   6 3207.98  149.39
  -6  -1  -6  731.93  101.19
   6   1   6 1010.50  107.79
   6   1   6  998.50  126.09
   7  -2  -6  793.22   99.19
  -7   2   6 1125.89  104.99
   6  -2  -6  474.55   80.69
  -6   2   6  401.66   63.29
  -6   2   6  506.85   60.59
  -6   2   6  411.46   53.79
  -6   2   6  377.16   54.59
   5  -2  -6 1045.20   94.99
  -5   2   6 1081.49   68.09
  -5   2   6 1019.70   83.09
  -5   2   6  970.80   69.09
  -5   2   6 1021.30   74.89
   4  -2  -6 1477.05  106.69
   4  -2  -6 1339.17   78.89
  -4   2   6 1262.27   87.49
  -4   2   6 1341.87   78.09
  -4   2   6 1241.18   70.59
   3  -2  -6 1022.20   60.69
   3  -2  -6  967.80   80.09
  -3   2   6 1090.69   64.99
  -3   2   6 1066.99   60.69
  -3   2   6 1143.69   76.69
   2  -2  -6  439.66   36.70
   2  -2  -6  565.24   42.80
   2  -2  -6  531.15   50.19
   2  -2  -6  496.65   53.19
  -2   2   6  553.74   49.50
  -2   2   6  483.65   38.10
  -2   2   6  441.36   53.79
  -2   2   6  420.26   35.30
   1  -2  -6  412.86   52.79
   1  -2  -6  447.86   45.50
   1  -2  -6  364.66   36.40
   1  -2  -6  424.06   34.40
  -1   2   6  344.47   44.90
  -1   2   6  348.07   34.60
  -1   2   6  378.86   49.30
   0  -2  -6   59.59   19.10
   0  -2  -6   81.19   22.80
   0  -2  -6   46.70   18.70
   0  -2  -6   83.39   22.30
   0   2   6   97.89   20.60
   0   2   6  102.69   21.20
   0   2   6  147.09   29.40
   0   2   6  113.89   25.10
  -1  -2  -6  114.89   22.80
  -1  -2  -6  120.69   31.40
   1   2   6   89.19   19.40
   1   2   6   81.39   23.50
   1   2   6  133.49   25.80
   1   2   6  117.39   27.30
  -2  -2  -6   19.90   15.90
  -2  -2  -6   93.59   17.70
   2   2   6   84.39   25.90
   2   2   6   85.79   17.40
   2   2   6   65.39   22.00
  -3  -2  -6  150.68   36.40
   3   2   6  178.98   36.80
   3   2   6  133.39   35.40
  -4  -2  -6  215.48   54.99
   4   2   6  161.98   39.20
   4   2   6  151.38   39.90
  -5  -2  -6  161.88   51.19
   5   2   6  105.09   43.90
   5   2   6  137.09   44.80
  -6  -2  -6  106.79   56.69
   6   2   6  333.47   78.19
   6   2   6  247.28   60.39
   7  -3  -6  915.71  115.09
  -7   3   6  929.41   93.19
  -7   3   6  927.21  100.09
  -7   3   6 1006.20   89.19
   6  -3  -6  781.12   99.39
  -6   3   6  826.62   71.29
  -6   3   6  790.22   83.99
  -6   3   6  778.72   69.59
   5  -3  -6 1829.92  111.29
   5  -3  -6 1773.32  132.39
  -5   3   6 1814.42  108.19
  -5   3   6 1889.31  121.79
  -5   3   6 1928.91  105.59
   4  -3  -6 1243.48   83.29
   4  -3  -6 1289.17  103.79
  -4   3   6 1470.45   93.39
  -4   3   6 1386.66   78.89
  -4   3   6 1283.17   90.99
  -4   3   6 1193.28   84.49
   3  -3  -6 2080.59   98.99
   3  -3  -6 2318.87  115.49
   3  -3  -6 2175.68  134.29
  -3   3   6 2440.76  131.69
  -3   3   6 2398.36  109.29
  -3   3   6 2401.06  116.99
   2  -3  -6 3807.82  166.48
   2  -3  -6 3583.24  144.29
   2  -3  -6 3669.33  183.88
  -2   3   6 3532.95  167.58
  -2   3   6 3606.04  142.29
  -2   3   6 3443.06  153.68
   1  -3  -6 2971.90  153.28
   1  -3  -6 2973.90  122.39
   1  -3  -6 3107.19  146.09
  -1   3   6 2404.86  130.89
  -1   3   6 2811.22  135.59
  -1   3   6 2638.44  110.59
  -1   3   6 2277.17  123.79
   0  -3  -6 2432.06  109.89
   0  -3  -6 2461.45  128.09
   0  -3  -6 2650.83  135.69
   0   3   6 2373.16  107.29
   0   3   6 2124.39  116.29
   0   3   6 2454.55  127.19
   0   3   6 2231.58  119.49
  -1  -3  -6 3670.13  164.98
  -1  -3  -6 3854.91  166.28
  -1  -3  -6 3990.60  190.08
   1   3   6 3969.60  168.68
   1   3   6 3697.73  163.78
   1   3   6 3835.92  181.68
  -2  -3  -6 1453.45  105.19
   2   3   6 1442.36   77.69
   2   3   6 1555.64   76.09
   2   3   6 1685.73  109.09
   2   3   6 1498.55   93.99
  -3  -3  -6  834.02   85.99
   3   3   6 1085.19   92.39
   3   3   6  999.10   83.39
  -4  -3  -6 1157.28  112.49
   4   3   6 1045.00   97.79
   4   3   6 1058.39   96.89
  -5  -3  -6 1182.48  122.69
   5   3   6 1467.65  131.29
  -6  -3  -6  347.87   83.49
   6   3   6  821.82  144.99
   6   3   6  626.64  103.29
   7  -4  -6   71.49   58.09
  -7   4   6   31.00   41.30
  -7   4   6   15.10   39.00
  -7   4   6   19.00   34.30
   6  -4  -6   -6.40   68.39
  -6   4   6   21.40   27.00
  -6   4   6   -4.60   28.80
  -6   4   6  -14.60   22.60
   5  -4  -6   15.80   36.80
  -5   4   6    7.60   18.30
  -5   4   6   42.80   25.30
   4  -4  -6  200.48   43.80
   4  -4  -6  212.58   52.19
  -4   4   6  120.29   35.50
  -4   4   6  144.59   26.80
  -4   4   6  121.99   35.80
   3  -4  -6  833.92   84.99
   3  -4  -6  810.92   73.49
  -3   4   6  718.83   55.69
  -3   4   6  687.43   71.19
  -3   4   6  773.12   48.40
  -3   4   6  666.03   66.19
   2  -4  -6  829.42   77.39
   2  -4  -6  700.03   42.70
   2  -4  -6  764.72   67.49
  -2   4   6  802.52   70.29
  -2   4   6  815.32   49.40
   1  -4  -6  327.97   29.80
   1  -4  -6  322.67   60.89
   1  -4  -6  356.56   53.99
  -1   4   6  337.17   51.59
  -1   4   6  356.36   32.00
   0  -4  -6  573.24   62.49
   0  -4  -6  527.85   43.10
   0  -4  -6  531.95   54.89
   0   4   6  523.15   43.50
   0   4   6  644.64   63.89
  -1  -4  -6 2027.90  130.49
  -1  -4  -6 2010.30  106.29
   1   4   6 1968.70  111.59
   1   4   6 2177.68  109.79
   1   4   6 2157.48  130.99
   1   4   6 2187.58  112.59
  -2  -4  -6 2044.70  135.99
   2   4   6 1953.70  126.69
   2   4   6 1934.81   96.29
   2   4   6 1980.10  112.59
   2   4   6 1798.72   98.59
  -3  -4  -6 1456.75  122.49
   3   4   6 1366.86  110.99
   3   4   6 1320.17   58.79
   3   4   6 1387.96   99.69
   4   4   6 1284.77  108.79
  -5  -4  -6 1168.18  127.19
   5   4   6 1159.48  116.19
   5   4   6 1033.50  114.09
   6  -5  -6  914.21  117.09
   6  -5  -6  968.80  114.89
  -6   5   6  916.41  120.19
  -6   5   6  890.01   95.89
  -6   5   6  946.21   77.99
   5  -5  -6 1072.69  102.69
   5  -5  -6  992.10  177.18
  -5   5   6  942.71   75.39
  -5   5   6 1072.99   95.69
   4  -5  -6 1322.97  118.99
   4  -5  -6 1314.27  108.99
  -4   5   6 1121.69   93.59
  -4   5   6 1126.49   66.79
   3  -5  -6  934.41   95.59
   3  -5  -6  990.80   88.69
  -3   5   6  927.01   52.79
  -3   5   6  828.82   79.19
  -3   5   6  838.12   58.09
   2  -5  -6  882.51   84.49
   2  -5  -6  901.31   86.09
  -2   5   6  842.22   75.49
  -2   5   6  777.22   45.70
   1  -5  -6  821.82   44.00
   1  -5  -6  861.51   81.39
   1  -5  -6  819.42   82.19
  -1   5   6  854.61   48.90
  -1   5   6  846.42   76.89
   0  -5  -6  826.22   52.49
   0  -5  -6  902.71   88.79
   0   5   6 1023.80   62.09
   0   5   6 1143.49   86.19
   0   5   6 1175.18   90.99
  -1  -5  -6  194.58   53.49
  -1  -5  -6  152.48   40.70
   1   5   6   83.49   26.20
   1   5   6   59.89   24.80
   1   5   6   82.79   31.60
  -2  -5  -6   84.49   43.10
   2   5   6   76.89   29.50
   2   5   6   20.10   20.20
   2   5   6   74.69   36.70
   2   5   6   32.90   29.50
  -3  -5  -6  103.59   42.40
   3   5   6  143.29   25.20
   3   5   6  163.98   37.30
   3   5   6   81.09   39.20
   3   5   6   36.60   28.50
  -4  -5  -6   60.59   53.59
   4   5   6   17.20   32.90
   4   5   6   77.89   43.90
   5  -6  -6  843.62  106.19
  -5   6   6 1099.29   68.99
  -5   6   6 1153.38  104.59
  -5   6   6 1022.50  115.29
   4  -6  -6 1142.59  112.39
  -4   6   6 1264.47   64.49
  -4   6   6 1123.09  104.59
  -4   6   6 1083.49  111.69
  -4   6   6 1177.88   68.69
   3  -6  -6  967.70  102.79
  -3   6   6 1171.58   46.50
  -3   6   6 1000.70   43.90
  -3   6   6 1165.78   46.40
  -3   6   6 1006.30   92.79
  -3   6   6 1167.28  110.29
   2  -6  -6 1784.42  137.09
  -2   6   6 1888.21  135.59
  -2   6   6 1846.92  125.99
   1  -6  -6 2454.25  163.18
  -1   6   6 2022.60  137.19
  -1   6   6 2056.59  135.19
   0  -6  -6 2388.76  161.08
   0  -6  -6 2088.59   87.89
   0   6   6 2267.27  145.99
   0   6   6 2442.06  102.39
   0   6   6 2470.45  147.39
  -1  -6  -6 1760.82  135.89
  -1  -6  -6 1263.17   79.59
   1   6   6 1332.07  111.89
   1   6   6 1371.06  100.49
   1   6   6 1357.96   81.79
   2   6   6 1534.15  125.99
   2   6   6 1706.73  109.79
   2   6   6 1558.24  100.99
  -3  -6  -6 1339.97  135.79
   3   6   6 1181.38  101.19
   3   6   6 1137.79   75.49
   3   6   6 1300.07  123.29
  -4  -6  -6 1019.70  141.09
   4   6   6 1042.30  107.99
   4   6   6  696.53  107.29
   4  -7  -6   46.20   49.90
  -4   7   6   43.50   46.20
  -4   7   6   81.79   44.60
   3  -7  -6  100.59   49.60
  -3   7   6  100.39   46.40
  -3   7   6   23.90   35.10
   2  -7  -6   66.79   44.20
  -2   7   6   32.10   38.30
  -2   7   6  -21.20   29.40
   1  -7  -6   61.69   44.60
  -1   7   6   17.70   29.90
  -1   7   6   43.80   42.60
   0  -7  -6  110.99   70.89
   0   7   6  160.48   49.40
   0   7   6  110.59   41.60
  -1  -7  -6  251.67   81.09
  -1  -7  -6  123.09   34.20
  -1  -7  -6  177.78   25.70
   1   7   6  193.78   55.49
   1   7   6  230.08   52.39
  -2  -7  -6  298.67   76.69
  -2  -7  -6  287.37   42.40
   2   7   6  273.27   57.49
   2   7   6  259.27   58.69
  -3  -7  -6  302.27   50.09
  -3  -7  -6  216.98   78.49
   3   7   6  244.48   48.40
   3   7   6  256.57   69.99
   3  -8  -6  755.12  115.79
  -3   8   6  741.63  117.29
  -3   8   6  908.71  109.19
   2  -8  -6  753.02  106.39
  -2   8   6  688.93   99.99
  -2   8   6  473.25   73.59
   1  -8  -6  559.74  104.19
  -1   8   6  547.05   85.09
  -1   8   6  833.52  114.69
   0  -8  -6  546.95  105.79
   0   8   6  419.56   72.29
  -1  -8  -6  520.85   99.89
   1   8   6  732.93   93.89
   1   8   6  780.82  114.29
   3   9  -7  411.66   65.19
   3   9  -7  429.16   88.69
  -3  -9   7  388.96   60.09
  -3  -9   7  384.36   83.39
   2   9  -7  586.14   96.29
   2   9  -7  647.94   67.19
  -2  -9   7  681.23   71.59
  -2  -9   7  650.63  103.09
   1   9  -7 1096.79  111.89
  -1  -9   7 1191.38   50.79
  -1  -9   7 1292.57  133.69
  -1  -9   7 1144.99   83.79
   0   9  -7 1069.69  114.49
   0  -9   7  848.52  126.59
   0  -9   7  931.31   69.59
  -1   9  -7  732.93   97.89
   1  -9   7  629.84  102.69
   1  -9   7  757.42   64.19
  -2   9  -7 1126.39  116.49
   2  -9   7  871.51  130.29
   2  -9   7 1093.49   79.39
   4   8  -7  290.47   68.99
   4   8  -7  372.96   70.39
  -4  -8   7  412.26   61.49
  -4  -8   7  370.56   79.69
   3   8  -7   60.99   40.00
   3   8  -7  220.08   47.80
  -3  -8   7  153.18   54.89
  -3  -8   7  186.08   42.60
   2   8  -7   47.30   24.30
   2   8  -7   13.30   29.90
  -2  -8   7    4.00   26.00
  -2  -8   7  -26.20   38.30
  -2  -8   7   26.90   36.90
   1   8  -7   79.59   35.70
  -1  -8   7    7.70   14.00
  -1  -8   7   12.00   20.80
  -1  -8   7   14.00   26.30
  -1  -8   7   21.90   34.80
   0   8  -7  -16.00   25.40
   0   8  -7  -16.10   27.40
   0  -8   7   32.20   25.70
   0  -8   7    3.70   34.60
  -1   8  -7   36.80   28.40
   1  -8   7    5.70   36.60
   1  -8   7   36.20   27.30
  -2   8  -7   71.19   43.00
   2  -8   7   15.90   44.00
   2  -8   7   -7.90   27.60
  -3   8  -7  204.58   56.39
   3  -8   7  119.19   40.40
   3  -8   7  109.09   59.09
  -4   8  -7  289.47   74.59
   4  -8   7  208.08   75.19
   4  -8   7  254.67   58.89
   5   7  -7 1460.85  132.19
  -5  -7   7 1385.46  123.79
   4   7  -7 1006.10  106.19
   4   7  -7 1138.69   99.19
  -4  -7   7 1143.59   92.29
  -4  -7   7 1234.58  110.09
   3   7  -7 1231.18  104.39
   3   7  -7 1142.99   88.19
  -3  -7   7 1206.48   86.99
  -3  -7   7 1207.58  107.69
   2   7  -7 1567.04   94.79
   2   7  -7 1741.33  123.29
  -2  -7   7 1633.94   97.19
  -2  -7   7 1624.84   94.29
  -2  -7   7 1537.45  122.79
   1   7  -7 1525.15  112.89
  -1  -7   7 1472.45   75.19
  -1  -7   7 1825.92   99.39
  -1  -7   7 1641.04   71.79
  -1  -7   7 1587.14  122.79
   0   7  -7 1087.99   97.59
   0   7  -7 1117.49   73.19
   0  -7   7 1060.19   73.69
   0  -7   7 1093.19  102.29
  -1   7  -7 2012.60  109.19
  -1   7  -7 2670.33  157.58
   1  -7   7 2450.95  124.39
   1  -7   7 2435.66  165.98
  -2   7  -7 1109.79   99.69
   2  -7   7 1116.49   80.79
   2  -7   7 1184.28  116.49
  -3   7  -7  356.96   68.29
   3  -7   7  482.05   61.79
   3  -7   7  449.16   96.59
  -4   7  -7  614.74   86.49
   4  -7   7  727.53   83.69
   4  -7   7  508.85   93.09
   6   6  -7    7.60   38.30
   6   6  -7   46.50   50.89
  -6  -6   7   55.49   42.70
  -6  -6   7  133.79   44.20
   5   6  -7   99.69   36.60
   5   6  -7   58.69   45.00
  -5  -6   7  109.19   43.10
  -5  -6   7   -6.20   28.20
   4   6  -7  148.39   43.60
   4   6  -7   83.59   37.80
  -4  -6   7  254.37   50.89
  -4  -6   7  232.18   43.70
   3   6  -7  462.95   69.99
   3   6  -7  454.85   67.89
  -3  -6   7  470.35   50.89
  -3  -6   7  579.24   77.09
   2   6  -7  321.27   44.20
   2   6  -7  326.27   57.19
  -2  -6   7  400.86   61.09
   1   6  -7  598.74   78.19
  -1  -6   7  608.14   68.19
  -1  -6   7  562.04   51.99
  -1  -6   7  645.94   42.00
  -1  -6   7  533.65   36.10
   0   6  -7 1103.59   71.49
   0   6  -7 1162.68   93.79
   0  -6   7 1205.08  100.09
   0  -6   7 1246.68   78.79
  -1   6  -7 1514.35   88.59
  -1   6  -7 1660.33  113.49
   1  -6   7 1946.21  105.39
   1  -6   7 1806.02  128.69
  -2   6  -7 1394.16  105.49
   2  -6   7 1465.45  122.79
   2  -6   7 1607.44   95.99
  -3   6  -7 1090.29   93.49
   3  -6   7 1142.49  111.29
   3  -6   7 1187.68   89.19
  -4   6  -7 1246.38  114.89
  -4   6  -7 1140.99  102.09
   4  -6   7 1065.59  116.89
   4  -6   7 1035.00   91.39
  -5   6  -7 1028.50  102.29
  -5   6  -7 1158.18  122.29
   5  -6   7 1131.69  107.19
   6   5  -7 1008.60  101.49
   6   5  -7 1089.99  116.89
  -6  -5   7  966.00   87.59
  -6  -5   7  955.10   92.99
   5   5  -7  770.62   86.39
   5   5  -7  857.41   88.19
  -5  -5   7  733.23   74.59
   4   5  -7  835.42   83.59
   4   5  -7  686.63   84.19
   4   5  -7  787.42   77.29
  -4  -5   7  730.93   64.79
  -4  -5   7  775.92   68.29
   3   5  -7  888.61   71.39
   3   5  -7  837.92   77.99
   3   5  -7  814.72   69.29
  -3  -5   7  984.20   77.29
  -3  -5   7  972.20   72.79
   2   5  -7  784.72   70.79
   2   5  -7  725.93   57.69
   2   5  -7  890.51   69.99
  -2  -5   7  783.92   69.59
  -2  -5   7  732.53   57.89
  -2  -5   7  780.52   59.39
   1   5  -7   82.49   28.30
   1   5  -7  128.19   27.40
   1   5  -7  118.09   32.20
  -1  -5   7  229.48   38.10
  -1  -5   7  175.28   20.90
  -1  -5   7  184.08   24.50
  -1  -5   7  251.17   45.00
   0   5  -7  144.79   34.60
   0   5  -7  165.28   28.80
   0  -5   7  336.77   45.70
   0  -5   7  222.98   45.20
  -1   5  -7  126.99   35.10
  -1   5  -7  163.78   31.70
   1  -5   7  122.29   35.90
   1  -5   7  156.28   31.20
  -2   5  -7  345.57   56.79
   2  -5   7  293.87   43.70
   2  -5   7  286.37   59.89
  -3   5  -7  174.08   37.40
   3  -5   7  179.58   48.60
   3  -5   7  220.28   44.00
  -4   5  -7   35.50   31.40
  -4   5  -7   40.40   15.70
  -4   5  -7   52.99   28.20
  -4   5  -7   45.30   19.50
   4  -5   7   64.59   32.10
  -5   5  -7  176.88   53.69
  -5   5  -7  179.88   30.70
  -5   5  -7  180.68   45.70
   5  -5   7  179.28   48.20
   7   4  -7  530.25   78.49
   7   4  -7  714.43  117.49
  -7  -4   7  464.85   74.39
  -7  -4   7  425.86   64.09
   6   4  -7  788.12  114.59
   6   4  -7  825.02   98.49
  -6  -4   7  772.42   69.89
  -6  -4   7  778.42  105.89
   5   4  -7 1602.04  118.39
   5   4  -7 1608.34   98.09
   5   4  -7 1671.33  124.09
  -5  -4   7 1803.72  116.29
  -5  -4   7 1642.84   98.69
   4   4  -7 2261.67  116.29
   4   4  -7 2505.55  143.89
   4   4  -7 2525.85  149.79
  -4  -4   7 2615.54  139.69
  -4  -4   7 2665.03  128.19
   3   4  -7  872.71   71.19
   3   4  -7 1059.59   85.19
   3   4  -7  844.42   59.59
  -3  -4   7  855.81   59.99
  -3  -4   7  697.53   60.39
   2   4  -7 1742.93  108.09
   2   4  -7 1698.83   91.39
   2   4  -7 1748.43   95.59
  -2  -4   7 1379.66   82.59
  -2  -4   7 1509.35   85.69
  -2  -4   7 1411.66   79.89
   1   4  -7 3443.46  157.48
   1   4  -7 3558.14  169.88
   1   4  -7 3587.64  151.78
  -1  -4   7 3750.42  153.58
  -1  -4   7 3231.78  133.79
  -1  -4   7 3291.07  132.19
  -1  -4   7 3471.85  158.98
   0   4  -7 2666.43  126.39
   0   4  -7 2918.01  144.69
   0   4  -7 2747.12  140.19
   0  -4   7 2701.13   99.69
   0  -4   7 2899.31  131.59
   0  -4   7 2827.02  101.19
   0  -4   7 2686.73  140.19
  -1   4  -7 2290.57  113.09
  -1   4  -7 2175.48  122.49
   1  -4   7 2073.39  108.99
   1  -4   7 2085.69  124.69
  -2   4  -7 2079.09   77.19
  -2   4  -7 2075.49  133.79
   2  -4   7 2093.79  133.19
   2  -4   7 2090.49  115.59
   2  -4   7 2054.09   76.99
  -3   4  -7 1483.05   70.89
  -3   4  -7 1525.45   97.69
  -3   4  -7 1582.54  110.49
   3  -4   7 1514.95  101.99
   3  -4   7 1522.75   74.79
  -4   4  -7 1214.08   86.89
  -4   4  -7 1245.08  105.69
  -4   4  -7 1117.29   70.99
   4  -4   7 1279.47  101.49
   4  -4   7 1296.07   79.59
  -5   4  -7  873.61   75.49
  -5   4  -7  879.21  112.69
   5  -4   7  849.41   89.39
   5  -4   7  790.62   77.99
  -6   4  -7  561.34   98.99
  -6   4  -7  900.51   82.49
   6  -4   7  934.21   99.99
   6  -4   7  791.12  112.59
   7   3  -7   49.99   46.40
   7   3  -7   52.39   41.80
  -7  -3   7   58.99   31.20
  -7  -3   7   78.59   34.80
   6   3  -7   40.30   33.60
   6   3  -7   13.50   30.70
  -6  -3   7   11.30   22.00
  -6  -3   7   30.40   21.20
   5   3  -7   49.20   19.90
   5   3  -7   47.10   30.50
   5   3  -7   23.90   25.10
  -5  -3   7   45.80   22.90
  -5  -3   7   20.40   18.50
   4   3  -7   37.30   17.70
   4   3  -7   43.00   26.70
   4   3  -7   37.00   21.70
  -4  -3   7   43.20   19.30
  -4  -3   7   49.40   17.80
   3   3  -7   48.30   15.50
   3   3  -7   69.79   28.70
   3   3  -7   52.09   19.50
  -3  -3   7   57.69   15.70
  -3  -3   7   18.40   22.10
   2   3  -7  555.64   55.89
   2   3  -7  576.24   49.40
   2   3  -7  596.54   41.10
  -2  -3   7  542.65   54.79
  -2  -3   7  514.75   46.60
  -2  -3   7  484.85   44.70
  -2  -3   7  600.84   43.90
  -2  -3   7  563.54   41.30
   1   3  -7  379.26   37.30
   1   3  -7  390.86   38.90
   1   3  -7  377.66   52.19
  -1  -3   7  434.16   40.00
  -1  -3   7  428.46   38.50
  -1  -3   7  446.46   33.00
  -1  -3   7  403.86   56.19
  -1  -3   7  346.17   32.70
   0   3  -7  119.69   29.60
   0   3  -7  109.99   23.70
   0   3  -7  132.59   30.20
   0  -3   7  160.58   31.00
   0  -3   7  217.88   40.80
   0  -3   7  186.28   22.30
   0  -3   7  143.89   24.30
   0  -3   7  190.18   21.20
  -1   3  -7  849.02   65.49
  -1   3  -7  884.01   74.29
  -1   3  -7  917.61   45.30
  -1   3  -7  898.71   63.59
   1  -3   7  823.32   67.59
   1  -3   7  918.51   46.50
   1  -3   7  895.81   63.19
   1  -3   7  863.51   66.09
  -2   3  -7  628.84   53.39
  -2   3  -7  648.44   41.50
   2  -3   7  479.75   53.09
   2  -3   7  621.14   57.49
   2  -3   7  560.54   38.40
  -3   3  -7 1188.78   69.79
  -3   3  -7 1257.97   81.59
  -3   3  -7 1289.37   95.09
   3  -3   7 1157.78   71.99
   3  -3   7 1179.08   81.59
   3  -3   7 1156.38   88.59
  -4   3  -7  990.40   71.59
  -4   3  -7  996.60   94.09
  -4   3  -7 1051.29   97.79
  -4   3  -7  916.11   70.49
   4  -3   7  869.21   82.29
   4  -3   7 1066.99   77.19
  -5   3  -7  596.14   85.49
  -5   3  -7  676.73   62.29
   5  -3   7  617.44   75.09
   5  -3   7  415.36   69.79
  -6   3  -7  830.82  118.19
  -6   3  -7  908.91   72.99
   6  -3   7 1063.79  104.89
   6  -3   7  786.22  109.89
   7   2  -7 1345.77  134.39
   7   2  -7 1397.86  113.69
  -7  -2   7 1337.67  110.19
  -7  -2   7 1243.98   81.29
   6   2  -7 1700.43  133.29
   6   2  -7 1434.66  115.59
  -6  -2   7 1280.27   71.89
  -6  -2   7 1142.29   94.29
  -6  -2   7 1238.58   79.39
   5   2  -7 2388.66  140.99
   5   2  -7 1943.31  137.99
  -5  -2   7 2141.79   92.99
  -5  -2   7 2239.18  127.49
  -5  -2   7 2107.49   96.39
   4   2  -7 1562.14  107.09
   4   2  -7 1430.26  106.89
  -4  -2   7 1228.88   55.59
  -4  -2   7 1377.26   86.79
   3   2  -7 3850.31  129.79
   3   2  -7 3765.92  186.08
  -3  -2   7 3607.04  172.08
  -3  -2   7 3767.02  131.39
  -3  -2   7 3846.52  167.08
  -3  -2   7 3767.62  165.28
   2   2  -7 3352.86  122.79
   2   2  -7 3205.48  143.99
   2   2  -7 3617.34  168.18
  -2  -2   7 3193.98  158.08
  -2  -2   7 3485.25  126.89
  -2  -2   7 3588.44  146.69
  -2  -2   7 3459.65  149.69
  -2  -2   7 3234.28  150.08
   1   2  -7 1960.50   89.29
   1   2  -7 2156.38  113.29
   1   2  -7 1967.90   96.99
   1   2  -7 1793.22   83.39
  -1  -2   7 1916.31   88.49
  -1  -2   7 1895.31  104.69
  -1  -2   7 1842.82   93.79
  -1  -2   7 1934.81   87.89
  -1  -2   7 1935.81   96.29
   0   2  -7  778.82   56.69
   0   2  -7  929.51   56.89
   0   2  -7 1001.00   64.89
   0   2  -7  880.21   49.80
   0   2  -7  906.21   63.49
   0  -2   7  875.31   50.99
   0  -2   7  910.41   59.59
   0  -2   7  846.82   62.79
  -1   2  -7  949.01   64.29
  -1   2  -7  989.50   65.29
  -1   2  -7  952.20   54.19
  -1   2  -7  837.42   62.39
  -1   2  -7  949.60   81.99
   1  -2   7  891.81   52.79
   1  -2   7  893.11   62.89
   1  -2   7  942.61   64.99
  -2   2  -7 1446.66   82.09
  -2   2  -7 1454.65   92.89
  -2   2  -7 1371.66   74.09
   2  -2   7 1431.86   91.39
   2  -2   7 1518.35   83.99
   2  -2   7 1499.95   78.29
  -3   2  -7 1002.90   84.29
  -3   2  -7  785.02   60.99
  -3   2  -7  951.40   62.79
   3  -2   7  813.62   60.69
   3  -2   7  873.41   74.49
   3  -2   7  831.82   61.99
  -4   2  -7  145.79   32.30
  -4   2  -7  192.28   31.60
  -4   2  -7  150.28   40.70
   4  -2   7  171.38   42.30
   4  -2   7   60.59   28.70
  -5   2  -7   42.10   20.20
  -5   2  -7   91.39   33.80
  -5   2  -7   84.09   45.80
   5  -2   7  100.59   40.50
   5  -2   7   56.49   33.20
  -6   2  -7    9.00   46.50
  -6   2  -7   -5.60   20.30
   6  -2   7    4.70   39.40
   6  -2   7   25.90   42.70
   7   1  -7  240.78   61.69
   7   1  -7  330.47   66.59
  -7  -1   7  209.88   45.00
  -7  -1   7  277.67   60.69
  -7  -1   7  254.17   37.40
   6   1  -7  616.24   85.49
   6   1  -7  488.45   82.09
  -6  -1   7  445.06   38.10
  -6  -1   7  474.95   74.99
  -6  -1   7  470.65   66.89
  -6  -1   7  440.36   45.20
   5   1  -7 1402.86  107.29
  -5  -1   7 1179.58   53.69
  -5  -1   7 1338.87   89.99
  -5  -1   7 1164.98   90.69
  -5  -1   7 1275.27   60.89
   4   1  -7 1924.31  135.89
  -4  -1   7 1771.12  104.99
  -4  -1   7 1813.92  102.29
   3   1  -7 2281.77  130.79
  -3  -1   7 2402.66  135.59
  -3  -1   7 2605.64  123.29
  -3  -1   7 2686.93  126.09
  -3  -1   7 2336.27  130.69
   2   1  -7 2730.13  126.09
   2   1  -7 2991.50  147.29
  -2  -1   7 2701.93  139.69
  -2  -1   7 2944.01  129.29
  -2  -1   7 2802.22  127.79
  -2  -1   7 2800.42  137.29
   1   1  -7 2059.89  111.89
   1   1  -7 2256.47  100.39
   1   1  -7 2203.28  117.59
   1   1  -7 2016.10   90.39
  -1  -1   7 1858.91  103.59
  -1  -1   7 2102.79   98.89
  -1  -1   7 1930.11   94.59
   0   1  -7 4369.06  190.18
   0   1  -7 4660.73  177.98
   0   1  -7 4495.25  179.88
   0   1  -7 4450.05  184.78
   0  -1   7 4058.79  178.18
   0  -1   7 4318.27  177.58
   0  -1   7 4409.06  171.88
  -1   1  -7 3236.68  145.79
  -1   1  -7 3133.29  157.58
  -1   1  -7 3448.75  152.28
  -1   1  -7 3187.28  138.39
  -1   1  -7 3229.48  144.89
   1  -1   7 3315.77  149.29
   1  -1   7 3131.19  137.59
   1  -1   7 3267.17  141.59
  -2   1  -7 2757.12  127.49
  -2   1  -7 2836.22  127.09
  -2   1  -7 2784.82  146.99
   2  -1   7 2629.94  120.19
   2  -1   7 2874.61  130.69
   2  -1   7 2702.03  138.19
  -3   1  -7 3283.67  177.38
  -3   1  -7 3309.77  153.58
  -3   1  -7 3267.57  139.29
   3  -1   7 3214.68  136.49
   3  -1   7 3373.26  159.18
   3  -1   7 3407.06  171.18
  -4   1  -7 1962.90   91.69
  -4   1  -7 2192.78  143.69
  -4   1  -7 1996.60   94.39
   4  -1   7 2061.69  134.99
   4  -1   7 2119.99  125.69
  -5   1  -7 1571.34  131.39
  -5   1  -7 1401.06   57.19
  -5   1  -7 1324.07   54.59
   5  -1   7 1341.77  122.99
   5  -1   7 1772.32  132.19
  -6   1  -7 1404.56  136.99
   6  -1   7 1433.46  130.29
   6  -1   7 1254.67  123.49
   7   0  -7  315.37   67.39
  -7   0   7  198.48   48.30
  -7   0   7  346.47   60.49
  -7   0   7  287.07   37.10
   6   0  -7  545.15   78.79
  -6   0   7  638.74   49.90
  -6   0   7  598.14   43.50
  -6   0   7  677.23   69.29
  -6   0   7  717.23   75.69
   5   0  -7  296.47   57.09
  -5   0   7  304.97   22.00
  -5   0   7  272.57   45.70
  -5   0   7  312.27   25.90
  -5   0   7  291.27   47.30
   4   0  -7  207.98   44.00
  -4   0   7  192.48   36.50
  -4   0   7  234.18   40.10
   3   0  -7  644.04   61.49
   3   0  -7  582.14   48.80
  -3   0   7  585.54   48.80
  -3   0   7  645.74   53.79
   2   0  -7    8.50   11.70
   2   0  -7   28.50   16.60
   2   0  -7   28.20   16.60
   2   0  -7   23.90    6.00
   2   0  -7   21.90    5.80
  -2   0   7   50.19   17.20
  -2   0   7   35.00   13.30
  -2   0   7   19.10   18.90
   1   0  -7   82.49   15.40
   1   0  -7   67.79   20.60
   1   0  -7   85.59   20.40
   1   0  -7   99.29   21.90
  -1   0   7  101.49   17.80
  -1   0   7  137.99   30.00
  -1   0   7  150.38   27.00
  -1   0   7   66.09   18.70
   0   0  -7   48.40   18.80
   0   0  -7   72.09   18.40
   0   0  -7   75.39   18.50
   0   0  -7   71.29   20.80
   0   0   7   86.69   18.90
   0   0   7  100.49   23.60
   0   0   7  105.99   20.90
   0   0   7  100.79   22.10
  -1   0  -7  243.08   34.50
  -1   0  -7  275.07   40.40
  -1   0  -7  230.68   34.50
   1   0   7  186.88   29.50
   1   0   7  301.37   42.30
   1   0   7  162.48   33.50
   1   0   7  274.07   41.00
  -2   0  -7  343.87   33.00
  -2   0  -7  188.78   34.80
  -2   0  -7  274.47   38.80
   2   0   7  247.78   30.70
   2   0   7  292.27   44.60
   2   0   7  258.27   40.20
  -3   0  -7  587.74   38.90
  -3   0  -7  634.44   69.49
   3   0   7  618.54   76.89
   3   0   7  694.83   76.29
   3   0   7  558.24   36.20
  -4   0  -7  155.78   46.50
   4   0   7   96.99   32.20
   4   0   7  137.59   40.70
  -5   0  -7  484.05   85.39
   5   0   7  492.95   84.79
   5   0   7  377.36   69.59
  -6   0  -7  699.33  111.19
   6   0   7  781.52  111.09
   6   0   7  780.42  109.19
   7  -1  -7 1031.10  106.99
  -7   1   7 1065.99   70.09
  -7   1   7 1040.70   94.19
  -7   1   7 1141.99  108.79
   6  -1  -7 1311.07  112.59
  -6   1   7 1489.55   76.49
  -6   1   7 1455.15  101.09
  -6   1   7 1353.16  109.09
  -6   1   7 1366.76   81.09
   5  -1  -7 2189.08  141.19
  -5   1   7 2065.19  116.49
  -5   1   7 2040.00   89.59
  -5   1   7 1944.41   88.49
  -5   1   7 2138.29  128.69
   4  -1  -7 2377.86  143.89
  -4   1   7 2317.17   91.19
  -4   1   7 2404.46  129.29
  -4   1   7 2206.68   91.09
  -4   1   7 2517.75  133.49
   3  -1  -7 2058.09  104.39
   3  -1  -7 2318.07  132.99
   3  -1  -7 2170.38   85.99
  -3   1   7 2359.66   91.09
  -3   1   7 2407.66  115.69
  -3   1   7 2407.36  125.29
   2  -1  -7 2337.27  118.89
   2  -1  -7 2514.55  135.59
  -2   1   7 2448.26   96.99
  -2   1   7 2309.57  128.29
  -2   1   7 2473.55  122.99
  -2   1   7 2317.97  109.89
   1  -1  -7 1564.74   90.49
   1  -1  -7 1660.83   84.59
   1  -1  -7 1738.13   82.99
   1  -1  -7 1661.33  100.39
  -1   1   7 1533.75   81.69
  -1   1   7 1560.44   94.79
  -1   1   7 1506.25   76.59
  -1   1   7 1607.64   91.29
   0  -1  -7 3010.20  143.69
   0  -1  -7 3130.09  137.89
   0  -1  -7 3037.10  140.29
   0  -1  -7 3122.59  143.59
   0   1   7 3332.97  145.69
   0   1   7 3204.58  150.08
   0   1   7 3246.88  147.29
   0   1   7 3605.44  155.68
  -1  -1  -7 1540.35   85.39
  -1  -1  -7 1625.54   94.49
  -1  -1  -7 1619.54   89.69
  -1  -1  -7 1496.25   95.39
   1   1   7 1530.55   83.09
   1   1   7 1515.05   93.29
   1   1   7 1680.13   96.19
   1   1   7 1700.73   93.79
  -2  -1  -7 1454.85   74.89
   2   1   7 1536.15   98.89
   2   1   7 1501.75   72.59
   2   1   7 1436.76   95.59
  -3  -1  -7 1618.94   63.59
  -3  -1  -7 1626.64  114.89
   3   1   7 1456.05  104.49
   3   1   7 1801.62  112.99
   3   1   7 1550.34   57.19
  -4  -1  -7  880.11   90.49
   4   1   7  778.72   83.19
   4   1   7  820.32   84.09
   5   1   7  203.98   50.39
   5   1   7   72.49   39.30
  -6  -1  -7  478.75   89.99
   6   1   7  481.45   88.19
   6   1   7  524.75  105.49
   7  -2  -7  176.38   81.39
  -7   2   7   88.79   37.40
  -7   2   7   82.69   34.60
  -7   2   7   78.59   41.00
   6  -2  -7   48.60   38.40
  -6   2   7   84.79   29.80
  -6   2   7   92.29   34.80
  -6   2   7  102.49   32.90
  -6   2   7   90.89   24.70
   5  -2  -7  174.68   45.00
  -5   2   7  206.58   33.10
  -5   2   7  276.17   45.10
  -5   2   7  200.08   43.70
  -5   2   7  178.58   29.30
   4  -2  -7  659.13   51.29
   4  -2  -7  749.23   78.29
  -4   2   7  611.84   45.20
  -4   2   7  657.43   54.39
  -4   2   7  750.12   66.69
   3  -2  -7  884.91   59.89
   3  -2  -7  898.21   56.59
   3  -2  -7  932.01   80.59
  -3   2   7 1088.69   58.19
  -3   2   7  942.71   62.39
  -3   2   7  896.01   73.29
   2  -2  -7 1535.35   80.29
   2  -2  -7 1408.26   75.59
   2  -2  -7 1501.25  100.49
  -2   2   7 1380.86   73.89
  -2   2   7 1211.78   84.19
  -2   2   7 1342.47   71.59
   1  -2  -7 1447.96   79.79
   1  -2  -7 1570.44   87.99
   1  -2  -7 1754.22  103.59
  -1   2   7 1323.67   73.69
  -1   2   7 1461.65   92.39
  -1   2   7 1353.86   87.79
  -1   2   7 1318.37   75.89
   0  -2  -7 2388.46  125.09
   0  -2  -7 2490.85  126.59
   0  -2  -7 2494.45  117.99
   0   2   7 2440.96  128.69
   0   2   7 2417.26  125.19
   0   2   7 2517.55  116.99
   0   2   7 2386.16  121.99
  -1  -2  -7 2184.78  109.39
  -1  -2  -7 1907.01  118.79
  -1  -2  -7 2273.77  109.59
   1   2   7 1943.11  103.19
   1   2   7 1757.72   95.59
  -2  -2  -7 1060.69   91.29
  -2  -2  -7 1351.36   68.99
   2   2   7 1148.49  117.09
   2   2   7 1106.79   60.29
   2   2   7 1023.60   84.39
  -3  -2  -7 2166.18  140.79
   3   2   7 1838.92  126.29
   3   2   7 2194.38  130.39
  -4  -2  -7 1630.64  130.29
   4   2   7 1648.24  124.79
   4   2   7 1449.46  116.69
  -5  -2  -7 1110.79  118.49
   5   2   7 1394.46  128.39
   5   2   7 1384.26  123.69
  -6  -2  -7 1173.38  148.39
   6   2   7 1399.26  174.18
   6   2   7 1103.99  135.89
   7  -3  -7  526.95  103.39
  -7   3   7  417.56   76.89
  -7   3   7  345.77   87.79
  -7   3   7  448.66   61.39
   6  -3  -7 1037.40  125.69
  -6   3   7  810.72   83.69
  -6   3   7  928.81   73.79
  -6   3   7 1116.79   84.89
  -6   3   7  994.00   95.39
   5  -3  -7 1220.38  113.39
   5  -3  -7 1314.37   89.79
  -5   3   7 1186.38   82.49
  -5   3   7 1367.86   87.49
  -5   3   7 1284.17  100.09
   4  -3  -7  279.07   43.10
   4  -3  -7  309.07   66.29
  -4   3   7  182.68   34.20
  -4   3   7  191.98   31.50
  -4   3   7  183.08   40.30
   3  -3  -7 1106.59   68.09
   3  -3  -7 1251.87   79.79
   3  -3  -7 1317.87  102.89
  -3   3   7 1333.87   92.29
  -3   3   7 1153.78   68.99
  -3   3   7 1161.08   73.69
   2  -3  -7  579.84   63.79
   2  -3  -7  558.24   43.40
   2  -3  -7  609.24   55.29
  -2   3   7  621.84   58.99
  -2   3   7  639.84   45.80
  -2   3   7  528.65   57.39
   1  -3  -7  460.35   61.89
   1  -3  -7  470.65   41.00
   1  -3  -7  543.95   54.49
  -1   3   7  608.04   58.69
  -1   3   7  523.75   43.80
  -1   3   7  568.44   52.19
   0  -3  -7  242.18   45.50
   0  -3  -7  222.28   42.30
   0  -3  -7  296.87   35.50
   0   3   7  275.17   38.80
   0   3   7  273.47   44.60
   0   3   7  205.78   38.10
  -1  -3  -7    5.70   21.20
  -1  -3  -7    0.90   15.00
  -1  -3  -7   23.70   21.80
   1   3   7    5.70   23.90
   1   3   7  -10.50   17.80
   1   3   7    4.70   15.00
  -2  -3  -7   38.60   16.60
  -2  -3  -7   46.70   26.30
   2   3   7   24.30   24.70
   2   3   7   47.80   21.60
   2   3   7   56.79   18.00
   2   3   7   10.90   18.10
  -3  -3  -7   60.79   35.80
   3   3   7   54.79   27.40
   3   3   7  -17.20   23.50
  -4  -3  -7   19.00   38.80
   4   3   7   46.70   35.30
   4   3   7   44.30   31.30
  -5  -3  -7    4.30   44.40
   5   3   7  -58.89   38.70
   5   3   7    4.70   41.30
   6  -4  -7 1136.59  140.79
  -6   4   7  999.10   84.59
  -6   4   7 1337.57  109.59
  -6   4   7  991.80   83.29
   5  -4  -7 1569.74  134.09
   5  -4  -7 1592.84  112.89
  -5   4   7 1647.74  119.79
  -5   4   7 1614.84   96.69
   4  -4  -7 2980.80  158.28
   4  -4  -7 3084.29  188.38
  -4   4   7 2416.66  144.89
  -4   4   7 2528.75  147.69
  -4   4   7 2499.75  117.89
   3  -4  -7 3428.36  193.28
   3  -4  -7 3317.77  140.99
   3  -4  -7 3524.45  173.08
  -3   4   7 3340.37  174.68
  -3   4   7 3298.47  139.99
   2  -4  -7 1811.72  125.39
   2  -4  -7 1748.93   83.79
   2  -4  -7 1801.02  113.79
  -2   4   7 1791.02  116.29
  -2   4   7 1819.32   87.79
   1  -4  -7 1949.30  126.09
   1  -4  -7 1820.72   89.39
   1  -4  -7 2439.26  182.68
  -1   4   7 1793.82  116.29
  -1   4   7 1942.21   93.19
   0  -4  -7 2833.92  130.69
   0  -4  -7 3295.87  163.48
   0  -4  -7 3066.59  168.08
   0   4   7 3140.39  140.09
   0   4   7 3184.68  168.68
  -1  -4  -7 2057.09  114.49
  -1  -4  -7 2124.79  136.79
  -1  -4  -7 1786.82  103.49
   1   4   7 1946.01  126.59
   1   4   7 1915.11  106.99
   1   4   7 1778.32  109.59
   1   4   7 1974.20  109.59
  -2  -4  -7 1817.72  133.19
   2   4   7 1744.93  125.29
   2   4   7 1679.93   91.79
   2   4   7 1691.53   95.89
   2   4   7 1904.11  113.49
  -3  -4  -7 1231.58  117.39
   3   4   7 1106.59  108.49
   3   4   7 1407.66  104.49
   3   4   7 1462.85   60.99
  -4  -4  -7  926.81  118.59
   4   4   7  698.43  102.99
   4   4   7  712.53   93.39
  -5  -4  -7  326.27   83.59
   5   4   7  690.43  101.79
   5   4   7  660.53  105.99
   6  -5  -7   41.60   50.49
   6  -5  -7   55.69   50.99
  -6   5   7   32.10   33.10
  -6   5   7   58.39   40.50
   5  -5  -7   36.80   36.50
   5  -5  -7   49.50   40.60
  -5   5   7   28.30   22.90
  -5   5   7   65.79   32.00
   4  -5  -7  111.29   44.30
   4  -5  -7  116.79   45.60
  -4   5   7  160.78   38.70
  -4   5   7  110.49   25.80
  -4   5   7  162.68   43.90
   3  -5  -7  132.09   41.30
   3  -5  -7  108.39   46.60
  -3   5   7   69.39   27.40
  -3   5   7  150.58   41.50
  -3   5   7  116.39   23.00
   2  -5  -7  152.18   22.30
   2  -5  -7  218.68   56.19
   2  -5  -7  196.28   46.80
  -2   5   7  193.88   28.40
  -2   5   7  135.79   40.20
   1  -5  -7  550.64   40.90
   1  -5  -7  552.74   73.69
   1  -5  -7  568.34   77.89
  -1   5   7  715.43   72.99
  -1   5   7  523.75   42.90
   0  -5  -7  867.11   60.19
   0  -5  -7  987.60   84.99
   0  -5  -7  953.70   94.29
   0   5   7 1035.40   66.59
   0   5   7 1108.09   94.89
   0   5   7  997.40   84.29
  -1  -5  -7  662.53   63.89
  -1  -5  -7  690.73   89.09
   1   5   7  884.91   76.29
   1   5   7  790.02   84.89
   1   5   7  776.92   64.89
  -2  -5  -7  706.63  101.29
   2   5   7  803.82  103.49
   2   5   7 1028.60   79.19
   2   5   7  854.11   81.99
   2   5   7  934.71   71.29
  -3  -5  -7  858.91  117.99
   3   5   7  792.22   52.29
   3   5   7  714.33   58.19
   3   5   7  883.81  115.79
   3   5   7  705.13   86.29
  -4  -5  -7  856.51  125.79
   4   5   7  584.14   83.69
   4   5   7  546.85   91.79
   5  -6  -7  698.03   97.09
  -5   6   7  778.12  104.19
  -5   6   7  809.42  109.79
  -5   6   7  803.92   63.59
   4  -6  -7  950.80  112.39
   4  -6  -7  927.81  116.69
  -4   6   7 1089.99  111.09
  -4   6   7  928.51   58.39
  -4   6   7 1061.59  102.99
   3  -6  -7  710.63  100.49
   3  -6  -7  583.24   93.59
  -3   6   7  722.33   92.79
  -3   6   7  550.24   90.59
  -3   6   7  551.34   41.80
   2  -6  -7  837.02  107.59
  -2   6   7  611.24   81.09
  -2   6   7  613.74   84.59
  -2   6   7  680.53   33.60
  -2   6   7  713.93   35.40
   1  -6  -7 1008.50  107.19
  -1   6   7 1039.60   97.79
  -1   6   7  995.70   96.39
   0  -6  -7  402.66   74.19
   0  -6  -7  380.96   41.30
   0   6   7  520.65   47.10
   0   6   7  581.54   76.19
   0   6   7  669.43   91.49
  -1  -6  -7  -61.39   35.00
  -1  -6  -7   21.70   34.70
   1   6   7   88.79   32.70
   1   6   7   58.39   29.80
   1   6   7  -18.50   29.30
  -2  -6  -7  158.38   56.69
   2   6   7  125.19   38.80
   2   6   7  164.78   50.49
   2   6   7   98.79   62.79
  -3  -6  -7  162.68   67.49
   3   6   7  135.89   51.49
   3   6   7   76.89   47.00
   3   6   7  119.39   34.20
   4  -7  -7  594.44   93.69
  -4   7   7  503.65   84.79
  -4   7   7  648.24  104.29
   3  -7  -7 1095.59  120.99
  -3   7   7 1124.49  116.69
   2  -7  -7 1185.98  129.49
  -2   7   7 1378.26  115.69
  -2   7   7 1302.07  124.59
   1  -7  -7 1667.33  241.98
  -1   7   7 1231.98  118.89
  -1   7   7 1353.66  117.19
   0  -7  -7  703.13  114.79
   0   7   7  693.73   99.79
   0   7   7  703.03   91.19
  -1  -7  -7 1268.07  141.99
   1   7   7 1171.48   78.39
   1   7   7 1323.17  120.99
   1   7   7 1255.37  111.09
  -2  -7  -7 1600.24  160.18
   2   7   7 1178.98  102.59
   2   7   7 1336.47  132.49
   2   7   7 1236.38   95.89
   1  -8  -7  -71.69   57.39
  -1   8   7  -39.50   46.50
  -1   8   7    9.50   47.90
   2   9  -8  791.62  111.79
  -2  -9   8  931.91   85.59
  -2  -9   8  896.91   63.99
  -2  -9   8  762.32  111.09
   1   9  -8  914.61  117.49
  -1  -9   8 1015.50  131.39
  -1  -9   8 1013.40   84.09
   0   9  -8  578.44   91.69
   0  -9   8  848.22   74.79
   0  -9   8  513.15   93.19
  -1   9  -8  662.93  101.79
   1  -9   8  596.34   65.39
   1  -9   8  791.42  119.09
  -2   9  -8  137.39   55.59
   2  -9   8  249.28   72.99
   4   8  -8  399.16   83.19
   4   8  -8  341.37   66.79
  -4  -8   8  389.56   61.49
  -4  -8   8  360.96   72.99
   3   8  -8  915.41   84.79
   3   8  -8 1242.88  191.98
  -3  -8   8 1163.88   90.69
  -3  -8   8 1111.59  117.59
   2   8  -8 1050.69   76.89
   2   8  -8 1211.28  193.28
  -2  -8   8 1060.09   84.99
  -2  -8   8 1181.88   88.19
  -2  -8   8  963.30  105.29
   1   8  -8  531.15  100.59
  -1  -8   8  740.13  100.29
  -1  -8   8  894.61   76.99
   0   8  -8  719.93  146.39
   0  -8   8  957.90   99.89
   0  -8   8  883.11  117.29
  -1   8  -8 1545.85  128.59
  -2   8  -8 1159.58  114.89
   2  -8   8 1541.75  144.79
   2  -8   8 1522.65  103.29
  -3   8  -8 1292.17  124.89
   3  -8   8 1397.06  107.09
   3  -8   8 1432.66  148.99
   5   7  -8  391.26   91.19
   5   7  -8  374.46   82.49
  -5  -7   8  363.56   64.69
  -5  -7   8  421.46   70.29
   4   7  -8  256.97   51.49
   4   7  -8  287.27   67.79
  -4  -7   8  361.16   60.19
  -4  -7   8  242.58   55.59
   3   7  -8  125.09   43.50
   3   7  -8   60.59   31.60
  -3  -7   8  115.49   42.00
  -3  -7   8  179.68   41.40
   2   7  -8  109.49   28.60
   2   7  -8  139.89   46.70
  -2  -7   8  142.39   52.09
  -2  -7   8  113.09   36.80
  -2  -7   8  166.08   39.50
   1   7  -8  149.69   41.80
  -1  -7   8  122.29   25.40
  -1  -7   8  211.68   42.00
  -1  -7   8  185.58   26.70
  -1  -7   8  158.78   45.90
   0   7  -8   11.10   25.50
   0  -7   8   20.30   23.10
   0  -7   8   42.20   29.80
  -1   7  -8   11.50   26.70
   1  -7   8   23.30   35.30
   1  -7   8   -7.60   28.50
  -2   7  -8   36.40   33.90
   2  -7   8   13.40   26.90
   2  -7   8   36.60   41.00
  -3   7  -8   64.29   47.60
   3  -7   8  143.89   59.09
   3  -7   8  111.99   36.40
  -4   7  -8  249.48   54.39
  -4   7  -8  108.29   48.40
   4  -7   8  251.27   56.39
   4  -7   8  239.08   71.19
   6   6  -8 1350.96  127.79
   6   6  -8 1134.59  121.99
  -6  -6   8 1420.16  116.19
  -6  -6   8 1242.68  106.29
   5   6  -8 1123.39  107.29
   5   6  -8 1252.87  122.09
  -5  -6   8 1280.27  102.09
  -5  -6   8 1229.88  101.09
   4   6  -8 1092.19   95.19
   4   6  -8 1175.18  107.69
  -4  -6   8 1281.97   95.59
  -4  -6   8 1223.68   96.69
   3   6  -8 1209.08  101.39
  -3  -6   8 1103.89   89.79
  -3  -6   8 1122.79   82.99
   2   6  -8 1807.02  102.99
   2   6  -8 2058.19  130.99
  -2  -6   8 2073.39  113.49
  -2  -6   8 2061.69   99.99
  -2  -6   8 2034.20  126.29
  -2  -6   8 2014.70  108.19
   1   6  -8 2466.95  148.69
  -1  -6   8 2636.84  105.09
  -1  -6   8 2742.43  154.88
  -1  -6   8 2651.53  108.29
   0   6  -8 2444.06  145.99
   0  -6   8 2189.98  117.39
   0  -6   8 2112.39  139.59
  -1   6  -8 1540.85  114.39
   1  -6   8 1411.16  112.99
  -2   6  -8 1042.30   93.09
   2  -6   8 1238.78   88.49
   2  -6   8 1262.27  112.89
  -3   6  -8  589.14   84.09
   3  -6   8  638.64   68.29
   3  -6   8  608.34   95.09
  -4   6  -8  550.94   79.09
  -4   6  -8  531.35   88.09
   4  -6   8  623.34   80.29
  -5   6  -8  563.24  123.59
  -5   6  -8  397.56   84.49
   5  -6   8  559.14   94.49
   6   5  -8   12.50   37.20
   6   5  -8   64.99   47.30
  -6  -5   8   18.40   29.80
  -6  -5   8   65.29   37.80
   5   5  -8  157.08   49.10
   5   5  -8  159.98   49.30
   5   5  -8  234.68   58.89
  -5  -5   8  227.48   45.60
  -5  -5   8  279.97   54.29
   4   5  -8  199.58   48.80
   4   5  -8  155.78   40.30
   4   5  -8  182.78   42.00
  -4  -5   8  113.49   30.40
  -4  -5   8  109.29   29.40
   3   5  -8  267.17   43.00
   3   5  -8  230.18   42.60
   3   5  -8  277.87   57.19
  -3  -5   8  280.87   43.70
  -3  -5   8  188.98   36.70
   2   5  -8 1262.97   94.49
   2   5  -8  974.50   77.79
  -2  -5   8 1174.28   67.69
  -2  -5   8 1166.58   82.59
  -2  -5   8 1147.69   77.79
  -2  -5   8 1091.19   71.39
   1   5  -8 1079.49   85.69
   1   5  -8  921.21  109.29
  -1  -5   8  843.12   73.19
  -1  -5   8  903.41   51.89
  -1  -5   8  922.51   67.39
  -1  -5   8  861.91   48.10
   0   5  -8  744.73   71.69
   0  -5   8  679.03   58.79
  -1   5  -8  768.02   71.79
   1  -5   8  833.62   66.49
   1  -5   8  820.12   79.69
  -2   5  -8  871.11   77.89
   2  -5   8  935.21   77.39
   2  -5   8  952.80   91.19
  -3   5  -8 1351.36  102.69
  -3   5  -8 1385.46  111.89
   3  -5   8 1199.78   93.29
  -4   5  -8 1533.15  123.99
  -4   5  -8 1307.17   69.69
  -4   5  -8 1487.75  108.69
   4  -5   8 1491.45  112.59
  -5   5  -8 1251.07  125.19
  -5   5  -8 1153.28   99.29
   7   4  -8  911.81  123.09
   7   4  -8 1156.38  117.79
  -7  -4   8  953.30  101.89
  -7  -4   8 1096.09   87.19
   6   4  -8  949.11  103.39
  -6  -4   8  929.61   72.49
  -6  -4   8  855.51   86.39
   5   4  -8  787.12   83.99
   5   4  -8  697.23   59.89
   5   4  -8  866.31   87.19
  -5  -4   8  945.51   81.39
  -5  -4   8  686.53   59.09
   4   4  -8  921.21   91.89
   4   4  -8  882.61   61.39
   4   4  -8  944.91   82.99
  -4  -4   8  984.30   66.99
  -4  -4   8 1075.09   79.99
   3   4  -8  998.40   86.29
   3   4  -8  852.41   73.09
   3   4  -8  794.62   56.79
  -3  -4   8  739.23   63.19
  -3  -4   8  745.13   55.39
  -3  -4   8  652.83   56.59
   2   4  -8 1065.79   81.99
   2   4  -8  913.21   63.69
  -2  -4   8  813.62   59.19
  -2  -4   8  820.32   62.29
  -2  -4   8  810.02   55.39
  -2  -4   8 1048.10   84.89
   1   4  -8  666.43   60.99
   1   4  -8  599.44   57.09
  -1  -4   8  523.75   49.10
  -1  -4   8  521.75   41.50
  -1  -4   8  639.34   55.39
  -1  -4   8  579.74   38.90
   0   4  -8  270.37   46.60
   0   4  -8  282.77   48.30
   0  -4   8  297.07   40.80
   0  -4   8  236.38   21.20
   0  -4   8  273.07   45.30
  -1   4  -8  332.37   52.69
   1  -4   8  312.37   19.50
   1  -4   8  334.57   19.20
   1  -4   8  311.97   58.69
   1  -4   8  315.67   44.60
  -2   4  -8  316.17   52.19
  -2   4  -8  274.27   48.20
   2  -4   8  268.37   48.00
   2  -4   8  259.57   23.10
  -3   4  -8  113.69   33.00
  -3   4  -8  153.58   44.50
  -3   4  -8  154.98   24.40
   3  -4   8   62.79   23.40
   3  -4   8  122.49   23.40
  -4   4  -8   -1.60   23.00
  -4   4  -8  -10.90   27.00
  -4   4  -8   38.00   26.10
   4  -4   8   69.49   28.30
   4  -4   8   49.80   28.60
  -5   4  -8  -14.10   37.30
  -5   4  -8   71.99   29.00
   5  -4   8   39.10   37.20
   5  -4   8   34.20   58.29
   6  -4   8   71.69   45.10
   7   3  -8  381.86   79.49
   7   3  -8  630.54   87.99
  -7  -3   8  601.24   58.29
  -7  -3   8  715.63   96.59
   6   3  -8 1079.49  107.29
   6   3  -8 1035.20  102.49
  -6  -3   8  928.01   60.69
  -6  -3   8  965.90   67.79
  -6  -3   8  736.83   97.99
   5   3  -8 2059.99  141.59
   5   3  -8 2105.59  139.89
   5   3  -8 1947.31   85.49
  -5  -3   8 1738.43   82.79
  -5  -3   8 1798.62  114.89
   4   3  -8  743.33   78.69
   4   3  -8  665.63   39.80
   4   3  -8  663.03   82.79
  -4  -3   8  810.42   46.90
  -4  -3   8  787.32   66.29
  -4  -3   8  803.52   68.09
   3   3  -8 2134.79   90.19
   3   3  -8 2213.38  136.49
  -3  -3   8 2261.37  119.69
  -3  -3   8 2280.57   95.89
  -3  -3   8 2107.69  111.79
   2   3  -8 3035.80  126.89
   2   3  -8 3227.38  164.98
  -2  -3   8 2975.70  134.69
  -2  -3   8 3080.79  143.09
  -2  -3   8 3149.98  129.19
  -2  -3   8 3058.59  141.89
   1   3  -8 2110.29  105.49
   1   3  -8 2178.28  110.29
   1   3  -8 2206.18  122.59
  -1  -3   8 2559.04  111.09
  -1  -3   8 2414.16  114.19
  -1  -3   8 2505.05  123.09
  -1  -3   8 2695.93  121.79
   0   3  -8 3484.95  130.49
   0   3  -8 3361.96  159.18
   0   3  -8 3196.98  153.88
   0   3  -8 3173.98  148.39
   0  -3   8 3422.06  156.68
   0  -3   8 3691.63  163.88
   0  -3   8 3360.66  136.19
  -1   3  -8 4034.80  196.38
  -1   3  -8 4211.78  183.68
  -1   3  -8 3875.11  152.68
  -1   3  -8 4102.79  183.98
   1  -3   8 3830.92  179.08
   1  -3   8 3728.93  174.38
   1  -3   8 4028.90  150.58
  -2   3  -8 2682.73  133.79
  -2   3  -8 2570.34  111.99
  -2   3  -8 2494.75  140.59
   2  -3   8 2541.15  134.69
   2  -3   8 2327.87  141.89
   2  -3   8 2437.36  108.39
  -3   3  -8 1853.41   96.49
  -3   3  -8 1853.91  125.69
  -3   3  -8 2194.68  115.79
   3  -3   8 1993.20  103.49
   3  -3   8 1906.11  122.19
  -4   3  -8 1181.58   81.19
  -4   3  -8 1064.99  101.09
   4  -3   8 1320.37  108.09
   4  -3   8 1379.36   92.79
  -5   3  -8 1748.93  103.19
  -5   3  -8 1524.45  133.89
   5  -3   8 1749.53  120.59
   5  -3   8 1710.93  215.78
  -6   3  -8  666.33   67.29
  -6   3  -8  734.03  110.99
   6  -3   8  687.23   97.99
   6  -3   8  817.62   99.99
   7   2  -8  214.68   59.99
   7   2  -8  187.38   58.39
  -7  -2   8  185.78   48.60
  -7  -2   8  195.88   46.80
  -7  -2   8  118.49   25.70
   6   2  -8   24.20   31.40
   6   2  -8    7.00   26.90
  -6  -2   8   32.50   28.70
  -6  -2   8   -4.20   22.90
  -6  -2   8   -8.30   20.00
   5   2  -8   50.99   32.60
  -5  -2   8   39.60   26.40
  -5  -2   8   46.50   22.60
   4   2  -8   99.19   30.80
  -4  -2   8   80.29   26.50
  -4  -2   8  152.78   35.00
   3   2  -8   81.49   36.70
  -3  -2   8  127.49   29.60
  -3  -2   8  123.99   27.90
   2   2  -8  516.55   29.90
   2   2  -8  465.35   27.00
   2   2  -8  498.35   55.69
  -2  -2   8  509.85   51.69
  -2  -2   8  419.16   41.70
  -2  -2   8  458.05   42.10
   1   2  -8  145.39   23.00
   1   2  -8  143.89   23.90
   1   2  -8  157.58   34.60
   1   2  -8  211.88   32.20
   1   2  -8  153.38   22.50
  -1  -2   8  154.78   31.40
  -1  -2   8  153.58   33.60
  -1  -2   8  190.48   28.70
  -1  -2   8  184.18   32.90
   0   2  -8 1266.07   79.99
   0   2  -8 1295.77   84.39
   0   2  -8 1112.99   64.19
   0   2  -8 1251.97   71.99
   0   2  -8 1172.88   74.19
   0  -2   8 1279.27   84.09
   0  -2   8 1317.17   80.19
   0  -2   8 1237.08   68.59
  -1   2  -8  506.15   49.50
  -1   2  -8  434.06   56.99
  -1   2  -8  490.05   46.60
  -1   2  -8  456.85   39.30
   1  -2   8  518.85   49.70
   1  -2   8  521.15   41.60
   1  -2   8  527.85   51.09
  -2   2  -8  382.86   41.90
  -2   2  -8  411.36   41.30
  -2   2  -8  463.15   51.99
   2  -2   8  487.05   60.29
   2  -2   8  486.55   43.30
   2  -2   8  363.86   47.20
  -3   2  -8 1434.86   90.89
  -3   2  -8 1761.32  118.39
  -3   2  -8 1686.63   92.39
   3  -2   8 1821.42  136.09
   3  -2   8 1676.33   98.19
   3  -2   8 1691.33  113.69
  -4   2  -8 1098.19   71.69
  -4   2  -8 1031.20  101.79
   4  -2   8 1145.39   96.99
   4  -2   8 1010.00   93.19
   4  -2   8 1037.00   75.19
  -5   2  -8 1059.09   69.19
  -5   2  -8 1136.59  120.99
  -5   2  -8  950.20   77.39
   5  -2   8  969.80  101.89
  -6   2  -8  785.02  112.49
   6  -2   8  831.62  114.19
   6  -2   8  839.42  108.49
   7   1  -8 1361.26  123.29
  -7  -1   8 1148.39  103.89
  -7  -1   8 1116.49  108.19
   6   1  -8 1293.37  110.89
  -6  -1   8 1005.70   94.29
  -6  -1   8 1124.09   92.39
   5   1  -8 1996.00  135.29
  -5  -1   8 2461.35  141.19
  -5  -1   8 2211.48  129.29
   4   1  -8 1927.21  127.79
  -4  -1   8 2251.97  121.89
  -4  -1   8 2242.08  124.89
   3   1  -8 1560.24  108.19
  -3  -1   8 1560.34  100.79
  -3  -1   8 1443.76   88.99
   2   1  -8 1660.13   65.09
   2   1  -8 2109.29   66.69
   2   1  -8 2058.49  118.89
  -2  -1   8 2096.49  103.19
  -2  -1   8 2007.40  102.79
  -2  -1   8 1663.33  108.79
  -2  -1   8 1890.71  109.09
   1   1  -8 1778.92  105.89
   1   1  -8 1582.04   87.19
   1   1  -8 1701.23   92.39
   1   1  -8 1706.33   82.29
   1   1  -8 1733.63   79.99
  -1  -1   8 1846.92   93.69
  -1  -1   8 1785.72  102.89
  -1  -1   8 1612.34   91.39
   0   1  -8 1645.54   87.59
   0   1  -8 1430.26   87.59
   0   1  -8 1484.85   82.29
   0   1  -8 1616.04   96.49
   0  -1   8 1398.76   77.99
   0  -1   8 1307.57   92.59
   0  -1   8 1437.66   83.49
  -1   1  -8 1501.75   92.49
  -1   1  -8 1448.36   86.09
  -1   1  -8 1375.56   80.79
  -1   1  -8 1372.46   95.79
   1  -1   8 1503.85   85.99
   1  -1   8 1504.15   91.79
   1  -1   8 1489.05   83.79
  -2   1  -8 1050.59   67.99
  -2   1  -8 1001.80   69.19
   2  -1   8 1151.68   70.19
   2  -1   8 1102.09   74.69
   2  -1   8 1121.49   82.99
  -3   1  -8  594.44   79.59
  -3   1  -8  463.95   43.00
   3  -1   8  373.96   56.29
   3  -1   8  518.05   54.39
   3  -1   8  449.76   41.30
  -4   1  -8  387.76   40.80
  -4   1  -8  321.07   61.59
  -4   1  -8  316.47   35.60
   4  -1   8  428.46   63.49
   4  -1   8  322.07   59.69
  -5   1  -8   24.20   44.80
   5  -1   8   98.59   52.79
   5  -1   8  112.29   52.49
  -6   1  -8  -16.00   46.90
   6  -1   8   24.40   44.60
   7   0  -8  331.47   67.59
  -7   0   8  493.15   74.29
  -7   0   8  512.95   81.29
   6   0  -8  458.25   73.09
  -6   0   8  644.74   82.59
  -6   0   8  419.16   61.89
   5   0  -8  951.40   92.49
  -5   0   8  996.60   77.39
  -5   0   8  998.40   84.49
   4   0  -8 1075.59   92.89
  -4   0   8 1225.18   85.29
  -4   0   8  989.70   73.59
  -3   0   8  882.21   63.59
   2   0  -8 2130.89  108.49
   2   0  -8 2252.17   85.99
   2   0  -8 2138.79  127.39
   2   0  -8 2253.07  114.29
   2   0  -8 2320.37   84.69
  -2   0   8 2257.17  110.79
  -2   0   8 2194.48  115.89
   1   0  -8 2101.99   95.59
   1   0  -8 2189.08  108.79
   1   0  -8 2071.59  119.69
   1   0  -8 2080.39  104.59
  -1   0   8 2224.08  112.19
  -1   0   8 2260.07  122.99
  -1   0   8 2256.77   99.49
  -1   0   8 2345.77  116.39
   0   0  -8 2813.42  133.19
   0   0  -8 2919.61  133.69
   0   0  -8 3118.09  146.09
   0   0  -8 2894.31  136.59
   0   0   8 2956.80  133.89
   0   0   8 2668.33  130.19
   0   0   8 2767.92  134.39
   0   0   8 2681.13  125.89
  -1   0  -8 1390.06   89.49
  -1   0  -8 1236.58   81.09
  -1   0  -8 1397.06   82.59
   1   0   8 1078.79   75.59
   1   0   8 1220.08   80.29
   1   0   8 1264.67   80.79
   1   0   8 1212.48   74.39
  -2   0  -8 2481.55  115.79
  -2   0  -8 2296.77  135.59
   2   0   8 2098.59  121.59
   2   0   8 2352.86  106.59
   2   0   8 2399.06  129.29
  -3   0  -8 2291.87  144.59
  -3   0  -8 2416.66  105.09
   3   0   8 2451.65  104.29
   3   0   8 2560.04  139.99
   3   0   8 2390.56  143.09
  -4   0  -8  695.43   92.59
   4   0   8  666.73   84.59
   4   0   8  757.82   81.49
  -5   0  -8  935.51  103.29
   5   0   8 1918.91  101.39
  -6   0  -8 1837.12  156.18
   6   0   8 1941.71  173.48
   6   0   8 2041.80  167.28
   7  -1  -8  293.57   67.19
  -7   1   8  238.28   55.59
  -7   1   8  226.38   29.10
  -7   1   8  229.68   51.99
   6  -1  -8  450.05   81.09
  -6   1   8  422.86   70.79
  -6   1   8  433.86   65.29
   5  -1  -8  641.04   91.69
  -5   1   8  309.87   53.09
  -5   1   8  429.26   24.10
  -5   1   8  527.95   54.49
  -5   1   8  379.86   23.40
   4  -1  -8  137.79   44.30
  -4   1   8  138.19   11.50
  -4   1   8  131.69   28.80
  -4   1   8  131.19   11.90
  -4   1   8  119.09   28.40
   3  -1  -8  191.58   19.00
   3  -1  -8   97.89   30.50
  -3   1   8  169.68   17.70
  -3   1   8  246.38   38.30
  -3   1   8  211.98   38.50
   2  -1  -8  192.68   25.30
   2  -1  -8  123.19   28.00
   2  -1  -8  102.99   31.50
  -2   1   8  143.99   26.60
  -2   1   8  183.08   24.30
  -2   1   8  183.98   35.50
   1  -1  -8    9.20   14.30
   1  -1  -8   -9.70   16.60
   1  -1  -8   -4.20   11.30
  -1   1   8   -9.30   10.60
  -1   1   8   -1.60    9.90
  -1   1   8    2.00   13.00
  -1   1   8    1.40   21.40
   0  -1  -8   98.39   24.40
   0  -1  -8   84.19   24.10
   0  -1  -8   94.19   25.50
   0   1   8  157.78   31.90
   0   1   8  112.79   30.70
   0   1   8  125.29   27.30
   0   1   8  136.39   27.60
  -1  -1  -8   55.79   22.10
  -1  -1  -8   10.10   16.10
   1   1   8   51.39   20.50
   1   1   8   40.00   19.40
   1   1   8   14.60   15.80
  -2  -1  -8  123.49   25.10
  -2  -1  -8  106.49   32.80
   2   1   8  156.48   37.40
   2   1   8   87.39   21.00
   2   1   8   86.79   28.70
  -3  -1  -8  353.06   28.00
  -3  -1  -8  322.77   63.89
   3   1   8  331.17   57.89
   3   1   8  359.96   60.09
   3   1   8  347.27   27.30
  -4  -1  -8  191.58   53.89
   4   1   8  138.99   44.60
   4   1   8  177.38   51.19
  -5  -1  -8  466.25   81.49
   5   1   8  612.14   89.99
   5   1   8  460.65   81.49
  -6  -1  -8  465.65   90.19
   6   1   8  786.42  140.39
   6   1   8  490.95   94.59
   7  -2  -8 1057.19  117.99
  -7   2   8 1008.70   67.69
  -7   2   8  935.21   91.59
  -7   2   8 1021.90  104.09
   6  -2  -8 1731.83  139.79
  -6   2   8 1595.24  106.19
  -6   2   8 1449.06   80.19
  -6   2   8 1472.95  119.89
  -6   2   8 1483.45   80.89
   5  -2  -8 2112.09  149.69
  -5   2   8 1959.70  125.59
  -5   2   8 1760.62   84.79
  -5   2   8 1661.43  103.79
  -5   2   8 1712.03   84.09
   4  -2  -8 1444.46   77.59
   4  -2  -8 1625.54  118.89
  -4   2   8 1394.46   71.59
  -4   2   8 1459.75   88.69
  -4   2   8 1474.85  102.19
   3  -2  -8 2545.65  135.89
   3  -2  -8 2779.92  119.59
   3  -2  -8 2676.23  158.68
  -3   2   8 2639.14  114.29
  -3   2   8 2728.73  144.99
  -3   2   8 2592.74  124.79
   2  -2  -8 2426.66  136.39
   2  -2  -8 2012.40  104.59
   2  -2  -8 2182.28  106.39
  -2   2   8 2121.19  101.49
  -2   2   8 1991.30  117.09
  -2   2   8 1821.42   93.79
   1  -2  -8 2034.90  103.79
   1  -2  -8 2256.57  127.29
   1  -2  -8 2046.40  109.29
  -1   2   8 1701.53   90.79
  -1   2   8 1630.84   91.89
  -1   2   8 1692.03  107.89
   0  -2  -8 2073.39  116.59
   0  -2  -8 2147.19  106.49
   0  -2  -8 1944.51  113.89
   0   2   8 2234.58  123.19
   0   2   8 2169.38  110.29
   0   2   8 2014.70  114.09
   0   2   8 1991.00  115.49
  -1  -2  -8 1706.13  142.79
  -1  -2  -8 1644.04   95.29
   1   2   8 1739.23  109.49
   1   2   8 1626.04   94.59
   1   2   8 1773.32  103.29
  -2  -2  -8 1323.17   76.99
  -2  -2  -8 1517.25  109.79
   2   2   8 1238.78   95.19
   2   2   8 1143.29   88.39
   2   2   8 1258.77   69.99
  -3  -2  -8  794.22   86.89
   3   2   8  812.12   78.09
   3   2   8 1024.60   90.89
  -4  -2  -8  564.04   85.69
   4   2   8  754.42   99.99
   4   2   8  653.43   96.59
  -5  -2  -8  712.83  113.39
   5   2   8  736.73  102.79
   5   2   8  836.22  114.89
   7  -3  -8   20.20   56.79
  -7   3   8  126.99   42.20
  -7   3   8   42.90   35.70
  -7   3   8  118.69   49.50
   6  -3  -8  209.98   57.99
  -6   3   8   72.79   30.20
  -6   3   8  107.59   31.70
  -6   3   8  147.59   47.50
   5  -3  -8  241.18   59.69
   5  -3  -8  254.67   43.00
  -5   3   8  266.67   43.40
  -5   3   8  230.78   53.29
  -5   3   8  192.38   37.10
   4  -3  -8  661.13   90.69
   4  -3  -8  597.44   57.59
  -4   3   8  524.45   53.59
  -4   3   8  400.66   58.49
  -4   3   8  531.65   52.19
   3  -3  -8  716.33   53.69
   3  -3  -8  649.14   57.39
   3  -3  -8  491.35   72.59
  -3   3   8  663.93   51.99
  -3   3   8  624.54   54.79
  -3   3   8  694.33   69.49
   2  -3  -8  467.95   50.49
   2  -3  -8  437.36   65.89
   2  -3  -8  496.95   43.90
  -2   3   8  492.15   49.70
  -2   3   8  482.55   43.30
  -2   3   8  515.15   69.09
   1  -3  -8 1307.37   89.39
   1  -3  -8 1132.39   72.09
   1  -3  -8 1310.37   97.49
  -1   3   8 1124.09   69.49
  -1   3   8 1023.00   76.39
  -1   3   8 1069.49   83.39
   0  -3  -8 2943.61  137.59
   0  -3  -8 3101.89  158.88
   0   3   8 3045.90  146.49
   0   3   8 3365.86  169.48
  -1  -3  -8 1916.31  107.59
  -1  -3  -8 1773.42  122.39
   1   3   8 1649.93  103.19
   1   3   8 1913.61  107.19
   1   3   8 1789.02  117.29
  -2  -3  -8  942.31   90.89
  -2  -3  -8 1045.50   67.49
   2   3   8  929.91   67.79
   2   3   8  981.10   89.49
   2   3   8  918.71   79.19
  -3  -3  -8 1528.15  126.89
   3   3   8 1790.82  131.29
   3   3   8 1566.74  119.39
  -4  -3  -8 1446.56  131.69
   4   3   8 1601.24  134.19
   4   3   8 1411.06  121.39
  -5  -3  -8 1588.04  152.38
   5   3   8 1467.65  141.39
   5   3   8 1749.62  144.39
   6  -4  -8  826.62  115.59
  -6   4   8  697.23   97.59
  -6   4   8  858.51   78.89
  -6   4   8  764.42   75.09
   5  -4  -8  827.52   82.99
  -5   4   8  923.51   91.49
  -5   4   8  886.21   71.69
   4  -4  -8  548.65   84.79
   4  -4  -8  645.44   69.69
  -4   4   8  480.75   49.80
  -4   4   8  481.65   73.59
   3  -4  -8  418.66   72.49
   3  -4  -8  326.77   41.90
   3  -4  -8  363.96   57.39
  -3   4   8  322.17   59.09
  -3   4   8  367.06   42.90
   2  -4  -8  466.35   64.79
   2  -4  -8  380.16   41.90
   2  -4  -8  516.85   78.49
  -2   4   8  549.95   45.70
  -2   4   8  510.95   70.99
   1  -4  -8  276.37   52.79
   1  -4  -8  154.98   37.80
   1  -4  -8  189.48   44.20
  -1   4   8  397.26   60.19
  -1   4   8  297.17   37.60
   0  -4  -8  168.18   41.80
   0  -4  -8  124.69   38.00
   0  -4  -8  100.09   28.20
   0   4   8   78.79   27.30
   0   4   8   36.10   18.90
  -1  -4  -8  249.97   45.00
  -1  -4  -8  176.28   49.10
   1   4   8  182.68   45.20
   1   4   8  171.98   34.40
  -2  -4  -8    6.80   29.90
   2   4   8   36.70   32.20
   2   4   8   26.40   38.60
   2   4   8  -15.20   21.30
   2   4   8   10.60   20.90
  -3  -4  -8  -23.20   33.90
   3   4   8   17.60   14.30
   3   4   8   60.69   35.80
  -4  -4  -8    3.80   42.70
   4   4   8    9.60   40.20
   4   4   8   58.39   41.10
   6  -5  -8  830.62   97.59
   6  -5  -8  850.21  128.69
  -6   5   8  719.23   74.89
  -6   5   8  702.53   95.49
   5  -5  -8 1176.38  128.49
   5  -5  -8 1249.88  109.39
  -5   5   8 1213.68  110.79
  -5   5   8 1273.27   83.09
   4  -5  -8 1497.95  117.79
  -4   5   8 1120.69   92.79
  -4   5   8 1412.16  113.29
  -4   5   8 1202.98   75.79
   3  -5  -8 1060.09   98.39
   3  -5  -8 1141.29  113.19
  -3   5   8  842.92   60.09
  -3   5   8  892.31   89.59
  -3   5   8  895.11   69.79
   2  -5  -8 1712.93  121.99
   2  -5  -8 1533.95   77.89
   2  -5  -8 1626.04  130.59
  -2   5   8 1728.83  120.39
  -2   5   8 1604.04   85.19
   1  -5  -8 1769.62   91.39
   1  -5  -8 1967.10  133.49
   1  -5  -8 2070.49  138.39
  -1   5   8 1809.62   94.69
  -1   5   8 1996.90  132.49
   0  -5  -8 1684.73  116.39
   0  -5  -8 1276.27   83.59
   0  -5  -8 1495.95  124.99
   0   5   8 1541.05  117.99
   0   5   8 1523.25   90.29
   0   5   8 1498.15  110.49
  -1  -5  -8  965.50  102.99
   1   5   8 1224.48   91.19
   1   5   8 1171.08  109.89
   1   5   8 1207.98   85.59
  -2  -5  -8 1236.28  125.39
   2   5   8 1284.17  102.19
   2   5   8 1388.36   92.29
   2   5   8 1478.75  104.59
  -3  -5  -8 1193.58  129.89
   3   5   8 1235.58   68.19
   3   5   8 1181.28  119.79
   3   5   8 1589.74  120.29
  -4  -5  -8  847.72  119.59
   4   5   8  777.52  123.09
   4   5   8  912.91  112.69
   5  -6  -8   84.99   53.59
   5  -6  -8   38.80   56.19
  -5   6   8   -5.00   28.60
  -5   6   8   81.39   53.89
  -5   6   8   78.99   50.39
   4  -6  -8   14.90   47.80
   4  -6  -8    5.70   41.70
  -4   6   8  -16.10   34.10
  -4   6   8   12.10   22.90
   3  -6  -8   24.50   44.60
   3  -6  -8   -7.50   40.00
  -3   6   8  -41.50   25.40
  -3   6   8   -3.90   17.80
  -3   6   8  -21.10   30.40
   2  -6  -8   74.59   43.90
   2  -6  -8   96.29   48.20
  -2   6   8  167.18   25.60
  -2   6   8  133.39   40.50
  -2   6   8  146.99   44.70
   1  -6  -8  467.15   39.60
   1  -6  -8  508.05   83.09
  -1   6   8  374.66   71.49
  -1   6   8  491.45   79.79
  -1   6   8  449.46   42.50
   0  -6  -8  478.05   85.19
   0  -6  -8  338.07   41.40
   0   6   8  329.27   64.99
   0   6   8  415.76   67.89
   0   6   8  431.36   48.90
  -1  -6  -8  355.66   81.09
   1   6   8  410.46   79.39
   1   6   8  388.06   54.49
   1   6   8  411.76   65.69
  -2  -6  -8  336.07   85.79
   2   6   8  272.17   50.49
   2   6   8  250.07   54.49
   2   6   8  250.07   66.79
  -3  -6  -8  359.16   84.29
   3   6   8  324.47   78.59
   3   6   8  362.76   55.29
   3   6   8  388.66   69.69
   3  -7  -8  531.95  132.29
  -3   7   8  498.55   81.69
  -3   7   8  598.14  104.69
  -2   7   8  619.24   99.09
  -2   7   8  824.32  105.39
   1  -7  -8  328.27   78.39
  -1   7   8  395.76   77.79
  -1   7   8  340.27  102.49
   0  -7  -8   79.19   60.79
   0   7   8  200.08   64.19
   0   7   8  212.98   59.79
  -1  -7  -8  619.84  112.69
   1   7   8  386.16   81.49
   1   7   8  520.95   60.79
   1   7   8  500.05   79.09
   2   9  -9   70.59   51.09
  -2  -9   9   66.39   39.00
  -2  -9   9   29.70   26.50
  -2  -9   9   56.59   51.39
   1   9  -9   37.90   54.39
  -1  -9   9   32.90   38.10
  -1  -9   9   80.49   60.69
   0   9  -9   97.09   51.69
   0  -9   9   73.49   56.79
   0  -9   9   67.99   41.50
  -1   9  -9   82.79   49.20
   1  -9   9   12.70   47.30
   1  -9   9   62.99   40.50
   4   8  -9 1415.96  134.99
   4   8  -9 1197.78  111.99
  -4  -8   9 1271.07  125.49
  -4  -8   9 1158.88  106.09
   3   8  -9 1380.76  129.99
   3   8  -9 1511.55  105.69
  -3  -8   9 1354.66  126.49
  -3  -8   9 1565.64  109.99
  -3  -8   9 1521.45   96.39
   2   8  -9  954.00  105.09
  -2  -8   9  794.92   55.79
  -2  -8   9  738.93   78.79
  -2  -8   9  813.82   78.09
  -2  -8   9  760.62   99.29
   1   8  -9 1167.58  113.69
  -1  -8   9  873.91  111.39
  -1  -8   9 1279.77   92.89
   0   8  -9  956.40  102.99
   0  -8   9  836.82  109.09
   0  -8   9 1133.19   87.59
  -1   8  -9  829.02  105.89
   1  -8   9  802.92  116.19
   1  -8   9  853.01   80.99
  -2   8  -9  233.08   59.29
   2  -8   9  426.86   90.09
   2  -8   9  337.67   54.69
  -3   8  -9  205.88   63.59
   3  -8   9  336.17   81.19
   3  -8   9  402.96   65.59
   5   7  -9   61.99   59.99
  -5  -7   9  189.08   52.49
  -5  -7   9  230.48   56.39
   4   7  -9  692.23  102.89
   4   7  -9  780.02   85.19
  -4  -7   9  780.62   89.79
  -4  -7   9  747.43   90.49
   3   7  -9  840.92  104.59
   3   7  -9  909.51   79.49
  -3  -7   9 1038.30   97.29
  -3  -7   9  946.21   74.59
  -3  -7   9  983.30   83.79
   2   7  -9  601.34   88.09
  -2  -7   9  622.84   63.49
  -2  -7   9  552.64   60.49
  -2  -7   9  601.74   48.70
  -2  -7   9  695.03   88.09
   1   7  -9 1090.89  102.59
  -1  -7   9 1249.07  107.69
  -1  -7   9 1208.28   87.99
  -1  -7   9 1070.49   45.40
  -1  -7   9 1082.49   45.20
   0   7  -9 1155.48  102.99
   0  -7   9 1252.67  111.99
   0  -7   9 1145.99   85.99
  -1   7  -9 1501.55  118.39
   1  -7   9 1581.54  106.49
   1  -7   9 1744.33  138.69
  -2   7  -9 1462.65  122.99
   2  -7   9 1754.42  144.69
   2  -7   9 1438.16  104.29
  -3   7  -9 1072.49  105.49
   3  -7   9  971.40   91.29
   3  -7   9  992.50  124.69
  -4   7  -9  998.80  109.09
  -4   7  -9 1248.98  124.69
   4  -7   9 1296.47  113.99
   6   6  -9  509.75   92.29
   6   6  -9  413.46   81.29
  -6  -6   9  264.27   58.69
  -6  -6   9  282.27   62.39
   5   6  -9  159.98   48.60
   5   6  -9  192.68   57.39
  -5  -6   9  236.38   52.49
  -5  -6   9  120.79   41.30
   4   6  -9  201.28   58.39
   4   6  -9  319.87   57.89
  -4  -6   9  279.77   53.29
  -4  -6   9  245.68   48.10
   3   6  -9  285.27   55.69
   3   6  -9  441.96   77.29
  -3  -6   9  215.08   42.80
  -3  -6   9  219.18   43.00
   2   6  -9  300.97   57.79
  -2  -6   9  374.76   53.59
  -2  -6   9  309.97   54.29
  -2  -6   9  306.67   46.60
  -2  -6   9  355.36   37.80
   1   6  -9   88.29   34.30
  -1  -6   9   57.99   23.50
  -1  -6   9   71.89   34.80
  -1  -6   9   93.49   16.20
  -1  -6   9   59.09   17.00
   0   6  -9  269.87   55.29
   0  -6   9  196.08   39.40
   0  -6   9  162.98   34.20
  -1   6  -9   92.59   36.80
   1  -6   9   74.39   27.90
   1  -6   9   90.79   39.60
  -2   6  -9   25.70   26.80
   2  -6   9   59.79   29.90
   2  -6   9   12.80   32.20
  -3   6  -9  111.89   40.80
  -3   6  -9  130.49   43.30
   3  -6   9  122.09   53.09
   3  -6   9  109.59   40.70
  -4   6  -9  223.98   62.19
  -4   6  -9  228.88   58.29
   4  -6   9  154.48   51.29
   6   5  -9  819.82  110.39
   6   5  -9 1103.39  117.79
  -6  -5   9 1169.18   87.49
  -6  -5   9 1004.30   98.69
   5   5  -9 1078.29  109.89
   5   5  -9  907.91   97.99
   5   5  -9 1098.89   86.49
  -5  -5   9 1208.18   98.39
  -5  -5   9  975.40   76.49
   4   5  -9 1283.07  113.09
   4   5  -9 1210.58   98.19
   4   5  -9 1186.98   84.29
  -4  -5   9 1371.36   86.89
  -4  -5   9 1244.08   97.29
   3   5  -9 1887.81  130.99
   3   5  -9 1637.04   98.49
  -3  -5   9 1845.12  110.79
  -3  -5   9 1908.91  103.59
  -3  -5   9 1706.23  104.29
   2   5  -9 2669.23  137.49
   2   5  -9 2905.71  161.78
  -2  -5   9 2599.14  155.78
  -2  -5   9 2905.51  130.99
  -2  -5   9 3063.39  148.09
  -2  -5   9 3140.19  152.08
   1   5  -9 1969.90  126.99
  -1  -5   9 1992.10   90.59
  -1  -5   9 2184.78  118.39
  -1  -5   9 2145.69  123.69
  -1  -5   9 1995.70   92.39
   0   5  -9 1905.51  125.19
   0  -5   9 1695.73  109.89
   0  -5   9 1693.93  100.19
   0  -5   9 1345.97   55.59
  -1   5  -9 1330.67  100.89
   1  -5   9 1344.07  106.19
   1  -5   9 1446.56   95.59
  -2   5  -9 1924.71  129.09
  -2   5  -9 1929.51  124.89
   2  -5   9 1642.44  129.59
   2  -5   9 1966.30  120.89
  -3   5  -9 1265.87  109.69
  -3   5  -9 1205.08   96.89
   3  -5   9 1190.38   98.29
  -4   5  -9  824.52   80.59
  -4   5  -9  732.13  101.09
  -4   5  -9  838.32   53.89
   4  -5   9  750.92   52.79
   4  -5   9  750.32   93.69
  -5   5  -9  357.96   68.19
  -5   5  -9  402.16   82.59
   5  -5   9  429.76   55.99
   5  -5   9  620.44   95.99
   7   4  -9  -11.30   49.20
   6   4  -9  119.49   49.80
   6   4  -9   65.19   46.00
  -6  -4   9   82.89   26.70
  -6  -4   9  104.29   40.40
   5   4  -9   16.10   40.10
   5   4  -9    8.00   19.20
   5   4  -9   -3.40   24.90
  -5  -4   9  -11.80   21.50
  -5  -4   9   16.30   19.30
  -5  -4   9   15.70   25.00
   4   4  -9  226.28   31.80
   4   4  -9  222.98   48.80
  -4  -4   9  292.47   52.29
  -4  -4   9  286.77   48.60
  -4  -4   9  296.17   37.70
   3   4  -9  836.42   81.19
   3   4  -9  754.22   53.99
  -3  -4   9  954.60   74.79
  -3  -4   9  880.41   60.69
  -3  -4   9  911.21   67.39
   2   4  -9 1095.09   90.99
   2   4  -9 1006.00   66.79
  -2  -4   9 1025.40   67.99
  -2  -4   9 1080.49   66.09
  -2  -4   9  909.61   71.29
  -2  -4   9 1060.79   75.29
   1   4  -9  967.40   79.69
   1   4  -9  904.31   73.39
  -1  -4   9  941.11   70.89
  -1  -4   9  908.41   55.19
  -1  -4   9  920.91   60.09
  -1  -4   9 1021.30   73.09
   0   4  -9  891.71   75.29
   0   4  -9  821.12   76.19
   0  -4   9  880.01   71.69
   0  -4   9  805.62   65.59
   0  -4   9  783.12   46.80
   0  -4   9  792.22   45.40
  -1   4  -9 1163.98   86.69
  -1   4  -9 1398.56   96.39
   1  -4   9 1150.38   91.39
   1  -4   9 1226.58   55.09
   1  -4   9 1061.99   81.29
  -2   4  -9 2638.94  141.79
  -2   4  -9 2263.27   98.69
  -2   4  -9 2626.54  146.19
   2  -4   9 2338.97  135.59
   2  -4   9 2400.76   99.29
  -3   4  -9 1660.43   85.29
  -3   4  -9 1644.34  121.49
  -3   4  -9 1850.11  114.19
   3  -4   9 1953.00  126.39
   3  -4   9 1772.92   90.19
  -4   4  -9 1120.69  108.09
  -4   4  -9 1062.59   87.09
  -4   4  -9 1051.49   75.89
   4  -4   9 1189.58  105.39
   4  -4   9 1160.98   81.49
  -5   4  -9 1316.67  130.39
  -5   4  -9 1161.38   94.29
   5  -4   9 1330.47  124.89
   5  -4   9 1197.78  113.19
   7   3  -9  731.03  103.89
   7   3  -9  891.21  125.59
  -7  -3   9  997.80  105.79
  -7  -3   9 1070.19  101.39
   6   3  -9  407.76  107.69
   6   3  -9  718.23  100.99
  -6  -3   9  669.23   37.60
  -6  -3   9  518.75   73.29
  -6  -3   9  579.14   87.79
   5   3  -9 1269.87  111.49
  -5  -3   9 1181.88   92.49
  -5  -3   9 1163.98   44.20
  -5  -3   9 1136.89   43.90
  -5  -3   9 1091.39   90.39
   4   3  -9  926.91   90.69
  -4  -3   9  963.00   77.79
  -4  -3   9 1135.39   46.70
  -4  -3   9 1140.89   85.99
   3   3  -9 1421.06  110.19
  -3  -3   9 1727.83   76.19
  -3  -3   9 1870.71  106.69
  -3  -3   9 1679.73   98.99
   2   3  -9 1148.89   62.59
   2   3  -9 1088.09   88.09
  -2  -3   9 1292.57   83.79
  -2  -3   9 1391.06   79.99
  -2  -3   9 1401.26   72.69
  -2  -3   9 1296.47   84.39
   1   3  -9  843.02   61.89
   1   3  -9  781.82   53.39
   1   3  -9  949.90   88.59
  -1  -3   9  793.32   57.19
  -1  -3   9  776.92   58.49
  -1  -3   9  767.02   52.49
  -1  -3   9  798.02   69.19
   0   3  -9  636.54   53.29
   0   3  -9  700.93   66.49
   0   3  -9  682.83   45.40
   0   3  -9  791.52   67.29
   0  -3   9  854.51   80.99
   0  -3   9  783.22   49.40
  -1   3  -9  754.22   48.20
  -1   3  -9  639.14   60.79
  -1   3  -9  623.34   59.59
   1  -3   9  615.94   44.80
   1  -3   9  659.73   59.59
  -2   3  -9  224.28   43.20
  -2   3  -9  194.98   38.40
  -2   3  -9  250.07   33.70
   2  -3   9  219.98   31.70
   2  -3   9  166.78   41.80
  -3   3  -9   11.60   24.20
  -3   3  -9   48.10   25.00
  -3   3  -9   15.20   19.60
   3  -3   9   40.30   24.90
   3  -3   9  -47.90   20.10
  -4   3  -9   -9.30   32.40
  -4   3  -9   36.50   27.30
   4  -3   9   12.60   28.00
   4  -3   9    3.40   30.20
  -5   3  -9   29.20   28.20
  -5   3  -9   11.50   38.90
   5  -3   9  110.69   42.40
   5  -3   9   10.90   39.50
   7   2  -9  894.91  112.79
  -7  -2   9  837.22  110.09
  -7  -2   9  635.34   82.89
   6   2  -9  914.31  113.59
  -6  -2   9  830.12   84.99
  -6  -2   9  694.23   92.99
   5   2  -9 1381.26  114.89
  -5  -2   9 1412.46  102.99
  -5  -2   9 1399.56  100.59
   4   2  -9 2121.09  142.49
  -4  -2   9 1993.70  117.69
  -4  -2   9 1964.80  116.29
   3   2  -9 2567.24  150.78
  -3  -2   9 2436.46  128.39
  -3  -2   9 2425.06  132.09
   2   2  -9 2734.53  111.19
   2   2  -9 2777.12  108.19
   2   2  -9 3388.46  234.98
  -2  -2   9 2918.71  145.79
  -2  -2   9 2969.80  138.39
   1   2  -9 2590.94  142.59
   1   2  -9 2578.84  112.69
   1   2  -9 2559.34  118.29
   1   2  -9 2506.35  116.99
  -1  -2   9 3013.10  134.19
  -1  -2   9 2842.42  140.09
   0   2  -9 2364.06  133.89
   0   2  -9 2669.23  124.89
   0   2  -9 2614.64  117.29
   0   2  -9 2483.75  130.19
   0  -2   9 2425.76  114.19
   0  -2   9 2625.24  129.79
   0  -2   9 2340.47  145.49
  -1   2  -9 3525.15  169.48
  -1   2  -9 3499.45  151.98
  -1   2  -9 3644.04  170.08
   1  -2   9 3186.08  141.39
   1  -2   9 3170.28  154.48
   1  -2   9 3373.76  161.38
  -2   2  -9 1774.92  116.69
  -2   2  -9 1724.23   96.69
  -2   2  -9 1963.70  107.69
   2  -2   9 1671.33  102.89
   2  -2   9 1984.60  101.39
   2  -2   9 1727.13  112.89
  -3   2  -9 1575.34   95.19
  -3   2  -9 1718.73  121.69
   3  -2   9 1616.84  116.49
   3  -2   9 1940.21  108.29
   3  -2   9 1705.33  101.29
  -4   2  -9 1499.55  124.89
  -4   2  -9 1399.66   88.29
   4  -2   9 1290.67   85.09
   4  -2   9 1233.08  107.69
  -5   2  -9 1186.18   74.89
  -5   2  -9 1091.09  120.89
   5  -2   9 1312.07  124.69
   5  -2   9  986.50  126.19
   7   1  -9  114.89   58.79
  -7  -1   9   47.60   34.20
  -7  -1   9   74.09   35.10
   6   1  -9   11.90   40.00
  -6  -1   9   75.89   33.30
  -6  -1   9   71.49   34.70
   5   1  -9  111.29   46.40
  -5  -1   9   71.39   25.30
  -5  -1   9  109.99   30.80
   4   1  -9   43.20   26.10
  -4  -1   9    2.20   15.00
  -4  -1   9   72.49   26.70
   3   1  -9   92.09   36.70
  -3  -1   9   75.79   21.40
  -3  -1   9   65.49   23.20
   2   1  -9  292.17   20.60
   2   1  -9  316.17   58.39
   2   1  -9  321.67   20.40
   2   1  -9  374.76   48.40
  -2  -1   9  287.07   41.70
  -2  -1   9  423.76   61.09
  -2  -1   9  298.57   40.70
   1   1  -9  287.67   41.70
   1   1  -9  275.67   28.90
   1   1  -9  273.27   35.30
   1   1  -9  281.07   49.60
  -1  -1   9  227.98   38.00
  -1  -1   9  286.47   40.30
   0   1  -9   56.39   20.60
   0   1  -9   88.79   27.30
   0   1  -9   65.19   21.10
   0   1  -9  114.29   28.40
   0  -1   9   86.19   23.70
   0  -1   9   55.99   25.80
   0  -1   9   11.80   12.80
  -1   1  -9  816.02   62.89
  -1   1  -9  956.70   72.09
  -1   1  -9  968.80   73.19
  -1   1  -9  851.91   80.29
   1  -1   9  795.22   67.39
   1  -1   9 1048.50   75.19
   1  -1   9  906.71   65.79
  -2   1  -9 1040.60   72.79
  -2   1  -9  934.61   82.59
   2  -1   9 1102.89   87.29
   2  -1   9 1080.29   84.09
   2  -1   9 1220.48   82.39
  -3   1  -9  406.26   69.19
  -3   1  -9  525.45   49.70
   3  -1   9  586.04   77.69
   3  -1   9  586.74   63.29
   3  -1   9  584.14   52.39
  -4   1  -9  658.23   49.20
  -4   1  -9  626.74   90.89
   4  -1   9  684.13   77.29
   4  -1   9  817.62   87.39
  -5   1  -9  975.80  126.29
   5  -1   9 1346.97  153.48
   5  -1   9  987.50  108.49
   7   0  -9 1085.59  172.88
  -7   0   9  782.82   81.79
  -7   0   9  814.12  109.39
   6   0  -9  919.01  103.19
  -6   0   9 1018.30   97.59
  -6   0   9 1038.40   90.29
   5   0  -9 1243.68  111.99
  -5   0   9 1507.75  101.79
  -5   0   9 1464.05  108.99
   4   0  -9 1221.78  103.59
  -4   0   9 1103.59   86.29
  -4   0   9 1210.78   83.19
   3   0  -9 1199.18   97.69
  -3   0   9 1179.78   84.99
  -3   0   9 1312.97   81.89
   2   0  -9 1131.79   55.79
   2   0  -9 1186.98   54.19
  -2   0   9 1054.49   71.79
  -2   0   9 1076.49   76.59
   1   0  -9 1481.35  100.29
   1   0  -9 1518.15   79.19
  -1   0   9 1284.77   71.29
  -1   0   9 1401.26   86.99
  -1   0   9 1420.16   85.89
   0   0  -9 2396.36  132.69
   0   0  -9 2615.94  137.29
   0   0  -9 2731.13  128.09
   0   0   9 2641.64  129.99
   0   0   9 2551.04  128.99
   0   0   9 2402.86  127.89
   0   0   9 2518.45  123.69
  -1   0  -9  125.59   27.00
  -1   0  -9  189.88   34.40
   1   0   9  170.98   35.70
   1   0   9  164.98   30.70
  -2   0  -9  703.13   56.09
  -2   0  -9  776.42   75.69
   2   0   9  667.63   63.19
   2   0   9  688.43   55.59
   2   0   9  776.92   70.09
  -3   0  -9  372.76   39.20
  -3   0  -9  457.45   68.79
   3   0   9  397.16   63.69
   3   0   9  483.35   68.19
   3   0   9  344.57   38.70
  -4   0  -9   89.49   41.30
   4   0   9  102.69   41.60
   4   0   9   95.59   33.40
  -5   0  -9  102.39   46.10
   5   0   9   23.30   35.00
   5   0   9   87.19   41.90
   7  -1  -9  241.68   62.29
  -7   1   9  170.38   47.40
  -7   1   9  285.97   64.79
   6  -1  -9  435.36   83.19
  -6   1   9  332.57   57.49
   5  -1  -9  770.22   97.89
  -5   1   9  913.71   84.69
  -5   1   9  956.90   77.09
   4  -1  -9  632.84   86.29
  -4   1   9  846.32   66.79
  -4   1   9  794.72   75.19
   3  -1  -9  821.02   40.00
   3  -1  -9  785.62   81.39
  -3   1   9  686.53   65.89
  -3   1   9  676.73   36.30
  -3   1   9  797.52   64.59
   2  -1  -9 2451.35  147.09
   2  -1  -9 2622.14  110.69
  -2   1   9 2450.35  106.89
  -2   1   9 2546.75  123.89
  -2   1   9 2409.86  133.19
   1  -1  -9 2448.85  117.29
   1  -1  -9 2433.26  139.49
  -1   1   9 2331.97  111.89
  -1   1   9 2309.27  117.89
   0  -1  -9 1857.71  106.39
   0  -1  -9 1913.81  112.89
   0   1   9 2209.28  115.99
   0   1   9 2088.99  114.79
   0   1   9 2157.88  120.69
   0   1   9 2089.99  135.89
  -1  -1  -9 2229.68  140.79
  -1  -1  -9 2101.09  115.69
   1   1   9 1951.70  115.69
   1   1   9 2056.19  119.09
  -2  -1  -9 3060.79  144.59
  -2  -1  -9 3554.44  182.38
   2   1   9 2843.52  152.78
   2   1   9 2699.53  124.79
   2   1   9 2851.11  154.78
  -3  -1  -9 1777.02  130.09
  -3  -1  -9 1857.21   85.39
   3   1   9 1901.91  129.99
   3   1   9 1915.61  128.79
   3   1   9 1859.11   81.79
  -4  -1  -9 1644.54  134.69
   4   1   9 1679.53  130.39
   4   1   9 1692.73  131.69
  -5  -1  -9 1596.04  147.39
   5   1   9 1328.77  127.99
   5   1   9 1523.35  134.89
   7  -2  -9  380.16   80.79
  -7   2   9  494.15   82.39
  -7   2   9  546.55   80.19
   6  -2  -9  373.46  118.89
  -6   2   9  475.75   67.39
  -6   2   9  412.36   67.99
   5  -2  -9  234.28   57.99
  -5   2   9  171.98   43.60
  -5   2   9  230.28   43.90
  -5   2   9  204.38   23.60
  -5   2   9  188.78   24.90
   4  -2  -9   90.89   42.40
   4  -2  -9  112.79   22.30
  -4   2   9   43.30   22.20
  -4   2   9   45.00   16.40
  -4   2   9  109.79   27.70
   3  -2  -9  166.18   46.20
   3  -2  -9  151.18   26.90
  -3   2   9   84.89   20.50
  -3   2   9   82.09   28.90
  -3   2   9   93.59   29.90
   2  -2  -9   84.49   24.30
   2  -2  -9   99.19   32.50
  -2   2   9   68.69   20.70
  -2   2   9   81.49   28.50
  -2   2   9   74.49   21.80
   1  -2  -9   26.60   26.00
   1  -2  -9   75.59   30.90
   1  -2  -9   62.89   25.30
  -1   2   9   30.90   18.70
  -1   2   9   49.80   24.10
  -1   2   9   46.10   17.50
   0  -2  -9   52.79   25.30
   0  -2  -9   47.90   27.10
   0   2   9   84.09   25.00
   0   2   9   47.70   23.20
  -1  -2  -9  164.38   33.30
  -1  -2  -9   93.59   30.60
   1   2   9  168.08   38.00
   1   2   9  176.78   42.40
   1   2   9  115.89   33.20
  -2  -2  -9   34.50   32.20
  -2  -2  -9   60.09   25.20
   2   2   9   49.30   27.90
   2   2   9   85.09   27.20
   2   2   9   40.50   25.40
  -3  -2  -9  295.37   66.89
   3   2   9  220.98   51.69
   3   2   9  292.97   28.20
   3   2   9  291.67   56.99
   3   2   9  243.68   23.40
  -4  -2  -9  538.35   93.69
   4   2   9  557.34  107.69
   4   2   9  397.66   72.79
  -5  -2  -9  395.06   87.69
   5   2   9  372.76   82.69
   5   2   9  399.66   80.69
   6  -3  -9  988.50  130.69
  -6   3   9  898.51   63.79
  -6   3   9  936.51   83.89
  -6   3   9  737.23   96.99
   5  -3  -9 1467.95   90.09
   5  -3  -9 1600.04  136.09
  -5   3   9 1555.44  100.19
  -5   3   9 1451.65   85.39
  -5   3   9 1574.74  121.09
   4  -3  -9 1072.49   76.19
   4  -3  -9 1103.69  107.49
  -4   3   9 1133.09   95.89
  -4   3   9  995.30   73.69
  -4   3   9 1065.49   70.89
   3  -3  -9 2300.87  152.68
   3  -3  -9 2184.58  118.39
  -3   3   9 2371.36  119.99
  -3   3   9 2389.06  144.69
   2  -3  -9 2513.85  131.89
   2  -3  -9 2816.52  162.48
   2  -3  -9 2213.08  115.39
  -2   3   9 2500.75  120.79
  -2   3   9 2388.76  143.59
  -2   3   9 2374.16  123.59
   1  -3  -9 1769.82  110.69
   1  -3  -9 1522.65   92.79
   1  -3  -9 1789.62  121.39
  -1   3   9 1666.93  113.89
  -1   3   9 1718.13   96.49
   0  -3  -9 1276.07   97.89
   0   3   9 1360.06  102.49
   0   3   9 1408.66   89.19
  -1  -3  -9 1854.11  128.19
  -1  -3  -9 1916.61  113.49
   1   3   9 1771.32  106.89
   1   3   9 1472.95  103.19
   1   3   9 1657.13  116.79
  -2  -3  -9  912.31  114.09
  -2  -3  -9 1074.89   73.29
   2   3   9 1095.69   75.29
   2   3   9 1125.09   99.29
   2   3   9 1050.59   89.19
  -3  -3  -9  766.82  105.29
   3   3   9  620.74   85.59
   3   3   9  748.83   36.70
   3   3   9  751.62   35.70
   3   3   9  928.51   88.99
  -4  -3  -9  397.76   79.79
   4   3   9  261.47   63.19
   4   3   9  511.35   86.09
   6  -4  -9   53.69   52.79
  -6   4   9   61.19   36.90
  -6   4   9   63.19   39.10
  -6   4   9  121.09   38.10
   5  -4  -9  242.48   67.59
   5  -4  -9  249.08   48.00
  -5   4   9  239.88   51.79
  -5   4   9  214.98   41.20
   4  -4  -9  340.87   75.79
   4  -4  -9  331.07   55.19
  -4   4   9  212.18   49.60
  -4   4   9  270.07   43.10
   3  -4  -9  209.78   48.90
   3  -4  -9  262.77   62.19
  -3   4   9  121.89   40.50
  -3   4   9  226.48   37.70
   2  -4  -9  742.33   61.19
   2  -4  -9  859.91   92.19
   2  -4  -9  953.30   80.79
  -2   4   9  817.42   82.49
  -2   4   9  814.52   60.29
   1  -4  -9  903.71   87.69
   1  -4  -9  807.12   66.49
   1  -4  -9  959.50   85.89
  -1   4   9  966.30   89.79
  -1   4   9  991.00   69.99
   0  -4  -9  707.63   91.49
   0  -4  -9  647.34   72.89
   0   4   9  658.83   59.09
   0   4   9  695.73   88.99
  -1  -4  -9  591.34   87.79
   1   4   9  747.83   95.79
   1   4   9  753.22   69.19
  -2  -4  -9  959.90  101.99
   2   4   9  749.73   62.59
   2   4   9  585.04   79.79
   2   4   9  635.14   65.59
   2   4   9  793.22   79.09
  -3  -4  -9 1364.56  131.99
   3   4   9 1209.68  120.39
   3   4   9 1423.56  117.29
   3   4   9 1348.07   60.79
  -4  -4  -9 1271.47  135.29
   4   4   9 1210.58  121.49
   4   4   9 1266.07  129.29
   5  -5  -9  431.86   89.29
   5  -5  -9  452.15   76.19
  -5   5   9  451.15   55.69
  -5   5   9  375.96   74.59
   4  -5  -9  450.85   85.19
   4  -5  -9  463.75   71.99
  -4   5   9  332.07   89.59
  -4   5   9  366.96   46.10
   3  -5  -9  316.87   69.49
   3  -5  -9  395.76   64.49
   3  -5  -9  328.97   43.30
  -3   5   9  336.17   41.30
  -3   5   9  349.07   65.49
   2  -5  -9  104.49   42.60
   2  -5  -9  125.59   45.60
  -2   5   9  170.58   49.00
  -2   5   9  120.19   30.40
   1  -5  -9  132.69   47.20
   1  -5  -9  143.89   34.60
   1  -5  -9  140.09   47.10
  -1   5   9  231.58   55.69
  -1   5   9  156.28   34.10
   0  -5  -9  393.86   68.79
   0  -5  -9  415.96   77.29
   0   5   9  274.57   57.79
   0   5   9  338.47   46.60
  -1  -5  -9  147.59   51.39
   1   5   9   49.60   30.20
   1   5   9    3.20   31.80
  -2  -5  -9   27.20   45.20
   2   5   9   75.29   43.30
   2   5   9   20.00   29.60
   2   5   9   14.00   32.50
  -3  -5  -9   31.90   58.59
   3   5   9   64.79   41.50
   3   5   9   40.50   43.90
   3   5   9   59.29   47.00
   4  -6  -9  492.95   85.99
   4  -6  -9  872.71  127.19
  -4   6   9  474.85   80.49
  -4   6   9  534.25   54.59
   3  -6  -9 1050.19  119.09
   3  -6  -9  933.61  126.19
  -3   6   9  846.72  109.19
  -3   6   9  938.71   60.59
   2  -6  -9 1229.48  124.49
   2  -6  -9 1467.45  146.09
   2  -6  -9 1269.17   69.89
  -2   6   9 1324.57   74.59
  -2   6   9 1310.07  119.49
   1  -6  -9  933.41  115.09
   1  -6  -9  854.91   63.69
  -1   6   9  811.12  103.89
  -1   6   9  910.31   64.39
  -1   6   9  971.00  101.19
   0  -6  -9  979.60  150.98
   0   6   9 1480.05  127.69
   0   6   9 1211.78  111.49
   0   6   9 1344.97   88.69
  -1  -6  -9  874.31  124.09
   1   6   9  790.42  109.59
   1   6   9  927.11   93.99
   1   6   9  821.42   78.29
  -2  -6  -9  868.31  131.09
   2   6   9  713.93  107.89
   2   6   9  990.60   88.69
   2   6   9  741.53   88.69
   2  -7  -9    5.00   58.99
  -2   7   9   53.39   44.30
  -2   7   9   64.29   46.60
   1  -7  -9  280.17   71.29
  -1   7   9   89.79   46.30
  -1   7   9   93.29   57.49
   0  -7  -9  442.66  101.89
   0   7   9  382.16   76.49
   0   7   9  378.76   76.39
   1   9 -10 1023.30  130.89
  -1  -9  10 1251.37  135.89
  -1  -9  10 1169.78   99.29
   0   9 -10 1364.86  134.49
   0  -9  10 1238.98  139.39
   0  -9  10 1336.57  106.39
   3   8 -10   21.90   42.90
  -3  -8  10   50.29   31.60
  -3  -8  10    5.70   42.40
  -3  -8  10    8.00   36.60
   2   8 -10   -3.80   40.50
  -2  -8  10  -29.10   20.10
  -2  -8  10   29.60   36.80
  -2  -8  10    2.60   39.30
   1   8 -10  171.88   55.19
  -1  -8  10  155.78   45.40
  -1  -8  10  213.68   57.89
   0   8 -10  323.37   73.19
   0  -8  10  219.58   49.00
   0  -8  10  114.59   52.19
  -1   8 -10   48.60   44.70
   1  -8  10    3.50   38.20
   1  -8  10   70.79   51.99
  -2   8 -10   99.99   51.39
   2  -8  10   77.49   52.19
   2  -8  10  183.28   49.80
   5   7 -10 1247.28  140.49
  -5  -7  10 1326.07  112.09
  -5  -7  10 1030.10  103.49
   4   7 -10 1326.87  127.59
  -4  -7  10 1251.47  104.99
  -4  -7  10 1220.88   92.69
  -4  -7  10 1235.98  101.99
   3   7 -10 1186.58  126.69
  -3  -7  10 1238.58  104.69
  -3  -7  10 1127.09   81.39
  -3  -7  10 1152.78   92.89
   2   7 -10 1159.48  108.79
  -2  -7  10 1086.19   99.69
  -2  -7  10 1017.60   64.19
  -2  -7  10 1108.19   89.29
  -2  -7  10  924.21   72.29
   1   7 -10 1049.49  104.09
  -1  -7  10 1255.07   92.19
  -1  -7  10 1009.00  102.49
   0   7 -10 1056.19  102.99
   0  -7  10  915.41   80.49
   0  -7  10  926.11   97.79
  -1   7 -10 1219.28  112.79
   1  -7  10 1110.19  117.59
   1  -7  10 1207.98   95.59
  -2   7 -10  256.67   60.89
   2  -7  10  339.07   63.29
   2  -7  10  306.47   71.89
  -3   7 -10  264.97   58.69
  -3   7 -10  384.76   80.39
   3  -7  10  276.97   71.49
   3  -7  10  355.76   68.39
   5   6 -10  304.17   76.89
   5   6 -10  326.77   69.59
  -5  -6  10  378.96   82.39
  -5  -6  10  282.87   53.09
  -5  -6  10  380.06   60.59
   4   6 -10  475.15   79.49
  -4  -6  10  369.66   54.59
  -4  -6  10  346.57   56.09
  -4  -6  10  382.96   64.89
   3   6 -10  830.32  109.79
  -3  -6  10  816.72   77.79
  -3  -6  10  902.61   68.89
   2   6 -10 1273.57  109.39
  -2  -6  10 1260.87   73.59
  -2  -6  10 1346.57   98.59
  -2  -6  10 1196.68   88.39
   1   6 -10 1163.68  102.99
  -1  -6  10 1288.67  100.59
  -1  -6  10 1281.57   92.39
  -1  -6  10 1234.88   60.09
  -1  -6  10 1210.28   62.29
   0   6 -10 1389.86  114.19
   0  -6  10 1439.26  114.99
   0  -6  10 1291.07   93.39
  -1   6 -10 1270.67  108.99
   1  -6  10 1483.25  124.69
   1  -6  10 1575.04  106.99
  -2   6 -10 1602.24  123.19
   2  -6  10 1458.85  110.19
   2  -6  10 1450.85  127.99
  -3   6 -10 1616.04  135.29
  -3   6 -10 1696.33  128.39
   3  -6  10 1428.86  114.99
  -4   6 -10  823.72  125.19
  -4   6 -10  777.92  106.49
   4  -6  10  878.51  115.89
   6   5 -10  530.55  100.19
   6   5 -10  461.15   81.29
  -6  -5  10  527.15   59.79
  -6  -5  10  626.04   94.59
  -6  -5  10  613.74   81.09
   5   5 -10  357.26   72.19
   5   5 -10  529.85   59.59
  -5  -5  10  509.95   53.19
  -5  -5  10  493.15   66.79
  -5  -5  10  421.16   96.79
   4   5 -10  493.35   54.89
   4   5 -10  438.46   74.89
  -4  -5  10  613.54   61.89
  -4  -5  10  487.85   67.29
  -4  -5  10  539.25   54.69
   3   5 -10  426.16   77.49
   3   5 -10  633.24   94.09
  -3  -5  10  402.46   58.59
  -3  -5  10  506.25   55.59
  -3  -5  10  483.65   60.89
   2   5 -10  242.38   54.09
   2   5 -10  231.18   44.30
  -2  -5  10  262.37   41.80
  -2  -5  10  336.37   50.39
  -2  -5  10  309.07   51.99
  -2  -5  10  245.08   33.80
   1   5 -10   35.60   22.30
  -1  -5  10   93.29   30.20
  -1  -5  10   57.79   27.40
  -1  -5  10   48.00   15.20
  -1  -5  10   63.19   20.20
   0   5 -10  104.99   33.50
   0  -5  10   66.69   24.60
   0  -5  10  144.39   37.40
   0  -5  10   85.29   13.70
  -1   5 -10    6.90   22.80
   1  -5  10   54.19   29.90
   1  -5  10   31.90   23.00
  -2   5 -10   84.79   32.90
  -2   5 -10   96.59   32.30
   2  -5  10   65.89   32.20
  -3   5 -10   57.79   41.00
  -3   5 -10   74.99   33.10
   3  -5  10  120.39   38.70
  -4   5 -10   53.99   36.90
  -4   5 -10   71.09   44.40
   4  -5  10   71.29   27.50
   6   4 -10 1153.58  125.39
  -6  -4  10  977.20   97.29
  -6  -4  10 1106.39  103.39
   5   4 -10 1081.69  111.09
  -5  -4  10  894.31   84.69
  -5  -4  10 1168.98   95.09
   4   4 -10 3005.40  181.68
   4   4 -10 2635.14  109.99
  -4  -4  10 2899.51  150.28
  -4  -4  10 2780.02  117.19
  -4  -4  10 2688.93  152.18
   3   4 -10 3319.57  185.78
   3   4 -10 3028.50  130.29
  -3  -4  10 3528.55  150.18
  -3  -4  10 3681.63  176.18
  -3  -4  10 3475.95  179.38
   2   4 -10 1889.11  100.79
   2   4 -10 2137.19  137.19
  -2  -4  10 1953.80  114.59
  -2  -4  10 1819.32  106.19
  -2  -4  10 1927.91  102.39
  -2  -4  10 1960.60  100.49
   1   4 -10 1584.74   99.39
   1   4 -10 1600.34  112.99
  -1  -4  10 1592.84   80.99
  -1  -4  10 1469.35   93.89
  -1  -4  10 1406.36   82.69
   0   4 -10 2995.80  163.58
   0   4 -10 2935.71  146.69
   0  -4  10 3044.20  125.59
   0  -4  10 2831.42  127.29
   0  -4  10 3379.26  160.88
   0  -4  10 3030.50  158.78
  -1   4 -10 2443.96  100.39
  -1   4 -10 2418.26  136.09
  -1   4 -10 2403.56  140.69
   1  -4  10 2642.74  109.99
   1  -4  10 2672.03  145.59
  -2   4 -10 1288.07  103.09
  -2   4 -10 1518.85  105.59
  -2   4 -10 1413.16   70.59
   2  -4  10 1537.55  110.69
   2  -4  10 1543.15   76.19
  -3   4 -10 1162.08   91.49
  -3   4 -10 1035.60   67.09
  -3   4 -10  936.91   97.29
   3  -4  10 1180.18   73.69
   3  -4  10 1049.49   98.59
  -4   4 -10  844.82   75.29
  -4   4 -10  894.31   84.29
  -4   4 -10  975.70  106.79
   4  -4  10 1048.20  108.59
   4  -4  10 1079.39   82.99
  -5   4 -10  470.95   81.69
  -5   4 -10  463.35   66.69
   5  -4  10  358.56   79.69
   5  -4  10  474.55   71.89
   7   3 -10  131.79   66.69
  -7  -3  10   91.39   41.60
  -7  -3  10   68.79   41.60
   6   3 -10  -15.70   38.30
  -6  -3  10   -8.30   27.30
  -6  -3  10    7.80   27.60
   5   3 -10   26.40   39.20
  -5  -3  10   39.60   27.80
  -5  -3  10  110.69   34.20
   4   3 -10  590.14   83.19
  -4  -3  10  614.54   61.69
  -4  -3  10  591.64   63.29
   3   3 -10  343.47   21.10
   3   3 -10  333.67   21.80
   3   3 -10  434.36   72.29
  -3  -3  10  309.27   46.50
  -3  -3  10  334.67   51.99
   2   3 -10  522.95   37.40
   2   3 -10  468.85   69.69
   2   3 -10  493.95   41.20
  -2  -3  10  486.15   59.49
  -2  -3  10  474.15   46.00
  -2  -3  10  523.75   65.39
   1   3 -10  648.34   50.19
   1   3 -10  658.93   68.29
   1   3 -10  607.84   54.99
  -1  -3  10  780.42   63.99
  -1  -3  10  745.43   55.09
  -1  -3  10  746.83   64.69
   0   3 -10 2250.97  131.69
   0   3 -10 2166.88  112.59
   0   3 -10 1987.90  120.59
   0   3 -10 1977.00   98.29
   0  -3  10 2369.46  109.09
   0  -3  10 2282.47  127.29
  -1   3 -10 2574.24  137.29
  -1   3 -10 2406.46  112.79
  -1   3 -10 2397.76  136.79
   1  -3  10 2504.15  117.49
   1  -3  10 2578.64  140.99
  -2   3 -10 1180.38   71.69
  -2   3 -10 1086.49   84.39
  -2   3 -10 1056.19   90.69
   2  -3  10 1221.68   75.59
   2  -3  10 1239.78   96.09
  -3   3 -10 1309.57  111.79
  -3   3 -10 1316.77   92.19
  -3   3 -10 1267.47   84.99
   3  -3  10 1283.87  105.29
   3  -3  10 1319.27   84.79
  -4   3 -10 1348.17   92.99
   4  -3  10 1093.99  103.49
   4  -3  10 1061.89  106.19
  -5   3 -10  848.42  119.79
   5  -3  10 1135.09  118.99
   5  -3  10  985.30  105.49
   7   2 -10  650.03  115.29
  -7  -2  10  614.24   85.49
  -7  -2  10  611.14   87.99
   6   2 -10 1254.47  120.59
  -6  -2  10 1375.76  107.39
  -6  -2  10  992.00  113.29
   5   2 -10 1169.78  111.69
  -5  -2  10 1389.46  103.79
  -5  -2  10 1213.48   96.29
   4   2 -10  400.06   67.39
  -4  -2  10  702.93   67.39
  -4  -2  10  592.94   62.79
   3   2 -10 1454.45  109.89
  -3  -2  10 1388.56   91.99
  -3  -2  10 1517.45   96.49
   2   2 -10  436.96   30.50
   2   2 -10  446.36   33.20
   2   2 -10  460.55   71.99
  -2  -2  10  520.45   50.29
  -2  -2  10  530.55   63.99
   1   2 -10  677.83   69.09
   1   2 -10  593.44   53.89
   1   2 -10  557.34   49.40
   1   2 -10  629.54   47.50
  -1  -2  10  610.34   56.99
  -1  -2  10  782.62   57.89
   0   2 -10  592.64   64.49
   0   2 -10  605.44   51.19
   0   2 -10  652.33   54.69
   0   2 -10  532.15   80.79
   0  -2  10  602.94   57.29
   0  -2  10  528.75   48.30
  -1   2 -10   96.09   24.90
  -1   2 -10   74.89   25.30
   1  -2  10   68.19   19.80
   1  -2  10   80.59   28.50
  -2   2 -10   97.09   31.90
  -2   2 -10  114.19   30.50
  -2   2 -10  118.59   36.50
   2  -2  10  129.89   31.00
   2  -2  10  109.19   35.20
  -3   2 -10   16.90   29.70
  -3   2 -10   70.89   28.00
   3  -2  10  106.69   40.70
   3  -2  10   51.39   36.40
  -4   2 -10    0.80   24.90
  -4   2 -10   15.10   34.90
   4  -2  10   -3.60   37.90
   4  -2  10   46.30   31.50
   4  -2  10   -3.00   29.10
  -5   2 -10    0.40   27.10
  -5   2 -10   11.80   42.90
   5  -2  10   -4.50   56.29
   5  -2  10    4.70   40.60
   7   1 -10  455.95   84.39
  -7  -1  10  540.05   80.59
  -7  -1  10  465.35   78.79
   6   1 -10  725.83  103.09
  -6  -1  10 1106.19  109.39
   5   1 -10 1330.87  117.99
  -5  -1  10 1361.36  104.59
  -5  -1  10 1422.96  101.79
   4   1 -10 1386.06  114.39
  -4  -1  10 1421.66   99.09
  -4  -1  10 1334.47   94.09
   3   1 -10 1745.23  124.99
  -3  -1  10 1820.92  107.69
  -3  -1  10 1828.02  110.89
   2   1 -10 2989.50  165.98
   2   1 -10 2961.70  111.39
   2   1 -10 2918.21  111.79
  -2  -1  10 3128.69  150.78
  -2  -1  10 2889.81  145.99
   1   1 -10 3449.25  144.59
   1   1 -10 3376.36  149.99
  -1  -1  10 3112.59  156.88
  -1  -1  10 3464.95  158.18
   0   1 -10 3061.19  142.99
   0   1 -10 3111.19  157.88
   0   1 -10 2680.23  138.39
   0   1 -10 2936.21  149.29
   0  -1  10 2585.74  137.39
   0  -1  10 2787.12  135.19
  -1   1 -10 1168.18   87.59
  -1   1 -10 1324.97   92.49
   1  -1  10 1301.67   85.69
   1  -1  10 1238.08   87.29
   1  -1  10 1348.97   93.19
  -2   1 -10 2142.49  118.79
  -2   1 -10 2146.79  134.39
   2  -1  10 2039.10  114.09
   2  -1  10 2384.46  139.69
  -3   1 -10 1583.24  123.09
  -3   1 -10 1545.15   92.19
   3  -1  10 1770.22  116.59
   3  -1  10 1870.71  129.89
  -4   1 -10 1146.89  112.59
  -4   1 -10  991.50   66.89
   4  -1  10  909.31   93.19
   4  -1  10 1022.10   67.69
   4  -1  10  971.90  120.19
  -5   1 -10 1097.29  121.29
   5  -1  10 1648.24  165.58
   5  -1  10  894.51  123.69
   7   0 -10   -5.00   48.60
  -7   0  10   83.89   42.20
  -7   0  10  118.79   49.80
   6   0 -10   98.39   53.09
  -6   0  10   56.99   29.60
  -6   0  10   53.59   32.50
   5   0 -10   53.69   37.80
  -5   0  10  140.79   36.10
  -5   0  10   77.89   30.70
   4   0 -10   11.10   27.90
  -4   0  10   10.70   19.60
  -4   0  10   53.19   21.60
   3   0 -10   19.10   25.60
  -3   0  10   -6.70   14.40
  -3   0  10    2.40   15.30
   2   0 -10  486.35   71.19
   2   0 -10  433.26   35.40
  -2   0  10  422.96   56.09
  -2   0  10  319.97   47.30
   1   0 -10   31.50   15.10
   1   0 -10   48.00   34.10
  -1   0  10   66.29   23.50
  -1   0  10   45.50   18.80
   0   0 -10  136.19   30.00
   0   0 -10   94.39   32.00
   0   0  10  224.28   42.10
   0   0  10  102.39   28.20
  -1   0 -10 1196.18   85.69
  -1   0 -10 1313.77  134.49
   1   0  10 1138.29   84.29
   1   0  10 1427.26   92.39
   1   0  10 1239.88   89.89
  -2   0 -10  976.60   71.29
  -2   0 -10  953.90   85.49
   2   0  10 1078.19   85.09
   2   0  10  787.72   77.29
  -3   0 -10  908.11   63.29
  -3   0 -10  873.31   92.49
   3   0  10  748.83   81.79
   3   0  10  824.32   81.89
   3   0  10  863.81   59.99
  -4   0 -10  477.35   27.00
  -4   0 -10  531.05   29.20
   4   0  10  581.64   87.89
  -5   0 -10  752.22  114.49
   5   0  10  651.43   93.19
   5   0  10  606.24   91.09
   7  -1 -10 1199.88  131.79
  -7   1  10 1143.79  116.89
  -7   1  10 1322.07  110.09
  -6   1  10 1026.90   90.99
  -6   1  10  991.50  100.59
   5  -1 -10 1261.27  119.09
  -5   1  10 1063.19   85.79
  -5   1  10 1015.90   94.49
   4  -1 -10 2634.04  170.78
  -4   1  10 2354.16  145.09
  -4   1  10 2629.04  135.19
   3  -1 -10 2068.29  144.09
   3  -1 -10 2168.88   82.99
  -3   1  10 2383.96  124.89
  -3   1  10 2303.97   88.39
  -3   1  10 2215.18  133.79
   2  -1 -10 1778.02  125.59
   2  -1 -10 1813.12   89.59
  -2   1  10 1889.91  106.19
  -2   1  10 2037.60  119.79
  -2   1  10 1787.02   88.99
   1  -1 -10 1218.68   94.99
   1  -1 -10 1235.18   77.79
  -1   1  10 1171.58   88.39
  -1   1  10 1121.79   79.59
  -1   1  10 1256.67   76.89
   0  -1 -10 1090.09   79.19
   0  -1 -10 1032.30   84.99
   0   1  10 1121.39   84.69
   0   1  10 1052.79   77.19
   0   1  10  888.91   83.29
  -1  -1 -10 1092.39   87.59
  -1  -1 -10  937.11   75.99
   1   1  10  720.63   68.39
   1   1  10  915.61   77.19
   1   1  10  735.13   63.59
  -2  -1 -10  793.72   62.69
  -2  -1 -10  812.72   83.79
   2   1  10  772.62   62.19
   2   1  10  920.11   83.89
   2   1  10  849.02   78.89
  -3  -1 -10  144.19   49.50
  -3  -1 -10  200.58   30.00
   3   1  10  204.78   48.80
   3   1  10   84.39   36.80
   3   1  10  174.38   28.60
  -4  -1 -10   43.20   44.00
   4   1  10  137.79   53.49
   4   1  10  214.18   50.99
  -5  -1 -10    6.30   46.70
   5   1  10   20.60   45.60
   5   1  10   31.80   47.30
   6  -2 -10  563.44   99.09
  -6   2  10  413.26   65.49
  -6   2  10  357.06   64.49
   5  -2 -10  621.64   95.39
  -5   2  10  642.04   85.79
  -5   2  10  693.83   69.89
   4  -2 -10 1046.20  104.19
   4  -2 -10  750.52   52.99
  -4   2  10 1031.30   79.89
  -4   2  10 1173.58   98.49
  -4   2  10 1212.48   58.49
   3  -2 -10 1033.60   64.69
   3  -2 -10 1057.29   98.99
  -3   2  10  839.62   56.59
  -3   2  10 1061.19   74.49
  -3   2  10 1010.60   87.89
   2  -2 -10 1536.75  116.99
   2  -2 -10 1576.44   90.59
  -2   2  10 1664.03   97.69
  -2   2  10 1455.55   86.79
  -2   2  10 1669.13  111.99
   1  -2 -10 1486.25   95.09
   1  -2 -10 1442.76  109.89
  -1   2  10 1740.13  106.69
  -1   2  10 1835.92  108.39
  -1   2  10 1796.32  116.79
   0  -2 -10 1473.55  128.39
   0   2  10 2087.09  118.99
   0   2  10 2118.79  130.89
  -1  -2 -10 2325.87  142.29
  -1  -2 -10 2242.68  127.59
   1   2  10 2166.98  123.19
   1   2  10 2183.58  135.39
   1   2  10 2191.68  129.29
  -2  -2 -10 1400.26   88.29
  -2  -2 -10 1328.57  112.19
   2   2  10 1523.05   91.09
   2   2  10 1562.64  117.49
   2   2  10 1434.36  110.39
  -3  -2 -10 1396.36   70.79
  -3  -2 -10 1600.24  132.39
   3   2  10 1523.35  126.69
   3   2  10 1621.74   72.39
   3   2  10 1666.03  125.69
  -4  -2 -10 1727.43  153.78
   4   2  10 1528.35  134.79
   4   2  10 1438.16  130.19
   6  -3 -10  242.88   68.49
  -6   3  10  249.48   60.89
  -6   3  10  248.08   52.49
  -6   3  10  225.58   31.80
   5  -3 -10  255.17   61.89
   5  -3 -10  266.67   37.50
  -5   3  10  257.17   49.00
  -5   3  10  241.68   44.50
  -5   3  10  277.97   37.20
   4  -3 -10  116.59   45.90
   4  -3 -10  144.49   33.30
  -4   3  10   62.49   25.30
  -4   3  10  106.79   30.00
  -4   3  10   74.19   35.30
   3  -3 -10  303.77   47.70
   3  -3 -10  210.38   53.49
  -3   3  10  276.97   43.60
  -3   3  10  269.47   53.39
  -3   3  10  352.46   50.69
   2  -3 -10    9.40   31.30
   2  -3 -10   60.89   29.60
  -2   3  10  -14.30   29.70
  -2   3  10   41.90   26.40
   1  -3 -10  134.39   58.09
   1  -3 -10  319.27   55.29
  -1   3  10  138.89   41.60
  -1   3  10  188.98   45.60
   0  -3 -10   11.90   27.20
   0  -3 -10  -23.60   24.60
   0   3  10  -16.80   23.40
   0   3  10   -2.60   20.00
  -1  -3 -10  122.99   41.10
  -1  -3 -10   80.19   29.70
   1   3  10   76.69   33.60
   1   3  10  196.38   43.00
  -2  -3 -10   49.80   35.60
  -2  -3 -10  100.09   31.60
   2   3  10   28.10   34.40
   2   3  10   45.50   30.20
   2   3  10    7.20   28.30
  -3  -3 -10  275.67   65.79
   3   3  10  287.37   27.30
   3   3  10  284.67   68.09
   3   3  10  331.27   64.39
  -4  -3 -10  267.97   61.29
   4   3  10  270.97   78.29
   4   3  10  259.67   62.69
   6  -4 -10  720.33  122.89
  -6   4  10  402.76   61.29
  -6   4  10  541.55   93.19
  -6   4  10  486.15   56.99
   5  -4 -10  548.65   98.29
   5  -4 -10  651.73   72.09
  -5   4  10  670.83   68.79
  -5   4  10  481.95   76.89
   4  -4 -10 1200.38   95.39
   4  -4 -10 1162.68  122.79
  -4   4  10  992.50   76.89
   3  -4 -10 1397.56  126.99
   3  -4 -10 1605.54  116.19
  -3   4  10 1297.57   85.19
  -3   4  10 1341.07  112.19
   2  -4 -10 1236.58  100.89
   2  -4 -10 1241.08  115.59
  -2   4  10 1319.67  106.59
  -2   4  10 1217.88   82.19
   1  -4 -10 1154.98   99.69
   1  -4 -10 1133.99  105.79
  -1   4  10  986.50   93.79
  -1   4  10 1078.69   97.69
   0  -4 -10  801.52   85.09
   0  -4 -10  845.92   89.09
   0   4  10  865.11   72.79
   0   4  10  849.72   88.29
  -1  -4 -10  846.82   81.69
  -1  -4 -10  731.33   97.89
   1   4  10  847.82   95.19
   1   4  10  922.51   82.29
   2   4  10 1222.58  114.59
   2   4  10 1209.98   99.89
   2   4  10 1169.68  101.39
   2   4  10 1271.77   86.59
  -3  -4 -10  892.41  122.59
   3   4  10  512.45   78.99
   3   4  10  609.34   43.00
   3   4  10  572.84   85.09
   5  -5 -10  350.86   69.39
   5  -5 -10  240.98   67.69
  -5   5  10  295.67   69.69
  -5   5  10  259.47   47.40
   4  -5 -10  195.68   55.59
   4  -5 -10  198.68   63.49
  -4   5  10  207.58   54.79
  -4   5  10  300.47   45.10
   3  -5 -10  347.47   79.19
   3  -5 -10  412.16   71.19
  -3   5  10  398.56   50.09
  -3   5  10  264.07   60.09
   2  -5 -10  538.85   79.89
   2  -5 -10  557.44   81.79
   2  -5 -10  486.35   53.89
  -2   5  10  535.05   56.09
   1  -5 -10  672.73   93.79
   1  -5 -10  559.54   83.09
  -1   5  10  682.83  138.89
  -1   5  10  495.25   59.79
   0  -5 -10  609.44   81.29
   0  -5 -10  505.65   83.29
   0   5  10  493.65   59.99
   0   5  10  459.75   77.49
   1   5  10  521.55   83.59
   1   5  10  480.05   64.59
   1   5  10  621.14   79.69
  -2  -5 -10 1214.78  130.39
   2   5  10 1095.39  106.79
   2   5  10 1179.28  121.39
   2   5  10 1242.28   93.09
   4  -6 -10  545.95  108.39
  -4   6  10  236.38   60.99
  -4   6  10  385.46   47.70
   3  -6 -10  339.67   84.29
   3  -6 -10  318.27   84.29
  -3   6  10  344.67   71.89
  -3   6  10  325.17   45.00
   2  -6 -10  213.98   62.79
   2  -6 -10  325.37   74.79
  -2   6  10  300.37   39.90
  -2   6  10  267.47   66.89
   1  -6 -10  122.39   60.09
  -1   6  10    8.50   38.30
  -1   6  10  130.39   36.00
  -1   6  10  186.88   58.79
   0  -6 -10  176.28   66.49
   0   6  10  133.39   57.09
   0   6  10  154.18   53.29
   0   6  10   64.19   42.80
  -1  -6 -10   59.29   60.99
   1   6  10   11.00   44.80
   1   6  10    8.30   40.40
   1   6  10   61.19   39.50
   3   8 -11 1064.39  138.19
  -3  -8  11  758.42   99.59
  -3  -8  11  795.02   71.99
  -3  -8  11 1007.90   92.39
   2   8 -11  725.23  106.49
  -2  -8  11  781.42   54.69
  -2  -8  11  803.72  100.99
  -2  -8  11  799.62   94.09
   1   8 -11  774.62  100.29
  -1  -8  11  951.30   92.69
  -1  -8  11 1079.99  111.49
   0   8 -11  871.31  120.69
   0  -8  11 1037.70   97.09
   0  -8  11  937.61  137.19
  -1   8 -11  718.23  102.29
   1  -8  11  783.62   91.79
   1  -8  11  784.92  114.69
  -2   8 -11  757.02  107.59
   2  -8  11  772.82   92.79
   2  -8  11  746.73  117.99
   4   7 -11  101.49   50.29
  -4  -7  11  163.68   48.80
  -4  -7  11   76.29   39.50
  -4  -7  11  123.59   39.20
   3   7 -11   34.40   41.10
  -3  -7  11   58.59   28.90
  -3  -7  11   -7.00   32.50
  -3  -7  11   75.79   35.70
   2   7 -11   73.69   38.10
  -2  -7  11   75.59   30.90
  -2  -7  11   26.00   34.70
  -2  -7  11   55.99   22.20
  -2  -7  11   91.89   43.60
   1   7 -11   -1.20   36.50
  -1  -7  11   31.50   37.80
  -1  -7  11  -13.60   26.70
   0   7 -11  115.69   48.60
   0  -7  11   99.69   47.10
   0  -7  11  132.19   42.00
  -1   7 -11  106.99   42.80
   1  -7  11   61.29   40.10
   1  -7  11   63.79   42.60
  -2   7 -11  174.58   49.40
   2  -7  11  176.78   65.29
   2  -7  11  295.97   56.59
  -3   7 -11  273.97   67.89
  -3   7 -11  335.67   76.19
   3  -7  11  252.87   59.29
   5   6 -11 1199.28  131.49
  -5  -6  11 1023.40  101.39
  -5  -6  11  990.60   84.39
  -5  -6  11 1215.58   99.39
   4   6 -11 1403.16  138.89
   4   6 -11 1626.54  210.88
  -4  -6  11 1352.06   96.59
  -4  -6  11 1291.47  104.69
  -4  -6  11 1280.07   95.09
   3   6 -11 1402.96  125.59
  -3  -6  11 1156.88   94.19
  -3  -6  11 1201.78   94.79
  -3  -6  11  964.70   76.19
   2   6 -11 1457.55  121.19
  -2  -6  11 1464.05  103.99
  -2  -6  11 1528.05   83.29
  -2  -6  11 1469.35  103.59
  -2  -6  11 1212.78   87.69
   1   6 -11 1578.04  125.59
  -1  -6  11 1553.04  107.09
  -1  -6  11 1508.75   72.59
  -1  -6  11 1524.95  113.39
  -1  -6  11 1563.04   74.19
   0   6 -11 1243.68  108.49
   0  -6  11 1029.50   98.89
   0  -6  11 1445.96  100.49
  -1   6 -11  773.42   99.99
   1  -6  11  743.13  100.99
   1  -6  11  889.51   82.69
  -2   6 -11  701.53   95.39
  -2   6 -11  859.91   93.19
   2  -6  11  844.62   88.29
  -3   6 -11  517.75   89.09
  -3   6 -11  646.24   87.19
   3  -6  11  686.93   91.59
  -4   6 -11  421.16   77.69
  -4   6 -11  496.15   94.39
   6   5 -11   99.89   60.39
  -6  -5  11  103.69   39.10
  -6  -5  11  171.28   54.39
   5   5 -11  366.56   36.80
   5   5 -11  443.06   86.89
  -5  -5  11  307.67   56.49
  -5  -5  11  299.87   37.10
  -5  -5  11  397.16   70.19
   4   5 -11  555.54   95.49
   4   5 -11  674.33   57.19
  -4  -5  11  734.63   77.19
  -4  -5  11  620.94   66.09
  -4  -5  11  663.53   56.59
   3   5 -11  692.43   64.29
   3   5 -11  748.03   99.89
  -3  -5  11  747.43   64.09
  -3  -5  11  737.33   73.59
  -3  -5  11  855.11   66.59
   2   5 -11  911.01   78.69
   2   5 -11 1176.98  104.79
  -2  -5  11  891.01   63.29
  -2  -5  11  834.62   74.99
  -2  -5  11  756.22   71.69
  -2  -5  11  882.11   72.59
   1   5 -11 1271.77  106.69
  -1  -5  11 1292.27  118.89
  -1  -5  11 1263.27   70.69
  -1  -5  11 1216.58   74.39
  -1  -5  11 1170.58   89.79
   0   5 -11 1747.53  125.39
   0  -5  11 1768.12  121.59
   0  -5  11 1945.61  117.09
   0  -5  11 1783.42   79.09
  -1   5 -11 1595.04  119.49
  -1   5 -11 1535.15  111.49
   1  -5  11 1539.05  110.09
  -2   5 -11 1737.43  125.59
  -2   5 -11 1482.65  115.49
   2  -5  11 1558.84  118.59
  -3   5 -11 1204.08  105.59
  -3   5 -11 1292.77   57.79
   3  -5  11 1265.17  111.59
  -4   5 -11 1080.09  122.09
  -4   5 -11 1215.68  107.99
   4  -5  11 1089.19   68.29
   4  -5  11 1100.79  112.79
   6   4 -11  924.11  130.19
  -6  -4  11  979.00   98.29
  -6  -4  11 1018.60  102.49
   5   4 -11  805.52  109.29
  -5  -4  11  908.11  120.69
  -5  -4  11  725.33   76.79
   4   4 -11  968.10  124.99
  -4  -4  11  849.02   73.89
  -4  -4  11  853.51   81.19
   3   4 -11  293.67   33.20
   3   4 -11  311.27   65.69
  -3  -4  11  284.67   35.80
  -3  -4  11  253.37   47.20
  -3  -4  11  306.67   48.60
   2   4 -11  140.59   27.30
   2   4 -11  205.38   35.60
   2   4 -11   93.79   41.20
  -2  -4  11  146.29   29.80
  -2  -4  11  164.48   32.40
  -2  -4  11  124.29   37.80
  -2  -4  11  206.48   41.60
   1   4 -11  112.89   30.60
   1   4 -11   53.79   33.00
   1   4 -11   54.29   28.70
  -1  -4  11   86.29   29.80
  -1  -4  11   81.39   28.90
  -1  -4  11   75.29   23.20
   0   4 -11   61.29   27.70
   0  -4  11  155.68   26.00
   0  -4  11  114.59   27.70
   0  -4  11   80.49   30.40
  -1   4 -11  266.07   54.79
  -1   4 -11  271.27   49.50
  -1   4 -11  266.17   31.20
   1  -4  11  311.77   35.90
   1  -4  11  214.78   45.10
  -2   4 -11   63.39   33.00
  -2   4 -11   17.50   21.20
  -2   4 -11    9.10   26.10
   2  -4  11    9.00   30.40
   2  -4  11   36.80   21.00
  -3   4 -11    2.30   27.80
  -3   4 -11   74.59   37.20
  -3   4 -11   41.30   28.90
   3  -4  11  -12.80   31.00
   3  -4  11   58.99   29.90
  -4   4 -11   -9.00   33.90
  -4   4 -11   73.89   52.89
   4  -4  11   73.69   44.40
   4  -4  11    3.00   31.90
   6   3 -11 1107.69  141.19
  -6  -3  11 1345.17  111.39
  -6  -3  11 1011.20  100.49
   5   3 -11 1449.65  132.79
  -5  -3  11 1447.56  110.99
  -5  -3  11 1442.66  109.49
   4   3 -11 1578.84  130.09
  -4  -3  11 1511.05  109.09
  -4  -3  11 1677.73  108.79
   3   3 -11 2296.07  154.58
  -3  -3  11 2409.16  130.89
  -3  -3  11 2502.15  139.19
   2   3 -11 1950.40   89.29
   2   3 -11 1884.51  133.69
   2   3 -11 1840.82   91.99
  -2  -3  11 2085.09  113.19
  -2  -3  11 2028.00  120.29
   1   3 -11 2280.97  110.99
   1   3 -11 2065.19  115.29
   1   3 -11 2175.38  138.69
  -1  -3  11 2446.66  121.89
  -1  -3  11 2334.37  128.89
  -1  -3  11 2637.04  139.39
   0   3 -11 2863.61  140.39
   0   3 -11 2450.25  152.38
   0  -3  11 2520.75  116.79
   0  -3  11 2159.68  129.89
  -1   3 -11 1257.97   98.09
  -1   3 -11 1364.96   97.29
   1  -3  11 1376.76  101.09
   1  -3  11 1367.66   82.89
  -2   3 -11  795.82   82.29
  -2   3 -11  776.62   76.19
  -2   3 -11  787.72   65.69
   2  -3  11  886.11   86.99
   2  -3  11  873.41   66.99
  -3   3 -11 1036.50  104.59
  -3   3 -11 1015.70   87.19
   3  -3  11  937.71   76.79
   3  -3  11  916.31   92.39
  -4   3 -11  717.73  102.29
  -4   3 -11  655.43   77.39
   4  -3  11 1065.89  113.99
   4  -3  11  903.21  118.29
  -5   3 -11  596.04   99.09
  -5   3 -11  676.83   74.79
   5  -3  11  597.04   84.59
   5  -3  11  406.66   79.39
   7   2 -11  -62.39   49.60
  -7  -2  11   26.00   38.30
  -7  -2  11   10.00   33.90
   6   2 -11    9.60   38.50
  -6  -2  11   31.40   32.40
  -6  -2  11   50.99   29.50
   5   2 -11  103.59   49.60
  -5  -2  11   35.40   23.70
  -5  -2  11   25.90   28.90
   4   2 -11  446.46   74.59
  -4  -2  11  317.87   51.89
  -4  -2  11  238.08   42.40
   3   2 -11  568.34   83.59
  -3  -2  11  356.56   52.29
  -3  -2  11  422.66   58.19
   2   2 -11  369.46   64.29
   2   2 -11  267.77   29.90
   2   2 -11  253.07   29.40
  -2  -2  11  455.85   63.49
   1   2 -11  469.15   43.80
   1   2 -11  390.56   49.99
   1   2 -11  417.56   68.19
  -1  -2  11  381.56   51.29
  -1  -2  11  292.87   46.70
   0   2 -11 1739.63  101.99
   0   2 -11 1591.84   93.99
   0   2 -11 1460.55  105.49
   0   2 -11 1575.64  112.29
   0  -2  11 1550.84   92.09
   0  -2  11 1593.54  104.39
  -1   2 -11 1156.18   83.49
  -1   2 -11 1298.27   96.09
  -1   2 -11 1326.67   97.39
   1  -2  11 1202.58   92.79
   1  -2  11 1159.48   78.19
  -2   2 -11  705.93   89.19
  -2   2 -11  834.62   81.39
   2  -2  11  536.25   72.39
   2  -2  11  772.82   66.39
  -3   2 -11 1180.08  111.69
  -3   2 -11 1116.79   86.19
   3  -2  11 1074.79   89.99
   3  -2  11 1181.08  104.69
  -4   2 -11 1192.18  120.79
  -4   2 -11 1065.59   85.29
   4  -2  11 1159.18  113.79
   4  -2  11  964.90   93.19
   4  -2  11 1077.19   97.09
  -5   2 -11  874.61  124.69
  -5   2 -11  999.80   72.39
   5  -2  11  789.92  105.59
   7   1 -11 1080.69  140.79
  -7  -1  11 1009.90  107.79
  -7  -1  11 1225.78  110.29
   6   1 -11  665.93  116.09
  -6  -1  11  497.85   69.79
  -6  -1  11  885.91  106.89
   5   1 -11 1442.96  130.59
  -5  -1  11 1605.84  117.39
  -5  -1  11 1488.85  108.29
   4   1 -11 1660.13  130.39
  -4  -1  11 1505.75  106.99
  -4  -1  11 1400.46   99.99
   3   1 -11  997.00   96.59
  -3  -1  11  890.01   73.99
  -3  -1  11  950.20   77.69
   2   1 -11 1371.46  111.09
   2   1 -11 1400.96   69.99
   2   1 -11 1884.91   85.79
  -2  -1  11 1360.16   90.89
  -2  -1  11 1275.77   90.69
   1   1 -11  571.54   48.20
   1   1 -11  656.73   68.99
   1   1 -11  604.04   55.69
  -1  -1  11  390.36   52.79
   0   1 -11  112.39   35.20
   0   1 -11  125.59   29.60
   0   1 -11  107.99   36.00
   0  -1  11  105.09   29.80
   0  -1  11   73.49   25.00
  -1   1 -11  368.16   53.09
  -1   1 -11  463.95   62.89
   1  -1  11  387.96   56.69
   1  -1  11  607.54   59.09
  -2   1 -11  216.08   47.80
  -2   1 -11  174.68   38.00
   2  -1  11  307.27   60.89
   2  -1  11  173.88   37.50
  -3   1 -11  -43.00   20.50
  -3   1 -11   34.50   31.10
   3  -1  11   11.00   29.50
   3  -1  11  -23.70   24.90
   3  -1  11  -42.90   32.80
  -4   1 -11  -29.60   36.50
  -4   1 -11   25.70   25.20
   4  -1  11   45.20   38.20
   4  -1  11   57.59   41.80
   4  -1  11   -4.00   32.90
  -5   1 -11   43.20   50.09
   5  -1  11   27.20   42.90
   7   0 -11  652.93  108.69
  -7   0  11  632.84   91.09
  -7   0  11  976.10  120.89
   6   0 -11  862.01  113.79
  -6   0  11  885.51   85.59
  -6   0  11  622.14   82.09
   5   0 -11 1346.37  122.99
  -5   0  11 1306.57  106.19
  -5   0  11 1261.27   99.49
   4   0 -11 1318.27  119.69
  -4   0  11 1372.56   97.09
  -4   0  11 1306.17  101.39
   3   0 -11 1759.52  132.19
  -3   0  11 1788.62  108.79
  -3   0  11 1748.43  114.69
   2   0 -11 3517.45  190.28
   2   0 -11 3377.06  138.09
   2   0 -11 3326.57  136.19
  -2   0  11 3282.97  168.58
  -2   0  11 3216.78  160.28
   1   0 -11 2325.07  113.49
   1   0 -11 2125.59  116.79
   1   0 -11 2445.56  143.89
  -1   0  11 2151.78  119.69
  -1   0  11 2194.68  125.19
  -1   0  11 1868.31  102.29
   0   0 -11 2974.90  160.78
   0   0 -11 2989.70  150.38
   0   0  11 2770.42  149.88
   0   0  11 2899.21  151.38
   0   0  11 2877.41  155.58
  -1   0 -11 2658.43  142.79
  -1   0 -11 2445.06  142.39
   1   0  11 2568.54  147.29
   1   0  11 2712.03  146.89
  -2   0 -11 1756.92  106.39
  -2   0 -11 1828.32  125.59
   2   0  11 1882.51  122.59
   2   0  11 1940.41  126.99
   2   0  11 1551.64  101.99
  -3   0 -11 2233.78  148.99
  -3   0 -11 1633.74   96.99
   3   0  11 1654.73   94.99
   3   0  11 1857.41  136.09
   3   0  11 1898.51  130.69
  -4   0 -11 1195.08   57.29
  -4   0 -11 1526.35  134.39
   4   0  11 1165.38  115.89
   4   0  11 1284.27  114.49
   6  -1 -11   50.69   49.00
  -6   1  11   26.70   32.80
  -6   1  11   43.10   39.20
   5  -1 -11  232.78   67.89
  -5   1  11  181.08   46.00
  -5   1  11  239.18   48.60
   4  -1 -11   31.30   34.20
  -4   1  11   -2.90   18.80
  -4   1  11   -5.70   23.90
   3  -1 -11  103.19   38.80
   3  -1 -11  156.28   18.90
  -3   1  11  120.69   37.50
  -3   1  11  156.78   21.20
  -3   1  11  165.28   33.80
   2  -1 -11  136.69   41.70
   2  -1 -11  180.88   31.00
  -2   1  11  188.68   44.80
  -2   1  11  138.19   33.30
  -2   1  11  118.09   24.70
   1  -1 -11  294.57   39.30
   1  -1 -11  251.07   52.29
  -1   1  11  307.57   52.39
  -1   1  11  356.46   53.19
  -1   1  11  301.47   43.80
   0  -1 -11  275.47   48.00
   0  -1 -11  362.86   59.29
   0   1  11  254.57   45.30
   0   1  11  417.56   58.49
  -1  -1 -11  711.03   72.89
  -1  -1 -11  533.55   69.69
   1   1  11  617.34   68.89
   1   1  11  517.75   67.39
  -2  -1 -11  650.63   63.19
  -2  -1 -11  800.12   86.29
   2   1  11  580.74   64.19
   2   1  11  719.43   77.39
   2   1  11  747.93   77.29
  -3  -1 -11  840.12   62.19
  -3  -1 -11  968.30  103.79
   3   1  11  786.02   96.99
   3   1  11  681.63   88.09
   3   1  11  657.53   56.49
  -4  -1 -11  590.44   94.39
   4   1  11  530.35   89.59
   4   1  11  443.96   74.69
   6  -2 -11  902.81  129.69
  -6   2  11 1214.38  115.69
   5  -2 -11 1563.44  145.69
  -5   2  11 1650.33  110.89
  -5   2  11 1515.75  126.19
   4  -2 -11 1096.69  111.49
   4  -2 -11  968.60   46.70
  -4   2  11 1092.59   83.79
  -4   2  11 1178.08  101.39
   3  -2 -11 1532.95   81.79
   3  -2 -11 1300.57  118.79
  -3   2  11 1372.66   94.49
  -3   2  11 1374.86   79.49
  -3   2  11 1844.42  123.19
   2  -2 -11 1305.57   87.89
   2  -2 -11 1508.95  119.79
  -2   2  11 1574.74  116.29
  -2   2  11 1610.14  100.79
   1  -2 -11  832.72   85.49
   1  -2 -11  778.52   70.19
  -1   2  11  788.32   79.09
  -1   2  11  890.31   72.39
   0  -2 -11  847.52   81.89
   0  -2 -11  935.61   82.29
   0   2  11 1127.09   93.29
   0   2  11 1120.69   85.79
  -1  -2 -11  978.10  125.99
  -1  -2 -11  857.01   88.99
   1   2  11  771.32   77.69
   1   2  11  815.62   79.69
  -2  -2 -11  442.86   70.29
  -2  -2 -11  307.27   49.00
   2   2  11  527.05   76.69
   2   2  11  356.06   51.29
   2   2  11  551.84   82.59
  -3  -2 -11  329.67   69.09
  -3  -2 -11  281.77   34.30
   3   2  11  257.07   36.40
   3   2  11  314.17   73.49
   3   2  11  356.16   70.49
  -4  -2 -11  143.79   58.89
   4   2  11   88.19   56.39
   4   2  11   35.30   49.50
   6  -3 -11  281.57   84.89
  -6   3  11  269.77   62.19
  -6   3  11  231.98   69.99
   5  -3 -11  295.87   77.39
  -5   3  11  278.57   62.79
  -5   3  11  483.75   66.49
   4  -3 -11  522.15   57.19
   4  -3 -11  377.36  122.39
  -4   3  11  368.96   46.90
  -4   3  11  311.17   78.19
  -4   3  11  588.04   68.99
   3  -3 -11 1173.98   84.69
   3  -3 -11 1165.88  116.29
  -3   3  11 1116.39   82.19
  -3   3  11 1139.99  104.49
  -3   3  11 1108.89   80.89
   2  -3 -11 1157.18  112.79
   2  -3 -11 1295.17   94.19
  -2   3  11 1399.86   92.09
  -2   3  11 1389.66  111.59
   1  -3 -11  992.10   96.09
   1  -3 -11  932.41   87.29
  -1   3  11  860.31   73.39
  -1   3  11  961.00   91.09
   0  -3 -11 1624.04  120.79
   0  -3 -11 1627.84  120.09
   0   3  11 1265.07   94.99
   0   3  11 1439.26  113.79
  -1  -3 -11 1366.36  116.59
  -1  -3 -11 1514.35  107.39
   1   3  11 1371.86  100.89
   1   3  11 1141.59  106.39
  -2  -3 -11  921.81   81.09
  -2  -3 -11 1140.19  111.69
   2   3  11 1283.97  119.39
   2   3  11 1220.18  105.09
   2   3  11 1122.59   94.19
  -3  -3 -11 1102.19  137.59
   3   3  11 1173.58  110.39
   3   3  11  954.80   68.39
   3   3  11  898.31  119.79
   5  -4 -11  441.36   91.99
   5  -4 -11  309.27   54.09
  -5   4  11  375.26   76.49
  -5   4  11  336.37   56.99
   4  -4 -11  268.27   73.99
   4  -4 -11  225.38   52.19
  -4   4  11  285.07   66.49
  -4   4  11  269.07   47.20
   3  -4 -11   60.09   40.20
   3  -4 -11   82.59   71.59
  -3   4  11   89.29   53.89
  -3   4  11   91.49   33.00
   2  -4 -11    3.70   34.30
   2  -4 -11   18.00   35.70
  -2   4  11   51.49   27.40
  -2   4  11   -3.50   30.40
   1  -4 -11    3.80   34.60
   1  -4 -11  -23.70   33.70
  -1   4  11    2.70   21.70
  -1   4  11    8.60   29.40
   0  -4 -11   12.10   35.00
   0  -4 -11   40.00   41.60
   0   4  11  107.79   37.30
  -1  -4 -11    1.30   35.00
  -1  -4 -11   47.30   33.90
   1   4  11    9.60   33.50
   1   4  11    5.40   35.00
  -2  -4 -11  287.47   78.49
   2   4  11  291.67   59.59
   2   4  11  280.57   65.49
   2   4  11  187.98   45.90
  -3  -4 -11  123.29   65.99
   3   4  11  142.99   53.89
   3   4  11  107.79   56.39
   4  -5 -11 1512.55  185.88
   4  -5 -11 1435.46  120.59
  -4   5  11 1480.25  134.39
  -4   5  11 1219.98   90.79
   3  -5 -11 1027.00  109.19
   3  -5 -11 1102.49  148.29
  -3   5  11  822.52   71.19
  -3   5  11 1006.80  103.99
   2  -5 -11  811.62  109.49
   2  -5 -11  879.81  106.39
  -2   5  11  839.02  113.59
  -2   5  11  908.81   73.89
   1  -5 -11  776.02  103.09
   1  -5 -11  865.71  115.59
  -1   5  11 1009.20   79.39
  -1   5  11  921.41  103.59
   0  -5 -11 1232.58  118.59
   0  -5 -11 1304.17  129.29
   0   5  11 1509.15  124.19
   0   5  11 1373.16  103.69
  -1  -5 -11  797.92  115.59
   1   5  11  577.94   76.69
   1   5  11  767.22   90.79
  -2  -5 -11  478.95   92.09
   2   5  11  465.45   78.49
   2   5  11  445.06   67.09
   2   5  11  418.56   88.19
   2  -6 -11  420.16   94.09
   2  -6 -11  262.37   73.19
  -2   6  11  340.87   76.49
  -2   6  11  363.66   52.09
   1  -6 -11  475.45   98.29
   1  -6 -11  504.35   85.89
  -1   6  11  567.44   90.19
  -1   6  11  804.32  112.89
  -1   6  11  849.12  111.79
   0  -6 -11  817.02  113.79
   0   6  11  782.32  102.09
   0   6  11  620.34   75.79
   0   6  11  814.02  107.99
   2   8 -12  407.96   84.79
  -2  -8  12  317.37   38.40
  -2  -8  12  387.56   71.09
  -2  -8  12  311.57   60.29
   1   8 -12  356.86   73.69
  -1  -8  12  332.07   62.29
  -1  -8  12  364.76   75.49
   0   8 -12  224.38   62.89
   0  -8  12  365.06   80.19
   0  -8  12  276.67   64.69
  -1   8 -12  301.77   71.49
   1  -8  12  468.75   89.79
   1  -8  12  258.97   62.99
   4   7 -12  766.22  115.19
  -4  -7  12  765.22   94.59
  -4  -7  12  708.73   82.69
  -4  -7  12  740.73   82.89
   3   7 -12  662.53  111.99
  -3  -7  12  752.72   70.59
  -3  -7  12  863.61   86.29
   2   7 -12  864.11  115.19
  -2  -7  12  959.40   93.29
  -2  -7  12 1106.99   93.89
  -2  -7  12  953.00   65.29
   1   7 -12 1303.57  122.69
  -1  -7  12 1265.97  115.69
  -1  -7  12 1360.56  104.49
   0   7 -12  902.41  119.69
   0  -7  12  748.63   90.99
   0  -7  12  748.03  100.59
  -1   7 -12 1486.35  131.29
   1  -7  12 1402.56  117.49
  -2   7 -12 1606.04  137.79
  -2   7 -12 1540.55  139.39
   2  -7  12 1252.07  115.09
   5   6 -12   95.19   61.99
  -5  -6  12  140.39   48.60
  -5  -6  12  111.89   37.20
  -5  -6  12  109.49   41.10
   4   6 -12  110.79   50.39
  -4  -6  12   87.39   37.90
  -4  -6  12  146.19   41.50
  -4  -6  12  148.09   39.10
   3   6 -12   12.40   39.80
  -3  -6  12   10.00   28.90
  -3  -6  12   22.50   30.90
  -3  -6  12  112.19   32.70
   2   6 -12   17.20   35.10
  -2  -6  12   61.69   22.10
  -2  -6  12   21.80   31.40
  -2  -6  12   -6.90   27.60
  -2  -6  12   60.19   37.60
   1   6 -12   80.89   43.30
  -1  -6  12   49.20   26.70
  -1  -6  12  -46.30   30.40
  -1  -6  12   24.00   17.50
  -1  -6  12   16.70   23.00
   0   6 -12   20.30   32.10
   0  -6  12   13.40   34.20
   0  -6  12   20.60   27.20
  -1   6 -12  105.89   41.30
  -1   6 -12   92.79   42.40
   1  -6  12  109.89   44.40
  -2   6 -12   98.89   71.19
   2  -6  12  175.18   50.99
  -3   6 -12  179.88   59.49
  -3   6 -12  155.88   57.49
   3  -6  12   25.30   43.50
   5   5 -12 1576.44  145.29
  -5  -5  12 1456.25  118.09
  -5  -5  12 1166.68  102.49
   4   5 -12 1255.17   69.29
   4   5 -12 1331.37  140.49
  -4  -5  12 1572.54  108.49
  -4  -5  12 1466.65  131.79
  -4  -5  12 1473.85   80.89
   3   5 -12  763.12   65.09
   3   5 -12  649.04   94.79
  -3  -5  12  877.11   67.89
  -3  -5  12  914.01   74.19
  -3  -5  12  980.40   87.99
   2   5 -12 1263.77  114.79
   2   5 -12 1150.98   89.69
  -2  -5  12 1193.28   89.39
  -2  -5  12 1230.18   96.09
  -2  -5  12 1282.47   80.29
  -2  -5  12 1091.29   90.59
   1   5 -12 1881.41  122.99
   1   5 -12 1465.85  124.79
  -1  -5  12 1465.35   88.59
  -1  -5  12 1700.63  108.69
  -1  -5  12 1371.16   80.79
  -1  -5  12 1467.35  105.09
   0   5 -12 1332.87   99.29
   0   5 -12 1520.75  120.59
   0  -5  12 1292.87   67.39
   0  -5  12 1418.26   72.19
   0  -5  12 1305.17  100.79
  -1   5 -12  617.64   88.59
  -1   5 -12  637.54   84.39
   1  -5  12  498.55   74.99
   1  -5  12  537.15   32.40
   1  -5  12  537.95   38.00
  -2   5 -12  628.04   83.79
  -2   5 -12  607.24   87.19
   2  -5  12  666.43   85.19
  -3   5 -12  810.12  107.29
  -3   5 -12  673.53   92.39
   3  -5  12  671.63   45.50
   3  -5  12  595.44   90.09
  -4   5 -12  579.24  101.39
  -4   5 -12  494.45   83.19
   4  -5  12  509.45   82.49
   6   4 -12   38.50   55.09
  -6  -4  12   29.60   37.10
  -6  -4  12   13.50   34.50
  -5  -4  12  358.16   59.39
  -5  -4  12  353.26   63.99
   4   4 -12  702.23  102.99
  -4  -4  12  665.33   69.49
  -4  -4  12  726.73   87.89
   3   4 -12  373.16   31.20
   3   4 -12  417.06   71.49
   3   4 -12  346.77   36.10
  -3  -4  12  484.65   63.19
  -3  -4  12  578.34   74.59
   2   4 -12  532.95   58.29
   2   4 -12  651.23   49.90
   2   4 -12  619.14   88.39
  -2  -4  12  578.34   56.99
  -2  -4  12  748.33   70.39
   1   4 -12 1272.27   82.99
   1   4 -12 1195.18   93.79
   1   4 -12 1318.97  110.19
  -1  -4  12 1133.59   86.39
  -1  -4  12 1251.27   77.59
  -1  -4  12 1187.48   92.49
   0   4 -12 1293.17  109.59
   0   4 -12 1255.17   91.69
   0  -4  12 1111.29   79.89
   0  -4  12 1207.88   94.79
   0  -4  12 1257.27   73.39
  -1   4 -12 1072.99   93.19
  -1   4 -12  888.21   85.49
  -1   4 -12  860.11   61.19
   1  -4  12  947.31   64.89
   1  -4  12 1021.40   91.39
  -2   4 -12  892.41   66.69
  -2   4 -12 1125.79   97.39
  -2   4 -12  937.51   93.79
   2  -4  12 1044.00   72.19
   2  -4  12  998.10   96.39
  -3   4 -12  953.30   93.79
  -3   4 -12  886.11  163.48
   3  -4  12 1115.19  110.69
   3  -4  12 1071.39   94.69
  -4   4 -12 1171.68  149.49
  -4   4 -12 1279.27  110.39
   4  -4  12 1307.87  102.19
   4  -4  12 1311.37  127.79
   6   3 -12  414.36   90.09
  -6  -3  12  259.17   54.59
  -6  -3  12  273.37   58.49
   5   3 -12  449.56   83.09
  -5  -3  12  537.75   78.89
  -5  -3  12  451.95   71.89
   4   3 -12  312.77   68.09
  -4  -3  12  339.27   55.89
  -4  -3  12  233.08   47.80
   3   3 -12  452.65   82.19
  -3  -3  12  404.66   58.09
  -3  -3  12  426.96   61.39
   2   3 -12  194.38   29.90
   2   3 -12  205.88   34.80
   2   3 -12  259.67   60.29
  -2  -3  12  153.58   37.40
  -2  -3  12  204.28   36.40
   1   3 -12   76.29   33.00
   1   3 -12   91.99   25.20
   1   3 -12   18.70   34.00
  -1  -3  12  118.89   30.80
  -1  -3  12   84.79   27.90
   0   3 -12   -7.60   22.20
   0   3 -12    3.10   23.50
   0   3 -12   24.90   28.20
   0  -3  12   17.20   21.40
   0  -3  12   27.40   21.60
  -1   3 -12    4.30   25.50
  -1   3 -12    2.90   23.60
  -1   3 -12   45.80   27.70
   1  -3  12   26.80   23.30
   1  -3  12   26.00   24.50
  -2   3 -12   56.19   32.70
  -2   3 -12   23.30   32.00
   2  -3  12   28.00   30.50
   2  -3  12   24.70   23.90
  -3   3 -12   -3.30   36.90
  -3   3 -12   48.00   37.10
   3  -3  12   -2.60   34.00
   3  -3  12   49.10   33.90
  -4   3 -12  272.47   67.19
  -4   3 -12  150.18   47.10
   4  -3  12  299.27   74.79
   4  -3  12  223.48   58.49
   6   2 -12 1078.69  133.59
  -6  -2  12 1120.89  106.49
   5   2 -12 1871.51  153.08
  -5  -2  12 1811.02  128.39
  -5  -2  12 1764.52  153.28
   4   2 -12  986.10  103.59
  -4  -2  12  989.80   86.29
  -4  -2  12  837.82   79.99
   3   2 -12 1626.54  131.59
  -3  -2  12 1460.65  103.49
  -3  -2  12 1496.75  103.59
   2   2 -12 2810.72  122.29
   2   2 -12 3087.19  121.69
   2   2 -12 3089.99  177.78
  -2  -2  12 2940.71  152.18
  -2  -2  12 2932.31  157.28
   1   2 -12 1614.34  101.69
   1   2 -12 1894.61  131.39
   1   2 -12 1881.61   99.19
  -1  -2  12 1753.92  111.79
  -1  -2  12 1716.53  124.39
   0   2 -12 1571.14  102.29
   0   2 -12 1593.24  117.79
   0  -2  12 1441.16  103.69
   0  -2  12 1586.84   96.99
  -1   2 -12 2288.17  139.99
  -1   2 -12 2332.87  145.19
   1  -2  12 2479.35  179.78
   1  -2  12 2094.39  136.09
  -2   2 -12 1409.16  116.09
  -2   2 -12 1479.35  106.59
   2  -2  12 1169.98  104.99
   2  -2  12 1432.56   98.59
  -3   2 -12 1289.87   97.99
  -3   2 -12 1392.76  124.29
   3  -2  12 1381.46  104.89
   3  -2  12 1306.57  133.59
  -4   2 -12  831.12   76.49
  -4   2 -12  945.41  121.79
   4  -2  12  870.71   93.29
   4  -2  12  588.74   87.79
   6   1 -12    9.00   46.10
  -6  -1  12   -2.60   31.70
  -6  -1  12   25.30   39.70
   5   1 -12   50.99   47.00
  -5  -1  12   36.30   29.20
  -5  -1  12  -17.50   25.60
   4   1 -12  168.88   52.29
  -4  -1  12   92.09   34.40
  -4  -1  12  175.98   39.00
   3   1 -12  373.76   73.49
  -3  -1  12  359.56   53.99
  -3  -1  12  433.86   61.59
   2   1 -12  801.92   86.39
   2   1 -12  652.23   47.20
   2   1 -12  670.83   44.20
  -2  -1  12  706.63   68.49
  -2  -1  12  686.93   69.39
   1   1 -12  738.53   78.29
   1   1 -12  677.73   57.49
   1   1 -12  679.13   65.69
  -1  -1  12  542.75   61.19
  -1  -1  12  653.63   77.19
   0   1 -12 1012.00   77.59
   0   1 -12  955.00   86.79
   0  -1  12 1029.50   80.09
   0  -1  12  940.61   79.39
  -1   1 -12 1252.07   97.69
  -1   1 -12 1325.57  100.39
   1  -1  12 1171.98   88.79
   1  -1  12 1252.97   98.79
  -2   1 -12  998.20   93.59
  -2   1 -12  738.83   74.09
   2  -1  12  833.32   85.39
   2  -1  12  766.42   78.29
  -3   1 -12 1089.79   82.59
  -3   1 -12 1004.30  109.29
   3  -1  12 1146.79  110.29
   3  -1  12 1006.30   94.89
  -4   1 -12  810.82  113.29
  -4   1 -12 1009.00   71.89
   4  -1  12  919.11  122.09
   4  -1  12 1043.80  108.49
   6   0 -12  862.41  124.89
  -6   0  12  811.42  102.49
  -6   0  12  871.11   97.59
   5   0 -12 1304.97  139.29
  -5   0  12 1228.48   99.69
   4   0 -12 1080.59  112.69
  -4   0  12 1300.87   98.49
  -4   0  12 1395.06  109.89
   3   0 -12 1628.64  131.99
  -3   0  12 1771.72  117.49
  -3   0  12 1439.36  103.49
   2   0 -12  636.14   48.30
   2   0 -12  583.24   84.89
   2   0 -12  703.63   53.49
  -2   0  12  669.33   66.09
  -2   0  12  645.94   70.09
   1   0 -12  201.98   34.50
   1   0 -12  217.08   47.00
   1   0 -12  268.57   48.80
  -1   0  12  279.37   48.40
  -1   0  12  242.08   41.20
   0   0 -12 1155.58   96.19
   0   0 -12 1172.58   87.59
   0   0  12 1081.79   87.49
   0   0  12 1120.69   87.49
  -1   0 -12  251.67   48.80
  -1   0 -12  165.58   37.90
   1   0  12  253.97   51.59
   1   0  12  214.48   45.00
  -2   0 -12  130.19   41.70
  -2   0 -12  225.98   45.30
   2   0  12  292.27   55.59
   2   0  12  169.88   44.80
  -3   0 -12   40.60   47.70
  -3   0 -12   11.70   27.60
   3   0  12   -0.80   29.20
   3   0  12   31.30   36.30
   3   0  12   52.29   40.70
  -4   0 -12  -11.50   43.70
   4   0  12   39.90   38.50
   4   0  12   65.59   44.50
   6  -1 -12  485.85   94.59
  -6   1  12  655.93   95.09
  -6   1  12  565.74   77.39
   5  -1 -12 1141.69  144.79
  -5   1  12  908.31   87.49
  -5   1  12 1126.59  104.39
   4  -1 -12 1464.35  132.69
  -4   1  12 1447.16  102.09
  -4   1  12 1406.16  113.49
   3  -1 -12 1730.63  138.99
   3  -1 -12 1598.04   67.09
   3  -1 -12 1615.34   67.89
  -3   1  12 1265.97  105.09
  -3   1  12 1437.06   98.19
   2  -1 -12 1268.97   78.99
   2  -1 -12 1227.88  110.99
  -2   1  12 1221.58   90.79
  -2   1  12 1459.05  107.39
  -2   1  12 1155.48   73.99
   1  -1 -12 1601.24  115.39
   1  -1 -12 1231.68   87.59
  -1   1  12 1300.57   93.19
  -1   1  12 1199.68   86.29
  -1   1  12 1411.86  103.49
   0  -1 -12 2673.13  147.69
   0  -1 -12 2500.05  154.38
   0   1  12 2534.35  150.38
   0   1  12 2554.04  144.69
  -1  -1 -12 1372.36  106.99
  -1  -1 -12 1168.28   95.39
   1   1  12 1208.08   99.59
   1   1  12 1115.59   94.39
  -2  -1 -12 1112.59   89.29
  -2  -1 -12 1154.18  107.19
   2   1  12 1098.39  100.69
   2   1  12 1186.18  105.09
  -3  -1 -12 1237.88  122.19
  -3  -1 -12 1255.27   81.59
   3   1  12  997.60  105.39
   3   1  12 1118.79  106.49
   3   1  12 1146.99  172.48
  -4  -1 -12  972.70  129.09
   4   1  12  608.94   93.19
   4   1  12  642.54  109.29
   6  -2 -12   34.10   65.39
  -6   2  12  125.29   45.90
  -6   2  12  121.39   40.50
   5  -2 -12  169.88   58.89
  -5   2  12   76.09   36.20
  -5   2  12   88.99   40.60
   4  -2 -12   59.59   57.39
  -4   2  12   13.80   36.60
  -4   2  12   72.39   30.70
  -4   2  12   66.19   12.70
   3  -2 -12   20.50   35.60
   3  -2 -12   53.19   24.80
  -3   2  12  113.19   42.10
  -3   2  12   74.29   26.60
  -3   2  12  103.59   28.80
   2  -2 -12   18.90   29.00
   2  -2 -12   20.20   24.00
  -2   2  12   30.60   30.10
  -2   2  12   14.30   22.80
  -2   2  12   40.80   25.60
   1  -2 -12   14.10   31.20
  -1   2  12   14.20   27.00
  -1   2  12  -10.40   19.50
   0  -2 -12  443.96   72.39
   0  -2 -12  417.36   65.99
   0   2  12  378.06   61.09
   0   2  12  285.37   56.19
  -1  -2 -12  419.96   69.89
  -1  -2 -12  459.45   64.49
   1   2  12  602.84   80.69
   1   2  12  383.46   61.59
  -2  -2 -12  287.37   61.79
  -2  -2 -12  258.27   44.70
   2   2  12  270.27   63.29
  -3  -2 -12  283.67   71.99
  -3  -2 -12  241.48   36.90
   3   2  12  298.07   68.09
   3   2  12  221.98   61.29
   5  -3 -12 1337.47  140.29
  -5   3  12 1423.96  123.89
  -5   3  12 1274.87  103.89
   4  -3 -12  642.74  100.79
   4  -3 -12  602.14   59.09
  -4   3  12  597.64   73.89
  -4   3  12  591.24   87.49
   3  -3 -12 1004.50   80.89
   3  -3 -12 1101.89  116.49
  -3   3  12  998.40   82.79
  -3   3  12 1059.19   86.19
   2  -3 -12 1383.56  130.79
   2  -3 -12 1157.88  116.39
  -2   3  12 1094.99  102.29
  -2   3  12 1068.39   80.69
   1  -3 -12 1162.08  107.69
   1  -3 -12 1009.90   93.19
  -1   3  12  855.41   91.49
  -1   3  12  999.90   82.09
   0  -3 -12  511.05   78.49
   0  -3 -12  578.84   79.49
   0   3  12  547.55   70.39
   0   3  12  512.85   79.69
  -1  -3 -12  378.06   70.49
  -1  -3 -12  308.07   60.39
   1   3  12  384.16   61.69
   1   3  12  544.55   92.99
  -2  -3 -12  370.56   56.39
  -2  -3 -12  352.46   77.29
   2   3  12  434.96   75.49
   2   3  12  293.97   70.89
  -3  -3 -12  225.18   68.89
   3   3  12  177.98   65.79
   3   3  12  270.57   65.59
   5  -4 -12  271.17   82.19
  -5   4  12  330.77   57.19
  -5   4  12  409.46   79.69
   4  -4 -12  492.85   70.09
   4  -4 -12  492.25  101.19
  -4   4  12  540.45   68.89
  -4   4  12  453.35   84.09
   3  -4 -12  882.71   93.69
   3  -4 -12  854.31  127.79
  -3   4  12  758.82   98.79
  -3   4  12  708.33   70.29
   2  -4 -12  994.80  126.19
   2  -4 -12 1001.20  100.99
  -2   4  12 1234.08  114.49
  -2   4  12 1175.58   88.89
   1  -4 -12  982.70  106.29
   1  -4 -12 1044.50  114.59
  -1   4  12 1086.69   88.19
  -1   4  12  954.90  102.89
   0  -4 -12 1180.28  116.29
   0  -4 -12 1334.97  121.39
   0   4  12 1065.49  110.19
   0   4  12 1121.19   95.99
  -1  -4 -12 1512.75  140.59
  -1  -4 -12 1498.25  120.39
   1   4  12 1406.56  116.09
   1   4  12 1396.36  132.29
  -2  -4 -12 1174.88  141.59
   2   4  12  887.81  130.19
   2   4  12 1152.98  122.39
   3  -5 -12   49.90   59.49
   3  -5 -12  102.19   53.59
  -3   5  12    1.20   38.70
  -3   5  12   36.10   35.10
   2  -5 -12   17.50   52.39
   2  -5 -12  -25.80   53.49
  -2   5  12    3.20   37.00
  -2   5  12   13.40   33.00
   1  -5 -12   72.79   54.99
   1  -5 -12  -16.00   46.80
  -1   5  12  -20.10   35.50
  -1   5  12   -7.10   33.30
   0  -5 -12   -8.00   47.00
   0  -5 -12   56.99   54.89
   0   5  12  -18.00   38.50
   0   5  12  -25.50   41.20
   1   8 -13   35.10   48.00
  -1  -8  13   48.90   41.40
   0   8 -13  181.78   61.19
   0  -8  13   66.09   55.29
   0  -8  13  184.08   54.59
   3   7 -13  739.83  117.09
  -3  -7  13  895.71   75.99
  -3  -7  13  664.13   89.79
  -3  -7  13  723.33   85.39
   2   7 -13  885.21  122.59
  -2  -7  13  655.13  108.39
  -2  -7  13  727.43   91.59
  -2  -7  13  781.72   62.29
   1   7 -13  583.54   97.99
  -1  -7  13  711.13   90.59
  -1  -7  13  672.23   93.59
   0   7 -13  259.67   67.09
   0  -7  13  247.88   62.89
   0  -7  13  139.39   48.10
  -1   7 -13  586.24   84.69
  -1   7 -13  501.75   83.19
   1  -7  13  691.63  109.79
  -2   7 -13  314.87   78.09
  -2   7 -13  275.27   70.79
   2  -7  13  292.77   65.89
   4   6 -13  445.16   92.49
  -4  -6  13  540.55   83.99
  -4  -6  13  471.65   57.39
  -4  -6  13  477.35   66.19
   3   6 -13  499.25   92.29
  -3  -6  13  668.33   67.99
  -3  -6  13  669.63   73.49
  -3  -6  13  654.23   88.19
   2   6 -13 1004.90  112.09
  -2  -6  13  996.40   88.39
  -2  -6  13  995.60   73.69
  -2  -6  13  943.71   90.49
  -2  -6  13 1221.08   99.49
   1   6 -13 1246.68   97.09
   1   6 -13 1337.47  123.49
  -1  -6  13 1206.38   75.49
  -1  -6  13 1333.87  107.59
  -1  -6  13 1381.46  112.19
  -1  -6  13 1389.56   71.69
   0   6 -13 1398.66  111.19
   0   6 -13 1430.96  125.49
   0  -6  13 1596.24  117.39
  -1   6 -13 1212.78  114.79
  -1   6 -13 1112.99  107.29
   1  -6  13 1252.97  109.69
  -2   6 -13 1021.80  127.19
  -2   6 -13  999.40  109.79
   2  -6  13 1031.00  105.79
   5   5 -13   50.99   50.79
  -5  -5  13  -40.60   33.90
   4   5 -13  136.99   57.19
  -4  -5  13  110.09   43.40
  -4  -5  13  121.99   39.30
   3   5 -13   32.50   31.40
   3   5 -13   17.50   63.69
   3   5 -13   -7.10   20.00
  -3  -5  13   -1.60   27.90
  -3  -5  13   41.50   25.70
   2   5 -13   55.69   35.40
   2   5 -13   21.00   21.70
   2   5 -13   74.99   43.40
  -2  -5  13  -15.80   28.30
  -2  -5  13   46.80   25.20
   1   5 -13   -8.40   22.00
   1   5 -13   16.40   28.60
  -1  -5  13   -1.30   22.90
  -1  -5  13    8.70   20.30
  -1  -5  13   11.80   42.60
   0   5 -13   26.60   36.20
   0   5 -13  -11.40   25.00
   0  -5  13   27.00   21.10
   0  -5  13   -8.60   28.70
   0  -5  13   78.79   36.30
  -1   5 -13  -12.00   28.10
  -1   5 -13   19.30   34.30
   1  -5  13   28.50   30.40
   1  -5  13   27.60   19.90
   1  -5  13   63.69   26.00
  -2   5 -13  193.78   56.19
  -2   5 -13   57.49   43.70
   2  -5  13  125.39   30.10
   2  -5  13  106.89   46.30
  -3   5 -13  333.97   73.29
  -3   5 -13  268.17   60.79
   3  -5  13  280.57   65.89
   5   4 -13  854.31  124.09
  -5  -4  13  651.33   87.49
  -5  -4  13  791.62  109.99
   4   4 -13 1382.36  221.38
  -4  -4  13 1181.98  104.19
  -4  -4  13 1227.58   98.19
   3   4 -13 1115.09  113.09
   3   4 -13 1149.19   72.69
   3   4 -13  904.91   57.09
  -3  -4  13  949.21   89.59
  -3  -4  13 1032.60   83.49
   2   4 -13 1309.17  119.69
   2   4 -13 1414.06   80.29
   2   4 -13 1304.17   86.69
  -2  -4  13 1405.66  108.09
  -2  -4  13 1338.77   91.79
   1   4 -13 1535.75   97.69
   1   4 -13 1577.24  127.19
  -1  -4  13 1528.05  109.99
  -1  -4  13 1491.55   91.99
   0   4 -13  624.54   88.59
   0   4 -13  927.41   81.29
   0  -4  13  768.62   61.09
   0  -4  13  593.64   67.29
   0  -4  13  782.42   94.29
  -1   4 -13  542.35   55.79
  -1   4 -13  527.85   76.59
  -1   4 -13  438.96   76.39
   1  -4  13  503.85   53.69
   1  -4  13  484.35   74.09
  -2   4 -13  737.73   70.99
  -2   4 -13  860.31  105.49
  -2   4 -13  904.81   93.29
   2  -4  13  613.34  130.49
   2  -4  13  722.23   65.59
  -3   4 -13  819.42  104.39
  -3   4 -13  675.63   99.69
   3  -4  13  537.25   84.69
   6   3 -13   70.99   56.39
  -6  -3  13  115.29   46.60
  -6  -3  13  124.69   49.20
   5   3 -13  259.27   72.79
  -5  -3  13  150.48   54.09
  -5  -3  13  137.29   42.30
   4   3 -13  272.67   68.29
  -4  -3  13  344.47   62.99
  -4  -3  13  287.87   53.89
   3   3 -13  538.05   91.19
  -3  -3  13  577.64   63.39
  -3  -3  13  385.66   62.39
   2   3 -13 1227.88   69.79
   2   3 -13 1393.76  120.69
   2   3 -13 1148.19   74.09
  -2  -3  13 1138.69   94.79
  -2  -3  13  993.20   79.89
   1   3 -13  850.91  108.19
   1   3 -13  666.53   74.79
   1   3 -13  706.23   63.79
  -1  -3  13  685.03   71.99
  -1  -3  13  697.13   89.99
   0   3 -13  687.83   72.79
   0   3 -13  921.51   94.39
   0  -3  13  837.12   68.29
   0  -3  13  886.31   82.19
  -1   3 -13 1096.09  101.69
  -1   3 -13 1136.39   96.89
   1  -3  13  940.21   77.39
   1  -3  13 1038.90   92.69
  -2   3 -13 1307.37  106.89
  -2   3 -13 1166.18  109.19
   2  -3  13 1253.37  109.59
   2  -3  13 1256.97  128.49
  -3   3 -13 1348.37  133.59
  -3   3 -13 1508.15  117.89
   3  -3  13 1448.36  108.59
   3  -3  13 1375.56  128.79
  -4   3 -13  824.42  122.09
  -4   3 -13  650.23   85.49
   4  -3  13  755.42  110.89
   6   2 -13  554.44  107.49
  -6  -2  13  549.45   87.99
  -6  -2  13  638.34   90.79
   5   2 -13  696.53  105.59
  -5  -2  13  674.23   87.39
   4   2 -13  349.57   81.79
  -4  -2  13  290.67   59.39
  -4  -2  13  197.88   44.40
   3   2 -13  713.03  102.09
  -3  -2  13  628.34   67.99
  -3  -2  13  593.14   81.49
   2   2 -13  239.78   33.40
   2   2 -13  261.47   61.59
   2   2 -13  276.37   32.70
  -2  -2  13  285.27   48.80
  -2  -2  13  292.27   53.59
   1   2 -13  140.39   46.00
   1   2 -13  163.38   44.40
   1   2 -13  142.49   30.50
  -1  -2  13  163.38   36.90
  -1  -2  13  159.18   34.70
   0   2 -13  165.28   38.40
   0   2 -13  100.89   36.50
   0  -2  13   93.19   31.20
   0  -2  13   73.49   29.10
  -1   2 -13   67.19   33.20
  -1   2 -13  132.59   42.70
   1  -2  13   27.70   26.00
   1  -2  13   71.19   29.50
  -2   2 -13   56.29   39.70
  -2   2 -13   86.89   39.50
   2  -2  13  108.69   43.50
   2  -2  13   72.09   33.70
  -3   2 -13   27.30   35.60
  -3   2 -13   52.49   47.80
   3  -2  13   80.79   42.50
   3  -2  13   73.49   42.00
  -4   2 -13  192.18   76.39
  -4   2 -13  178.38   47.70
   4  -2  13  172.68   54.79
   4  -2  13  100.89   48.40
   6   1 -13 1147.79  151.48
  -6  -1  13 1001.80  100.99
  -6  -1  13 1020.20  107.39
   5   1 -13 1219.48  125.39
  -5  -1  13  973.40  101.19
  -5  -1  13 1028.40   95.19
   4   1 -13 1583.34  135.99
  -4  -1  13 1730.63  124.19
  -4  -1  13 1737.83  121.69
   3   1 -13 1535.25  132.29
  -3  -1  13 1711.23  119.49
  -3  -1  13 1767.02  119.89
   2   1 -13 1097.59   66.59
   2   1 -13 1076.39  104.69
   2   1 -13 1102.69   62.89
  -2  -1  13 1047.90   87.89
  -2  -1  13 1027.80   88.89
   1   1 -13 1534.15  107.29
   1   1 -13 1893.81  102.09
   1   1 -13 1847.22  131.49
  -1  -1  13 1601.34  114.39
  -1  -1  13 1891.01  118.19
   0   1 -13 2331.47  151.38
   0   1 -13 2439.06  134.89
   0  -1  13 2262.87  140.99
   0  -1  13 2341.87  135.39
  -1   1 -13 1060.69   92.79
  -1   1 -13  993.50   90.29
   1  -1  13 1409.06  110.79
   1  -1  13 1400.76  102.69
  -2   1 -13 1169.28  106.89
  -2   1 -13 1230.98   96.79
   2  -1  13 1267.17  104.29
   2  -1  13 1145.99  114.69
  -3   1 -13  898.31  114.69
  -3   1 -13  928.91   86.09
   3  -1  13  896.31   95.39
   3  -1  13  765.72   98.09
  -4   1 -13  556.04   94.99
  -4   1 -13  663.83   68.19
   4  -1  13  715.63  106.59
   6   0 -13  109.99   64.49
  -6   0  13   -5.70   36.80
  -6   0  13   69.29   39.30
   5   0 -13   42.70   37.60
  -5   0  13   10.30   30.80
  -5   0  13    0.00   28.00
   4   0 -13   91.79   47.90
  -4   0  13  245.58   52.39
  -4   0  13  148.09   42.90
   3   0 -13   43.50   35.50
  -3   0  13  102.09   36.60
  -3   0  13   99.99   33.80
   2   0 -13  228.58   55.69
   2   0 -13  314.77   38.10
   2   0 -13  344.27   43.30
  -2   0  13  244.28   45.80
  -2   0  13  222.28   47.30
   1   0 -13  821.42   85.39
   1   0 -13  853.71   81.49
   1   0 -13  663.73   65.49
  -1   0  13  660.93   71.29
  -1   0  13  561.54   73.49
   0   0 -13  488.45   65.79
   0   0 -13  516.45   78.09
   0   0  13  507.35   66.59
   0   0  13  478.35   65.99
  -1   0 -13  362.46   61.99
  -1   0 -13  311.87   58.29
   1   0  13  448.26   66.49
   1   0  13  307.37   61.09
  -2   0 -13  684.53   74.19
  -2   0 -13  611.54   81.59
   2   0  13  545.65   74.29
  -3   0 -13  800.22  107.69
  -3   0 -13 1096.49   82.79
   3   0  13  956.00  102.49
   3   0  13  852.41  114.39
   6  -1 -13  907.81  135.59
  -6   1  13  571.14   86.29
  -6   1  13  673.73   86.19
   5  -1 -13  565.34  110.69
  -5   1  13  524.25   85.89
  -5   1  13  500.75   85.89
   4  -1 -13  954.10  136.59
  -4   1  13  779.62   81.79
   3  -1 -13  433.96   30.30
   3  -1 -13  465.05   31.90
   3  -1 -13  433.66   30.30
   3  -1 -13  297.77   73.19
  -3   1  13  410.26   69.59
  -3   1  13  415.26   63.09
   2  -1 -13  503.25   53.19
   2  -1 -13  699.33  101.59
  -2   1  13  476.55   64.29
  -2   1  13  494.05   53.69
  -2   1  13  624.34   88.09
   1  -1 -13  661.53   67.69
   1  -1 -13  679.83   93.69
  -1   1  13  604.64   76.89
  -1   1  13  739.03   72.49
   0  -1 -13  591.14   81.09
   0  -1 -13  554.84   74.29
   0   1  13  510.15   70.09
   0   1  13  578.64   76.79
  -1  -1 -13  178.98   50.69
  -1  -1 -13  152.08   46.00
   1   1  13  179.48   49.90
   1   1  13  211.78   47.60
  -2  -1 -13  220.28   57.09
  -2  -1 -13  171.88   43.50
   2   1  13  132.99   46.90
   2   1  13  140.19   51.79
  -3  -1 -13  106.59   39.20
  -3  -1 -13  123.09   61.69
   3   1  13  223.08   62.69
   3   1  13   17.20   43.60
   5  -2 -13  830.42  117.89
  -5   2  13  674.53  101.69
   4  -2 -13 1170.38  126.89
  -4   2  13 1088.29   93.19
  -4   2  13 1247.38  113.69
   3  -2 -13 1017.20  134.09
   3  -2 -13  647.94   59.79
  -3   2  13  675.83   56.89
  -3   2  13  609.74   74.69
   2  -2 -13 1149.08  118.29
   2  -2 -13 1225.38   89.49
  -2   2  13 1293.67  110.99
  -2   2  13 1394.66   95.79
  -2   2  13 1363.86  100.59
   1  -2 -13 1425.06  120.99
   1  -2 -13 1555.24  111.29
  -1   2  13 1297.67  101.59
  -1   2  13 1597.84  121.89
   0  -2 -13 1289.57  106.49
   0  -2 -13 1191.78  108.79
   0   2  13 1011.00   92.09
   0   2  13 1181.98  109.59
  -1  -2 -13 1445.86  123.89
  -1  -2 -13 1561.34  115.19
   1   2  13 1285.97  141.39
   1   2  13 1484.05  117.09
  -2  -2 -13 1117.29   97.39
  -2  -2 -13 1422.76  124.79
   2   2  13 1404.46  126.69
   2   2  13 1256.87  117.39
  -3  -2 -13  817.82  114.49
   3   2  13  858.91  113.49
   3   2  13  590.94   92.19
   5  -3 -13   16.80   54.89
  -5   3  13  126.49   63.99
  -5   3  13   62.69   46.60
   4  -3 -13   25.50   31.20
   4  -3 -13   11.50   46.10
  -4   3  13   28.20   43.60
  -4   3  13  -10.60   32.20
   3  -3 -13   61.29   49.80
   3  -3 -13   37.60   36.00
  -3   3  13    6.70   34.30
  -3   3  13   24.40   33.00
   2  -3 -13  109.19   40.10
   2  -3 -13  -22.20   52.09
  -2   3  13   68.69   39.60
  -2   3  13   14.50   26.30
   1  -3 -13   48.90   45.00
   1  -3 -13   32.80   42.40
  -1   3  13   22.80   36.30
  -1   3  13   27.80   26.60
   0  -3 -13  279.17   63.39
   0  -3 -13  330.47   68.39
   0   3  13  184.88   56.59
   0   3  13  298.97   62.39
  -1  -3 -13  427.96   71.09
  -1  -3 -13  348.07   67.39
   1   3  13  406.16   74.39
   1   3  13  361.36   76.19
  -2  -3 -13   78.59   40.30
  -2  -3 -13  123.89   58.99
   2   3  13   -8.80   41.70
   2   3  13   18.30   44.10
   4  -4 -13  856.51   93.49
   4  -4 -13  927.21  146.19
  -4   4  13  911.11   85.89
  -4   4  13  743.93  109.09
   3  -4 -13  611.24  106.69
   3  -4 -13  705.53   86.59
  -3   4  13  621.24   98.59
  -3   4  13  986.10   85.09
   2  -4 -13  820.52  103.99
   2  -4 -13 1035.30  134.09
  -2   4  13  576.14   86.29
  -2   4  13  774.32   81.99
   1  -4 -13  877.01  109.69
   1  -4 -13  756.92  118.19
  -1   4  13  786.52  106.99
  -1   4  13  845.22   85.39
   0  -4 -13  532.55   95.19
   0  -4 -13  456.85   82.79
   0   4  13  436.66   72.29
   0   4  13  432.86   66.89
  -1  -4 -13  571.14   92.69
  -1  -4 -13  463.85   79.79
   1   4  13  503.15   82.29
   1   4  13  483.95   75.59
   3   7 -14  142.79   64.99
  -3  -7  14  146.29   43.80
   2   7 -14   28.30   43.50
  -2  -7  14   72.89   31.70
  -2  -7  14  195.18   59.39
  -2  -7  14   44.40   39.30
   1   7 -14  135.79   46.80
   1   7 -14  136.89   54.09
  -1  -7  14  132.49   57.79
  -1  -7  14  126.49   49.60
   0   7 -14  369.06   70.99
   0   7 -14  310.77   78.79
   0  -7  14  369.06   74.29
  -1   7 -14  130.89   62.89
  -1   7 -14  166.38   64.39
   1  -7  14  107.59   55.89
   4   6 -14  626.24  108.99
  -4  -6  14  701.43   84.69
  -4  -6  14  545.05   84.49
   3   6 -14  681.53   63.69
   3   6 -14  674.03  103.39
  -3  -6  14  714.23   77.19
  -3  -6  14  767.52   97.99
   2   6 -14  951.90   80.39
   2   6 -14  896.11  120.29
  -2  -6  14 1105.19   81.09
  -2  -6  14 1134.59  105.79
   1   6 -14  792.52  114.69
   1   6 -14  646.44   79.99
  -1  -6  14  743.63   57.49
  -1  -6  14  832.02   89.79
   0   6 -14  365.46   65.09
   0   6 -14  337.57   70.09
   0  -6  14  214.78   56.99
  -1   6 -14  275.97   66.09
  -1   6 -14  252.77   66.79
   1  -6  14  294.77   65.29
  -2   6 -14   67.39   54.99
  -2   6 -14   69.89   50.29
   2  -6  14   95.59   45.60
   5   5 -14  570.24  108.39
  -5  -5  14  650.53   85.89
  -5  -5  14  698.53   97.99
   4   5 -14  706.93  107.99
  -4  -5  14  832.72   87.19
  -4  -5  14  845.02   99.69
   3   5 -14  616.14   64.69
   3   5 -14  491.05   46.40
   3   5 -14  565.44   99.19
  -3  -5  14  584.94   73.09
  -3  -5  14  795.72   96.39
   2   5 -14  840.72   70.59
   2   5 -14  632.44   97.79
  -2  -5  14 1012.40   79.49
  -2  -5  14  662.33  132.09
   1   5 -14  958.00   83.19
   1   5 -14  942.81  131.89
  -1  -5  14 1048.90   75.79
  -1  -5  14 1030.60   96.79
  -1  -5  14  993.90   94.09
   0   5 -14  849.41   88.09
   0  -5  14  964.70  164.78
   0  -5  14  925.41   80.49
   0  -5  14 1061.19   69.79
  -1   5 -14  867.91   95.09
   1  -5  14  806.42   79.39
   1  -5  14  894.01   59.99
   1  -5  14  901.51   96.19
  -2   5 -14 1332.47  126.69
  -2   5 -14 1188.88  118.09
   2  -5  14 1198.88   74.59
   2  -5  14 1239.18  119.99
   5   4 -14  112.69   56.09
  -5  -4  14  170.38   49.10
  -5  -4  14  140.59   47.50
   4   4 -14  161.88   57.99
  -4  -4  14  147.79   43.60
  -4  -4  14  173.88   48.30
   3   4 -14   34.50   40.80
   3   4 -14  117.79   17.00
   3   4 -14  124.69   14.90
  -3  -4  14  163.98   40.30
  -3  -4  14  120.19   41.20
   2   4 -14   -6.00   20.20
   2   4 -14   -7.40   33.70
   2   4 -14    7.50   40.00
  -2  -4  14   27.50   25.80
  -2  -4  14   -6.20   25.40
   1   4 -14   69.29   31.60
   1   4 -14  120.89   53.49
  -1  -4  14   93.89   35.40
   0   4 -14  -23.10   28.20
   0   4 -14   59.89   36.30
   0  -4  14   66.29   26.60
   0  -4  14    6.60   26.10
  -1   4 -14   41.30   36.50
  -1   4 -14   91.19   41.00
  -1   4 -14    8.00   33.40
   1  -4  14   44.70   34.20
   1  -4  14   49.00   33.20
  -2   4 -14  335.37   66.29
  -2   4 -14  408.86   94.69
   2  -4  14  262.47   58.69
   2  -4  14  357.96   52.49
  -3   4 -14  254.57   65.39
  -3   4 -14  260.57   73.59
   3  -4  14  237.48   68.59
   5   3 -14 1131.59  149.09
  -5  -3  14  954.90   96.19
  -5  -3  14 1027.30  103.59
   4   3 -14  696.03  102.09
  -4  -3  14 1120.29  100.79
  -4  -3  14  835.62   86.49
   3   3 -14 1954.50  157.18
  -3  -3  14 1785.12  120.29
  -3  -3  14 1833.02  132.39
   2   3 -14 1462.35   79.49
   2   3 -14 1506.35   88.79
   2   3 -14 1355.36  123.79
  -2  -3  14 1705.13  112.69
  -2  -3  14 1671.33  122.29
   1   3 -14  999.10   76.79
   1   3 -14  939.91  100.39
  -1  -3  14  923.01   88.99
  -1  -3  14  997.20   80.39
   0   3 -14  947.01   87.39
   0   3 -14 1161.78  112.39
   0  -3  14 1209.18   87.39
   0  -3  14 1017.60   95.79
  -1   3 -14 1146.69  104.59
  -1   3 -14 1003.10  106.49
   1  -3  14 1037.30   84.09
  -2   3 -14  864.51  108.09
  -2   3 -14  773.62  100.19
   2  -3  14  935.21  112.29
   2  -3  14  876.61   84.69
  -3   3 -14  602.64   99.59
  -3   3 -14  418.26   71.59
   3  -3  14  500.25   72.99
   3  -3  14  535.35   84.99
   5   2 -14  122.99   57.39
  -5  -2  14  172.48   53.89
  -5  -2  14  166.98   51.79
   4   2 -14  448.46   85.99
  -4  -2  14  691.63   86.29
  -4  -2  14  485.65   71.79
   3   2 -14  776.32  107.29
  -3  -2  14  607.54   75.59
  -3  -2  14  688.63   88.89
   2   2 -14  683.13   98.29
   2   2 -14  703.83   50.99
   2   2 -14  679.73   56.59
  -2  -2  14  702.63   74.79
  -2  -2  14  746.33   94.89
   1   2 -14  699.63   61.49
   1   2 -14  706.73   78.89
   1   2 -14  606.34   91.49
  -1  -2  14  668.93   69.19
  -1  -2  14  787.02   79.29
   0   2 -14 1127.89   90.19
   0   2 -14 1064.89  100.59
   0  -2  14 1220.58   92.29
   0  -2  14 1262.87  105.69
  -1   2 -14 1427.76  109.89
  -1   2 -14 1255.77  108.79
   1  -2  14 1380.26  104.69
   1  -2  14 1500.45  152.18
  -2   2 -14 1595.44  119.09
  -2   2 -14 1642.24  132.69
   2  -2  14 1508.65  124.99
   2  -2  14 1252.47  104.89
  -3   2 -14  866.61   91.79
  -3   2 -14  832.12  116.49
   3  -2  14  711.13  101.79
   3  -2  14  831.72  100.19
  -6  -1  14  511.45   77.59
   5   1 -14  372.86   87.79
  -5  -1  14  419.16   71.49
  -5  -1  14  420.56   69.79
   4   1 -14  205.58   70.49
  -4  -1  14  220.88   52.39
  -4  -1  14  245.68   56.89
   3   1 -14  369.86   74.79
  -3  -1  14  230.18   49.20
  -3  -1  14  117.89   39.50
   2   1 -14  355.36   74.69
   2   1 -14  303.37   41.30
   2   1 -14  375.96   41.10
  -2  -1  14  209.88   42.60
  -2  -1  14  279.67   53.69
   1   1 -14  213.28   37.40
   1   1 -14  145.19   44.90
   1   1 -14  169.98   52.29
  -1  -1  14  103.59   35.40
  -1  -1  14  183.68   43.70
   0   1 -14  196.48   44.00
   0   1 -14  222.68   52.29
   0  -1  14  107.09   38.40
   0  -1  14  166.38   46.80
  -1   1 -14   30.80   35.30
  -1   1 -14   87.59   40.50
   1  -1  14   -3.70   29.90
   1  -1  14   21.20   37.70
  -2   1 -14   -1.50   37.80
  -2   1 -14   38.70   35.20
   2  -1  14   33.90   38.60
   2  -1  14   24.90   35.20
  -3   1 -14   18.30   47.10
  -3   1 -14   23.80   38.50
   3  -1  14   64.59   46.10
   3  -1  14  -43.20   38.80
   5   0 -14  652.93  104.59
  -5   0  14  942.11   92.39
  -5   0  14  729.53  101.19
   4   0 -14 1249.47  132.49
  -4   0  14 1238.78  115.59
   3   0 -14  909.61  124.49
  -3   0  14  885.91   87.59
  -3   0  14  935.51   97.59
   2   0 -14 1508.65   91.29
   2   0 -14 1386.26   82.99
   2   0 -14 1582.44  133.69
  -2   0  14 1562.94  113.69
  -2   0  14 1559.54  120.89
   1   0 -14 1430.06  121.19
   1   0 -14 1367.26   93.79
  -1   0  14 1347.97  105.69
  -1   0  14 1372.56  109.09
   0   0 -14 1225.78   99.79
   0   0 -14 1277.27  112.89
   0   0  14 1254.67  103.79
   0   0  14 1155.88  100.79
  -1   0 -14  539.75   78.39
  -1   0 -14  604.94   83.99
   1   0  14  708.03   89.89
  -2   0 -14  625.04   78.59
  -2   0 -14  645.54   97.99
   2   0  14  623.24   88.19
   2   0  14  746.73   99.69
  -3   0 -14 1101.19  135.49
   3   0  14 1101.89  113.89
   3   0  14  759.32  108.09
   5  -1 -14  -38.30   47.70
  -5   1  14  189.78   54.29
  -5   1  14  102.79   56.99
   4  -1 -14   47.00   46.00
  -4   1  14   68.69   43.50
  -4   1  14  125.39   48.30
   3  -1 -14  -24.20   41.50
   3  -1 -14    4.80   26.90
   3  -1 -14   -3.60   16.00
  -3   1  14  -25.20   27.40
  -3   1  14   11.00   42.20
   2  -1 -14  136.39   36.00
   2  -1 -14  231.58   57.29
  -2   1  14  246.98   58.19
  -2   1  14  204.48   49.00
   1  -1 -14  547.55   91.89
   1  -1 -14  436.06   61.09
  -1   1  14  564.64   78.19
  -1   1  14  360.46   65.59
   0  -1 -14  237.68   52.29
   0  -1 -14  252.87   59.59
   0   1  14  214.78   50.89
   0   1  14  145.69   41.20
  -1  -1 -14  562.94   79.89
  -1  -1 -14  610.94   83.89
   1   1  14  487.05   84.89
  -2  -1 -14  403.46   64.09
  -2  -1 -14  367.66   71.19
   2   1  14  507.25   81.69
   2   1  14  415.46   73.79
   5  -2 -14  773.92  135.79
  -5   2  14  908.31   93.59
  -5   2  14  793.52  112.59
   4  -2 -14  440.26   85.69
  -4   2  14  404.66   80.49
  -4   2  14  426.76   72.99
   3  -2 -14  770.02  119.59
   3  -2 -14  578.04   57.79
  -3   2  14  471.45   63.69
  -3   2  14  602.04   91.29
   2  -2 -14  614.14   73.29
   2  -2 -14  634.14  119.59
  -2   2  14  505.75   65.79
  -2   2  14  569.14   80.69
   1  -2 -14  561.44   76.09
   1  -2 -14  520.85   88.69
  -1   2  14  469.85   71.29
  -1   2  14  586.84   89.49
   0  -2 -14  393.46   70.39
   0  -2 -14  281.67   60.59
   0   2  14  345.37   70.39
   0   2  14  266.07   58.09
  -1  -2 -14  208.18   60.89
  -1  -2 -14  130.89   51.69
   1   2  14  112.09   44.00
   1   2  14  195.48   55.59
  -2  -2 -14  124.09   55.69
  -2  -2 -14  253.97   55.39
   2   2  14   92.49   51.09
   2   2  14  129.09   55.59
   4  -3 -14  239.38   73.49
  -4   3  14  303.67   72.09
  -4   3  14  203.68   52.39
   3  -3 -14 1196.68  132.59
   3  -3 -14 1031.30   91.49
  -3   3  14 1137.59  115.09
  -3   3  14  995.40   93.89
   2  -3 -14 1412.76  113.19
  -2   3  14 1554.74  114.39
  -2   3  14 1592.14  134.69
   1  -3 -14  950.40  125.29
   1  -3 -14  934.41  100.89
  -1   3  14  986.90  107.99
  -1   3  14 1024.10   94.69
   0  -3 -14 1220.28  118.29
   0  -3 -14  936.21  119.09
   0   3  14 1234.18  108.29
   0   3  14 1395.86  126.59
  -1  -3 -14  890.91  113.79
  -1  -3 -14  933.21  108.79
   1   3  14  751.32  101.79
   1   3  14  565.44   79.69
   2  -4 -14   11.40   51.89
   2  -4 -14   77.79   56.99
  -2   4  14  -23.80   37.50
  -2   4  14    9.00   37.00
   1  -4 -14   50.79   57.89
   1  -4 -14  103.49   53.59
  -1   4  14   56.89   42.30
  -1   4  14   30.50   40.90
   3   6 -15   13.30   32.80
   3   6 -15   -3.10   48.10
  -3  -6  15    7.00   35.30
  -3  -6  15   66.59   47.40
   2   6 -15   80.49   39.50
   2   6 -15  188.48   65.59
  -2  -6  15  133.89   49.30
   1   6 -15  286.87   70.89
   1   6 -15  251.77   55.79
  -1  -6  15  261.77   41.10
  -1  -6  15  262.27   59.29
   0   6 -15  276.87   65.19
   0   6 -15  196.98   64.39
   0  -6  15  449.46   78.39
  -1   6 -15  589.34  102.89
  -1   6 -15  369.16   80.59
   1  -6  15  465.55   77.59
   4   5 -15  635.84  103.99
  -4  -5  15 1027.00   98.09
  -4  -5  15  819.12  107.89
   3   5 -15  708.73   52.99
   3   5 -15  659.93  112.29
  -3  -5  15  805.52  102.29
  -3  -5  15  637.54   78.59
   2   5 -15  421.36   53.69
   2   5 -15  471.25   92.69
  -2  -5  15  445.26   60.99
  -2  -5  15  481.15   74.49
   1   5 -15  497.35   67.69
   1   5 -15  436.26   83.19
  -1  -5  15  466.25   56.19
  -1  -5  15  358.36   62.49
   0   5 -15  969.80   97.59
   0   5 -15  673.93  100.09
   0  -5  15  746.93   69.79
   0  -5  15  828.92  104.99
  -1   5 -15  277.27   68.49
  -1   5 -15  194.08   62.19
   1  -5  15  274.27   60.89
   1  -5  15  231.98   41.00
   4   4 -15  756.52  123.59
  -4  -4  15  586.44   78.19
  -4  -4  15  502.15   76.89
   3   4 -15 1068.39  140.99
  -3  -4  15  912.51   98.09
  -3  -4  15  993.10   90.29
   2   4 -15 1325.47  131.79
   2   4 -15 1058.09   74.99
  -2  -4  15 1213.38  111.49
  -2  -4  15 1297.37   99.69
   1   4 -15 1153.28   94.09
   1   4 -15 1266.67  128.89
  -1  -4  15 1306.17  113.19
  -1  -4  15 1462.55   97.99
   0   4 -15 1247.38  107.39
   0   4 -15 1588.34  254.67
   0  -4  15 1051.69   85.69
   0  -4  15 1089.19  104.29
  -1   4 -15 1520.45  129.39
   1  -4  15 1556.74  127.49
   1  -4  15 1537.05  127.79
  -2   4 -15 1649.54  149.19
   2  -4  15 1423.06  133.59
   5   3 -15  183.48   64.49
  -5  -3  15  274.57   58.59
  -5  -3  15  296.57   63.99
   4   3 -15  192.58   73.59
  -4  -3  15  243.38   52.39
  -4  -3  15  183.28   49.20
   3   3 -15   56.39   46.30
  -3  -3  15   42.80   33.80
  -3  -3  15   63.69   36.40
   2   3 -15  -18.70   20.70
   2   3 -15   20.30   36.20
   2   3 -15    9.60   35.20
  -2  -3  15   -6.70   30.40
  -2  -3  15  -14.20   27.40
   1   3 -15   24.20   28.70
   1   3 -15   29.90   44.20
  -1  -3  15   21.60   28.40
  -1  -3  15   26.60   29.80
   0   3 -15    2.80   32.20
   0   3 -15   63.29   45.50
   0  -3  15   71.09   38.20
   0  -3  15   67.89   33.20
  -1   3 -15  282.47   66.99
  -1   3 -15  298.47   64.79
   1  -3  15  299.87   61.69
   1  -3  15  339.47   57.29
  -2   3 -15   79.39   48.80
  -2   3 -15   18.50   46.10
   2  -3  15   82.59   45.90
   2  -3  15  257.57   66.49
   5   2 -15 1090.49  136.79
  -5  -2  15 1315.87  119.19
  -5  -2  15 1437.66  123.39
   4   2 -15  908.11  125.99
  -4  -2  15 1020.20  114.59
  -4  -2  15  695.73  112.69
   3   2 -15 1020.20  114.99
  -3  -2  15 1231.08  102.69
  -3  -2  15 1077.69  104.09
   2   2 -15 1138.49   79.59
   2   2 -15 1237.18  152.38
   2   2 -15 1194.18   69.89
  -2  -2  15 1254.17  121.29
  -2  -2  15 1248.58  103.09
   1   2 -15  953.40  103.89
   1   2 -15  882.31   74.19
  -1  -2  15 1058.09   93.09
  -1  -2  15 1205.08  129.49
   0   2 -15  695.53   98.19
   0   2 -15  682.23   79.39
   0  -2  15  756.12   79.99
   0  -2  15  900.11  109.89
  -1   2 -15 1014.90   99.89
  -1   2 -15  802.72  102.79
   1  -2  15  961.00  103.19
   1  -2  15  897.51   89.09
  -2   2 -15  318.87   73.69
  -2   2 -15  508.65   81.49
   2  -2  15  470.85   73.39
   2  -2  15  423.96   80.19
   5   1 -15  359.96   80.19
  -5  -1  15  317.87   70.89
  -5  -1  15  311.67   66.79
   4   1 -15  338.47   79.49
  -4  -1  15  327.47   58.19
  -4  -1  15  331.97   63.89
   3   1 -15  257.77   74.09
  -3  -1  15  155.08   48.60
  -3  -1  15  190.08   51.59
   2   1 -15  549.05   50.79
   2   1 -15  447.06   87.09
   2   1 -15  431.76   52.19
  -2  -1  15  317.67   75.69
  -2  -1  15  396.16   68.89
   1   1 -15  722.63   68.09
   1   1 -15  631.64   92.39
  -1  -1  15  764.32   80.29
  -1  -1  15  863.91  163.58
   0   1 -15 1131.29  106.69
   0   1 -15  806.82   84.69
   0  -1  15 1037.30   92.99
   0  -1  15  962.60   95.79
  -1   1 -15  958.60  104.99
  -1   1 -15 1125.39  106.29
   1  -1  15  999.80  107.09
   1  -1  15 1158.18  104.79
  -2   1 -15  553.24   86.79
  -2   1 -15  830.42   91.49
   2  -1  15  541.55   86.99
   2  -1  15  651.23   88.29
   5   0 -15  242.18   86.69
  -5   0  15  184.18   62.19
  -5   0  15  156.48   54.49
   4   0 -15  586.84  108.79
  -4   0  15  413.06   80.89
  -4   0  15  460.45   71.59
   3   0 -15  419.26   82.49
  -3   0  15  579.54   79.59
  -3   0  15  568.94   85.29
   2   0 -15  170.28   82.59
   2   0 -15  136.69   46.70
   2   0 -15  150.68   36.20
  -2   0  15   72.79   51.89
  -2   0  15  130.19   48.80
   1   0 -15   54.59   40.60
   1   0 -15    2.70   43.10
  -1   0  15   29.80   35.40
   0   0 -15   54.09   38.10
   0   0 -15   78.59   49.00
   0   0  15   18.30   38.90
   0   0  15   27.80   39.50
  -1   0 -15   18.30   42.10
  -1   0 -15   -4.20   38.60
   1   0  15   31.90   65.19
   1   0  15   -6.60   33.50
  -2   0 -15   35.30   47.30
  -2   0 -15  123.09   53.09
   2   0  15    5.70   44.90
   2   0  15   22.70   45.80
   4  -1 -15  764.12  121.29
  -4   1  15  625.34   86.79
  -4   1  15  656.63   95.99
   3  -1 -15 1517.45  145.79
  -3   1  15 1462.25  129.19
  -3   1  15 1198.28  106.79
   2  -1 -15 1452.45  135.99
   2  -1 -15 1430.86   96.39
  -2   1  15  878.61  134.79
  -2   1  15 1518.55  124.89
   1  -1 -15  709.63  107.99
   1  -1 -15  919.31   90.59
  -1   1  15 1234.28  114.29
   0  -1 -15  993.30  100.49
   0  -1 -15  872.41  112.59
   0   1  15 1046.80  101.69
   0   1  15 1075.09  109.89
  -1  -1 -15  888.91  108.69
  -1  -1 -15  937.11  105.39
   1   1  15 1017.80  110.59
   1   1  15  764.42   99.89
   4  -2 -15   17.30   58.69
  -4   2  15  -66.89   41.60
  -4   2  15   17.50   40.60
   3  -2 -15  267.27   42.00
   3  -2 -15  186.48   68.09
  -3   2  15  255.57   66.69
  -3   2  15  207.78   48.70
   2  -2 -15  132.69   61.89
  -2   2  15  212.18   55.69
   1  -2 -15  247.98   55.69
   1  -2 -15  370.96  102.59
  -1   2  15  283.07   67.29
  -1   2  15  255.87   59.79
   0  -2 -15  588.34   87.69
   0  -2 -15  534.35   92.49
   0   2  15  430.36   81.09
   0   2  15  429.96   75.09
  -1  -2 -15  318.97   66.49
  -1  -2 -15  412.56   81.09
   1   2  15  396.36   74.39
   1   2  15  307.27   75.69
   2  -3 -15  434.06   88.19
   2  -3 -15  429.96   75.79
  -2   3  15  425.66   74.99
  -2   3  15  380.56   92.39
   1  -3 -15  193.48   68.59
   1  -3 -15  217.38   70.59
  -1   3  15  253.97   58.59
  -1   3  15  214.78   63.39
   3   5 -16   -5.60   46.90
  -3  -5  16   31.30   46.60
  -3  -5  16   52.69   43.40
   2   5 -16   51.19   37.60
   2   5 -16  120.19   57.79
  -2  -5  16   51.59   43.20
  -2  -5  16  113.39   42.30
   1   5 -16  185.28   67.39
   1   5 -16  134.99   47.40
  -1  -5  16   96.69   49.00
  -1  -5  16   52.19   36.50
   0   5 -16  186.18   56.69
   0   5 -16  208.78   61.09
   0  -5  16  208.98   60.49
   0  -5  16  154.78   44.70
   4   4 -16 1216.68  155.98
  -4  -4  16 1221.88  112.89
  -4  -4  16 1332.07  122.09
   3   4 -16  556.14   97.39
  -3  -4  16  501.35   83.79
  -3  -4  16  588.04   78.89
   2   4 -16  587.24   95.99
   2   4 -16  688.83   62.49
  -2  -4  16  590.14   74.29
  -2  -4  16  667.53   93.69
   1   4 -16  641.04  102.89
   1   4 -16  776.52   81.89
  -1  -4  16  711.23   77.89
  -1  -4  16  526.05   73.09
   0   4 -16  339.97   71.69
   0   4 -16  455.25   84.29
   0  -4  16  380.56   58.09
   0  -4  16  296.57   64.29
  -1   4 -16  215.08   63.19
  -1   4 -16  398.66   85.29
   1  -4  16  330.77   55.69
   1  -4  16  360.66   68.69
   4   3 -16  276.37   71.79
  -4  -3  16  353.86   67.69
  -4  -3  16  513.15   82.89
   3   3 -16  494.95   90.19
  -3  -3  16  629.74   90.59
  -3  -3  16  683.53   86.19
   2   3 -16 1423.46  134.49
   2   3 -16 1330.37   78.59
  -2  -3  16 1368.06  112.19
  -2  -3  16 1422.76  119.39
   1   3 -16 1088.09   87.79
   1   3 -16 1161.98  120.59
  -1  -3  16 1242.58  100.89
  -1  -3  16 1270.97  113.69
   0   3 -16 1123.69  116.49
   0   3 -16 1119.69  103.09
   0  -3  16 1068.69   95.99
   0  -3  16 1183.08  109.29
  -1   3 -16 1285.37  120.99
  -1   3 -16 1214.28  115.29
   1  -3  16 1132.39  100.29
   1  -3  16 1100.59  113.59
   4   2 -16  -18.30   49.00
  -4  -2  16    2.80   40.00
  -4  -2  16   68.69   51.59
   3   2 -16   -3.30   46.40
  -3  -2  16   27.90   44.50
  -3  -2  16   -7.10   36.00
   2   2 -16   17.30   25.40
   2   2 -16   11.90   42.00
  -2  -2  16    2.00   34.20
  -2  -2  16    4.30   32.80
   1   2 -16    7.20   42.50
  -1  -2  16   35.00   34.20
  -1  -2  16   22.80   29.70
   0   2 -16   75.09   44.20
   0  -2  16   -8.10   38.20
   0  -2  16  119.99   42.30
  -1   2 -16  117.49   51.49
  -1   2 -16   95.39   51.79
   1  -2  16  127.49   46.30
   1  -2  16   -6.00   36.80
   4   1 -16  911.91  132.29
  -4  -1  16  987.00  106.89
  -4  -1  16 1023.20  109.89
   3   1 -16  995.00  138.19
  -3  -1  16  879.81  112.19
  -3  -1  16 1081.99  110.19
   2   1 -16 1017.90   72.69
   2   1 -16 1288.97  122.09
  -2  -1  16  874.71  109.69
  -2  -1  16  996.30  100.39
   1   1 -16  996.60  122.49
   1   1 -16  777.12   79.19
  -1  -1  16  695.43   91.59
  -1  -1  16  944.71   95.19
   0   1 -16  687.23   94.49
   0   1 -16  879.21   92.99
   0  -1  16  595.84   83.29
   0  -1  16  541.25   77.59
  -1   1 -16  773.72  100.89
  -1   1 -16  702.73   87.99
   1  -1  16  942.61  157.78
   1  -1  16  798.72  109.19
   4   0 -16  103.79   58.49
  -4   0  16   43.60   43.80
  -4   0  16  115.99   55.19
   3   0 -16  238.78   77.39
  -3   0  16  336.87   65.69
  -3   0  16  263.87   62.79
   2   0 -16  788.32   71.29
   2   0 -16  837.22  122.39
  -2   0  16  776.42  100.69
  -2   0  16  700.53   89.29
   1   0 -16  952.20   89.49
   1   0 -16  847.32  112.69
  -1   0  16  696.23   89.09
  -1   0  16  748.83  100.39
   0   0 -16  652.23   98.89
   0   0 -16  954.80   95.69
   0   0  16  617.24   83.49
   0   0  16  700.93   93.69
  -1   0 -16  621.34   98.59
  -1   0 -16  666.03  100.19
   1   0  16  712.43   96.19
   1   0  16  925.81  121.49
   3  -1 -16  157.88   59.19
  -3   1  16  119.99   56.79
  -3   1  16  168.78   48.80
   2  -1 -16   52.19   51.29
   2  -1 -16  101.79   43.40
  -2   1  16   80.89   42.40
  -2   1  16   89.59   48.90
   1  -1 -16   85.09   52.69
   1  -1 -16   62.59   45.50
  -1   1  16  109.29   50.79
  -1   1  16   -4.10   38.50
   0  -1 -16  173.38   59.19
   0  -1 -16  162.78   95.79
   0   1  16   84.29   51.59
   0   1  16  130.09   49.99
   2  -2 -16  810.52   91.19
   2  -2 -16  905.11  122.29
  -2   2  16 1064.69  103.49
  -2   2  16 1052.09  117.09
   2   4 -17   33.60   55.49
   2   4 -17   59.69   35.80
  -2  -4  17   -9.40   39.50
  -2  -4  17   -4.90   35.50
   1   4 -17   99.69   54.69
   1   4 -17  132.09   45.20
  -1  -4  17   74.39   41.00
  -1  -4  17  128.19   54.59
   3   3 -17 1228.48  137.49
  -3  -3  17 1170.68  120.89
  -3  -3  17 1105.09  109.39
   2   3 -17  834.92   64.99
   2   3 -17  708.43  111.09
  -2  -3  17  700.03   92.49
  -2  -3  17  889.21   94.29
   1   3 -17  385.36   83.79
   1   3 -17  313.47   56.09
  -1  -3  17  440.36   80.59
  -1  -3  17  364.56   63.99
   0   3 -17  441.76   95.99
   0   3 -17  378.06   66.69
   0  -3  17  389.16   66.09
   0  -3  17  328.37   60.29
   3   2 -17  816.02  124.99
  -3  -2  17  434.46   76.29
  -3  -2  17  528.75   88.09
   2   2 -17  698.13  118.39
   2   2 -17  669.53   60.89
  -2  -2  17  446.46   72.39
  -2  -2  17  518.35   90.89
   1   2 -17  993.60  130.89
   1   2 -17  771.72   83.39
  -1  -2  17  588.04   77.79
  -1  -2  17  535.25   86.09
   0   2 -17  911.51  100.79
   0   2 -17 1020.50  129.29
   0  -2  17  925.21  118.09
   0  -2  17  889.51   98.99
   3   1 -17   -9.30   50.59
  -3  -1  17   42.20   39.60
  -3  -1  17   11.00   45.80
   2   1 -17   -6.90   50.69
   2   1 -17  -18.10   34.30
  -2  -1  17    2.90   40.10
  -2  -1  17  -24.50   36.20
   1   1 -17   38.30   53.99
   1   1 -17   -4.20   39.40
  -1  -1  17   23.20   39.40
  -1  -1  17   62.19   42.50
   0   1 -17  -37.00   42.50
   0   1 -17    2.90   49.30
   0  -1  17  -49.80   39.00
   0  -1  17   35.80   41.30
   2   0 -17 1298.17  146.19
   2   0 -17 1312.07   93.49
  -2   0  17 1373.36  124.19
  -2   0  17 1318.77  126.99
   1   0 -17  607.74   99.49
   1   0 -17  653.63   80.39
  -1   0  17  623.44   95.09
  -1   0  17  622.84   92.99
   0   0   0    0.00    0.00

_computing_structure_solution     'SHELXT 2018/2 (Sheldrick, 2018)'
;
_shelx_hkl_checksum   58756

