 
data_nai-42
 
_audit_creation_method            'SHELXL-2019/3'
_shelx_SHELXL_version_number      '2019/3'
_chemical_name_systematic         ?
_chemical_name_common             ?
_chemical_melting_point           ?
_chemical_formula_moiety          ?
_chemical_formula_sum
 'C19 H20 Br Cd N5 O5' 
_chemical_formula_weight          590.71

loop_
 _atom_type_symbol
 _atom_type_description
 _atom_type_scat_dispersion_real
 _atom_type_scat_dispersion_imag
 _atom_type_scat_source
 'C'  'C'   0.0033   0.0016
 'International Tables Vol C Tables 4.2.6.8 and 6.1.1.4'
 'H'  'H'   0.0000   0.0000
 'International Tables Vol C Tables 4.2.6.8 and 6.1.1.4'
 'N'  'N'   0.0061   0.0033
 'International Tables Vol C Tables 4.2.6.8 and 6.1.1.4'
 'O'  'O'   0.0106   0.0060
 'International Tables Vol C Tables 4.2.6.8 and 6.1.1.4'
 'Br'  'Br'  -0.2901   2.4595
 'International Tables Vol C Tables 4.2.6.8 and 6.1.1.4'
 'Cd'  'Cd'  -0.8075   1.2024
 'International Tables Vol C Tables 4.2.6.8 and 6.1.1.4'
 
_space_group_crystal_system       orthorhombic
_space_group_IT_number            33
_space_group_name_H-M_alt         'P n a 21'
_space_group_name_Hall            'P 2c -2n'
 
_shelx_space_group_comment
;
The symmetry employed for this shelxl refinement is uniquely defined
by the following loop, which should always be used as a source of
symmetry information in preference to the above space-group names.
They are only intended as comments.
;
 
loop_
 _space_group_symop_operation_xyz
 'x, y, z'
 '-x, -y, z+1/2'
 'x+1/2, -y+1/2, z'
 '-x+1/2, y+1/2, z+1/2'
 
_cell_length_a                    18.3189(7)
_cell_length_b                    13.4526(5)
_cell_length_c                    9.1853(3)
_cell_angle_alpha                 90
_cell_angle_beta                  90
_cell_angle_gamma                 90
_cell_volume                      2263.60(14)
_cell_formula_units_Z             4
_cell_measurement_temperature     130(2)
_cell_measurement_reflns_used     ?
_cell_measurement_theta_min       ?
_cell_measurement_theta_max       ?
 
_exptl_crystal_description        ?
_exptl_crystal_colour             ?
_exptl_crystal_density_meas       ?
_exptl_crystal_density_method     ?
_exptl_crystal_density_diffrn     1.733          
_exptl_crystal_F_000              1168
_exptl_transmission_factor_min    ?
_exptl_transmission_factor_max    ?
_exptl_crystal_size_max           ?
_exptl_crystal_size_mid           ?
_exptl_crystal_size_min           ?
_exptl_absorpt_coefficient_mu     2.769
_shelx_estimated_absorpt_T_min    ?
_shelx_estimated_absorpt_T_max    ?
_exptl_absorpt_correction_type    ?
_exptl_absorpt_correction_T_min   ?
_exptl_absorpt_correction_T_max   ?
_exptl_absorpt_process_details    ?
_exptl_absorpt_special_details    ?
_diffrn_ambient_temperature       130(2)
_diffrn_radiation_wavelength      0.71073
_diffrn_radiation_type            MoK\a
_diffrn_source                    ?
_diffrn_measurement_device_type   ?
_diffrn_measurement_method        ?
_diffrn_detector_area_resol_mean  ?
_diffrn_reflns_number             8263
_diffrn_reflns_av_unetI/netI      0.0350
_diffrn_reflns_av_R_equivalents   0.0241
_diffrn_reflns_limit_h_min        -23
_diffrn_reflns_limit_h_max        20
_diffrn_reflns_limit_k_min        -17
_diffrn_reflns_limit_k_max        13
_diffrn_reflns_limit_l_min        -8
_diffrn_reflns_limit_l_max        11
_diffrn_reflns_theta_min          1.878
_diffrn_reflns_theta_max          27.088
_diffrn_reflns_theta_full         25.242
_diffrn_measured_fraction_theta_max   0.968
_diffrn_measured_fraction_theta_full  0.995
_diffrn_reflns_Laue_measured_fraction_max    0.968
_diffrn_reflns_Laue_measured_fraction_full   0.995
_diffrn_reflns_point_group_measured_fraction_max   0.763
_diffrn_reflns_point_group_measured_fraction_full  0.822
_reflns_number_total              3817
_reflns_number_gt                 3710
_reflns_threshold_expression      'I > 2\s(I)'
_reflns_Friedel_coverage          0.482
_reflns_Friedel_fraction_max      0.530
_reflns_Friedel_fraction_full     0.622
 
_reflns_special_details
;
 Reflections were merged by SHELXL according to the crystal
 class for the calculation of statistics and refinement.
 
 _reflns_Friedel_fraction is defined as the number of unique
 Friedel pairs measured divided by the number that would be
 possible theoretically, ignoring centric projections and
 systematic absences. Completness statistics refer to single and
 composite reflections containing twin component 1 only.
;
 
_computing_data_collection        ?
_computing_cell_refinement        ?
_computing_data_reduction         ?
_computing_structure_solution     'SHELXT 2014/5 (Sheldrick, 2014)'
_computing_structure_refinement 'SHELXL-2019/2 (Sheldrick, 2019)'
_computing_molecular_graphics     ?
_computing_publication_material   ?
_refine_special_details
;
 Refined as a 2-component twin.
;
_refine_ls_structure_factor_coef  Fsqd
_refine_ls_matrix_type            full
_refine_ls_weighting_scheme       calc
_refine_ls_weighting_details
'w=1/[\s^2^(Fo^2^)+26.2986P] where P=(Fo^2^+2Fc^2^)/3'
_atom_sites_solution_primary      ?
_atom_sites_solution_secondary    ?
_atom_sites_solution_hydrogens    geom
_refine_ls_hydrogen_treatment     constr
_refine_ls_extinction_method      none
_refine_ls_extinction_coef        .
_refine_ls_abs_structure_details
;
 Flack x determined using 1129 quotients [(I+)-(I-)]/[(I+)+(I-)]
 (Parsons, Flack and Wagner, Acta Cryst. B69 (2013) 249-259).
;
_refine_ls_abs_structure_Flack    0.043(9)
_chemical_absolute_configuration  ?
_refine_ls_number_reflns          3817
_refine_ls_number_parameters      366
_refine_ls_number_restraints      151
_refine_ls_R_factor_all           0.0577
_refine_ls_R_factor_gt            0.0560
_refine_ls_wR_factor_ref          0.1275
_refine_ls_wR_factor_gt           0.1266
_refine_ls_goodness_of_fit_ref    1.254
_refine_ls_restrained_S_all       1.242
_refine_ls_shift/su_max           0.006
_refine_ls_shift/su_mean          0.001
 
loop_
 _atom_site_label
 _atom_site_type_symbol
 _atom_site_fract_x
 _atom_site_fract_y
 _atom_site_fract_z
 _atom_site_U_iso_or_equiv
 _atom_site_adp_type
 _atom_site_occupancy
 _atom_site_site_symmetry_order  
 _atom_site_calc_flag
 _atom_site_refinement_flags_posn
 _atom_site_refinement_flags_adp
 _atom_site_refinement_flags_occupancy
 _atom_site_disorder_assembly
 _atom_site_disorder_group
N4 N 0.8355(6) 0.5991(8) 1.0192(13) 0.0148(19) Uani 1 1 d . U . . .
Cd1 Cd 0.80303(4) 0.38673(5) 0.38079(18) 0.01563(18) Uani 1 1 d . . . . .
N3 N 0.8428(6) 0.5829(9) 0.7615(13) 0.0181(19) Uani 1 1 d . U . . .
N5 N 0.8323(6) 0.5029(8) 1.2123(14) 0.016(2) Uani 1 1 d . . . . .
C12 C 0.4125(6) 0.2468(9) 0.4519(15) 0.024(3) Uani 1 1 d . . . . .
O3 O 0.6956(5) 0.3606(7) 0.4842(13) 0.038(3) Uani 1 1 d . . . . .
C9 C 0.8988(8) 0.5494(13) 1.2046(18) 0.038(4) Uani 1 1 d . . . . .
H9 H 0.936986 0.541058 1.273396 0.045 Uiso 1 1 calc R U . . .
O5 O 0.3447(4) 0.2586(6) 0.4759(10) 0.0229(19) Uani 1 1 d . . . . .
C6 C 0.9147(6) 0.5749(11) 0.7210(16) 0.025(3) Uani 1 1 d . . . . .
H6 H 0.955473 0.606124 0.765549 0.030 Uiso 1 1 calc R U . . .
N2 N 0.8467(6) 0.4817(9) 0.5682(14) 0.021(3) Uani 1 1 d . . . . .
C10 C 0.7957(7) 0.5384(11) 1.1029(17) 0.017(2) Uani 1 1 d . U . . .
H10 H 0.745985 0.522949 1.084419 0.021 Uiso 1 1 calc R U . . .
O2 O 0.4399(4) 0.1763(5) 0.3875(16) 0.0222(16) Uani 1 1 d . . . . .
C11 C 0.8145(5) 0.6412(6) 0.881(2) 0.0162(16) Uani 1 1 d . U . . .
H11A H 0.833243 0.710002 0.874418 0.019 Uiso 1 1 calc R U . . .
H11B H 0.760564 0.643770 0.875107 0.019 Uiso 1 1 calc R U . . .
O1 O 0.7628(7) 0.2922(8) 0.1779(12) 0.048(3) Uani 1 1 d . U . . .
N1 N 0.7370(10) 0.2779(12) -0.0571(18) 0.056(3) Uani 1 1 d . U . . .
C7 C 0.8022(7) 0.5270(11) 0.6677(19) 0.022(3) Uani 1 1 d . U . . .
H7 H 0.750592 0.520519 0.671026 0.026 Uiso 1 1 calc R U . . .
C5 C 0.9153(7) 0.5128(10) 0.6037(15) 0.024(3) Uani 1 1 d . . . . .
H5 H 0.958227 0.493560 0.552896 0.028 Uiso 1 1 calc R U . . .
C8 C 0.9027(8) 0.6078(12) 1.0877(17) 0.033(4) Uani 1 1 d . . . . .
H8 H 0.943002 0.647191 1.057645 0.040 Uiso 1 1 calc R U . . .
C1 C 0.7858(11) 0.2875(14) 0.051(2) 0.055(3) Uani 1 1 d . U . . .
C4 C 0.7651(11) 0.2611(15) -0.205(2) 0.058(4) Uani 1 1 d . U . . .
H4A H 0.725996 0.272558 -0.275600 0.087 Uiso 1 1 calc R U . . .
H4B H 0.782527 0.192471 -0.213258 0.087 Uiso 1 1 calc R U . . .
H4C H 0.805471 0.307030 -0.223804 0.087 Uiso 1 1 calc R U . . .
C2 C 0.8656(11) 0.2890(17) 0.020(2) 0.070(4) Uani 1 1 d . U . . .
H2A H 0.876148 0.339692 -0.053099 0.105 Uiso 1 1 calc R U . . .
H2B H 0.880912 0.223685 -0.015705 0.105 Uiso 1 1 calc R U . . .
H2C H 0.892213 0.304460 0.110199 0.105 Uiso 1 1 calc R U . . .
C3 C 0.6579(11) 0.2803(15) -0.022(2) 0.062(4) Uani 1 1 d . U . . .
H3A H 0.631054 0.309749 -0.103869 0.093 Uiso 1 1 calc R U . . .
H3B H 0.650009 0.320380 0.065493 0.093 Uiso 1 1 calc R U . . .
H3C H 0.640347 0.212479 -0.005293 0.093 Uiso 1 1 calc R U . . .
O101 O 0.6697(11) 0.4745(16) 0.329(3) 0.041(5) Uani 0.5 1 d . U P A 1
C108 C 0.652(2) 0.419(3) 0.437(4) 0.031(4) Uani 0.5 1 d . U P A 1
C101 C 0.5777(17) 0.416(2) 0.493(4) 0.029(4) Uani 0.5 1 d . U P A 1
C103 C 0.4793(13) 0.4720(19) 0.651(4) 0.031(4) Uani 0.5 1 d . U P A 1
H103 H 0.462528 0.513963 0.726694 0.037 Uiso 0.5 1 calc R U P A 1
C106 C 0.530(3) 0.338(3) 0.445(4) 0.028(4) Uani 0.5 1 d . U P A 1
H106 H 0.545987 0.290929 0.374554 0.033 Uiso 0.5 1 calc R U P A 1
C102 C 0.5504(14) 0.4849(19) 0.589(4) 0.030(4) Uani 0.5 1 d . U P A 1
Br11 Br 0.60879(17) 0.5869(3) 0.6546(5) 0.0525(11) Uani 0.5 1 d . . P A 1
C104 C 0.4363(14) 0.398(2) 0.597(4) 0.030(4) Uani 0.5 1 d . U P A 1
H104 H 0.386924 0.394669 0.627689 0.036 Uiso 0.5 1 calc R U P A 1
C105 C 0.459(2) 0.331(3) 0.505(5) 0.029(4) Uani 0.5 1 d . U P A 1
O201 O 0.6659(9) 0.5182(12) 0.442(2) 0.022(4) Uani 0.5 1 d . U P A 2
C204 C 0.4402(13) 0.3644(19) 0.671(3) 0.022(3) Uani 0.5 1 d . U P A 2
H204 H 0.392904 0.352946 0.710013 0.027 Uiso 0.5 1 calc R U P A 2
C206 C 0.531(2) 0.341(3) 0.482(4) 0.020(4) Uani 0.5 1 d . U P A 2
H206 H 0.547395 0.309276 0.395145 0.024 Uiso 0.5 1 calc R U P A 2
Br21 Br 0.61639(15) 0.5389(3) 0.7864(4) 0.0460(9) Uani 0.5 1 d . . P A 2
C201 C 0.5778(16) 0.412(2) 0.549(3) 0.021(3) Uani 0.5 1 d . U P A 2
C205 C 0.463(2) 0.316(3) 0.537(4) 0.022(4) Uani 0.5 1 d . U P A 2
C202 C 0.5551(13) 0.4520(19) 0.679(3) 0.023(3) Uani 0.5 1 d . U P A 2
C203 C 0.4890(12) 0.4282(19) 0.743(3) 0.023(3) Uani 0.5 1 d . U P A 2
H203 H 0.476613 0.455201 0.834885 0.028 Uiso 0.5 1 calc R U P A 2
C208 C 0.652(2) 0.433(2) 0.475(4) 0.019(4) Uani 0.5 1 d . U P A 2
 
loop_
 _atom_site_aniso_label
 _atom_site_aniso_U_11
 _atom_site_aniso_U_22
 _atom_site_aniso_U_33
 _atom_site_aniso_U_23
 _atom_site_aniso_U_13
 _atom_site_aniso_U_12
N4 0.014(4) 0.016(4) 0.014(4) 0.002(4) -0.001(4) -0.002(3)
Cd1 0.0151(3) 0.0177(3) 0.0141(3) -0.0025(5) 0.0011(5) -0.0035(3)
N3 0.017(4) 0.021(4) 0.016(4) 0.000(4) 0.000(4) 0.009(3)
N5 0.017(5) 0.010(5) 0.023(6) -0.004(4) -0.002(4) -0.001(4)
C12 0.013(6) 0.027(6) 0.033(7) 0.013(6) 0.000(5) -0.011(5)
O3 0.019(4) 0.028(5) 0.067(8) 0.001(5) 0.009(5) 0.006(4)
C9 0.031(8) 0.053(10) 0.029(9) 0.013(8) -0.016(7) -0.018(7)
O5 0.011(4) 0.020(4) 0.038(5) 0.001(4) 0.005(4) -0.001(3)
C6 0.010(6) 0.038(8) 0.027(8) -0.004(7) 0.003(6) 0.000(5)
N2 0.019(5) 0.028(6) 0.018(6) -0.005(5) 0.003(5) 0.012(4)
C10 0.012(5) 0.023(5) 0.016(5) 0.003(5) 0.004(4) -0.010(4)
O2 0.023(4) 0.020(3) 0.023(4) -0.013(6) -0.003(6) 0.001(3)
C11 0.015(3) 0.018(3) 0.015(4) 0.004(5) -0.003(5) 0.004(3)
O1 0.064(6) 0.051(5) 0.030(5) -0.010(5) -0.015(5) -0.004(5)
N1 0.068(6) 0.060(5) 0.040(5) -0.003(5) -0.020(5) 0.001(5)
C7 0.020(5) 0.027(5) 0.019(6) 0.002(5) 0.000(4) 0.011(4)
C5 0.025(7) 0.028(7) 0.018(7) -0.008(6) 0.001(5) -0.004(5)
C8 0.024(7) 0.045(10) 0.032(10) 0.013(8) -0.005(6) -0.013(6)
C1 0.068(6) 0.060(5) 0.037(5) -0.010(5) -0.019(5) 0.003(5)
C4 0.072(9) 0.060(8) 0.044(8) -0.002(8) -0.014(8) 0.006(7)
C2 0.073(9) 0.091(9) 0.047(8) -0.020(8) -0.017(7) 0.014(8)
C3 0.070(8) 0.067(8) 0.049(8) 0.004(8) -0.008(7) -0.014(7)
O101 0.028(8) 0.029(8) 0.064(12) 0.020(8) 0.000(8) 0.006(7)
C108 0.020(7) 0.016(7) 0.057(11) 0.012(7) 0.004(8) 0.010(6)
C101 0.017(6) 0.015(6) 0.055(10) 0.003(7) 0.007(7) 0.012(5)
C103 0.016(7) 0.020(7) 0.057(10) -0.003(7) 0.010(7) 0.006(6)
C106 0.016(7) 0.013(6) 0.054(10) 0.000(7) 0.007(8) 0.009(6)
C102 0.016(7) 0.017(6) 0.055(10) -0.001(7) 0.008(7) 0.009(5)
Br11 0.0295(16) 0.0436(17) 0.084(3) -0.035(2) 0.0079(17) -0.0115(14)
C104 0.015(7) 0.020(7) 0.056(10) -0.005(7) 0.011(7) 0.004(6)
C105 0.017(7) 0.016(7) 0.054(11) -0.002(7) 0.008(8) 0.005(6)
O201 0.019(7) 0.009(6) 0.039(9) 0.001(7) -0.002(6) -0.008(6)
C204 0.012(6) 0.022(7) 0.033(8) -0.001(7) 0.000(6) -0.005(6)
C206 0.011(6) 0.015(7) 0.033(8) -0.001(7) -0.003(7) -0.003(6)
Br21 0.0227(14) 0.064(2) 0.051(2) -0.0447(19) 0.0164(15) -0.0178(14)
C201 0.012(6) 0.017(6) 0.033(7) 0.001(6) -0.001(6) -0.003(5)
C205 0.013(7) 0.018(7) 0.034(8) -0.002(7) -0.002(7) -0.004(6)
C202 0.014(6) 0.022(6) 0.033(8) -0.002(6) -0.002(6) -0.007(5)
C203 0.013(6) 0.025(7) 0.033(8) -0.003(7) -0.001(6) -0.005(6)
C208 0.013(7) 0.012(6) 0.033(8) 0.003(6) -0.002(7) -0.006(6)
 
_geom_special_details
;
 All esds (except the esd in the dihedral angle between two l.s. planes)
 are estimated using the full covariance matrix.  The cell esds are taken
 into account individually in the estimation of esds in distances, angles
 and torsion angles; correlations between esds in cell parameters are only
 used when they are defined by crystal symmetry.  An approximate (isotropic)
 treatment of cell esds is used for estimating esds involving l.s. planes.
;
 
loop_
 _geom_bond_atom_site_label_1
 _geom_bond_atom_site_label_2
 _geom_bond_distance
 _geom_bond_site_symmetry_2
 _geom_bond_publ_flag
N4 C10 1.337(17) . ?
N4 C8 1.388(18) . ?
N4 C11 1.44(2) . ?
Cd1 O3 2.213(9) . ?
Cd1 N5 2.264(12) 1_554 ?
Cd1 O5 2.273(8) 3 ?
Cd1 N2 2.289(12) . ?
Cd1 O1 2.374(11) . ?
Cd1 O2 2.648(7) 3 ?
N3 C7 1.364(19) . ?
N3 C6 1.372(16) . ?
N3 C11 1.45(2) . ?
N5 C10 1.298(19) . ?
N5 C9 1.371(17) . ?
C12 O2 1.226(16) . ?
C12 O5 1.271(14) . ?
C12 C105 1.50(4) . ?
C12 C205 1.53(4) . ?
O3 C108 1.20(4) . ?
O3 C208 1.26(4) . ?
C9 C8 1.33(2) . ?
C9 H9 0.9500 . ?
C6 C5 1.36(2) . ?
C6 H6 0.9500 . ?
N2 C5 1.363(17) . ?
N2 C7 1.368(19) . ?
C10 H10 0.9500 . ?
C11 H11A 0.9900 . ?
C11 H11B 0.9900 . ?
O1 C1 1.24(2) . ?
N1 C1 1.34(2) . ?
N1 C4 1.47(2) . ?
N1 C3 1.48(2) . ?
C7 H7 0.9500 . ?
C5 H5 0.9500 . ?
C8 H8 0.9500 . ?
C1 C2 1.49(3) . ?
C4 H4A 0.9800 . ?
C4 H4B 0.9800 . ?
C4 H4C 0.9800 . ?
C2 H2A 0.9800 . ?
C2 H2B 0.9800 . ?
C2 H2C 0.9800 . ?
C3 H3A 0.9800 . ?
C3 H3B 0.9800 . ?
C3 H3C 0.9800 . ?
O101 C108 1.28(5) . ?
C108 C101 1.46(5) . ?
C101 C102 1.38(4) . ?
C101 C106 1.44(5) . ?
C103 C104 1.37(4) . ?
C103 C102 1.43(4) . ?
C103 H103 0.9500 . ?
C106 C105 1.41(6) . ?
C106 H106 0.9500 . ?
C102 Br11 1.84(3) . ?
C104 C105 1.30(5) . ?
C104 H104 0.9500 . ?
O201 C208 1.21(4) . ?
C204 C203 1.40(3) . ?
C204 C205 1.46(5) . ?
C204 H204 0.9500 . ?
C206 C205 1.39(5) . ?
C206 C201 1.42(4) . ?
C206 H206 0.9500 . ?
Br21 C202 1.90(2) . ?
C201 C202 1.37(4) . ?
C201 C208 1.55(4) . ?
C202 C203 1.38(3) . ?
C203 H203 0.9500 . ?
 
loop_
 _geom_angle_atom_site_label_1
 _geom_angle_atom_site_label_2
 _geom_angle_atom_site_label_3
 _geom_angle
 _geom_angle_site_symmetry_1
 _geom_angle_site_symmetry_3
 _geom_angle_publ_flag
C10 N4 C8 105.9(12) . . ?
C10 N4 C11 126.9(11) . . ?
C8 N4 C11 127.1(11) . . ?
O3 Cd1 N5 127.9(4) . 1_554 ?
O3 Cd1 O5 89.8(3) . 3 ?
N5 Cd1 O5 141.0(3) 1_554 3 ?
O3 Cd1 N2 94.4(4) . . ?
N5 Cd1 N2 92.6(4) 1_554 . ?
O5 Cd1 N2 94.2(4) 3 . ?
O3 Cd1 O1 88.6(4) . . ?
N5 Cd1 O1 84.7(4) 1_554 . ?
O5 Cd1 O1 86.9(4) 3 . ?
N2 Cd1 O1 176.8(4) . . ?
O3 Cd1 O2 141.4(4) . 3 ?
N5 Cd1 O2 90.7(3) 1_554 3 ?
O5 Cd1 O2 52.9(3) 3 3 ?
N2 Cd1 O2 80.2(4) . 3 ?
O1 Cd1 O2 98.1(4) . 3 ?
C7 N3 C6 108.0(12) . . ?
C7 N3 C11 125.7(10) . . ?
C6 N3 C11 126.3(12) . . ?
C10 N5 C9 104.5(12) . . ?
C10 N5 Cd1 131.3(9) . 1_556 ?
C9 N5 Cd1 124.1(10) . 1_556 ?
O2 C12 O5 125.5(11) . . ?
O2 C12 C105 120.3(18) . . ?
O5 C12 C105 114.2(19) . . ?
O2 C12 C205 117.9(18) . . ?
O5 C12 C205 115.4(19) . . ?
C108 O3 Cd1 109(2) . . ?
C208 O3 Cd1 114.2(18) . . ?
C8 C9 N5 111.0(13) . . ?
C8 C9 H9 124.5 . . ?
N5 C9 H9 124.5 . . ?
C12 O5 Cd1 98.9(8) . 3_455 ?
C5 C6 N3 105.7(12) . . ?
C5 C6 H6 127.1 . . ?
N3 C6 H6 127.1 . . ?
C5 N2 C7 104.7(12) . . ?
C5 N2 Cd1 132.3(9) . . ?
C7 N2 Cd1 122.9(9) . . ?
N5 C10 N4 112.8(11) . . ?
N5 C10 H10 123.6 . . ?
N4 C10 H10 123.6 . . ?
C12 O2 Cd1 82.6(6) . 3_455 ?
N4 C11 N3 111.1(8) . . ?
N4 C11 H11A 109.4 . . ?
N3 C11 H11A 109.4 . . ?
N4 C11 H11B 109.4 . . ?
N3 C11 H11B 109.4 . . ?
H11A C11 H11B 108.0 . . ?
C1 O1 Cd1 131.2(12) . . ?
C1 N1 C4 117.6(18) . . ?
C1 N1 C3 119.3(17) . . ?
C4 N1 C3 123.0(15) . . ?
N3 C7 N2 110.0(11) . . ?
N3 C7 H7 125.0 . . ?
N2 C7 H7 125.0 . . ?
C6 C5 N2 111.6(12) . . ?
C6 C5 H5 124.2 . . ?
N2 C5 H5 124.2 . . ?
C9 C8 N4 105.5(13) . . ?
C9 C8 H8 127.2 . . ?
N4 C8 H8 127.2 . . ?
O1 C1 N1 118.2(19) . . ?
O1 C1 C2 120.7(16) . . ?
N1 C1 C2 121.1(19) . . ?
N1 C4 H4A 109.5 . . ?
N1 C4 H4B 109.5 . . ?
H4A C4 H4B 109.5 . . ?
N1 C4 H4C 109.5 . . ?
H4A C4 H4C 109.5 . . ?
H4B C4 H4C 109.5 . . ?
C1 C2 H2A 109.5 . . ?
C1 C2 H2B 109.5 . . ?
H2A C2 H2B 109.5 . . ?
C1 C2 H2C 109.5 . . ?
H2A C2 H2C 109.5 . . ?
H2B C2 H2C 109.5 . . ?
N1 C3 H3A 109.5 . . ?
N1 C3 H3B 109.5 . . ?
H3A C3 H3B 109.5 . . ?
N1 C3 H3C 109.5 . . ?
H3A C3 H3C 109.5 . . ?
H3B C3 H3C 109.5 . . ?
O3 C108 O101 120(4) . . ?
O3 C108 C101 118(3) . . ?
O101 C108 C101 121(3) . . ?
C102 C101 C106 118(3) . . ?
C102 C101 C108 123(3) . . ?
C106 C101 C108 119(3) . . ?
C104 C103 C102 118(3) . . ?
C104 C103 H103 121.0 . . ?
C102 C103 H103 121.0 . . ?
C105 C106 C101 119(3) . . ?
C105 C106 H106 120.4 . . ?
C101 C106 H106 120.4 . . ?
C101 C102 C103 120(3) . . ?
C101 C102 Br11 120(2) . . ?
C103 C102 Br11 119(2) . . ?
C105 C104 C103 124(3) . . ?
C105 C104 H104 118.2 . . ?
C103 C104 H104 118.2 . . ?
C104 C105 C106 120(4) . . ?
C104 C105 C12 123(3) . . ?
C106 C105 C12 117(3) . . ?
C203 C204 C205 119(2) . . ?
C203 C204 H204 120.4 . . ?
C205 C204 H204 120.4 . . ?
C205 C206 C201 123(3) . . ?
C205 C206 H206 118.5 . . ?
C201 C206 H206 118.5 . . ?
C202 C201 C206 117(3) . . ?
C202 C201 C208 125(2) . . ?
C206 C201 C208 117(3) . . ?
C206 C205 C204 117(3) . . ?
C206 C205 C12 121(3) . . ?
C204 C205 C12 122(3) . . ?
C201 C202 C203 123(2) . . ?
C201 C202 Br21 120.8(19) . . ?
C203 C202 Br21 116(2) . . ?
C202 C203 C204 120(3) . . ?
C202 C203 H203 119.9 . . ?
C204 C203 H203 119.9 . . ?
O201 C208 O3 128(3) . . ?
O201 C208 C201 117(3) . . ?
O3 C208 C201 113(3) . . ?
 
_refine_diff_density_max    0.878
_refine_diff_density_min   -2.196
_refine_diff_density_rms    0.164

_shelx_res_file
;
TITL nqi-42_autored_b.res in Pna2(1)
    nai-42.res
    created by SHELXL-2019/3 at 12:02:58 on 16-Apr-2024

CELL  0.71073  18.3189  13.4526   9.1853   90.000   90.000   90.000
ZERR 4 0.0007 0.0005 0.0003 0.000 0.000 0.000
LATT -1
SYMM -X, -Y, 1/2+Z
SYMM 1/2+X, 1/2-Y, Z
SYMM 1/2-X, 1/2+Y, 1/2+Z
SFAC C H N O BR CD
UNIT 76 80 20 20 4 4
SHEL 9999 0.78
OMIT 3 3 2
OMIT 8 0 0
OMIT 3 3 -2
OMIT 2 1 3
OMIT 6 8 0
OMIT 2 1 -3
OMIT 8 1 4
OMIT 8 1 -4
OMIT 1 9 0
OMIT 6 1 -5
OMIT 6 1 5
OMIT 5 4 0
OMIT 5 12 -2
OMIT 4 5 0
OMIT 5 10 -2
OMIT 5 5 -1
OMIT 11 3 4
OMIT 11 3 -4

SIMU 0.005 0.007 2 C1 C2 O1 C3 N1 C4
SIMU 0.005 0.007 2 N3 C11 N4 C10 C7
SIMU 0.005 0.007 2 C101 C108 O101
SIMU 0.005 0.007 2 O201 C208 C201
SIMU 0.005 0.007 2 C208 O201 C201
SIMU 0.005 0.007 2 O101 C108  C101
SIMU 0.005 0.007 2 C101 C106 C105 C104 C103 C102
SIMU 0.005 0.007 2 C201 C202 C203 C204 C205 C206
ACTA
LIST 6
TEMP -143
L.S. 6
BOND $H
FMAP 2
PLAN 40
TWIN 1 0 0 0 1 0 0 0 1
WGHT    0.000000   26.298605
BASF   0.43865
FVAR       0.35387   0.53369
N4    3    0.835489    0.599074    1.019189    11.00000    0.01425    0.01634 =
         0.01384    0.00157   -0.00147   -0.00221
CD1   6    0.803031    0.386728    0.380787    11.00000    0.01510    0.01769 =
         0.01410   -0.00249    0.00112   -0.00347
N3    3    0.842804    0.582937    0.761487    11.00000    0.01735    0.02071 =
         0.01619    0.00003    0.00012    0.00917
N5    3    0.832301    0.502928    1.212255    11.00000    0.01672    0.01012 =
         0.02255   -0.00443   -0.00188   -0.00094
C12   1    0.412486    0.246842    0.451914    11.00000    0.01263    0.02697 =
         0.03324    0.01333   -0.00040   -0.01149
O3    4    0.695630    0.360619    0.484248    11.00000    0.01931    0.02754 =
         0.06709    0.00058    0.00896    0.00552
C9    1    0.898773    0.549402    1.204551    11.00000    0.03116    0.05292 =
         0.02935    0.01286   -0.01568   -0.01789
AFIX  43
H9    2    0.936986    0.541058    1.273396    11.00000   -1.20000
AFIX   0
O5    4    0.344725    0.258562    0.475905    11.00000    0.01096    0.01975 =
         0.03793    0.00096    0.00498   -0.00085
C6    1    0.914654    0.574912    0.721050    11.00000    0.00968    0.03777 =
         0.02706   -0.00430    0.00347    0.00014
AFIX  43
H6    2    0.955473    0.606124    0.765549    11.00000   -1.20000
AFIX   0
N2    3    0.846722    0.481743    0.568219    11.00000    0.01855    0.02758 =
         0.01786   -0.00473    0.00271    0.01158
C10   1    0.795724    0.538420    1.102948    11.00000    0.01245    0.02307 =
         0.01611    0.00278    0.00368   -0.01035
AFIX  43
H10   2    0.745985    0.522949    1.084419    11.00000   -1.20000
AFIX   0
O2    4    0.439926    0.176314    0.387454    11.00000    0.02293    0.02012 =
         0.02342   -0.01302   -0.00254    0.00071
C11   1    0.814480    0.641154    0.881411    11.00000    0.01542    0.01816 =
         0.01513    0.00420   -0.00342    0.00415
AFIX  23
H11A  2    0.833243    0.710002    0.874418    11.00000   -1.20000
H11B  2    0.760564    0.643770    0.875107    11.00000   -1.20000
AFIX   0
O1    4    0.762753    0.292171    0.177878    11.00000    0.06380    0.05070 =
         0.03043   -0.01036   -0.01484   -0.00428
N1    3    0.736968    0.277860   -0.057108    11.00000    0.06754    0.05986 =
         0.03997   -0.00322   -0.01986    0.00099
C7    1    0.802203    0.527040    0.667724    11.00000    0.01982    0.02689 =
         0.01870    0.00172   -0.00031    0.01144
AFIX  43
H7    2    0.750592    0.520519    0.671026    11.00000   -1.20000
AFIX   0
C5    1    0.915308    0.512794    0.603656    11.00000    0.02527    0.02815 =
         0.01769   -0.00837    0.00112   -0.00371
AFIX  43
H5    2    0.958227    0.493560    0.552896    11.00000   -1.20000
AFIX   0
C8    1    0.902681    0.607816    1.087725    11.00000    0.02351    0.04469 =
         0.03191    0.01349   -0.00530   -0.01301
AFIX  43
H8    2    0.943002    0.647191    1.057645    11.00000   -1.20000
AFIX   0
C1    1    0.785839    0.287465    0.051015    11.00000    0.06837    0.06032 =
         0.03733   -0.01047   -0.01933    0.00305
C4    1    0.765075    0.261086   -0.204703    11.00000    0.07153    0.05960 =
         0.04375   -0.00214   -0.01404    0.00602
AFIX 137
H4A   2    0.725996    0.272558   -0.275600    11.00000   -1.50000
H4B   2    0.782527    0.192471   -0.213258    11.00000   -1.50000
H4C   2    0.805471    0.307030   -0.223804    11.00000   -1.50000
AFIX   0
C2    1    0.865580    0.288952    0.020500    11.00000    0.07284    0.09108 =
         0.04703   -0.02020   -0.01722    0.01413
AFIX 137
H2A   2    0.876148    0.339692   -0.053099    11.00000   -1.50000
H2B   2    0.880912    0.223685   -0.015705    11.00000   -1.50000
H2C   2    0.892213    0.304460    0.110199    11.00000   -1.50000
AFIX   0
C3    1    0.657877    0.280326   -0.022232    11.00000    0.06987    0.06687 =
         0.04925    0.00376   -0.00818   -0.01380
AFIX 137
H3A   2    0.631054    0.309749   -0.103869    11.00000   -1.50000
H3B   2    0.650009    0.320380    0.065493    11.00000   -1.50000
H3C   2    0.640347    0.212479   -0.005293    11.00000   -1.50000
AFIX   0
PART 1 10.5
O101  4    0.669712    0.474506    0.329203    10.50000    0.02843    0.02910 =
         0.06427    0.01952   -0.00018    0.00561
C108  1    0.652449    0.419153    0.437292    10.50000    0.02002    0.01627 =
         0.05722    0.01153    0.00416    0.00967
C101  1    0.577664    0.416020    0.492561    10.50000    0.01722    0.01465 =
         0.05455    0.00266    0.00654    0.01202
C103  1    0.479340    0.472041    0.650515    10.50000    0.01627    0.02008 =
         0.05715   -0.00298    0.00999    0.00604
AFIX  43
H103  2    0.462528    0.513963    0.726694    10.50000   -1.20000
AFIX   0
C106  1    0.530016    0.337674    0.445233    10.50000    0.01636    0.01303 =
         0.05386    0.00029    0.00745    0.00921
AFIX  43
H106  2    0.545987    0.290929    0.374554    10.50000   -1.20000
AFIX   0
C102  1    0.550400    0.484882    0.589029    10.50000    0.01617    0.01747 =
         0.05533   -0.00067    0.00800    0.00880
BR11  5    0.608787    0.586913    0.654596    10.50000    0.02953    0.04355 =
         0.08446   -0.03536    0.00791   -0.01154
C104  1    0.436331    0.397786    0.596591    10.50000    0.01528    0.02019 =
         0.05567   -0.00476    0.01107    0.00420
AFIX  43
H104  2    0.386924    0.394669    0.627689    10.50000   -1.20000
AFIX   0
C105  1    0.459410    0.330902    0.504695    10.50000    0.01657    0.01573 =
         0.05360   -0.00247    0.00770    0.00465
PART 0
PART 2 10.5
O201  4    0.665913    0.518168    0.442288    10.50000    0.01877    0.00895 =
         0.03883    0.00121   -0.00184   -0.00830
C204  1    0.440240    0.364411    0.671251    10.50000    0.01167    0.02224 =
         0.03338   -0.00054   -0.00041   -0.00470
AFIX  43
H204  2    0.392904    0.352946    0.710013    10.50000   -1.20000
AFIX   0
C206  1    0.531137    0.341046    0.481635    10.50000    0.01104    0.01542 =
         0.03331   -0.00079   -0.00288   -0.00340
AFIX  43
H206  2    0.547395    0.309276    0.395145    10.50000   -1.20000
AFIX   0
BR21  5    0.616389    0.538870    0.786386    10.50000    0.02268    0.06448 =
         0.05079   -0.04466    0.01638   -0.01781
C201  1    0.577754    0.412362    0.548728    10.50000    0.01220    0.01673 =
         0.03341    0.00051   -0.00128   -0.00338
C205  1    0.463071    0.315830    0.536767    10.50000    0.01262    0.01755 =
         0.03435   -0.00203   -0.00246   -0.00406
C202  1    0.555091    0.452017    0.679078    10.50000    0.01380    0.02247 =
         0.03260   -0.00242   -0.00218   -0.00655
C203  1    0.489033    0.428228    0.742566    10.50000    0.01283    0.02470 =
         0.03271   -0.00264   -0.00096   -0.00518
AFIX  43
H203  2    0.476613    0.455201    0.834885    10.50000   -1.20000
AFIX   0
C208  1    0.652123    0.432930    0.474562    10.50000    0.01265    0.01170 =
         0.03333    0.00297   -0.00238   -0.00592
PART 0
HKLF 4




REM  nqi-42_autored_b.res in Pna2(1)
REM wR2 = 0.1275, GooF = S = 1.254, Restrained GooF = 1.242 for all data
REM R1 = 0.0560 for 3710 Fo > 4sig(Fo) and 0.0577 for all 3817 data
REM 366 parameters refined using 151 restraints

END

WGHT      0.0000     27.0746

REM Highest difference peak  0.878,  deepest hole -2.196,  1-sigma level  0.164
Q1    1   0.9829  0.6122  0.8923  11.00000  0.05    0.88
Q2    1   0.9909  0.6119  1.0935  11.00000  0.05    0.75
Q3    1   0.5346  0.3566  0.8766  11.00000  0.05    0.68
Q4    1   0.5771  0.1769 -0.1155  11.00000  0.05    0.67
Q5    1   0.6978  0.4365 -0.1159  11.00000  0.05    0.63
Q6    1   0.4297  0.4438  0.5433  11.00000  0.05    0.62
Q7    1   0.9893  0.6196  0.6673  11.00000  0.05    0.59
Q8    1   1.0276  0.5761  0.7634  11.00000  0.05    0.59
Q9    1   0.7094  0.2165 -0.2622  11.00000  0.05    0.58
Q10   1   0.9070  0.2825 -0.1067  11.00000  0.05    0.56
Q11   1   1.0035  0.4737  0.6536  11.00000  0.05    0.54
Q12   1   0.9918  0.5181  0.7246  11.00000  0.05    0.53
Q13   1   0.9727  0.5578  1.3682  11.00000  0.05    0.53
Q14   1   0.6859  0.2376 -0.0552  11.00000  0.05    0.52
Q15   1   0.4441  0.5018  0.8321  11.00000  0.05    0.52
Q16   1   0.5420  0.6011  0.5842  11.00000  0.05    0.51
Q17   1   0.8561  0.5701  1.1733  11.00000  0.05    0.51
Q18   1   0.3923  0.5076  0.5857  11.00000  0.05    0.50
Q19   1   0.4906  0.1923  0.3832  11.00000  0.05    0.49
Q20   1   0.5862  0.3402  0.4156  11.00000  0.05    0.49
Q21   1   0.8018  0.4208 -0.1215  11.00000  0.05    0.49
Q22   1   0.3644  0.2977  0.7438  11.00000  0.05    0.49
Q23   1   0.5933  0.4367  0.3659  11.00000  0.05    0.49
Q24   1   0.7219  0.4834  0.8994  11.00000  0.05    0.48
Q25   1   0.9553  0.4020  0.5040  11.00000  0.05    0.48
Q26   1   0.7706  0.4601  0.9791  11.00000  0.05    0.48
Q27   1   0.8292  0.2636 -0.1181  11.00000  0.05    0.47
Q28   1   0.4512  0.2261  0.3688  11.00000  0.05    0.47
Q29   1   0.8305  0.5044  0.8188  11.00000  0.05    0.47
Q30   1   0.8409  0.3056  0.2932  11.00000  0.05    0.47
Q31   1   0.8584  0.2522  0.0339  11.00000  0.05    0.46
Q32   1   0.3541  0.2015  0.4382  11.00000  0.05    0.46
Q33   1   0.6732  0.2961  0.5432  11.00000  0.05    0.46
Q34   1   0.5271  0.5079  0.8816  11.00000  0.05    0.46
Q35   1   0.5161  0.3136  0.1020  11.00000  0.05    0.46
Q36   1   0.5888  0.4227  0.3259  11.00000  0.05    0.46
Q37   1   0.9893  0.2450  0.1081  11.00000  0.05    0.46
Q38   1   0.5226  0.2662 -0.1829  11.00000  0.05    0.46
Q39   1   0.4401  0.5362  0.4812  11.00000  0.05    0.45
Q40   1   0.8324  0.4184  0.6131  11.00000  0.05    0.45
;
_shelx_res_checksum   39123

_shelx_hkl_file
;
   0   0   1    0.10    0.66
   0   0   2 1633.21   32.68
   0   0   3   -0.05    1.57
   0   0   4 1359.13   31.24
   0   0   5    2.90    2.55
   0   0   6  752.23   22.81
   0   0   7    6.25    3.00
   0   0   8  693.59   24.34
   0   0   9   -0.84    2.69
   0   0  10 1022.14   34.40
   0   0  11   11.05    4.56
   0   1  -1 5973.23  108.44
   0  -1   1 6319.74  114.54
   0  -1   2  203.33    7.78
   0   1   2  164.91    5.91
   0   1   3 1455.08   30.07
   0  -1   3 1453.09   32.29
   0  -1   4  231.43   11.01
   0   1   4  221.44    9.42
   0   1   5 1168.83   28.55
   0  -1   5 1191.05   30.69
   0   1   6    5.74    2.79
   0  -1   6    7.77    3.40
   0  -1   7  449.74   18.39
   0   1   7  468.40   17.21
   0  -1   8    2.79    2.93
   0   1   8    2.24    2.74
   0   1   9  766.90   26.38
   0  -1   9  756.97   27.93
   0   1  10    1.32    2.88
   0  -1  10   -1.46    3.59
   0   1  11  212.78   14.32
   0  -1  11  200.37   14.83
   0   2  -1   77.53    4.30
   0  -2   0 2058.34   38.34
   0   2   0 2006.68   38.31
   0  -2   1   72.22    4.43
   0  -2   2 4555.21   86.78
   0   2   3  170.01    6.26
   0  -2   3  190.70    9.77
   0   2   4  505.25   13.51
   0  -2   4  528.72   17.00
   0   2   5   56.05    4.88
   0  -2   5   62.99    7.00
   0  -2   6   68.14    6.54
   0   2   6   78.69    5.64
   0  -2   7    8.79    3.86
   0   2   7    6.62    2.52
   0   2   8   -0.86    2.15
   0  -2   8    2.93    3.03
   0   2   9    7.07    2.92
   0  -2   9    9.58    4.01
   0  -2  10   39.29    6.93
   0   2  10   50.38    6.31
   0  -2  11   13.60    6.15
   0  -2  12    0.61    4.97
   0   3  -1 9008.62  164.66
   0  -3  -1 9021.45  160.64
   0   3   0   11.50    1.94
   0  -3   0   17.98    2.33
   0  -3   0   14.95    1.67
   0  -3   1 9999.00  180.52
   0   3   1 9879.97  176.37
   0  -3   2  139.25    7.66
   0   3   3  313.04    7.43
   0  -3   3  307.31   12.16
   0   3   4    5.33    1.52
   0  -3   4    5.57    2.97
   0  -3   5  908.18   27.49
   0   3   5  957.12   22.14
   0  -3   6   33.07    6.37
   0   3   6   31.20    3.98
   0   3   7  815.04   22.51
   0  -3   7  788.88   27.65
   0  -3   8    2.92    3.16
   0   3   8    7.21    2.77
   0  -3   9  729.08   29.32
   0   3   9  802.86   24.75
   0  -3  10   14.20    5.83
   0   3  10    8.05    2.92
   0  -3  11  184.41   15.14
   0  -3  12   11.55    4.42
   0  -4  -1    7.38    1.43
   0   4  -1    9.19    2.32
   0   4  -1    9.24    1.42
   0  -4   0  349.09    8.92
   0  -4   0  351.69   10.24
   0   4   0  334.92   10.10
   0  -4   1   12.19    2.89
   0   4   1   11.67    1.68
   0  -4   2 2483.54   52.49
   0  -4   3  149.05   10.68
   0  -4   4 2292.82   53.01
   0   4   4 2331.96   43.50
   0   4   5   32.37    3.07
   0  -4   5   43.57    6.45
   0   4   6 1932.07   39.65
   0  -4   6 1820.04   48.39
   0   4   7   13.75    2.83
   0  -4   7   13.64    4.67
   0   4   8 2038.44   44.64
   0  -4   8 1873.10   53.34
   0   4   9    9.99    2.96
   0  -4   9    7.99    4.68
   0  -4  10  346.88   20.63
   0  -4  11   13.68    5.79
   0  -4  12  149.56   14.67
   0  -5  -2   18.16    1.64
   0   5  -1  780.45   20.94
   0  -5  -1  771.38   17.76
   0   5  -1  800.91   16.64
   0  -5   0   55.89    3.65
   0  -5   0   47.32    4.50
   0   5   0   51.26    4.55
   0  -5   1  648.99   18.07
   0   5   1  613.11   14.87
   0  -5   2   12.22    3.35
   0  -5   3 1360.77   34.86
   0  -5   4    9.44    3.74
   0   5   5  538.54   11.75
   0  -5   5  544.43   21.19
   0   5   5  578.57   11.73
   0  -5   6   55.97    7.91
   0   5   6   41.08    3.20
   0   5   7  658.40   16.59
   0  -5   7  612.26   25.35
   0  -5   8   59.44    9.14
   0   5   8   40.72    4.32
   0  -5   9   30.24    6.26
   0  -5  10   13.63    5.44
   0  -5  11   80.29   10.77
   0  -6  -2   90.01    3.69
   0  -6  -1   33.05    3.25
   0  -6   0 1091.72   23.44
   0  -6   0 1032.65   25.52
   0   6   0 1082.00   25.77
   0  -6   1   33.84    5.04
   0  -6   2  119.30    7.86
   0  -6   3   -2.91    3.25
   0  -6   4  163.45   10.56
   0  -6   5   38.82    6.97
   0  -6   6   27.34    4.89
   0  -6   7   58.12    8.95
   0  -6   8  226.94   15.89
   0   6   8  244.83    7.13
   0  -6   9   19.01    6.36
   0  -6  10  103.90   11.94
   0  -6  11   19.11    6.99
   0   7  -2   46.27    3.27
   0  -7  -2   45.65    3.46
   0  -7  -1 1159.65   26.64
   0  -7   0   -1.23    1.91
   0  -7   0    5.62    1.59
   0  -7   1 1226.15   31.17
   0  -7   2   48.79    5.77
   0  -7   3 1378.84   37.16
   0  -7   4    3.71    3.25
   0  -7   5 1153.12   35.61
   0  -7   6   80.69    9.51
   0  -7   7  876.68   32.67
   0  -7   8   46.87    9.36
   0  -7   9  354.11   21.69
   0  -7  10    5.08    4.82
   0   8  -3   24.51    2.92
   0  -8  -3   20.82    1.91
   0   8  -2 1457.90   29.50
   0  -8  -2 1437.39   30.97
   0  -8  -1  118.36    7.03
   0  -8   0 1187.16   30.51
   0  -8   0 1277.13   27.73
   0  -8   1  107.30    8.43
   0  -8   2 1422.76   37.35
   0  -8   3   31.78    5.64
   0  -8   4 1087.40   34.20
   0  -8   5   28.90    6.14
   0  -8   6  297.64   17.33
   0  -8   7   94.29   12.07
   0  -8   8  201.39   15.68
   0  -8   9    0.95    4.14
   0  -8  10  208.27   17.38
   0   9  -3  277.69    8.89
   0  -9  -3  275.58    7.86
   0  -9  -2   26.41    3.03
   0  -9  -1  373.40   13.25
   0  -9  -1  405.88   13.47
   0  -9   0   90.59    7.25
   0  -9   0   99.32    5.92
   0  -9   1  424.61   16.52
   0  -9   2   27.89    5.30
   0  -9   3  313.59   16.21
   0  -9   4    0.32    3.19
   0  -9   5   62.41    8.19
   0  -9   6    4.93    3.76
   0  -9   7   -0.54    5.33
   0  -9   8    7.68    4.96
   0  -9   9    8.03    5.31
   0  10  -4  971.47   23.35
   0 -10  -3   30.22    2.93
   0 -10  -2   36.12    3.46
   0 -10  -1   15.37    3.16
   0 -10  -1   10.41    2.59
   0 -10   0  650.48   21.12
   0 -10   1    9.58    3.28
   0 -10   2   32.59    5.34
   0 -10   3   27.04    5.62
   0 -10   4  801.65   29.92
   0 -10   5   36.11    7.78
   0 -10   6  570.16   26.65
   0 -10   7   73.68   11.20
   0 -10   8  181.64   15.81
   0  11  -5  994.82   24.91
   0  11  -4    9.40    1.93
   0 -11  -3  961.50   22.19
   0 -11  -2  112.89    7.28
   0 -11  -1  511.76   16.42
   0 -11  -1  503.30   17.40
   0 -11   0    7.19    2.98
   0 -11   1  468.18   19.06
   0 -11   2  110.29    9.83
   0 -11   3  938.33   32.24
   0 -11   4    9.95    4.91
   0 -11   5  988.74   36.16
   0 -11   6  119.50   12.91
   0 -11   7  295.73   20.10
   0 -11   8   15.20    6.11
   0 -12  -3   18.21    2.76
   0 -12  -2  337.66   12.94
   0 -12  -2  349.45   14.62
   0 -12  -1   20.31    4.29
   0 -12  -1   15.93    3.06
   0 -12   0   29.58    4.70
   0 -12   1   10.57    3.59
   0 -12   2  305.57   16.44
   0 -12   3   25.81    5.93
   0 -12   4  327.79   18.95
   0 -12   5    9.75    5.74
   0 -12   6  126.80   12.98
   0 -12   7    0.15    4.13
   0 -13  -3   21.79    4.18
   0 -13  -3   20.28    2.80
   0 -13  -2   16.35    3.68
   0 -13  -2   17.50    3.47
   0 -13  -1  164.14    8.44
   0 -13  -1  163.81   10.04
   0 -13   0   27.71    5.17
   0 -13   1  173.80   11.90
   0 -13   2    6.11    3.31
   0 -13   3   34.80    6.37
   0 -13   4   -6.61    5.15
   0 -13   5  106.01   11.75
   0 -13   6   19.39    6.51
   0 -13   7    8.77    4.86
   0 -14  -2  360.29   14.51
   0 -14  -1   23.76    4.50
   0 -14   0  465.98   19.79
   0 -14   1   25.72    5.84
   0 -14   2  409.08   20.81
   0 -14   3   60.46    9.40
   0 -14   4  435.43   23.51
   0 -14   5    9.47    5.16
   0 -14   6   55.17    9.57
   0 -15  -1  349.59   16.16
   0 -15   0   13.91    4.13
   0 -15   1  358.14   18.76
   0 -15   2  102.67   11.18
   0 -15   3  517.35   25.47
   0 -15   4    8.17    5.21
   0 -15   5  134.59   13.69
   0 -16   0    5.10    3.59
   0 -16   1   28.37    6.35
   0 -16   2  101.03   10.71
   0 -16   3   -1.24    4.04
   0 -16   4    9.36    4.76
   0 -17   1   26.18    5.84
   0 -17   2   43.93    7.84
   0 -17   3   61.56    9.68
  -1   0  -3  148.30    6.93
  -1   0  -2   63.87    4.04
  -1   0  -1   13.35    1.48
   1   0   1   11.49    1.44
   1   0   2   68.34    3.87
   1   0   3  140.09    7.35
   1   0   4  170.71    8.48
  -1   0   4  182.12    8.89
   1   0   5   30.43    4.62
  -1   0   5   33.42    4.56
  -1   0   6    9.47    3.94
   1   0   6    5.97    2.74
   1   0   7    7.30    3.30
  -1   0   7    9.34    3.46
   1   0   8   13.97    4.14
  -1   0   8   17.76    4.66
  -1   0   9   56.26    7.70
   1   0   9   47.70    7.30
  -1   0  10   26.67    6.30
   1   0  10    8.46    3.89
  -1   0  11   13.51    5.06
   1   0  11    9.41    4.37
  -1   1  -3 2339.54   48.15
  -1  -1  -2  110.58    3.97
  -1   1  -2  110.35    5.17
  -1   1  -1 1901.19   36.87
  -1   1   0   29.88    1.79
   1  -1   1 1751.37   34.21
   1  -1   2   66.45    4.12
   1   1   2   70.09    3.05
   1  -1   3 2324.48   48.46
   1   1   3 2372.86   46.08
  -1  -1   4  272.46   11.07
   1   1   4  270.13    9.64
   1  -1   4  263.69   10.84
  -1  -1   5 1251.31   31.56
   1   1   5 1232.99   29.23
   1  -1   5 1203.75   31.13
  -1   1   5 1171.00   29.28
   1  -1   6 1001.05   28.52
  -1   1   6  984.17   26.78
  -1  -1   6  967.54   28.42
   1   1   6 1000.49   26.54
   1  -1   7  783.25   26.06
  -1  -1   7  798.97   26.43
  -1   1   7  815.71   24.93
   1   1   7  840.67   24.68
   1   1   8  149.20    9.91
  -1   1   8  147.02    9.82
   1  -1   8  140.69   10.34
  -1  -1   8  140.90   10.52
   1   1   9  110.21    9.06
  -1   1   9  128.64   10.01
  -1  -1   9  116.56   10.21
   1  -1   9   96.15    9.27
   1   1  10   46.39    6.77
  -1  -1  10   40.09    6.89
   1  -1  10   42.82    7.35
  -1   1  10   40.62    6.43
  -1   1  11  309.40   17.52
   1   1  11  314.16   17.25
   1  -1  11  313.77   18.79
  -1  -1  11  308.14   18.80
  -1   2  -3  968.03   24.58
  -1   2  -2 5814.37  109.06
  -1   2  -1  292.15    8.96
   1  -2  -1  304.62    7.01
  -1   2   0 1423.23   28.04
  -1   2   0 1442.10   28.07
   1  -2   0 1370.33   28.00
   1  -2   0 1475.62   28.08
  -1   2   1  223.67    5.53
   1  -2   1  221.96    7.50
   1  -2   2 5952.80  111.57
   1   2   3  921.70   19.60
  -1  -2   3  948.58   24.04
   1  -2   3  969.12   24.14
   1  -2   4 1676.15   39.22
   1   2   4 1681.43   34.69
  -1  -2   4 1686.70   39.38
   1   2   5  786.19   20.28
  -1   2   5  804.44   20.75
   1  -2   5  812.81   24.23
  -1  -2   5  763.15   23.84
   1   2   6 1206.68   29.25
   1  -2   6 1141.35   32.77
  -1   2   6 1182.75   29.51
  -1  -2   6 1172.53   33.16
   1   2   7  406.73   15.13
   1  -2   7  383.06   17.48
  -1  -2   7  406.59   18.08
  -1   2   7  412.00   15.56
  -1  -2   8  444.25   20.11
   1  -2   8  446.09   20.08
   1   2   8  460.74   17.35
  -1   2   8  450.85   17.62
   1  -2   9   65.42    8.13
   1   2   9   64.49    6.56
  -1   2   9   81.18    7.54
  -1  -2   9   66.86    8.52
   1  -2  10  432.90   21.88
   1   2  10  451.67   19.04
  -1  -2  10  413.60   21.56
  -1   2  10  410.44   18.73
  -1  -2  11   30.96    6.35
   1  -2  11   34.65    7.11
   1  -2  12  269.58   18.54
  -1  -2  12  231.57   17.53
  -1   3  -3  810.83   22.75
  -1   3  -2 1429.36   32.41
  -1  -3  -1  931.79   18.43
   1  -3  -1  963.20   19.22
  -1   3  -1  952.52   22.14
   1  -3   0   88.80    4.00
  -1   3   0   91.34    4.31
  -1  -3   0   86.17    3.92
   1  -3   0   96.87    4.40
   1  -3   1  805.28   19.74
  -1   3   1  806.95   16.83
  -1  -3   1  840.73   19.71
  -1  -3   2 1561.04   34.06
   1  -3   2 1510.56   33.79
  -1   3   2 1476.53   28.34
   1  -3   3  876.03   24.47
  -1  -3   3  930.91   24.52
  -1  -3   4  335.93   13.55
   1  -3   4  331.22   13.55
   1   3   4  300.99    8.53
   1   3   5  283.41    9.34
   1  -3   5  274.32   13.29
  -1   3   5  265.90    9.61
  -1  -3   5  289.22   13.48
   1  -3   6   92.58    8.99
  -1  -3   6   92.51    8.71
  -1   3   6   93.36    6.40
   1   3   6   84.22    5.85
   1   3   7   75.11    5.58
  -1   3   7   75.64    5.92
   1  -3   7   72.53    7.77
  -1  -3   7   76.96    7.95
   1  -3   8  104.38   10.03
  -1  -3   8  107.29   10.27
  -1   3   8  112.75    7.87
   1   3   8  117.58    7.74
  -1  -3   9  388.11   20.54
  -1   3   9  416.66   16.96
   1   3   9  442.64   16.86
   1  -3   9  397.32   20.60
   1   3  10   54.17    6.24
  -1  -3  10   55.23    8.26
   1  -3  10   51.37    8.18
  -1   3  10   57.99    6.47
   1  -3  11   60.70    9.20
  -1  -3  11   62.22    9.52
   1  -3  12   11.51    5.19
  -1  -3  12   27.32    7.02
  -1   4  -3   54.14    5.24
  -1   4  -2 1374.36   32.38
  -1   4  -1  367.45   12.71
  -1   4  -1  406.34   10.56
   1  -4  -1  380.64   10.07
  -1  -4  -1  383.41    9.54
  -1   4   0 2293.26   45.90
  -1  -4   0 2373.14   45.63
   1  -4   0 2298.13   45.86
   1  -4   0 2252.73   45.05
   1  -4   1  372.73   12.52
  -1   4   1  336.82    9.26
  -1  -4   1  343.35   12.21
  -1  -4   2 1298.37   30.86
   1  -4   2 1243.34   30.65
  -1   4   2 1288.75   25.01
  -1   4   3   63.15    2.67
  -1  -4   3   73.89    6.08
   1  -4   3   72.94    6.37
  -1  -4   4  360.32   14.81
   1  -4   4  342.71   14.62
   1   4   5   35.93    2.74
   1  -4   5   43.37    6.37
  -1  -4   5   33.29    5.95
  -1   4   5   37.13    3.33
   1  -4   6  232.34   13.73
  -1  -4   6  214.94   13.15
   1   4   6  241.95    8.49
  -1   4   6  244.19    9.17
  -1  -4   7   90.55    9.02
  -1   4   7  106.16    6.33
   1  -4   7   93.30    9.10
   1   4   7  108.24    6.02
  -1  -4   8  102.70   10.04
  -1   4   8  108.90    7.11
   1   4   8  115.88    6.71
   1  -4   8   99.06    9.90
  -1   4   9   15.46    3.04
   1  -4   9   10.78    4.20
  -1  -4   9   14.68    4.89
   1   4   9   23.75    3.66
  -1  -4  10   24.32    6.25
   1  -4  10   14.23    5.17
  -1  -4  11    0.38    4.65
   1  -4  11    3.42    4.53
   1  -4  12   36.97    8.27
  -1   5  -3 2614.59   57.82
  -1   5  -2  948.92   25.91
   1  -5  -2  980.10   20.20
  -1   5  -1 2197.45   42.78
  -1   5  -1 2184.71   46.55
  -1  -5  -1 2167.77   42.51
   1  -5  -1 2175.40   43.22
  -1   5   0   23.12    2.82
  -1  -5   0   23.75    2.87
   1  -5   0   22.27    2.68
   1  -5   0   24.80    3.07
  -1  -5   1 2259.27   46.99
   1  -5   1 2267.55   47.35
  -1   5   1 2158.96   43.69
   1  -5   2  953.32   25.61
  -1  -5   2  937.25   25.30
  -1   5   2  929.45   19.56
  -1   5   3 2839.59   52.22
   1  -5   3 2869.56   61.95
  -1  -5   3 2850.43   61.83
   1  -5   4  159.63   10.70
  -1  -5   4  171.46   10.87
  -1   5   4  136.49    4.34
  -1   5   5  365.84    9.46
  -1   5   5  370.70    9.67
  -1  -5   5  372.69   16.91
   1  -5   5  382.26   16.90
   1   5   6   90.58    3.79
  -1  -5   6  104.28    9.32
   1  -5   6   88.32    8.92
  -1   5   6   93.70    4.83
   1   5   7  575.19   14.34
   1  -5   7  531.85   23.14
  -1   5   7  565.06   15.58
  -1  -5   7  526.89   23.14
  -1   5   8   35.16    3.94
   1  -5   8   44.83    7.72
  -1  -5   8   30.18    6.53
   1   5   8   32.12    3.23
   1  -5   9  298.76   18.57
  -1  -5   9  260.76   17.34
   1  -5  10   41.32    7.83
  -1  -5  10   43.87    7.81
   1  -5  11  256.03   19.06
  -1  -5  11  268.73   19.58
  -1   6  -3  256.83   12.57
  -1   6  -2 1679.74   40.01
  -1  -6  -2 1630.09   32.12
   1  -6  -2 1703.88   33.44
  -1   6  -1  560.16   14.15
  -1  -6  -1  555.66   14.44
  -1   6  -1  560.27   17.60
   1  -6  -1  550.29   14.91
  -1  -6   0 1238.36   24.87
   1  -6   0 1219.69   27.12
  -1  -6   0 1215.12   28.34
  -1   6   0 1179.65   28.38
   1  -6   0 1193.59   28.46
   1  -6   1  579.11   17.98
  -1   6   1  599.35   15.67
  -1  -6   1  583.02   18.01
  -1   6   2 1712.99   34.67
  -1  -6   2 1793.53   41.44
   1  -6   2 1734.38   41.30
  -1  -6   3  274.14   13.23
  -1   6   3  279.28    7.10
   1  -6   3  295.09   13.51
  -1  -6   4  698.98   24.13
   1  -6   4  717.64   24.34
   1  -6   5  111.06   10.79
  -1  -6   5  136.03   10.82
  -1   6   6  400.43    9.02
  -1  -6   6  362.10   18.26
  -1   6   6  378.13    9.09
   1  -6   6  393.27   18.87
  -1   6   7   57.50    3.04
  -1   6   7   56.74    3.13
   1  -6   7   55.03    8.03
  -1  -6   7   45.61    6.91
  -1  -6   8  488.21   24.15
  -1   6   8  551.18   14.01
   1  -6   8  498.88   24.39
   1  -6   9   94.50   10.80
  -1  -6   9  105.55   11.73
  -1  -6  10  355.34   22.00
   1  -6  10  361.19   22.38
  -1  -6  11   57.62    9.69
   1  -6  11   55.97    9.65
  -1  -7  -2   69.54    3.80
  -1   7  -2   63.87    4.40
  -1   7  -2   71.97    6.98
   1   7  -2   65.16    2.91
   1  -7  -2   77.13    4.56
  -1  -7  -1  790.63   19.66
   1  -7  -1  789.46   20.12
  -1   7  -1  761.28   22.81
  -1  -7   0  243.88   10.41
   1  -7   0  244.01   10.67
   1  -7   0  253.45    9.53
  -1   7   0  244.49   10.61
  -1  -7   0  251.85    7.81
  -1   7   1  843.23   21.46
  -1  -7   1  880.78   24.50
   1  -7   1  858.62   24.25
  -1   7   2   75.84    4.49
   1  -7   2   84.13    7.26
  -1  -7   2   63.51    7.28
  -1  -7   3   71.20    6.97
  -1   7   3   80.14    3.40
   1  -7   3   74.40    7.06
  -1  -7   4   86.72    8.47
   1  -7   4   96.97    8.65
   1  -7   5   65.71    7.97
  -1  -7   5   61.66    8.03
  -1  -7   6   25.34    6.01
   1  -7   6   23.91    5.51
  -1  -7   7   86.50    9.72
   1  -7   7   87.49    9.85
  -1  -7   8   12.46    4.85
   1  -7   8   19.30    5.99
  -1  -7   9   31.17    6.93
   1  -7   9   37.44    7.41
   1  -7  10   36.31    8.51
  -1  -7  10   33.19    8.89
   1  -8  -3  259.94    7.82
  -1   8  -3  271.17    9.82
  -1   8  -2  685.57   22.71
  -1   8  -2  661.41   16.64
  -1  -8  -2  648.35   16.20
   1  -8  -2  654.98   17.07
   1  -8  -1  245.49    9.94
   1  -8  -1  253.04   10.43
  -1  -8  -1  233.02    9.35
  -1   8  -1  242.25   11.56
  -1   8   0  894.02   24.95
   1  -8   0  926.61   25.02
   1  -8   0  954.74   23.22
  -1  -8   0  898.85   24.56
  -1  -8   0  934.03   20.57
  -1  -8   1  224.09   11.04
   1  -8   1  219.54   11.16
  -1   8   1  226.06    9.44
   1  -8   2  666.73   22.71
  -1  -8   2  664.51   22.36
  -1   8   2  670.84   17.34
  -1  -8   3  254.71   13.49
   1  -8   3  253.95   13.85
  -1  -8   4  405.19   18.58
   1  -8   4  371.22   17.76
  -1  -8   5  103.13    9.82
   1  -8   5  100.19    9.69
   1  -8   6  179.19   13.66
  -1  -8   6  170.73   13.10
   1  -8   7   43.11    7.52
  -1  -8   7   26.83    6.01
   1  -8   8   44.82    7.86
  -1  -8   8   44.96    8.10
  -1  -8   9   36.99    7.95
   1  -8   9   27.59    7.08
   1  -8  10  168.81   16.06
  -1  -8  10  181.96   16.63
   1   9  -3  741.16   15.70
   1  -9  -3  689.08   16.99
  -1  -9  -3  700.52   15.14
  -1   9  -3  728.63   18.66
  -1  -9  -2   62.60    4.25
   1  -9  -2   68.28    4.75
  -1  -9  -1 1104.63   27.66
   1  -9  -1 1083.43   28.03
   1  -9  -1 1160.71   28.69
  -1  -9   0  642.21   20.71
   1  -9   0  689.97   19.03
   1  -9   0  684.14   21.33
  -1   9   0  660.95   21.19
  -1  -9   0  672.04   16.35
  -1  -9   1 1035.27   29.50
   1  -9   1 1062.50   30.02
  -1   9   1 1035.83   26.76
  -1  -9   2   89.30    7.79
   1  -9   2   82.70    7.63
  -1  -9   3  773.85   26.70
   1  -9   3  753.01   26.68
  -1  -9   4   36.51    7.02
   1  -9   4   35.18    6.81
  -1  -9   5  922.63   32.99
   1  -9   5  941.79   33.06
   1  -9   6  120.07   11.74
  -1  -9   6   89.05   10.44
   1  -9   7  524.97   25.74
  -1  -9   7  492.16   24.80
  -1  -9   8   47.25    8.68
   1  -9   8   60.79    9.61
   1  -9   9  428.07   25.27
  -1  -9   9  445.26   25.69
   1  10  -4  250.00    8.08
  -1  10  -4  238.04    9.82
   1 -10  -3  210.76    7.78
  -1 -10  -3  192.04    6.34
  -1  10  -3  198.45    7.98
  -1 -10  -2  294.27   10.74
   1 -10  -2  298.39   11.26
   1 -10  -1   71.13    5.99
  -1 -10  -1   77.91    5.52
  -1 -10  -1   72.72    5.89
   1 -10  -1   75.97    6.17
   1 -10   0  694.11   22.15
  -1 -10   0  686.80   21.77
  -1 -10   1   72.23    7.06
   1 -10   1   84.68    7.76
  -1 -10   2  288.85   14.89
   1 -10   2  315.48   15.61
   1 -10   3  185.30   12.51
  -1 -10   3  193.05   12.50
  -1 -10   4  214.96   14.06
   1 -10   4  207.50   13.86
  -1 -10   5  106.76   10.74
   1 -10   5  119.42   11.48
  -1 -10   6  493.07   24.55
   1 -10   6  489.84   24.46
  -1 -10   7   12.23    6.08
   1 -10   7    3.88    3.86
   1 -10   8  202.01   17.12
  -1 -10   8  205.80   17.00
  -1  11  -5   31.27    3.72
   1  11  -5   32.15    3.01
  -1  11  -4   64.68    4.70
  -1 -11  -3   56.08    3.46
   1 -11  -3   59.23    4.19
  -1 -11  -2   90.40    5.81
   1 -11  -2   93.53    6.26
   1 -11  -2   93.67    7.41
   1 -11  -1  103.42    7.41
  -1 -11  -1  107.82    6.34
  -1 -11  -1   90.14    6.79
   1 -11  -1   98.54    6.97
  -1 -11   0   22.87    4.05
   1 -11   0   31.23    4.96
  -1 -11   1   99.97    8.58
   1 -11   1   94.44    8.28
  -1 -11   2   83.72    8.44
   1 -11   2   89.99    8.78
   1 -11   3   71.06    8.09
  -1 -11   3   85.30    8.90
   1 -11   4   48.66    7.29
  -1 -11   4   45.38    6.86
  -1 -11   5   21.43    5.74
   1 -11   5   21.71    5.72
  -1 -11   6   14.11    4.97
   1 -11   6    9.89    4.42
   1 -11   7    4.74    4.54
  -1 -11   7   11.50    5.38
   1 -11   8   10.69    5.52
  -1 -11   8    7.28    4.85
   1 -12  -3   36.76    3.57
  -1 -12  -3   32.11    2.82
  -1 -12  -2  485.12   16.14
  -1 -12  -2  531.12   17.92
   1 -12  -2  484.79   16.73
   1 -12  -2  513.26   18.84
  -1 -12  -1  138.81    8.91
   1 -12  -1  145.21    9.40
   1 -12  -1  150.86    8.83
  -1 -12  -1  151.21    7.71
   1 -12   0  200.60   11.78
  -1 -12   0  193.04   11.43
   1 -12   1  140.97   10.64
  -1 -12   1  135.87   10.50
  -1 -12   2  490.93   21.29
   1 -12   2  474.22   21.27
  -1 -12   3   40.76    6.47
   1 -12   3   48.44    7.21
  -1 -12   4  344.20   19.74
   1 -12   4  344.09   19.79
   1 -12   5   68.68   10.28
  -1 -12   5   56.35    8.82
   1 -12   6  492.18   26.14
  -1 -12   6  503.73   26.19
  -1 -12   7   53.02    9.15
   1 -12   7   76.08   10.97
   1 -13  -3  559.90   21.54
   1 -13  -3  510.24   15.75
  -1 -13  -2   86.86    6.62
  -1 -13  -2   81.90    6.20
   1 -13  -2   84.50    7.23
   1 -13  -2   95.46    6.94
  -1 -13  -1  520.24   19.10
  -1 -13  -1  550.51   16.05
   1 -13  -1  503.37   19.28
   1 -13  -1  543.52   18.11
   1 -13   0  157.57   10.88
  -1 -13   0  147.98   10.61
   1 -13   1  498.81   21.29
  -1 -13   1  471.70   20.48
   1 -13   2   84.73    8.80
  -1 -13   2   78.65    8.79
  -1 -13   3  508.75   23.68
   1 -13   3  505.68   23.76
   1 -13   4  174.13   14.82
  -1 -13   4  160.91   13.90
  -1 -13   5  443.07   24.09
   1 -13   5  445.19   24.41
   1 -13   6   68.63   10.09
  -1 -13   6   78.74   11.07
  -1 -13   7  366.61   23.80
  -1 -14  -2   37.03    4.39
   1 -14  -2   53.13    5.69
   1 -14  -1   26.35    4.58
  -1 -14  -1   24.88    4.24
  -1 -14   0  251.05   13.92
   1 -14   0  230.68   13.52
  -1 -14   1   21.32    4.24
   1 -14   1   29.67    5.65
  -1 -14   2   36.46    6.46
   1 -14   2   40.01    6.51
   1 -14   3   55.78    8.38
  -1 -14   3   50.73    8.24
  -1 -14   4  151.19   13.63
   1 -14   4  149.77   13.78
  -1 -14   5   68.62   10.12
   1 -14   5   77.03   10.59
   1 -14   6   55.77    9.61
  -1 -14   6   60.96    9.74
  -1 -15  -1   -0.14    3.05
   1 -15  -1    6.48    2.74
  -1 -15   0   17.55    4.79
   1 -15   0   13.16    4.32
  -1 -15   1   -0.13    2.92
   1 -15   1   10.07    4.38
  -1 -15   2    8.70    4.26
   1 -15   2    6.13    4.04
   1 -15   3  115.04   11.78
  -1 -15   3  110.21   11.62
  -1 -15   4    8.65    5.09
   1 -15   4    0.72    3.98
   1 -15   5   56.29    9.10
  -1 -15   5   54.51    9.43
   1 -16   0  234.56   14.51
  -1 -16   0  229.90   14.09
  -1 -16   1   39.45    6.98
   1 -16   1   40.15    7.00
  -1 -16   2  276.04   17.83
   1 -16   2  282.25   17.93
  -1 -16   3   51.49    8.91
   1 -16   3   48.09    8.57
   1 -16   4  329.88   21.62
  -1 -16   4  312.12   20.90
   1 -17   1  236.69   16.04
   1 -17   2   37.92    7.40
  -1 -17   2   36.31    6.96
  -1 -17   3  149.65   14.02
   1 -17   3  131.20   13.55
  -2   0  -4  978.96   24.45
  -2   0  -3  833.36   20.24
  -2   0  -2 2978.51   56.95
  -2   0  -1 3198.60   59.31
  -2   0   0 5357.00   96.94
   2   0   0 5074.77   96.81
   2   0   0 5517.72   96.27
   2   0   1 3178.71   58.89
   2   0   2 3135.95   59.49
   2   0   3  897.10   21.26
   2   0   4 1053.48   25.68
   2   0   5  895.82   24.20
   2   0   6  744.02   22.59
  -2   0   6  745.29   23.07
  -2   0   7   47.54    5.70
   2   0   7   47.99    5.48
  -2   0   8  334.45   16.30
   2   0   8  353.09   16.46
   2   0   9  281.01   15.17
  -2   0   9  266.00   15.17
  -2   0  10  345.12   18.58
   2   0  10  370.16   18.70
   2   0  11  366.88   19.38
  -2   0  11  347.27   19.43
  -2   1  -4  650.94   19.27
  -2  -1  -4  664.35   17.39
  -2  -1  -3  853.14   20.27
  -2   1  -3  898.65   22.75
  -2  -1  -2  375.16    9.56
  -2   1  -2  393.60   11.37
  -2   1  -1  656.61   15.22
  -2  -1  -1  647.54   13.57
   2  -1   0 1314.63   25.29
  -2   1   0 1273.47   25.94
   2  -1   0 1214.71   25.91
  -2   1   0 1278.62   25.22
   2   1   1  560.03   11.96
   2  -1   1  574.04   13.53
   2   1   2  430.32   10.50
   2  -1   2  461.74   12.60
   2  -1   3  940.24   22.92
   2   1   3  877.29   20.48
   2   1   4  658.26   17.39
   2  -1   4  664.48   19.26
   2   1   5  919.83   23.81
  -2  -1   5  907.56   25.90
   2  -1   5  923.24   25.76
   2  -1   6   83.88    6.95
  -2  -1   6  100.14    7.94
  -2   1   6   96.92    6.85
   2   1   6   84.74    6.24
   2  -1   7  350.03   15.81
  -2  -1   7  331.64   15.64
   2   1   7  363.70   14.63
  -2   1   7  347.32   14.87
  -2   1   8  193.70   11.67
   2  -1   8  193.35   12.34
   2   1   8  186.42   11.12
  -2  -1   8  184.70   12.29
   2   1   9  356.95   16.69
  -2  -1   9  351.92   18.21
   2  -1   9  333.42   17.63
  -2   1   9  348.06   17.05
  -2   1  10   99.93    9.31
   2  -1  10  101.13   10.15
   2   1  10   99.17    9.22
  -2  -1  10   96.60   10.19
   2  -1  11   75.75    9.58
  -2   1  11   69.24    8.32
  -2  -1  11   57.99    8.52
  -2  -1  12   61.88    9.26
  -2   2  -5  169.99    9.64
  -2   2  -4  262.55   12.16
  -2  -2  -3 1166.79   24.03
  -2   2  -3 1165.13   28.35
  -2   2  -2  387.19   11.91
  -2  -2  -2  338.28    8.25
  -2  -2  -1  711.61   14.58
   2  -2  -1  743.48   15.73
  -2   2  -1  758.11   17.55
  -2   2   0  296.65    8.10
  -2   2   0  281.83    8.54
   2  -2   0  288.03    8.13
   2  -2   0  274.72    8.44
   2  -2   1  569.20   14.53
  -2   2   1  566.07   12.76
   2  -2   2  353.49   12.13
   2   2   2  313.15    7.55
   2   2   3 1194.33   24.33
   2  -2   3 1190.60   28.79
   2   2   4  209.82    7.91
   2  -2   4  239.37   11.06
   2  -2   5  217.83   10.99
   2   2   5  204.90    8.27
  -2  -2   5  213.02   11.01
  -2  -2   6   70.45    6.80
   2   2   6   74.20    5.47
  -2   2   6   74.94    5.70
   2  -2   6   76.38    6.81
   2   2   7   52.11    5.27
   2  -2   7   48.27    6.29
  -2  -2   7   60.20    6.93
  -2   2   7   57.03    5.73
  -2   2   8   54.27    6.04
   2  -2   8   48.61    6.93
  -2  -2   8   61.49    7.58
   2   2   8   46.94    5.38
  -2   2   9   73.11    7.44
  -2  -2   9   71.61    8.84
   2  -2   9   62.02    8.10
   2   2   9   66.59    6.84
  -2  -2  10    2.52    3.45
  -2   2  10    6.20    3.66
   2  -2  10   -2.13    3.41
   2   2  10    4.68    2.30
  -2  -2  11   38.24    7.49
   2  -2  11   19.03    5.61
  -2  -2  12    5.09    4.33
   2  -2  12    8.36    5.44
  -2   3  -5  609.17   21.23
  -2   3  -4 2023.39   46.84
  -2  -3  -3 1143.00   22.30
  -2   3  -3 1161.53   29.05
  -2   3  -2 1110.96   26.83
  -2   3  -1 4101.52   79.67
   2  -3  -1 4210.71   77.16
   2  -3   0   32.79    2.88
  -2   3   0   34.62    2.87
   2  -3   0   38.44    3.08
  -2   3   0   38.13    3.09
  -2   3   1 3991.25   74.37
   2  -3   1 4069.39   77.18
  -2   3   2 1244.34   25.21
   2  -3   2 1262.94   29.48
   2  -3   3 1167.14   29.53
   2   3   3 1179.36   22.67
  -2  -3   4 1958.64   45.80
   2  -3   4 1936.67   45.70
   2   3   4 1994.60   38.48
   2  -3   5  562.70   20.10
   2   3   5  570.60   14.77
  -2  -3   5  559.95   20.17
   2   3   6   81.56    5.09
  -2  -3   6   89.43    7.99
  -2   3   6   84.41    5.81
   2  -3   6   90.13    8.07
  -2   3   7  489.65   16.83
   2   3   7  505.29   16.10
  -2  -3   7  481.12   20.66
   2  -3   7  470.01   20.47
  -2   3   8  339.97   14.33
  -2  -3   8  310.97   17.21
   2  -3   8  298.36   16.81
   2   3   8  348.87   13.63
   2   3   9  300.73   13.37
  -2   3   9  295.62   14.24
  -2  -3   9  291.64   17.69
   2  -3   9  263.94   16.59
  -2  -3  10  141.33   12.75
  -2   3  10  156.55   10.56
   2  -3  10  161.46   13.74
  -2  -3  11  141.70   13.72
   2  -3  11  149.62   14.08
   2  -3  12   95.92   11.72
  -2  -3  12   96.75   11.74
  -2   4  -5 1338.81   36.60
  -2   4  -4 1225.70   33.35
  -2   4  -3 2421.02   53.41
  -2   4  -2 2427.92   50.86
   2  -4  -2 2336.22   45.19
   2  -4  -1  378.63   10.40
  -2   4  -1  386.40   11.12
  -2   4  -1  365.99   12.28
   2  -4   0  120.84    5.78
   2  -4   0  116.98    5.66
  -2   4   0  115.78    5.62
   2  -4   1  329.41   11.33
  -2   4   1  323.42    9.34
   2  -4   2 2394.92   50.80
  -2   4   2 2319.12   44.79
   2  -4   3 2098.60   48.35
  -2   4   3 2160.05   41.45
  -2  -4   3 2143.76   48.36
  -2  -4   4 1204.41   32.66
   2  -4   4 1210.07   32.73
  -2  -4   5 1255.13   34.82
   2  -4   5 1253.33   34.82
   2   4   5 1240.39   25.40
  -2  -4   6  830.56   27.80
  -2   4   6  807.53   21.06
   2  -4   6  799.74   27.34
   2   4   6  813.53   19.30
  -2   4   7  553.78   17.01
   2   4   7  535.69   15.44
   2  -4   7  501.47   22.05
  -2  -4   7  521.54   22.29
   2  -4   8  709.14   28.39
  -2  -4   8  746.00   29.11
   2   4   8  809.69   21.45
  -2   4   8  732.40   22.37
  -2   4   9  253.74   12.11
   2  -4   9  236.95   16.12
  -2  -4   9  229.19   15.90
   2   4   9  244.74   11.05
  -2  -4  10  229.66   16.63
   2  -4  10  247.62   17.09
  -2  -4  11   49.55    8.60
   2  -4  11   43.80    7.97
   2  -4  12  138.18   14.35
  -2   5  -4  407.57   16.90
  -2   5  -3  387.58   15.39
  -2  -5  -2   28.62    1.66
  -2   5  -2   27.40    3.65
   2  -5  -2   29.72    2.45
  -2   5  -1  395.98   11.81
  -2  -5  -1  398.32   10.82
   2  -5  -1  400.79   11.60
  -2   5  -1  402.31   13.80
  -2   5   0    9.00    2.13
   2  -5   0   11.43    2.26
  -2  -5   0   10.47    1.82
   2  -5   0   12.02    2.78
  -2  -5   1  406.71   13.75
   2  -5   1  414.01   13.98
  -2   5   1  387.80   11.52
  -2  -5   2   11.17    2.82
  -2   5   2   11.36    1.69
   2  -5   2   17.93    3.70
  -2  -5   3  420.96   15.95
  -2   5   3  391.84   10.12
   2  -5   3  416.79   16.04
   2  -5   4  402.55   16.84
  -2  -5   4  408.24   17.05
  -2   5   4  417.54   10.61
  -2   5   5   92.63    4.93
  -2  -5   5  145.69   10.61
   2  -5   5  123.43    9.90
   2   5   6  429.28    9.88
  -2   5   6  426.45   12.63
  -2  -5   6  415.19   19.03
   2  -5   6  411.79   19.06
  -2   5   7  178.31    8.23
  -2  -5   7  173.12   13.28
   2   5   7  177.77    6.48
   2  -5   7  187.06   13.34
   2  -5   8   96.46   10.19
  -2  -5   8  113.05   10.94
   2   5   8   99.91    5.22
  -2   5   8  106.02    6.59
   2  -5   9   37.35    7.37
  -2   5   9   30.75    3.71
  -2  -5   9   23.68    6.36
   2  -5  10   15.61    5.91
  -2  -5  10    3.80    4.49
   2  -5  11   54.07    9.16
  -2  -5  11   67.89    9.97
  -2   6  -4  181.02   11.39
  -2   6  -3 1126.37   31.73
  -2   6  -2  801.42   19.88
  -2   6  -2  763.56   23.27
  -2  -6  -2  751.26   16.42
   2  -6  -2  792.49   18.36
   2  -6  -1  235.35    9.86
  -2  -6  -1  235.20    8.17
  -2   6  -1  230.40   10.36
   2  -6  -1  242.95    8.94
  -2   6  -1  233.52    8.64
  -2   6   0  553.07   16.60
  -2  -6   0  538.81   15.92
   2  -6   0  562.90   16.25
   2  -6   0  570.94   16.81
   2  -6   1  255.97   10.98
  -2  -6   1  265.66   10.95
  -2   6   1  247.47    9.10
   2  -6   2  774.09   23.44
  -2  -6   2  797.48   23.49
  -2   6   2  786.76   18.59
  -2   6   3  958.77   20.83
  -2  -6   3  997.52   28.58
   2  -6   3  967.22   28.56
  -2  -6   4  166.45   11.02
  -2   6   4  161.34    5.53
   2  -6   4  183.34   11.44
   2  -6   5   75.71    7.95
  -2  -6   5   59.16    6.99
  -2   6   5   73.67    3.42
  -2  -6   6  105.79   10.61
   2  -6   6  103.70   10.70
  -2   6   6  110.62    4.88
  -2   6   6  112.44    5.08
  -2   6   7    8.29    1.72
   2  -6   7   11.41    4.25
  -2  -6   7    6.74    3.27
  -2   6   7    7.72    1.61
   2  -6   8  132.65   12.06
  -2  -6   8  135.33   12.55
  -2   6   8  143.45    6.71
  -2  -6   9  141.21   13.34
   2  -6   9  148.43   13.57
   2  -6  10   52.19    8.54
  -2  -6  10   70.69   10.18
   2  -6  11   21.20    6.34
  -2   7  -4 1671.49   44.64
  -2   7  -3 1300.42   35.94
  -2   7  -2  129.84    6.42
  -2   7  -2  130.63    8.53
   2  -7  -2  124.09    5.95
  -2  -7  -2  130.75    5.11
  -2   7  -1 1479.52   36.60
  -2   7  -1 1520.03   32.93
  -2  -7  -1 1494.52   32.72
   2  -7  -1 1501.84   35.32
   2  -7  -1 1491.65   33.66
   2  -7   0  430.59   14.06
  -2  -7   0  444.83   10.30
  -2   7   0  441.13   14.84
   2  -7   0  425.60   14.64
  -2  -7   0  420.46   14.13
  -2   7   1 1480.07   33.83
   2  -7   1 1520.65   36.80
  -2  -7   1 1541.42   36.55
   2  -7   2   93.48    7.48
  -2   7   2   90.56    4.97
  -2  -7   2   93.22    7.32
   2  -7   3 1292.43   36.19
  -2   7   3 1318.27   27.57
  -2  -7   3 1312.79   35.95
  -2   7   4 1643.97   32.10
   2  -7   4 1644.65   43.94
  -2  -7   4 1629.08   43.68
  -2   7   5  329.18    7.66
   2  -7   5  356.24   17.84
  -2  -7   5  368.08   17.76
   2  -7   6  251.25   15.54
  -2  -7   6  248.62   15.42
  -2  -7   7  973.23   35.28
   2  -7   7  987.35   35.45
   2  -7   8  242.87   17.46
  -2  -7   8  257.05   17.46
  -2  -7   9  239.58   17.69
   2  -7   9  255.93   17.95
  -2  -7  10   79.98   11.69
   2  -7  10   84.05   11.32
   2  -8  -3  321.01    9.89
  -2   8  -3  328.20   11.81
  -2   8  -3  320.82   15.52
  -2   8  -2 1206.69   27.81
   2  -8  -2 1199.04   27.59
  -2  -8  -2 1163.01   25.92
  -2   8  -2 1197.04   33.49
  -2  -8  -1  528.02   15.70
   2  -8  -1  537.03   16.60
  -2   8  -1  545.06   18.94
   2  -8  -1  555.18   17.62
   2  -8   0 1697.25   40.06
   2  -8   0 1773.15   39.14
  -2  -8   0 1692.18   39.59
  -2   8   0 1715.28   40.27
  -2  -8   0 1721.43   33.36
  -2  -8   1  499.93   17.61
  -2   8   1  485.51   15.61
   2  -8   1  491.71   17.86
   2  -8   2 1179.36   33.37
  -2  -8   2 1240.71   33.72
  -2   8   2 1183.89   27.69
  -2   8   3  333.88   10.11
  -2  -8   3  350.58   16.25
   2  -8   3  336.19   16.00
  -2   8   4  305.98    8.03
  -2  -8   4  322.04   16.32
   2  -8   4  299.11   15.98
  -2  -8   5   96.83    9.29
   2  -8   5  111.92   10.14
  -2  -8   6  589.84   26.04
   2  -8   6  617.25   26.19
   2  -8   7  130.76   12.24
  -2  -8   7  108.15   11.02
   2  -8   8  304.72   19.65
  -2  -8   8  290.34   19.24
   2  -8   9   57.72    9.22
  -2  -8   9   64.66    9.78
   2  -8  10  168.32   15.90
  -2   9  -3   18.64    2.98
   2  -9  -3   17.05    2.37
  -2   9  -3   11.90    2.73
  -2  -9  -3   13.61    1.10
  -2  -9  -2  266.59    9.41
   2  -9  -2  282.13   10.58
  -2   9  -2  278.22   14.09
  -2   9  -2  275.67   10.21
   2  -9  -1   98.71    6.62
   2  -9  -1   97.58    6.89
  -2   9  -1  102.22    7.99
  -2  -9  -1  101.72    6.34
  -2  -9   0   67.05    3.07
  -2   9   0   55.08    5.39
  -2  -9   0   62.27    5.42
   2  -9   0   65.62    5.80
   2  -9   0   65.59    5.18
   2  -9   1  110.47    8.22
  -2  -9   1  103.32    7.95
  -2   9   1  108.71    7.01
   2  -9   2  306.25   14.90
  -2  -9   2  307.80   14.78
  -2   9   2  305.52   11.20
   2  -9   3   16.33    4.31
  -2  -9   3   17.72    4.39
  -2   9   3   16.47    2.17
  -2  -9   4  312.78   16.50
   2  -9   4  297.36   16.75
  -2  -9   5  122.98   10.87
   2  -9   5  128.45   11.10
  -2  -9   6   58.83    8.30
   2  -9   6   59.14    8.51
   2  -9   7   52.54    8.92
  -2  -9   7   46.74    8.44
  -2  -9   8   12.86    5.62
   2  -9   8   15.08    5.85
  -2  -9   9   14.54    5.80
   2  -9   9   20.09    6.43
   2  10  -4  126.66    4.18
  -2  10  -4  145.19    7.91
   2 -10  -3  304.04   10.71
  -2  10  -3  333.30   11.80
  -2 -10  -3  307.73    8.32
  -2  10  -2  293.14   15.13
   2 -10  -2  329.83   14.42
  -2 -10  -2  298.70   10.74
   2 -10  -2  304.04   11.87
  -2 -10  -1   77.89    4.98
   2 -10  -1   79.80    6.57
  -2  10  -1   77.32    7.58
   2 -10  -1   75.42    6.29
  -2 -10  -1   77.80    5.97
  -2 -10   0  406.21   15.73
   2 -10   0  433.42   16.64
  -2  10   0  427.51   16.65
  -2  10   1   80.56    6.44
  -2 -10   1   75.05    7.23
   2 -10   1   83.44    7.82
   2 -10   2  288.71   14.94
  -2 -10   2  273.13   14.93
  -2  10   2  303.96   11.71
  -2 -10   3  284.55   15.61
   2 -10   3  285.01   15.85
   2 -10   4  134.57   11.34
  -2 -10   4  143.91   11.51
  -2 -10   5  491.33   23.40
   2 -10   5  528.66   24.52
   2 -10   6  315.95   20.00
  -2 -10   6  353.39   20.60
  -2 -10   7   54.20    8.97
   2 -10   7   58.84    9.12
  -2 -10   8   82.38   11.47
   2 -10   8   73.88   10.43
  -2  11  -5  525.27   18.14
   2  11  -5  531.02   13.11
  -2  11  -4  232.64   10.22
   2 -11  -3  378.55   12.84
  -2 -11  -3  383.37   10.41
   2 -11  -2  517.79   19.29
  -2 -11  -2  515.00   15.70
   2 -11  -2  491.81   16.68
   2 -11  -1  656.43   21.77
   2 -11  -1  717.37   22.29
  -2 -11  -1  722.20   21.76
  -2 -11  -1  720.37   18.82
   2 -11   0  359.55   15.61
  -2 -11   0  368.46   15.50
   2 -11   1  651.65   23.46
  -2 -11   1  647.66   23.15
  -2 -11   2  464.30   20.37
   2 -11   2  498.34   21.06
   2 -11   3  415.35   20.32
  -2 -11   3  420.50   20.22
   2 -11   4  263.07   16.51
  -2 -11   4  244.61   15.83
   2 -11   5  527.68   25.18
  -2 -11   5  486.88   24.16
  -2 -11   6  143.40   13.55
   2 -11   6  163.25   14.42
  -2 -11   7  192.85   16.12
   2 -11   7  189.56   15.98
   2 -11   8  108.18   12.99
  -2 -11   8  122.49   13.66
  -2  12  -4  207.47    9.18
   2 -12  -3  179.81    8.58
  -2 -12  -3  180.78    6.74
   2 -12  -3  193.78   12.15
  -2 -12  -2  187.44    8.99
   2 -12  -2  190.83    9.95
   2 -12  -2  180.96   10.93
   2 -12  -1  168.19    9.75
  -2 -12  -1  147.01    8.97
   2 -12  -1  162.55    9.86
  -2 -12  -1  173.32    7.44
  -2 -12   0  529.42   19.94
   2 -12   0  538.37   20.62
  -2 -12   1  121.86    9.66
   2 -12   1  135.47   10.44
   2 -12   2  194.61   13.16
  -2 -12   2  210.89   13.58
  -2 -12   3  207.38   14.11
   2 -12   3  207.00   14.46
   2 -12   4  212.89   15.35
  -2 -12   4  205.77   14.79
   2 -12   5   10.63    4.86
  -2 -12   5    5.62    4.71
  -2 -12   6  141.56   13.61
   2 -12   6  115.23   12.37
  -2 -12   7  160.39   15.32
   2 -12   7  171.01   15.51
   2 -13  -3   23.53    4.85
   2 -13  -3   22.52    3.28
   2 -13  -2   55.98    5.61
  -2 -13  -2   56.62    5.04
   2 -13  -2   59.58    6.36
   2 -13  -1   35.90    5.61
   2 -13  -1   33.82    5.01
  -2 -13  -1   31.35    4.59
   2 -13   0  109.90    9.28
  -2 -13   0  111.02    8.81
  -2 -13   1   33.13    5.86
   2 -13   1   35.03    6.18
  -2 -13   2   46.29    7.13
   2 -13   2   58.59    7.72
   2 -13   3   16.78    5.26
  -2 -13   3   21.20    6.12
   2 -13   4   78.18    9.71
  -2 -13   4   89.56   10.25
   2 -13   5   20.76    6.01
  -2 -13   5   10.14    5.40
   2 -13   6   24.80    7.32
  -2 -13   6   37.33    7.87
  -2 -14  -2  191.84    9.95
   2 -14  -2  193.44   10.86
   2 -14  -1  388.36   17.02
  -2 -14  -1  385.09   16.29
   2 -14   0   76.72    7.95
  -2 -14   0   69.74    7.28
   2 -14   1  411.28   19.87
  -2 -14   1  374.53   18.66
  -2 -14   2  208.20   14.50
   2 -14   2  202.04   14.67
   2 -14   3  309.00   18.70
  -2 -14   3  302.88   18.41
  -2 -14   4  170.91   14.74
   2 -14   4  170.08   14.86
  -2 -14   5   19.23    6.32
   2 -14   5    8.33    3.86
   2 -14   6  127.14   13.92
  -2 -14   6   97.22   12.16
  -2 -15  -1  222.43   12.29
   2 -15  -1  206.09   12.54
   2 -15   0  338.53   17.51
  -2 -15   0  343.96   17.07
   2 -15   1  191.56   13.80
  -2 -15   1  202.34   13.99
   2 -15   2  349.92   19.73
  -2 -15   2  363.37   19.81
  -2 -15   3  184.29   14.96
   2 -15   3  188.11   15.19
   2 -15   4   33.23    7.44
  -2 -15   4   23.58    6.57
  -2 -15   5  153.69   14.78
   2 -15   5  145.67   14.34
   2 -16   0   17.24    4.18
  -2 -16   0   16.45    4.81
  -2 -16   1   94.24    9.86
   2 -16   1   85.33    9.41
  -2 -16   2   39.04    7.26
   2 -16   2   43.81    7.80
   2 -16   3   -6.98    5.06
  -2 -16   3    0.94    4.16
  -2 -16   4   19.09    5.62
   2 -16   4   16.45    6.06
   2 -17   1   17.94    5.63
   2 -17   2   42.98    7.89
  -2 -17   2   26.46    6.30
  -2 -17   3   29.79    7.02
   2 -17   3   37.45    7.28
  -3   0  -5   90.36    7.34
  -3   0  -4   17.45    3.13
  -3   0  -3  193.75    8.47
  -3   0  -2   31.55    3.57
  -3   0  -1   37.82    2.79
   3   0   0    1.52    1.36
  -3   0   0    0.33    1.00
  -3   0   0    1.62    1.75
   3   0   1   26.51    2.87
   3   0   2   42.93    3.33
   3   0   3  183.04    8.11
   3   0   4   14.20    3.04
   3   0   5   97.21    7.46
   3   0   6   41.23    5.60
  -3   0   7    5.56    3.10
   3   0   7    3.46    2.61
  -3   0   8    3.54    2.56
   3   0   8    8.40    3.77
   3   0   9    6.13    3.29
  -3   0   9    3.67    3.57
  -3   0  10   27.41    6.19
   3   0  10   14.08    5.04
   3   0  11    9.46    4.20
  -3   0  11    6.42    4.49
  -3  -1  -5  112.36    6.77
  -3   1  -5  122.78    7.92
  -3   1  -4  857.61   23.42
  -3  -1  -4  868.14   21.62
  -3  -1  -3  167.43    6.69
  -3   1  -3  180.81    7.89
  -3   1  -2   45.59    3.82
  -3  -1  -2   35.08    3.01
  -3   1  -1 2035.56   40.45
   3   1  -1 2021.49   39.98
  -3  -1  -1 2034.59   39.07
   3  -1   0 3959.36   77.03
  -3  -1   0 4174.61   76.13
   3  -1   0 4154.03   76.10
  -3   1   0 4055.50   77.13
  -3   1   0 4059.37   75.94
   3  -1   1 1972.91   39.07
  -3   1   1 1939.53   38.30
   3   1   1 1949.44   37.58
   3   1   2   24.85    2.62
   3  -1   2   42.26    3.82
   3   1   3  185.93    6.98
   3  -1   3  194.67    8.40
   3  -1   4  858.70   23.21
   3   1   4  867.40   21.28
   3   1   5  121.99    7.02
   3  -1   5  117.60    8.02
   3   1   6 1856.05   42.44
   3  -1   6 1829.37   44.89
   3  -1   7  115.50    8.87
   3   1   7  136.35    8.66
  -3   1   7  129.14    8.81
  -3  -1   7  131.62    9.59
   3  -1   8  457.82   19.63
  -3   1   8  426.62   18.34
  -3  -1   8  441.48   19.71
   3   1   8  454.99   18.06
  -3  -1   9  135.14   11.21
   3  -1   9  150.14   11.60
   3   1   9  152.65   10.40
  -3   1   9  139.47   10.50
   3  -1  10  184.35   13.55
   3   1  10  219.21   13.42
  -3   1  10  201.82   13.49
  -3  -1  10  190.09   14.26
  -3  -1  11   59.08    8.54
   3  -1  11   81.30    9.61
  -3   1  11   80.80    9.25
  -3  -1  12   74.31   10.33
  -3   2  -6  165.03   10.49
  -3   2  -5 1537.27   38.64
  -3   2  -4  424.95   15.30
  -3  -2  -4  407.22   11.99
  -3   2  -3 1777.15   39.68
  -3  -2  -3 1754.00   35.33
  -3   2  -2  420.39   13.25
  -3  -2  -2  445.93   10.65
  -3  -2  -1 2911.35   54.55
   3  -2  -1 2917.87   55.72
  -3   2  -1 2968.25   57.24
   3   2  -1 2893.79   54.99
  -3   2   0 5151.96   93.36
  -3   2   0 5013.76   94.51
   3  -2   0 4867.01   94.52
   3  -2   0 5054.35   93.39
  -3   2   1 2880.00   54.95
   3  -2   1 2886.28   56.61
   3   2   2  420.92   10.08
   3  -2   2  407.07   12.98
   3   2   3 1743.71   34.95
   3  -2   3 1807.59   39.64
   3   2   4  420.95   12.03
   3  -2   4  425.27   15.44
   3   2   5 1526.77   33.44
   3  -2   5 1472.91   37.84
   3  -2   6  181.61   11.33
  -3  -2   6  190.94   11.36
   3   2   6  184.61    8.93
   3   2   7 1082.79   28.17
   3  -2   7 1013.19   31.82
  -3  -2   7 1028.41   32.23
  -3   2   7 1028.25   29.06
  -3  -2   8  182.87   12.73
   3   2   8  198.86   10.77
  -3   2   8  201.63   11.48
   3  -2   8  204.99   13.12
   3  -2   9  469.80   22.02
   3   2   9  492.34   19.15
  -3  -2   9  487.77   22.77
  -3   2   9  493.24   20.22
   3   2  10  124.50    9.60
  -3  -2  10  127.02   11.96
  -3   2  10  108.92    9.66
   3  -2  10  114.42   11.18
  -3  -2  11  258.14   17.99
   3  -2  11  224.02   16.32
  -3  -2  12   59.01    9.04
   3  -2  12   42.36    7.62
  -3   3  -6  139.02   10.01
  -3   3  -5  502.79   19.10
  -3  -3  -4  317.52    9.36
  -3   3  -4  324.05   14.33
  -3  -3  -3  140.74    4.99
  -3   3  -3  164.82    8.67
  -3  -3  -2 2697.50   50.10
  -3   3  -2 2663.14   55.65
   3   3  -1  264.76    7.04
  -3   3  -1  284.35    9.86
   3  -3  -1  290.26    8.78
   3  -3   0  604.75   16.50
   3  -3   0  626.51   15.85
  -3   3   0  622.66   16.50
  -3   3   0  615.47   15.67
   3  -3   1  250.62    9.40
  -3   3   1  244.38    7.90
   3  -3   2 2818.98   57.79
  -3   3   2 2776.50   53.73
   3  -3   3  201.90   10.06
   3   3   3  200.91    5.88
   3   3   4  326.36    9.31
   3  -3   4  351.21   14.48
   3  -3   5  482.35   18.41
   3   3   5  486.21   13.42
   3   3   6  134.23    6.79
  -3  -3   6  125.33    9.81
   3  -3   6  126.50    9.62
   3   3   7   60.70    5.03
   3  -3   7   60.69    7.17
  -3  -3   7   51.30    6.84
  -3   3   7   56.78    5.53
   3   3   8  253.81   11.61
  -3  -3   8  264.97   15.77
  -3   3   8  264.81   12.74
   3  -3   8  252.03   15.40
   3   3   9  107.69    7.80
  -3   3   9   93.37    8.02
   3  -3   9  112.70   10.84
  -3  -3   9  114.41   11.10
  -3  -3  10   96.18   10.56
   3  -3  10   82.42    9.80
  -3   3  10  100.09    8.61
  -3  -3  11    3.63    4.54
   3  -3  11    6.11    4.57
  -3  -3  12   84.04   10.81
   3  -3  12   85.11   10.94
  -3   4  -6   86.45    8.24
  -3   4  -5  237.27   13.18
  -3   4  -4   94.38    7.63
  -3   4  -3  134.83    8.83
  -3  -4  -3  130.26    3.95
  -3  -4  -2  856.22   17.44
   3  -4  -2  838.31   19.44
  -3   4  -2  848.32   23.19
   3  -4  -1  552.74   16.47
  -3   4  -1  550.70   15.48
  -3   4  -1  546.93   16.22
   3  -4  -1  546.68   14.52
   3  -4   0 1090.21   25.13
  -3   4   0 1096.97   25.28
  -3   4   0 1038.07   24.58
   3  -4   0 1027.36   25.45
  -3   4   1  477.94   13.33
   3  -4   1  534.79   15.69
   3  -4   2  929.27   24.76
  -3   4   2  930.36   20.82
  -3   4   3  112.83    5.28
   3  -4   3  129.94    8.34
   3  -4   4   80.29    7.19
  -3   4   4   83.55    4.57
   3   4   4   84.40    3.20
   3  -4   5  226.60   12.86
  -3  -4   5  204.03   12.36
   3   4   5  217.29    6.83
   3  -4   6   74.34    8.64
  -3  -4   6   72.25    8.24
   3   4   6   65.82    4.28
  -3  -4   7  189.47   13.19
   3  -4   7  185.97   12.98
   3   4   7  200.50    8.41
  -3   4   7  195.99    9.77
  -3   4   8  104.52    7.39
   3  -4   8   95.37    9.81
   3   4   8  105.05    6.43
  -3  -4   8   96.28    9.69
   3   4   9   51.64    4.90
   3  -4   9   34.70    6.98
  -3  -4   9   36.53    7.20
  -3   4   9   48.26    5.68
  -3  -4  10   23.78    6.39
   3  -4  10   30.97    6.77
  -3  -4  11   20.96    7.11
   3  -4  11   12.64    5.62
   3  -4  12   21.14    6.72
  -3   5  -5 1098.15   33.23
  -3   5  -4  663.43   22.90
  -3   5  -3  470.43   17.62
  -3   5  -2 3812.91   78.36
   3  -5  -2 3834.78   73.00
  -3   5  -1 1078.49   27.26
   3  -5  -1 1102.64   27.39
  -3   5  -1 1093.07   25.83
   3  -5  -1 1096.31   25.13
   3  -5   0  903.20   23.29
   3  -5   0  910.71   22.98
  -3   5   0  924.28   22.97
   3  -5   1 1196.39   29.43
  -3   5   1 1193.04   26.90
  -3   5   2 3695.69   71.00
   3  -5   2 3775.07   76.59
  -3   5   3  312.61    9.74
   3  -5   3  363.26   15.01
  -3  -5   4  652.85   22.56
  -3   5   4  658.11   16.33
   3  -5   4  646.90   22.62
  -3  -5   5 1119.87   33.85
   3  -5   5 1105.37   33.75
  -3   5   5 1161.28   25.86
  -3   5   6  541.84   15.38
  -3  -5   6  496.74   21.60
   3   5   6  549.62   12.22
   3  -5   6  504.27   21.59
  -3   5   7  194.62    8.90
   3   5   7  203.18    6.84
   3  -5   7  182.83   13.36
  -3  -5   7  180.40   13.02
  -3   5   8  574.60   18.34
   3   5   8  605.38   15.59
  -3  -5   8  546.61   25.34
   3  -5   8  539.60   25.19
  -3   5   9  287.66   12.53
  -3  -5   9  286.14   18.49
   3  -5   9  247.99   17.13
   3  -5  10  221.36   16.96
  -3  -5  10  272.57   18.97
  -3  -5  11   40.00    8.41
   3  -5  11   38.86    8.04
  -3   6  -5  513.57   21.41
  -3   6  -4 1207.16   34.76
  -3   6  -3 1195.54   33.24
  -3  -6  -2  446.84   11.23
  -3   6  -2  441.45   16.50
   3  -6  -2  472.13   13.30
  -3   6  -2  464.70   14.53
  -3   6  -1 2109.26   47.48
   3  -6  -1 2163.10   47.37
  -3   6  -1 2125.42   45.13
   3  -6  -1 2137.96   44.79
  -3   6   0  176.64    8.78
   3  -6   0  182.94    9.20
   3  -6   0  206.06    9.68
   3  -6   1 2049.49   46.17
  -3   6   1 2060.20   43.38
  -3  -6   2  425.67   15.94
  -3   6   2  411.20   12.27
   3  -6   2  420.07   15.93
  -3   6   3 1266.29   27.50
   3  -6   3 1271.78   34.87
  -3  -6   3 1279.48   34.53
   3  -6   4 1083.53   32.19
  -3   6   4 1068.26   23.59
  -3  -6   4 1057.61   31.80
  -3   6   5  517.80   13.62
   3  -6   5  510.47   21.37
  -3  -6   5  505.22   21.26
  -3  -6   6  256.23   15.36
   3  -6   6  255.16   15.32
  -3   6   6  274.24    9.22
   3  -6   7  715.71   28.91
  -3   6   7  762.06   19.95
  -3   6   7  816.03   20.12
  -3  -6   7  757.18   29.62
  -3  -6   8  305.95   18.73
   3  -6   8  313.55   18.80
  -3   6   8  336.98   11.83
  -3  -6   9  266.44   18.38
   3  -6   9  290.08   18.98
   3  -6  10   64.60    9.91
  -3  -6  10   52.62    8.63
   3  -6  11  282.97   20.75
  -3   7  -4  339.35   16.54
  -3   7  -3  275.59   13.95
  -3   7  -2   50.76    4.86
  -3   7  -2   41.17    6.01
  -3  -7  -2   43.00    3.24
   3  -7  -2   47.99    4.40
  -3  -7  -1  424.62   13.11
  -3   7  -1  437.61   16.10
   3  -7  -1  427.18   15.42
  -3   7  -1  437.89   14.10
   3  -7  -1  439.43   14.23
   3  -7   0  365.01   13.69
  -3   7   0  350.19   13.45
   3  -7   0  343.71   13.36
  -3  -7   0  355.83   12.94
  -3   7   1  399.47   13.38
  -3  -7   1  404.99   14.91
   3  -7   1  400.34   15.32
  -3  -7   2   45.68    5.67
   3  -7   2   55.39    6.14
  -3   7   2   37.64    3.73
  -3   7   3  285.58    9.56
  -3  -7   3  295.68   14.28
   3  -7   3  292.50   14.35
  -3   7   4  300.50    9.26
   3  -7   4  314.00   15.82
  -3  -7   4  300.44   15.42
  -3  -7   5   76.17    8.36
  -3   7   5   74.94    3.86
   3  -7   5   64.00    7.73
   3  -7   6   89.86    9.59
  -3   7   6   71.92    3.88
  -3  -7   6   80.06    9.69
   3  -7   7   37.29    6.66
  -3  -7   7   48.55    7.20
  -3   7   7   46.40    3.09
  -3   7   7   38.89    2.96
   3  -7   8   60.56    9.47
  -3  -7   8   59.53    9.32
   3  -7   9   11.43    5.20
  -3  -7   9   21.27    6.15
  -3  -7  10   89.37   11.25
   3  -7  10   75.39   11.30
  -3   8  -3  375.98   16.97
   3  -8  -3  335.04   11.07
  -3   8  -3  359.05   13.13
  -3   8  -2   15.76    2.81
  -3  -8  -2   13.59    2.07
   3  -8  -2   11.32    1.99
  -3   8  -2   15.78    3.79
  -3   8  -1  570.59   19.65
   3  -8  -1  537.33   17.21
  -3  -8  -1  546.13   16.29
   3  -8  -1  595.85   19.08
  -3   8   0  868.82   25.00
   3  -8   0  897.63   25.27
  -3  -8   0  864.35   24.09
   3  -8   0  924.63   24.93
   3  -8   1  474.80   17.99
  -3  -8   1  507.24   17.87
  -3   8   1  510.88   16.34
  -3  -8   2   11.25    2.73
   3  -8   2   10.63    3.50
  -3   8   2   14.31    2.48
  -3  -8   3  375.66   16.97
   3  -8   3  409.13   17.83
  -3   8   3  381.66   11.91
  -3  -8   4  756.46   27.04
  -3   8   4  761.72   18.08
   3  -8   4  742.94   27.18
   3  -8   5   29.64    5.98
  -3   8   5   24.59    2.11
  -3  -8   5   24.37    5.27
  -3  -8   6  167.68   12.96
   3  -8   6  156.41   12.74
  -3  -8   7  241.91   16.58
   3  -8   7  239.90   16.71
  -3  -8   8   60.99    9.32
   3  -8   8   64.43    9.37
  -3  -8   9   92.78   11.71
   3  -8   9   88.07   11.24
   3  -9  -3  596.88   16.99
  -3   9  -3  638.60   24.16
  -3   9  -3  621.78   18.72
  -3  -9  -3  593.45   13.02
  -3   9  -2  683.75   19.76
   3  -9  -2  653.68   19.34
  -3   9  -2  691.04   24.15
  -3  -9  -2  684.72   17.81
   3  -9  -2  717.57   23.26
  -3  -9  -1  321.57   12.08
  -3   9  -1  308.55   14.72
   3  -9  -1  322.38   13.84
   3  -9  -1  319.22   12.98
  -3  -9   0 1249.58   32.27
  -3   9   0 1266.48   33.29
   3  -9   0 1219.05   32.86
   3  -9   0 1327.91   32.66
  -3   9   1  298.93   12.57
   3  -9   1  300.22   14.07
  -3  -9   1  296.36   13.86
  -3   9   2  677.00   19.45
   3  -9   2  654.87   23.81
  -3  -9   2  686.70   23.66
  -3  -9   3  578.29   22.67
  -3   9   3  586.91   16.53
   3  -9   3  599.47   23.12
   3  -9   4  489.85   21.90
  -3   9   4  500.64   13.43
  -3  -9   4  512.00   22.06
  -3   9   5  492.19   11.14
  -3  -9   5  536.04   23.58
   3  -9   5  520.72   23.77
  -3  -9   6  835.23   32.06
   3  -9   6  828.11   32.60
  -3  -9   7  203.96   15.54
   3  -9   7  205.48   15.76
  -3  -9   8  325.95   21.12
   3  -9   8  338.63   21.51
   3  -9   9  156.45   15.07
  -3  -9   9  112.61   13.30
  -3  10  -4  111.98    7.60
  -3  10  -3  450.21   15.38
   3 -10  -3  438.68   14.21
  -3 -10  -3  435.37   10.81
  -3 -10  -2  571.56   16.47
   3 -10  -2  576.61   18.19
  -3  10  -2  583.94   22.71
   3 -10  -2  596.59   21.32
  -3  10  -1  349.75   15.94
  -3 -10  -1  358.97   13.32
   3 -10  -1  344.25   14.64
   3 -10  -1  327.31   13.70
  -3 -10   0  381.22   15.18
   3 -10   0  356.29   15.45
  -3  10   0  377.83   15.84
   3 -10   1  349.62   15.88
  -3  10   1  345.68   14.01
  -3 -10   1  335.02   15.27
  -3  10   2  627.74   18.99
   3 -10   2  585.66   22.79
  -3 -10   2  598.10   22.77
   3 -10   3  421.80   19.91
  -3  10   3  430.33   13.80
  -3 -10   3  388.80   19.01
   3 -10   4  122.30   11.03
  -3 -10   4  140.24   11.80
  -3  10   4  147.23    6.20
   3 -10   5  836.39   32.11
  -3 -10   5  857.52   32.07
   3 -10   6   26.75    6.43
  -3 -10   6   16.32    5.29
  -3 -10   7  186.87   15.69
   3 -10   7  151.87   14.32
  -3 -10   8   48.70    9.13
   3 -10   8   44.08    8.90
  -3  11  -5   84.81    6.98
  -3  11  -4  301.73   12.64
  -3  11  -3   70.56    5.66
   3 -11  -3   77.89    7.90
   3 -11  -3   72.06    5.42
  -3 -11  -3   73.87    3.74
   3 -11  -2    8.41    2.79
  -3 -11  -2   10.01    2.22
   3 -11  -2    9.18    3.48
   3 -11  -1   48.46    5.22
   3 -11  -1   43.06    5.08
  -3 -11  -1   42.07    3.39
  -3  11  -1   43.40    5.73
  -3 -11  -1   46.54    4.93
  -3  11   0   34.09    4.89
   3 -11   0   39.93    5.28
  -3 -11   0   39.70    4.88
  -3  11   1   46.91    5.28
   3 -11   1   51.76    6.74
  -3 -11   1   54.81    6.48
  -3  11   2   11.92    2.73
   3 -11   2   13.68    4.29
  -3 -11   2   11.82    3.75
  -3 -11   3   83.59    8.92
  -3  11   3   92.49    5.98
   3 -11   3   81.36    8.74
  -3 -11   4  277.50   17.04
   3 -11   4  251.71   16.29
   3 -11   5   77.36    9.27
  -3 -11   5   74.39    9.18
   3 -11   6    6.07    4.65
  -3 -11   6   18.42    6.64
   3 -11   7    9.99    5.26
  -3 -11   7   26.58    6.92
  -3 -11   8    7.25    5.56
   3 -11   8    9.04    4.83
  -3  12  -5  199.86   10.57
  -3  12  -4  288.60   12.31
   3 -12  -3   47.06    4.71
   3 -12  -3   55.10    6.64
  -3 -12  -3   49.44    3.32
   3 -12  -2  102.35    8.51
  -3 -12  -2   87.90    6.13
   3 -12  -2   87.04    7.10
  -3 -12  -1  506.92   13.56
   3 -12  -1  512.17   19.19
  -3 -12  -1  486.01   17.69
   3 -12  -1  491.18   18.80
  -3  12   0  135.95   10.01
   3 -12   0  151.20   10.54
  -3 -12   0  133.93    9.47
  -3  12   1  485.16   18.78
   3 -12   1  487.47   20.72
  -3 -12   1  498.18   20.46
  -3 -12   2  100.24    9.41
  -3  12   2  103.54    7.51
   3 -12   2   92.06    9.34
  -3 -12   3   66.63    8.71
   3 -12   3   53.54    8.02
   3 -12   4  263.70   17.44
  -3 -12   4  261.90   17.14
  -3 -12   5  198.94   15.58
   3 -12   5  195.59   15.44
   3 -12   6   25.92    6.61
  -3 -12   6   33.45    8.05
  -3 -12   7  167.89   16.03
   3 -12   7  163.52   15.78
   3 -13  -3  253.23   14.71
   3 -13  -3  230.95   10.84
   3 -13  -2  335.96   16.11
   3 -13  -2  325.90   14.34
  -3 -13  -2  333.59   13.06
   3 -13  -1  338.25   15.12
  -3 -13  -1  318.48   14.23
   3 -13  -1  310.25   14.99
   3 -13   0  370.99   17.27
  -3 -13   0  350.33   16.27
   3 -13   1  319.83   16.98
  -3 -13   1  356.06   17.50
  -3 -13   2  332.43   18.05
   3 -13   2  314.38   17.70
   3 -13   3  247.36   16.69
  -3 -13   3  263.29   16.85
   3 -13   4  526.93   25.64
  -3 -13   4  540.94   25.83
   3 -13   5   37.47    7.93
  -3 -13   5   29.38    6.33
   3 -13   6  208.38   17.29
  -3 -13   6  208.69   17.05
   3 -14  -2   86.36    7.39
  -3 -14  -1   66.55    6.38
   3 -14  -1   59.60    6.71
  -3 -14   0   24.78    4.45
   3 -14   0   26.43    5.16
   3 -14   1   63.94    8.19
  -3 -14   1   57.82    7.51
   3 -14   2   78.47    9.36
  -3 -14   2   71.15    8.80
   3 -14   3  191.94   14.82
  -3 -14   3  182.14   14.26
  -3 -14   4    2.71    5.31
   3 -14   4   -2.17    3.91
  -3 -14   5  109.59   12.67
   3 -14   5  130.48   13.93
  -3 -14   6   84.35   11.37
   3 -14   6   75.84   11.04
   3 -15  -1   14.03    3.89
   3 -15   0   36.92    6.16
  -3 -15   0   42.99    6.00
  -3 -15   1   20.87    4.93
   3 -15   1   11.97    4.64
   3 -15   2   46.56    7.59
  -3 -15   2   52.14    7.65
  -3 -15   3   25.24    6.07
   3 -15   3   24.07    5.64
  -3 -15   4    8.46    5.01
   3 -15   4    5.94    4.18
  -3 -15   5   30.90    7.37
   3 -15   5   41.12    8.07
   3 -16   0   48.95    6.97
   3 -16   1  151.90   12.63
  -3 -16   1  153.18   12.38
  -3 -16   2  115.13   11.53
   3 -16   2  126.87   12.25
  -3 -16   3  158.52   14.26
   3 -16   3  177.23   15.08
  -3 -16   4   70.91   10.03
   3 -16   4   80.24   11.25
   3 -17   1   74.57    9.60
  -3 -17   2  122.59   12.12
   3 -17   2  136.62   13.36
  -3 -17   3   34.58    6.84
   3 -17   3   39.66    7.82
  -4   0  -6  404.80   15.85
  -4   0  -5 1426.07   34.96
  -4   0  -4  715.56   20.05
  -4   0  -3 1662.70   36.29
  -4   0  -2  548.18   14.71
  -4   0  -1  504.42   13.27
   4   0  -1  512.00   14.25
  -4   0   0 2451.14   47.81
  -4   0   0 2434.23   49.23
   4   0   0 2453.30   47.82
   4   0   1  416.29   11.47
   4   0   2  403.03   11.77
   4   0   3 1691.55   36.60
   4   0   4  697.61   19.54
   4   0   5 1516.32   36.15
   4   0   6  374.96   14.81
   4   0   7  920.20   27.77
  -4   0   8   35.21    5.83
   4   0   8   25.17    4.43
   4   0   9  240.05   13.93
  -4   0   9  195.01   13.35
  -4   0  10   19.40    5.11
   4   0  10    8.25    3.13
   4   0  11  469.15   22.41
  -4   0  11  499.04   24.11
  -4   1  -6  631.37   21.65
  -4  -1  -6  602.67   19.48
  -4   1  -5  271.88   12.43
  -4  -1  -5  251.91   10.73
  -4  -1  -4  676.85   19.07
  -4   1  -4  720.08   20.95
  -4  -1  -3   99.59    5.38
  -4   1  -3  110.69    6.29
  -4  -1  -2  584.99   14.89
  -4   1  -2  571.98   16.20
  -4  -1  -1  103.76    4.83
  -4   1  -1   99.80    5.13
   4   1  -1  102.10    5.23
   4  -1  -1  108.97    6.02
  -4  -1   0  104.59    5.37
   4  -1   0  115.89    5.28
  -4   1   0  110.55    5.01
   4  -1   0  104.14    5.64
  -4   1   0   99.32    5.92
   4   1   1  118.93    5.19
  -4   1   1  120.52    5.41
   4  -1   1  133.81    6.25
   4  -1   2  532.83   15.17
   4   1   2  515.33   13.61
   4   1   3  127.30    5.84
   4  -1   3  120.21    6.74
   4  -1   4  681.40   20.24
   4   1   4  640.90   18.01
   4  -1   5  257.95   11.99
   4   1   5  253.99   10.63
   4  -1   6  604.04   21.09
   4   1   6  629.91   19.59
   4   1   7  170.63    9.73
  -4  -1   7  172.34   11.36
   4  -1   7  171.72   10.88
   4   1   8  144.38    9.72
   4  -1   8  139.46   10.59
  -4  -1   8  133.20   10.56
  -4   1   8  132.17   10.08
  -4  -1   9   23.10    5.01
  -4   1   9   27.54    5.39
   4   1   9   21.61    4.61
   4  -1   9   24.74    5.49
   4  -1  10  173.05   13.35
   4   1  10  175.07   12.24
  -4   1  10  167.55   12.62
  -4  -1  10  185.29   14.35
  -4   1  11    5.50    4.11
   4  -1  11   13.15    5.33
  -4  -1  11   14.84    5.58
  -4  -1  12  110.03   12.09
  -4   2  -6   66.03    7.18
  -4  -2  -5  217.26    9.39
  -4   2  -5  227.52   11.88
  -4   2  -4  108.84    7.65
  -4  -2  -4  114.40    5.78
  -4  -2  -3  254.54    8.83
  -4   2  -3  264.21   11.58
  -4   2  -2 1013.35   24.93
  -4  -2  -2 1004.80   21.99
   4  -2  -1   73.44    5.61
  -4   2  -1   56.74    4.84
  -4  -2  -1   61.67    3.69
   4  -2  -1   57.17    4.44
   4   2  -1   68.43    4.07
   4  -2   0 2519.45   49.64
   4  -2   0 2411.36   51.00
  -4   2   0 2524.28   49.52
  -4   2   0 2500.04   51.03
   4  -2   1   59.09    4.71
  -4   2   1   62.63    4.04
  -4   2   2  945.93   21.97
   4  -2   2  945.46   23.81
   4   2   2  964.03   20.78
   4  -2   3  272.80   11.15
   4   2   3  217.68    7.75
   4  -2   4  117.13    7.69
   4   2   4   98.42    5.21
   4   2   5  195.29    8.77
   4  -2   5  209.28   11.55
   4   2   6   52.27    4.94
   4  -2   6   56.29    6.52
   4   2   7  349.80   13.78
   4  -2   7  352.35   16.59
  -4  -2   7  327.29   16.36
  -4  -2   8  169.77   12.43
   4  -2   8  168.64   11.98
  -4   2   8  164.23   10.66
   4   2   8  174.79   10.14
  -4   2   9   27.80    5.33
  -4  -2   9   25.10    5.53
   4   2   9   33.71    4.85
   4  -2   9   30.74    6.14
  -4   2  10   11.20    3.84
   4   2  10   10.20    3.22
   4  -2  10   13.03    5.05
  -4  -2  10   17.57    5.45
  -4  -2  11   61.14    9.32
   4  -2  11   63.18    8.90
  -4  -2  12    0.65    4.15
   4  -2  12   10.56    5.42
  -4   3  -6 1270.12   36.57
  -4  -3  -5  134.40    6.35
  -4   3  -5  133.06    9.22
  -4  -3  -4 1439.00   30.79
  -4   3  -4 1517.37   37.33
  -4   3  -3 1092.02   28.09
  -4  -3  -3 1032.96   22.62
  -4  -3  -2 2355.34   45.81
  -4   3  -2 2422.97   50.75
   4  -3  -1  727.09   18.10
  -4   3  -1  729.94   19.32
   4  -3  -1  724.70   20.31
  -4   3  -1  770.07   19.97
   4   3  -1  727.24   16.56
   4  -3   0  520.83   16.35
  -4   3   0  549.89   16.20
  -4   3   0  550.21   15.15
   4  -3   0  562.95   15.29
   4  -3   1  681.53   18.49
  -4   3   1  666.38   16.81
  -4   3   2 2310.56   46.31
   4  -3   2 2298.77   49.42
  -4   3   3 1097.03   25.12
   4  -3   3 1097.76   28.87
   4   3   3 1109.80   23.18
   4  -3   4 1520.78   37.70
   4   3   4 1502.30   31.17
   4  -3   5  128.64    9.14
   4   3   5  135.94    6.14
   4  -3   6 1297.48   37.05
   4   3   6 1327.13   30.59
   4   3   7  115.74    7.05
   4  -3   7  103.39    9.41
  -4  -3   7  124.80   10.42
   4   3   8  285.11   12.18
  -4   3   8  262.67   13.09
  -4  -3   8  249.81   15.60
   4  -3   8  256.91   15.47
   4   3   9   12.59    3.37
   4  -3   9   15.15    5.18
  -4   3   9   11.18    4.09
  -4  -3   9    9.53    4.79
  -4   3  10  256.25   14.40
  -4  -3  10  268.93   17.98
   4  -3  10  296.58   18.47
  -4  -3  11   36.52    7.80
   4  -3  11   28.31    6.43
  -4  -3  12  237.98   18.77
   4  -3  12  250.55   18.26
  -4   4  -6   30.77    5.22
  -4   4  -5 1600.36   42.42
  -4  -4  -4   63.76    3.67
  -4   4  -4   80.55    7.46
  -4  -4  -3 2192.14   42.20
  -4   4  -3 2212.12   50.39
  -4  -4  -2  944.55   20.34
  -4   4  -2  954.36   25.50
  -4   4  -1 1496.40   33.52
   4  -4  -1 1452.05   31.99
  -4   4  -1 1437.99   33.62
   4  -4  -1 1447.29   34.54
  -4   4   0  204.13    8.63
  -4   4   0  207.16    9.09
   4  -4   0  205.29    8.76
   4  -4   0  197.94    9.26
   4  -4   1 1386.10   32.55
  -4   4   1 1384.92   30.43
   4  -4   2 1060.97   27.61
  -4   4   2 1070.94   24.37
   4  -4   3 2283.21   50.94
  -4   4   3 2226.32   45.67
   4  -4   4   70.95    7.63
  -4   4   4   55.67    4.33
   4   4   4   59.05    3.31
   4  -4   5 1573.42   41.87
   4   4   5 1592.79   32.50
  -4  -4   6   28.56    5.67
   4  -4   6   32.07    5.43
   4   4   6   28.35    2.99
   4  -4   7  374.48   18.61
  -4  -4   7  347.86   18.12
   4   4   7  378.74   12.23
   4  -4   8   19.24    4.99
  -4   4   8   16.84    3.67
   4   4   8   18.49    2.87
  -4  -4   8    7.92    3.72
  -4   4   9  463.87   18.29
   4  -4   9  444.18   22.67
  -4  -4   9  440.27   22.87
   4   4   9  501.23   16.50
  -4  -4  10   66.69    9.40
   4  -4  10   56.09    8.82
  -4  -4  11  216.30   17.38
   4  -4  11  233.90   17.48
  -4   5  -5  218.10   13.03
  -4   5  -4  247.78   13.11
  -4  -5  -4  218.44    5.67
  -4  -5  -3   21.77    1.71
  -4   5  -3   21.48    3.66
   4  -5  -2  336.97   10.83
  -4  -5  -2  292.37    8.46
  -4   5  -2  312.44   13.26
   4   5  -2  299.36    8.28
  -4   5  -1 1445.40   34.52
  -4   5  -1 1446.99   33.43
   4  -5  -1 1440.20   32.44
   4  -5  -1 1427.97   34.84
  -4   5   0  218.72   11.00
  -4   5   0  201.09    9.93
   4  -5   0  259.61   11.14
   4  -5   0  223.24   10.19
  -4   5   1 1570.98   34.48
   4  -5   1 1562.49   36.73
  -4   5   2  303.09   10.33
   4  -5   2  326.82   13.29
  -4   5   3   11.01    2.01
   4  -5   3    7.97    2.90
  -4   5   4  247.83    9.17
   4  -5   4  244.72   12.86
  -4   5   5  213.81    8.63
   4  -5   5  194.26   12.22
  -4  -5   5  218.86   12.82
  -4   5   6   54.29    4.83
   4   5   6   61.43    3.37
   4  -5   6   73.38    8.68
  -4  -5   6   73.85    8.27
   4   5   7   79.93    4.17
   4  -5   7   62.40    7.96
  -4  -5   7   62.20    7.65
  -4  -5   8   83.99    9.88
   4  -5   8   77.88    9.02
  -4   5   8   80.45    6.44
   4   5   8   77.35    4.64
  -4   5   9   38.68    5.00
   4  -5   9   42.51    8.13
  -4  -5   9   40.97    7.84
   4  -5  10   28.77    7.15
  -4  -5  10   34.11    7.67
  -4  -5  11   31.59    7.75
   4  -5  11   37.39    8.28
  -4   6  -5  330.90   16.73
  -4   6  -4  278.61   14.75
  -4  -6  -3  828.80   17.06
  -4   6  -3  875.38   26.58
   4  -6  -2  451.46   13.79
  -4   6  -2  436.72   14.90
  -4   6  -2  436.16   16.77
  -4   6  -1  914.55   24.03
  -4   6  -1  895.27   25.17
   4  -6  -1  907.78   25.52
   4  -6  -1  903.06   23.33
   4  -6   0  473.53   15.57
  -4   6   0  452.93   15.32
   4  -6   0  486.90   16.35
  -4   6   1  885.31   22.65
   4  -6   1  856.05   24.67
   4  -6   2  367.84   15.06
  -4   6   2  360.18   11.91
  -4   6   3  889.52   21.55
   4  -6   3  859.59   26.86
  -4  -6   4  300.65   14.88
   4  -6   4  288.90   14.77
  -4   6   4  297.11   10.10
  -4  -6   5  317.76   16.15
  -4   6   5  313.61   10.63
   4  -6   5  303.90   16.28
   4  -6   6   75.42    8.53
  -4  -6   6   70.23    7.90
  -4   6   6   78.98    5.03
  -4   6   7  247.20    9.89
   4  -6   7  218.34   15.22
  -4  -6   7  213.30   14.87
  -4   6   8   30.71    3.84
  -4  -6   8   32.44    7.07
   4  -6   8   37.73    7.19
   4  -6   9  150.31   13.80
  -4  -6   9  150.77   14.14
  -4  -6  10   31.43    7.58
   4  -6  10   34.52    7.76
  -4   7  -4 1282.84   37.59
  -4  -7  -3  706.94   14.69
  -4  -7  -3  692.58   14.72
  -4   7  -3  748.89   24.87
  -4   7  -2 1931.33   47.20
  -4  -7  -2 1968.11   39.76
   4  -7  -2 1957.56   42.48
  -4   7  -2 1963.21   43.93
   4  -7  -2 1949.08   46.89
  -4   7  -1   87.00    7.16
   4  -7  -1   98.79    7.28
  -4   7  -1   83.92    6.09
   4  -7  -1   89.48    6.21
  -4   7   0 1776.28   41.17
   4  -7   0 1753.26   41.19
   4  -7   0 1780.65   41.84
  -4   7   1   56.40    4.94
   4  -7   1   51.08    5.42
   4  -7   2 1877.40   46.65
  -4   7   2 1960.34   41.87
  -4   7   3  802.59   20.46
   4  -7   3  786.59   26.39
  -4  -7   3  818.69   26.38
  -4  -7   4 1253.01   37.36
  -4   7   4 1322.43   29.29
   4  -7   4 1289.00   37.94
   4  -7   5   49.57    7.19
  -4  -7   5   41.79    6.72
  -4   7   5   30.49    3.28
  -4  -7   6  893.96   32.58
   4  -7   6  904.77   32.89
  -4   7   6  985.11   22.87
  -4  -7   7   82.94   10.04
   4  -7   7   81.19    9.87
  -4   7   7   96.24    5.50
   4  -7   8  579.72   27.24
  -4  -7   8  570.45   27.08
   4  -7   9   24.59    6.80
  -4  -7   9   27.20    6.49
   4  -7  10  450.32   26.14
  -4  -7  10  461.48   26.32
  -4   8  -3  494.74   19.89
   4  -8  -3  425.35   13.84
  -4  -8  -3  436.08   10.35
  -4   8  -3  468.13   16.23
  -4  -8  -3  449.72   10.39
   4  -8  -2  240.52   12.41
   4  -8  -2  212.49    9.55
  -4   8  -2  196.77    9.69
  -4   8  -2  216.20   12.29
  -4  -8  -2  216.63    8.08
  -4   8  -1 1335.13   32.72
  -4   8  -1 1297.30   35.09
  -4  -8  -1 1331.96   31.32
   4  -8  -1 1364.60   35.03
   4  -8  -1 1301.61   32.65
  -4  -8   0  108.93    7.66
   4  -8   0  130.70    8.73
   4  -8   0  120.20    8.43
  -4   8   0  116.36    8.39
  -4   8   1 1275.88   32.20
   4  -8   1 1305.71   34.83
  -4  -8   1 1335.25   34.25
   4  -8   2  245.49   12.98
  -4  -8   2  236.03   12.44
  -4   8   2  235.00   10.00
  -4  -8   3  486.79   19.62
   4  -8   3  448.06   19.18
  -4   8   3  445.40   14.07
   4  -8   4   35.99    6.81
  -4   8   4   34.59    3.67
  -4  -8   4   42.53    7.05
  -4  -8   5  809.05   30.01
   4  -8   5  804.39   30.26
  -4   8   5  870.88   20.47
   4  -8   6   37.32    6.98
  -4   8   6   29.26    2.70
  -4  -8   6   26.06    5.73
  -4   8   7  478.17   12.64
   4  -8   7  514.82   24.92
  -4  -8   7  500.95   24.58
   4  -8   8   84.28   10.73
  -4  -8   8   62.22    9.24
   4  -8   9  273.85   19.64
  -4  -8   9  301.67   20.62
   4   9  -4    7.52    1.01
  -4   9  -4    9.34    3.01
  -4   9  -3  149.65    8.69
  -4  -9  -3  142.44    4.93
  -4  -9  -3  135.22    4.80
   4  -9  -3  135.01    7.42
  -4   9  -2   11.68    2.78
   4  -9  -2   12.70    3.40
  -4  -9  -2   11.20    2.03
   4  -9  -2   14.28    3.12
  -4   9  -2   11.63    3.52
   4  -9  -1   19.20    3.48
   4  -9  -1   17.48    3.46
  -4  -9  -1   13.38    2.64
  -4   9  -1   17.86    3.64
  -4  -9   0   16.91    3.09
   4  -9   0   20.29    3.83
  -4   9   0   21.88    3.90
   4  -9   0   22.35    4.02
  -4   9   1   18.51    3.28
  -4  -9   1   14.13    3.49
   4  -9   1   19.37    4.29
  -4  -9   2   13.52    3.71
  -4   9   2   14.14    2.97
   4  -9   2   17.29    4.65
  -4  -9   3  152.78   10.90
   4  -9   3  156.85   11.32
  -4   9   3  177.63    8.26
  -4  -9   4    6.17    3.41
   4  -9   4    1.72    3.60
  -4   9   4    5.84    1.65
  -4  -9   5  121.01   11.38
  -4   9   5  109.98    5.30
   4  -9   5  136.32   11.90
   4  -9   6   38.60    7.13
  -4   9   6   30.90    2.20
  -4  -9   6   44.44    7.46
   4  -9   7   22.05    5.89
  -4  -9   7   36.35    7.38
   4  -9   8   34.44    8.07
  -4  -9   8   47.62    8.96
  -4  -9   9   33.45    8.20
   4  -9   9   32.42    8.59
  -4  10  -4   35.64    4.95
   4 -10  -3  282.09   11.59
  -4  10  -3  295.66   12.74
   4 -10  -3  318.85   16.15
  -4 -10  -3  305.08    8.58
  -4  10  -2  180.44    9.40
   4 -10  -2  173.81   10.96
  -4 -10  -2  179.08    8.08
  -4  10  -2  172.76   11.76
   4 -10  -2  172.09    9.31
   4 -10  -1  705.52   23.02
   4 -10  -1  621.38   20.96
  -4  10  -1  668.58   23.65
  -4 -10  -1  638.20   19.81
   4 -10   0   39.62    5.96
  -4  10   0   53.85    6.37
  -4 -10   0   43.00    5.42
   4 -10   1  617.66   22.60
  -4 -10   1  629.75   22.16
  -4  10   1  620.70   20.68
  -4 -10   2  180.26   11.89
  -4  10   2  186.26    9.63
   4 -10   2  209.71   12.83
  -4  10   3  325.81   12.30
   4 -10   3  321.70   17.09
  -4 -10   3  317.86   16.69
  -4  10   4   20.67    2.86
  -4 -10   4   17.31    5.28
   4 -10   4   17.14    5.59
  -4  10   5  422.43   11.57
  -4 -10   5  416.22   21.38
   4 -10   5  407.62   21.34
  -4 -10   6   34.56    6.91
   4 -10   6   35.91    7.01
   4 -10   7  162.40   14.73
  -4 -10   7  161.11   14.60
  -4 -10   8   10.29    6.39
   4 -10   8   15.17    5.93
  -4  11  -5  120.45    8.87
  -4  11  -4  693.77   22.24
   4 -11  -3   65.55    7.55
  -4 -11  -3   66.86    3.85
   4 -11  -3   58.93    5.61
  -4  11  -3   68.57    6.22
  -4 -11  -2  857.43   22.65
   4 -11  -2  815.93   24.70
   4 -11  -2  877.06   28.27
  -4 -11  -1  146.95    8.84
   4 -11  -1  133.54    9.67
  -4  11  -1  153.37   10.91
   4 -11  -1  142.74    9.54
  -4  11   0 1035.19   31.02
  -4 -11   0 1032.10   29.86
   4 -11   0 1011.73   30.95
  -4  11   1  143.75    9.48
   4 -11   1  138.70   10.58
  -4 -11   1  155.24   10.71
   4 -11   2  852.03   30.06
  -4  11   2  890.17   25.64
  -4 -11   2  869.05   29.58
   4 -11   3   64.23    8.66
  -4  11   3   49.91    4.96
  -4 -11   3   60.07    8.28
  -4  11   4  662.59   18.15
   4 -11   4  644.19   27.41
  -4 -11   4  646.04   27.12
   4 -11   5  133.55   12.59
  -4 -11   5  128.76   12.25
   4 -11   6  590.14   28.20
  -4 -11   6  562.93   27.70
  -4 -11   7   45.54    8.48
   4 -11   7   52.81    9.59
   4 -11   8  291.98   21.13
  -4 -11   8  286.18   20.75
  -4  12  -5  209.56   11.49
  -4  12  -4  166.70    9.81
   4 -12  -3  428.30   19.65
   4 -12  -3  380.62   14.87
  -4 -12  -3  438.25   11.86
   4 -12  -2   74.85    7.58
   4 -12  -2   71.60    6.69
  -4 -12  -2   68.51    5.49
  -4 -12  -1  248.42    7.59
  -4 -12  -1  246.29   11.87
   4 -12  -1  219.93   12.17
   4 -12  -1  263.02   13.59
  -4 -12   0  234.21   12.65
  -4  12   0  250.35   13.80
   4 -12   0  230.84   13.38
   4 -12   1  234.76   13.91
  -4 -12   1  241.52   13.76
  -4  12   1  236.89   12.77
  -4 -12   2   56.39    7.33
   4 -12   2   57.75    7.82
  -4  12   2   62.25    6.06
   4 -12   3  396.65   20.53
  -4  12   3  400.97   14.90
  -4 -12   3  405.25   20.46
   4 -12   4  179.99   14.34
  -4 -12   4  186.26   14.52
  -4 -12   5  193.53   15.28
   4 -12   5  218.21   16.17
  -4 -12   6   45.98    8.45
   4 -12   6   50.61    8.65
  -4 -12   7  165.29   15.59
   4 -12   7  176.24   16.06
   4 -13  -3   16.47    3.14
   4 -13  -2   59.25    6.91
   4 -13  -2   55.35    5.94
  -4 -13  -2   46.04    4.70
   4 -13  -1   19.19    4.39
  -4 -13  -1   20.48    3.49
   4 -13  -1   26.25    4.81
   4 -13   0   16.82    4.68
  -4 -13   0   12.36    3.41
  -4  13   1   16.45    3.69
  -4 -13   1   31.65    5.49
   4 -13   1   22.47    4.78
  -4 -13   2   64.91    8.39
  -4  13   2   67.68    6.67
   4 -13   2   70.17    8.56
   4 -13   3   24.55    6.05
  -4 -13   3   24.45    5.97
  -4 -13   4    6.17    4.29
   4 -13   4    8.04    4.74
  -4 -13   5   56.81    9.51
   4 -13   5   48.97    8.30
   4 -13   6   16.75    6.75
  -4 -13   6   20.81    6.81
   4 -14  -2   21.17    4.23
  -4 -14  -1  272.24   13.41
   4 -14  -1  276.06   14.71
   4 -14   0   21.97    4.98
  -4 -14   0   15.02    4.11
   4 -14   1  293.80   16.82
  -4 -14   1  286.25   16.24
   4 -14   2   31.83    6.85
  -4 -14   2   11.34    4.14
   4 -14   3  411.92   22.60
  -4 -14   3  427.32   22.36
  -4 -14   4   58.55    9.15
   4 -14   4   62.42    9.59
   4 -14   5  181.11   15.63
  -4 -14   5  194.11   16.21
  -4 -14   6   65.09   10.16
   4 -15  -1   61.55    7.45
  -4 -15   0  268.96   14.92
   4 -15   0  264.41   15.70
   4 -15   1   63.81    8.54
  -4 -15   1   59.66    7.87
  -4 -15   2  319.12   18.61
   4 -15   2  332.32   19.59
   4 -15   3   13.94    5.55
  -4 -15   3   14.57    5.86
  -4 -15   4  286.21   19.48
   4 -15   4  273.14   19.15
   4 -15   5  114.01   12.97
  -4 -15   5   99.18   12.16
   4 -16   0    4.87    3.18
   4 -16   1   40.78    7.05
  -4 -16   1   47.88    7.06
  -4 -16   2   18.24    5.20
   4 -16   2    6.81    5.18
   4 -16   3   14.04    5.79
  -4 -16   3   10.23    5.33
   4 -16   4   23.62    6.58
  -4 -16   4   24.00    6.18
   4 -17   1   29.72    6.91
  -4 -17   2   72.57    9.54
   4 -17   2   71.38    9.36
  -4 -17   3    3.12    4.57
   4 -17   3   -0.01    4.24
  -5   0  -7    0.68    2.29
  -5   0  -6    1.70    1.99
  -5   0  -5   20.59    4.12
  -5   0  -4  221.75   11.35
  -5   0  -3  142.32    8.41
  -5   0  -2   92.76    6.84
   5   0  -1   12.16    3.17
  -5   0  -1   10.07    2.77
  -5   0   0    3.49    2.69
  -5   0   0    0.13    1.49
   5   0   1   12.29    3.06
   5   0   2   80.36    5.85
   5   0   3  117.67    7.94
   5   0   4  213.95   11.22
   5   0   5   26.40    4.65
   5   0   6   -0.67    2.37
   5   0   7    5.79    2.94
   5   0   8    7.40    3.55
  -5   0   8    3.51    3.11
  -5   0   9   11.50    4.44
   5   0   9    7.74    4.00
   5   0  10    2.29    3.33
  -5   0  10    7.06    3.58
  -5   0  11   -0.38    4.35
   5   0  11    2.44    3.74
  -5   1  -7   36.95    5.28
  -5  -1  -7   42.89    5.37
  -5  -1  -6  352.28   14.31
  -5   1  -6  358.11   15.65
  -5  -1  -5  196.43    9.65
  -5   1  -5  213.91   10.98
  -5  -1  -4 1438.48   33.57
  -5   1  -4 1470.40   35.53
  -5  -1  -3   60.30    4.91
  -5   1  -3   64.17    5.76
  -5   1  -2 1114.66   26.68
  -5  -1  -2 1107.09   25.29
   5   1  -1  142.16    6.74
  -5  -1  -1  146.31    6.41
   5  -1  -1  157.18    7.81
  -5   1  -1  145.90    6.76
  -5   1   0 4262.09   81.08
  -5  -1   0 4167.66   81.82
   5  -1   0 4261.06   81.11
  -5  -1   0 4215.84   80.53
   5  -1   0 4304.23   83.12
  -5   1   0 4231.10   82.98
  -5  -1   1  141.04    7.00
   5   1   1  124.47    5.87
  -5   1   1  130.79    6.26
   5  -1   1  139.35    6.65
   5   1   2 1241.39   27.27
   5  -1   2 1219.88   28.62
   5   1   3   55.84    4.64
   5  -1   3   60.95    5.58
   5  -1   4 1466.09   35.51
   5   1   4 1499.77   33.51
   5   1   5  221.55    9.89
   5  -1   5  222.38   11.18
   5  -1   6  370.90   15.79
   5   1   6  390.80   14.69
   5  -1   7   22.14    4.75
   5   1   7   18.36    3.69
  -5  -1   8  746.08   27.62
   5   1   8  778.48   25.31
   5  -1   8  763.14   26.89
  -5   1   9   56.77    7.23
   5   1   9   57.60    6.75
   5  -1   9   64.37    7.57
  -5  -1   9   70.12    8.53
   5  -1  10  396.35   20.44
   5   1  10  425.05   19.27
  -5   1  10  379.25   19.64
  -5  -1  10  397.52   21.21
  -5  -1  11   17.00    5.55
   5  -1  11   17.37    5.32
  -5   1  11   17.49    4.91
  -5  -1  12  168.35   14.95
  -5   2  -7  903.96   30.05
  -5   2  -6    8.61    3.08
  -5  -2  -6    8.89    2.74
  -5  -2  -5 1870.65   41.99
  -5   2  -5 1965.26   46.67
  -5   2  -4  110.60    8.16
  -5  -2  -4  104.73    6.39
  -5  -2  -3 1744.73   37.54
  -5   2  -3 1845.44   41.42
  -5   2  -2  118.02    7.37
  -5  -2  -2  110.76    5.89
   5  -2  -1 4335.59   82.24
   5  -2  -1 4192.07   84.65
  -5   2  -1 4321.89   83.32
  -5  -2  -1 4261.33   81.11
   5   2  -1 4307.88   81.66
  -5   2   0  247.94   10.50
   5  -2   0  257.66   10.46
  -5   2   0  252.47    9.23
   5  -2   0  244.05    9.43
  -5  -2   0  258.68    9.38
  -5  -2   1 4299.64   83.61
  -5   2   1 4453.07   83.96
   5  -2   1 4406.67   84.91
   5   2   2  115.87    5.81
   5  -2   2  125.42    7.90
  -5   2   2  107.21    6.51
   5   2   3 1649.03   35.32
   5  -2   3 1761.94   39.43
   5  -2   4  138.97    8.85
   5   2   4   94.91    6.14
   5  -2   5 1988.28   47.65
   5   2   5 2020.73   43.21
   5   2   6   13.03    2.91
   5  -2   6   13.04    4.27
   5   2   7  893.49   25.12
   5  -2   7  841.86   28.40
   5   2   8   40.15    5.20
  -5  -2   8   49.21    7.29
   5  -2   8   43.91    6.52
   5   2   9  919.09   28.15
   5  -2   9  845.00   31.36
  -5  -2   9  871.16   32.51
  -5   2   9  877.23   29.82
   5   2  10    4.86    2.66
   5  -2  10   14.29    5.43
  -5  -2  10    7.56    4.51
  -5   2  10    7.82    4.17
   5  -2  11  309.00   19.26
  -5  -2  11  286.94   19.28
  -5  -2  12   -1.94    4.00
  -5   3  -6  725.94   25.56
  -5  -3  -6  711.19   20.03
  -5  -3  -5  165.25    7.68
  -5   3  -5  181.94   11.01
  -5   3  -4 1400.27   35.97
  -5  -3  -4 1345.17   29.99
  -5   3  -3  449.95   16.54
  -5  -3  -3  423.62   12.54
   5   3  -2  560.24   15.27
  -5   3  -2  562.04   17.50
  -5  -3  -2  541.17   14.19
   5  -3  -1  297.18   12.19
   5  -3  -1  293.52   10.42
  -5   3  -1  300.57   11.20
   5   3  -1  276.75    9.20
  -5   3  -1  306.77   11.76
  -5  -3   0  135.36    6.40
  -5   3   0  134.40    6.97
   5  -3   0  143.22    7.33
   5  -3   0  141.94    7.90
  -5   3   0  130.42    7.79
  -5   3   1  269.77    9.90
   5  -3   1  282.02   10.97
   5  -3   2  479.43   15.89
  -5   3   2  463.29   13.92
   5  -3   3  433.45   16.07
   5   3   3  372.89   11.15
  -5   3   3  398.56   13.03
   5  -3   4 1265.53   33.66
   5   3   4 1271.60   27.83
   5  -3   5  169.58   10.60
   5   3   5  164.19    7.38
   5  -3   6  711.55   25.09
   5   3   6  724.96   19.70
   5   3   7   37.22    4.34
   5  -3   7   49.19    7.17
   5   3   8  334.00   13.74
   5  -3   8  341.04   18.12
  -5  -3   8  340.50   18.51
   5   3   9    4.19    1.88
  -5   3   9    7.97    3.31
  -5  -3   9   10.34    4.61
   5  -3   9   11.02    4.83
  -5  -3  10   58.58    8.50
   5  -3  10   77.88    9.78
  -5   3  10   72.53    7.83
   5  -3  11   10.49    4.89
  -5  -3  11   10.34    5.08
   5  -3  12   88.44   11.06
  -5   4  -6   67.03    7.97
  -5  -4  -5  127.52    6.01
  -5   4  -5  145.07   10.45
  -5   4  -4  349.76   15.47
  -5  -4  -4  354.35   10.48
  -5   4  -3   73.87    6.62
  -5  -4  -3   60.06    3.94
   5   4  -2  144.15    6.17
  -5  -4  -2  144.21    6.03
  -5   4  -2  136.56    8.19
  -5   4  -1 1410.42   33.96
   5  -4  -1 1442.94   32.77
   5  -4  -1 1453.46   35.38
  -5   4  -1 1465.00   34.51
   5  -4   0  179.15    9.54
  -5   4   0  110.26    8.11
  -5   4   0  128.65    9.29
   5  -4   0  152.51    8.43
   5  -4   1 1604.65   37.07
  -5   4   1 1604.66   35.34
   5  -4   2  132.26    8.08
  -5   4   2  112.93    6.12
   5  -4   3   63.17    6.61
  -5   4   3   55.26    4.69
   5   4   4  357.72   10.05
   5  -4   4  349.42   15.41
  -5   4   4  367.39   12.45
   5  -4   5  147.78   10.54
   5   4   5  142.93    6.19
   5   4   6   72.21    4.86
   5  -4   6   84.42    8.47
  -5  -4   7   39.12    6.63
   5   4   7   51.56    4.48
   5  -4   7   48.67    6.93
   5   4   8   55.84    4.99
   5  -4   8   43.09    7.02
  -5  -4   8   48.87    7.87
  -5  -4   9  157.06   13.43
  -5   4   9  170.37   10.80
   5  -4   9  161.41   13.49
   5   4   9  182.90    9.35
  -5  -4  10    8.78    3.98
   5  -4  10    7.78    5.05
   5  -4  11   20.69    6.52
  -5  -4  11   24.10    7.52
  -5  -5  -5   35.41    2.68
  -5   5  -5   33.84    6.02
  -5   5  -4 2175.80   51.41
  -5  -5  -4 2029.34   40.20
  -5   5  -3  372.37   15.60
  -5  -5  -3  357.29   10.14
  -5  -5  -2 1421.16   30.33
   5  -5  -2 1478.32   32.98
   5   5  -2 1423.67   29.68
  -5   5  -2 1495.08   36.43
  -5   5  -1   85.17    6.64
   5  -5  -1  102.15    7.82
   5  -5  -1   86.61    6.38
  -5   5  -1   92.23    6.84
   5  -5   0 2558.68   57.78
  -5   5   0 2780.27   57.71
   5  -5   0 2727.91   56.57
  -5   5   0 2678.16   56.25
   5  -5   1  100.82    7.38
  -5   5   1   66.35    5.83
   5  -5   2 1442.37   35.95
  -5   5   2 1400.06   32.05
   5  -5   3  377.12   16.25
  -5   5   3  370.44   12.46
   5  -5   4 1978.12   49.49
  -5   5   4 2053.08   43.50
  -5   5   5   39.84    4.10
   5  -5   5   36.35    5.98
   5   5   6  681.74   15.98
  -5   5   6  656.41   19.58
   5  -5   6  639.60   25.18
  -5  -5   6  646.42   25.30
   5   5   7   40.79    3.41
  -5   5   7   42.29    4.75
  -5  -5   7   48.79    8.16
   5  -5   7   44.74    7.10
  -5  -5   8  966.18   35.76
   5  -5   8  928.42   34.97
   5   5   8 1051.52   24.28
  -5   5   9   42.21    5.51
  -5  -5   9   33.49    7.23
   5  -5   9   52.91    8.95
   5  -5  10  278.26   19.02
  -5  -5  10  271.14   19.06
  -5  -5  11   32.65    7.19
   5  -5  11   31.59    7.91
  -5   6  -4   97.91    8.39
  -5  -6  -4   89.91    3.32
   5   6  -3 2527.14   50.50
  -5   6  -3 2645.39   59.79
  -5  -6  -3 2544.32   49.08
   5  -6  -2  235.95   12.93
  -5   6  -2  231.79   12.42
   5  -6  -2  240.68   10.24
  -5   6  -2  234.98   11.45
   5  -6  -1  740.26   23.06
  -5   6  -1  751.38   21.88
   5  -6  -1  734.37   20.82
  -5   6  -1  728.39   22.31
  -5   6   0  266.53   11.38
   5  -6   0  276.14   11.78
   5  -6   0  254.60   12.04
  -5   6   1  673.14   19.46
   5  -6   1  693.71   21.47
  -5   6   2  227.37    9.76
   5  -6   2  228.00   12.59
   5  -6   3 2316.82   55.26
  -5   6   3 2364.63   49.16
   5  -6   4  118.49    9.35
  -5   6   4   95.13    5.89
   5  -6   5 1229.78   37.07
  -5   6   5 1230.93   29.29
  -5   6   6   42.04    4.66
  -5  -6   6   55.82    8.08
   5  -6   6   54.00    8.14
   5  -6   7 1351.17   43.48
  -5  -6   7 1376.31   44.01
  -5   6   7 1510.52   34.84
  -5  -6   8   44.79    7.98
   5  -6   8   39.00    7.31
   5  -6   9  218.47   16.56
  -5  -6   9  216.12   16.41
  -5  -6  10   47.11    8.95
   5  -6  10   35.12    8.43
  -5   7  -4   86.58    8.26
   5   7  -3  100.85    4.26
  -5  -7  -3  100.89    4.41
  -5   7  -3   92.30    8.03
  -5   7  -2  514.81   19.63
   5  -7  -2  512.20   16.53
  -5   7  -2  528.55   17.86
   5  -7  -2  540.28   19.84
  -5   7  -1  125.65    8.34
   5  -7  -1  141.64    9.81
  -5   7  -1  138.17    9.25
   5  -7  -1  133.78    8.29
   5  -7   0   55.27    5.71
  -5   7   0   60.22    5.79
   5  -7   0   51.51    5.92
   5  -7   1  134.89    9.42
  -5   7   1  131.57    8.03
  -5   7   2  421.36   14.27
   5  -7   2  426.71   17.43
   5  -7   3  116.35    9.26
  -5   7   3  113.29    6.46
  -5   7   4  108.47    6.23
   5  -7   4  120.05    9.93
  -5   7   5   20.09    3.14
  -5  -7   5   25.18    6.00
   5  -7   5   17.23    5.71
   5  -7   6  291.73   17.36
  -5  -7   6  323.79   18.13
  -5   7   6  301.29   11.24
   5  -7   7  107.37   11.58
  -5   7   7   96.75    6.58
  -5  -7   7   74.73   10.64
  -5  -7   8   12.73    5.00
   5  -7   8   17.94    4.96
  -5  -7   9   32.25    8.09
   5  -7   9   22.32    7.29
   5  -7  10   25.73    7.50
  -5  -7  10   28.69    7.93
   5   8  -4   18.37    2.38
  -5  -8  -3  751.25   17.36
   5  -8  -3  750.87   21.31
  -5   8  -3  757.28   23.52
  -5   8  -3  795.05   27.36
  -5  -8  -3  788.47   17.42
  -5   8  -2  155.66   10.49
   5  -8  -2  167.32   10.70
  -5   8  -2  149.58    8.83
   5  -8  -2  160.81    8.51
  -5  -8  -2  156.87    7.11
   5  -8  -1  329.22   14.71
  -5   8  -1  311.69   14.25
  -5   8  -1  305.19   13.09
   5  -8  -1  323.83   13.21
   5  -8   0   62.35    5.89
  -5   8   0   70.36    6.27
   5  -8   0   77.35    6.85
  -5  -8   0   70.69    3.02
  -5   8   1  354.98   13.85
   5  -8   1  345.79   15.21
   5  -8   2  166.73   10.79
  -5   8   2  162.19    8.57
   5  -8   3  664.68   24.72
  -5   8   3  695.97   19.72
  -5  -8   3  704.00   25.00
  -5   8   4   29.74    3.64
   5  -8   4   38.45    6.31
  -5  -8   4   36.06    6.44
   5  -8   5  290.82   16.63
  -5   8   5  306.70   10.97
  -5  -8   5  276.84   16.37
  -5   8   6   42.84    4.27
  -5  -8   6   53.07    8.60
   5  -8   6   52.36    8.31
   5  -8   7  295.52   18.74
  -5  -8   7  320.60   19.29
  -5  -8   8   22.60    6.63
   5  -8   8   14.98    5.81
  -5  -8   9  123.96   13.34
   5  -8   9  146.65   14.57
  -5   9  -4  967.52   28.77
   5  -9  -3   83.05    6.27
  -5  -9  -3   81.94    4.17
  -5   9  -3   99.16    7.51
  -5  -9  -3   84.72    4.28
   5  -9  -3   87.08    8.40
  -5  -9  -2  931.12   23.14
  -5   9  -2  908.43   26.26
   5  -9  -2  975.45   29.74
   5  -9  -2  905.40   25.63
  -5   9  -2  917.36   29.73
  -5   9  -1   97.85    8.40
   5  -9  -1   87.02    7.08
  -5  -9  -1  101.37    6.77
   5  -9  -1   90.25    7.88
  -5  -9   0 1444.11   36.36
  -5   9   0 1433.26   37.64
   5  -9   0 1350.45   37.04
   5  -9   0 1578.46   39.25
  -5  -9   1   92.49    7.86
   5  -9   1   75.64    7.33
  -5   9   1   85.06    6.75
   5  -9   2  830.05   27.92
  -5  -9   2  871.38   27.93
  -5   9   2  839.80   24.04
   5  -9   3   98.49    9.41
  -5   9   3   96.40    6.61
  -5  -9   3   94.93    9.07
   5  -9   4  973.50   33.39
  -5   9   4 1021.27   25.46
  -5  -9   4  955.06   32.85
  -5  -9   5  177.31   14.86
   5  -9   5  171.43   14.41
  -5   9   5  169.49    8.03
   5  -9   6  889.49   33.96
  -5  -9   6  890.33   34.05
  -5  -9   7   98.14   11.69
   5  -9   7  114.06   12.58
   5  -9   8  408.57   24.00
  -5  -9   8  435.07   24.61
   5  -9   9   12.07    5.85
  -5  -9   9   -1.22    5.05
   5  10  -5  348.99    9.31
  -5  10  -5  367.50   16.62
  -5  10  -4   75.76    7.05
  -5  10  -3  679.44   21.91
  -5 -10  -3  622.05   15.70
   5 -10  -3  641.91   20.08
   5 -10  -3  700.72   25.70
  -5 -10  -3  676.26   16.05
   5 -10  -2   77.74    7.07
   5 -10  -2   69.92    8.18
  -5 -10  -2   67.84    5.54
  -5  10  -2   75.99    6.99
  -5 -10  -1  710.68   21.42
   5 -10  -1  735.33   24.82
  -5  10  -1  713.73   25.03
   5 -10  -1  697.65   22.89
   5 -10   0    7.08    2.70
  -5 -10   0    6.56    2.49
  -5  10   0   15.08    3.67
   5 -10   1  649.60   23.83
  -5 -10   1  690.16   23.44
  -5  10   1  632.77   21.64
  -5  10   2   64.27    6.34
  -5 -10   2   67.99    8.22
   5 -10   2   64.08    8.43
   5 -10   3  740.15   27.79
  -5  10   3  772.83   22.11
  -5 -10   3  725.35   27.19
  -5 -10   4   58.67    7.67
  -5  10   4   52.33    4.58
   5 -10   4   58.23    8.07
  -5 -10   5  374.31   20.21
  -5  10   5  369.48   12.10
   5 -10   5  353.26   19.87
  -5 -10   6  120.47   13.22
   5 -10   6  124.84   13.32
   5 -10   7  173.13   15.14
  -5 -10   7  187.08   15.72
   5 -10   8   74.31   10.76
  -5 -10   8   86.19   11.80
  -5  11  -6   88.72    8.48
  -5  11  -5   13.57    3.90
  -5  11  -4   40.17    5.30
   5 -11  -3   16.45    4.41
  -5 -11  -3   18.20    2.15
   5 -11  -3   15.25    2.96
  -5  11  -3   20.28    3.69
  -5 -11  -2   72.10    5.40
   5 -11  -2   68.84    7.42
   5 -11  -2   58.97    5.96
   5 -11  -1    3.76    2.43
  -5 -11  -1    0.68    1.89
  -5  11  -1    5.73    3.32
   5 -11  -1    3.64    2.21
   5 -11   0   50.60    6.39
  -5 -11   0   31.06    4.97
  -5  11   0   35.23    5.68
   5 -11   1    3.87    3.13
  -5 -11   1    1.19    2.68
  -5  11   1   10.03    3.50
   5 -11   2   60.61    7.44
  -5  11   2   62.16    5.96
  -5 -11   2   61.21    7.60
  -5 -11   3   15.88    4.60
  -5  11   3   19.41    3.46
   5 -11   3    9.90    4.05
  -5  11   4   70.71    5.36
   5 -11   4   64.15    8.58
  -5 -11   4   58.64    8.10
  -5 -11   5   23.73    6.11
   5 -11   5   29.33    6.76
  -5 -11   6   68.43    9.41
   5 -11   6   70.93   10.01
   5 -11   7   17.97    6.39
  -5 -11   7   31.09    7.76
  -5  12  -5  226.28   12.63
  -5  12  -4   17.45    3.91
  -5 -12  -3  319.04    9.90
   5 -12  -3  283.96   13.00
   5 -12  -2   76.72    7.43
   5 -12  -2   79.95    8.38
  -5 -12  -2   69.15    6.00
  -5 -12  -1  441.48   10.53
   5 -12  -1  461.91   19.42
  -5 -12  -1  432.59   16.66
   5 -12  -1  427.30   18.21
   5 -12   0   18.27    4.69
  -5  12   0   16.75    4.42
  -5 -12   0   13.72    3.72
  -5  12   1  466.40   18.93
  -5 -12   1  467.30   19.99
   5 -12   1  441.53   20.23
  -5 -12   2   66.85    8.17
  -5  12   2   60.07    6.62
   5 -12   2   58.78    8.17
   5 -12   3  307.80   18.05
  -5 -12   3  316.64   18.30
  -5  12   3  312.60   13.42
  -5 -12   4   14.67    5.60
   5 -12   4   16.96    5.83
   5 -12   5  253.19   18.04
  -5 -12   5  259.85   17.87
  -5 -12   6   98.73   12.45
   5 -12   6  115.00   13.45
  -5 -12   7   65.03   10.45
   5 -12   7   62.52    9.63
   5 -13  -3   65.13    6.66
   5 -13  -2  652.58   25.20
   5 -13  -2  616.03   22.11
  -5 -13  -2  630.14   19.55
  -5 -13  -1   70.94    6.89
   5 -13  -1   59.56    7.39
   5 -13  -1   64.46    7.72
  -5 -13   0  694.33   24.35
   5 -13   0  643.37   24.87
   5 -13   1   51.45    7.47
  -5  13   1   66.95    7.49
  -5 -13   1   52.04    7.38
   5 -13   2  625.55   26.49
  -5 -13   2  641.60   26.20
   5 -13   3   69.46    9.78
  -5 -13   3   66.56    9.20
   5 -13   4  336.83   20.26
  -5 -13   4  324.03   19.88
  -5 -13   5   14.68    5.78
   5 -13   5   19.31    6.39
   5 -13   6  158.29   15.13
  -5 -13   6  186.42   16.14
   5 -14  -2   30.45    5.06
   5 -14  -1  124.00    9.95
  -5 -14  -1  124.88    8.90
  -5 -14   0   84.98    8.52
   5 -14   0  101.14    9.56
   5 -14   1  117.92   10.84
  -5 -14   1  109.14   10.35
   5 -14   2   40.59    7.32
  -5 -14   2   34.03    6.81
   5 -14   3  166.91   14.43
  -5 -14   3  168.24   14.01
  -5 -14   4    2.60    4.22
   5 -14   4    1.95    4.55
  -5 -14   5   75.65   10.35
   5 -14   5   99.33   12.22
   5 -15  -1   42.87    6.35
  -5 -15   0   95.77    8.59
   5 -15   0  105.51   10.17
   5 -15   1   30.41    6.48
  -5 -15   1   54.45    7.34
   5 -15   2   13.21    4.77
  -5 -15   2    9.61    4.54
   5 -15   3   20.40    6.18
  -5 -15   3   24.54    6.48
  -5 -15   4   44.73    8.17
   5 -15   4   60.84    9.14
  -5 -15   5   16.75    6.86
   5 -16   0   26.58    6.05
  -5 -16   1  222.57   14.95
   5 -16   1  200.70   14.97
  -5 -16   2   50.41    8.15
   5 -16   2   43.64    8.05
   5 -16   3  238.99   17.57
  -5 -16   3  188.30   15.71
   5 -16   4   17.21    6.33
  -5 -16   4   21.00    6.66
   5 -17   1   70.75    9.94
  -5 -17   2  224.69   16.49
   5 -17   2  230.71   16.97
   5 -17   3   14.28    6.05
  -5 -17   3   20.33    6.53
  -6   0  -7 1688.66   43.87
  -6   0  -6  312.12   14.37
  -6   0  -5 1691.53   41.18
  -6   0  -4   13.57    3.02
  -6   0  -3 3518.30   71.22
  -6   0  -2 2770.86   55.85
   6   0  -2 2642.24   57.61
   6   0  -1  952.39   24.54
  -6   0  -1  931.43   23.15
  -6   0   0  289.71   11.33
  -6   0   0  261.62    9.76
  -6   0   1  752.21   21.33
   6   0   1  764.88   19.72
   6   0   2 2692.79   54.94
   6   0   3 3490.22   69.97
   6   0   4   16.55    3.10
   6   0   5 1647.75   39.46
   6   0   6  300.79   13.53
   6   0   7 1851.61   46.34
   6   0   8  285.06   14.72
  -6   0   9  267.53   16.08
   6   0   9  276.97   15.28
  -6   0  10   48.53    7.92
   6   0  10   46.15    6.86
   6   0  11  231.45   15.39
  -6   0  11  203.11   15.69
  -6   1  -7  100.75    8.77
  -6  -1  -7  104.19    8.11
  -6  -1  -6  936.13   27.23
  -6   1  -6  950.60   29.15
  -6  -1  -5  104.76    8.11
  -6   1  -5  115.87    9.26
  -6  -1  -4  952.11   25.41
  -6   1  -4  994.46   27.17
  -6  -1  -3  449.64   14.70
  -6   1  -3  424.14   15.74
   6  -1  -2  938.10   25.89
   6   1  -2  942.00   24.77
  -6  -1  -2  922.76   23.17
  -6   1  -2  946.71   24.23
   6   1  -1  612.63   17.54
  -6  -1  -1  594.47   16.50
   6  -1  -1  592.45   18.45
  -6   1  -1  612.94   17.16
  -6  -1   0  426.89   14.02
   6  -1   0  403.06   13.32
  -6   1   0  433.70   14.79
  -6   1   0  432.26   13.33
  -6  -1   0  404.92   12.77
  -6  -1   1  532.88   16.83
   6   1   1  555.38   15.44
   6  -1   1  593.73   16.57
  -6   1   1  546.85   15.85
  -6   1   1  554.52   17.76
   6   1   2  778.43   19.86
   6  -1   2  781.58   21.08
   6  -1   3  455.52   15.38
   6   1   3  410.52   13.68
   6  -1   4  974.23   26.26
   6   1   4  944.07   24.40
   6  -1   5  114.34    9.38
   6   1   5  103.57    7.34
   6   1   6  981.44   27.12
   6  -1   6  972.95   28.96
   6  -1   7  109.14    9.14
   6   1   7  111.40    8.19
   6  -1   8  238.99   13.98
   6   1   8  227.25   12.35
  -6   1   9   65.86    8.41
   6   1   9   79.02    7.98
   6  -1   9   63.09    8.07
  -6  -1   9   61.36    8.45
   6   1  10  154.48   11.45
  -6  -1  10  180.11   14.39
  -6   1  10  164.87   12.91
   6  -1  10  172.94   13.35
   6  -1  11   35.36    7.21
  -6  -1  11   39.50    7.76
  -6   1  11   27.51    5.92
  -6  -1  12   85.06   11.09
  -6  -2  -7  175.76   10.04
  -6   2  -7  172.68   11.80
  -6   2  -6   71.56    7.89
  -6  -2  -6   76.29    6.46
  -6   2  -5   35.06    5.25
  -6  -2  -5   29.78    4.03
  -6   2  -4  103.37    7.88
  -6  -2  -4  102.21    6.63
  -6   2  -3  501.76   17.28
  -6  -2  -3  499.52   15.00
   6   2  -2  239.45   10.20
  -6  -2  -2  233.81    9.07
  -6   2  -2  219.00   10.65
   6  -2  -2  240.02   11.62
  -6   2  -1  353.30   12.40
   6   2  -1  351.75   11.87
  -6   2  -1  384.09   14.03
   6  -2  -1  333.71   13.33
  -6  -2  -1  345.84   11.40
  -6  -2   0  250.47    9.87
   6  -2   0  244.52   10.97
   6  -2   0  234.20    9.97
  -6   2   0  229.48    9.59
  -6   2   0  247.51   11.15
  -6  -2   1  307.54   11.37
  -6   2   1  335.48   11.58
   6  -2   1  330.71   12.11
  -6   2   2  193.81    9.04
   6   2   2  182.73    7.86
   6  -2   2  208.75   10.03
   6  -2   3  494.51   16.55
   6   2   3  453.84   13.84
   6  -2   4  101.51    7.88
   6   2   4   89.93    6.04
   6  -2   5   55.56    6.14
   6   2   5   46.45    4.53
   6  -2   6   76.11    7.84
   6   2   6   80.75    6.42
   6  -2   7  202.68   12.84
   6   2   7  196.64   10.43
   6   2   8   25.02    4.41
   6  -2   8   34.63    5.76
   6   2   9   22.46    4.42
  -6   2   9   27.38    5.32
   6  -2   9   35.53    6.51
  -6  -2   9   16.91    4.89
   6   2  10   28.97    5.60
  -6  -2  10   30.83    8.04
  -6   2  10   20.73    5.95
   6  -2  10   23.76    6.02
  -6  -2  11   13.31    5.41
   6  -2  11    8.24    4.64
  -6  -2  12   -0.54    4.48
  -6  -3  -7  214.42   10.35
  -6   3  -6 1077.65   33.24
  -6  -3  -6 1046.09   27.18
  -6  -3  -5  208.88    9.45
  -6   3  -5  222.97   12.71
  -6   3  -4  721.62   23.21
  -6  -3  -4  682.21   18.72
  -6  -3  -3  390.57   12.37
  -6   3  -3  402.18   15.52
   6   3  -2 2598.43   53.96
   6  -3  -2 2636.35   58.62
  -6   3  -2 2677.16   57.01
  -6  -3  -2 2658.00   53.08
  -6   3  -1  436.42   14.67
   6   3  -1  441.40   13.10
  -6   3  -1  475.10   16.02
   6  -3  -1  433.09   15.81
  -6  -3  -1  415.98   12.75
   6  -3  -1  420.18   14.01
   6  -3   0  123.64    7.76
  -6  -3   0  128.54    6.70
  -6   3   0  140.87    8.29
   6  -3   0  129.13    7.16
  -6   3   0  137.86    7.19
  -6   3   1  347.91   12.05
   6  -3   1  344.36   12.99
  -6  -3   1  342.37   11.57
  -6   3   2 2501.54   51.95
   6  -3   2 2479.02   53.85
   6   3   3  428.67   12.51
  -6   3   3  398.32   13.66
   6  -3   3  414.58   15.82
   6   3   4  737.73   19.00
   6  -3   4  751.37   23.67
   6  -3   5  214.51   12.19
   6   3   5  197.92    8.55
   6  -3   6 1084.71   33.17
   6   3   6 1118.24   27.60
   6  -3   7  239.79   14.30
   6   3   7  230.27   10.65
  -6  -3   8  393.82   20.43
   6  -3   8  431.67   20.71
   6   3   8  429.59   16.04
  -6   3   9   83.80    8.51
   6  -3   9   91.10    9.96
   6   3   9  100.24    7.69
  -6  -3   9  102.67   11.05
   6  -3  10  140.26   12.71
  -6   3  10  124.67   10.38
  -6  -3  10  144.29   13.22
  -6  -3  11   42.23    7.66
   6  -3  11   25.13    5.92
  -6  -4  -6  120.80    6.80
  -6  -4  -5  892.66   22.38
  -6   4  -5  951.82   29.94
  -6  -4  -4  160.27    7.38
  -6   4  -4  182.26   11.55
  -6   4  -3 1660.83   41.03
  -6  -4  -3 1627.61   34.92
  -6  -4  -2 1035.72   24.34
  -6   4  -2 1069.67   28.50
   6   4  -2 1024.12   24.37
   6  -4  -2 1055.68   29.78
  -6   4  -1 2425.62   52.79
  -6   4  -1 2369.75   51.93
   6  -4  -1 2401.43   50.63
   6  -4  -1 2322.72   53.55
  -6  -4   0  103.82    5.71
  -6   4   0   94.10    7.13
   6  -4   0  105.37    6.62
  -6   4   0  102.93    6.56
   6  -4   0   94.52    7.04
  -6   4   1 2371.83   50.19
   6  -4   1 2411.30   51.82
  -6  -4   1 2346.57   47.99
   6  -4   2 1019.50   27.75
  -6   4   2 1018.44   25.47
   6  -4   3 1658.90   40.85
  -6   4   3 1637.18   37.20
   6  -4   4  185.19   11.94
  -6   4   4  177.13    9.00
   6  -4   5  940.49   29.51
  -6   4   5  923.78   25.00
   6   4   5  934.74   22.35
   6  -4   6  143.95   10.89
   6   4   6  142.85    7.11
   6  -4   7  375.93   19.01
   6   4   7  402.18   13.53
  -6  -4   8  226.40   16.10
   6  -4   8  238.76   15.91
   6   4   8  241.87   10.91
   6  -4   9  336.45   20.04
  -6   4   9  382.76   17.24
  -6  -4   9  375.04   21.24
  -6  -4  10   90.87   11.45
   6  -4  10   84.41   10.99
   6  -4  11  303.42   20.46
  -6  -4  11  318.84   21.16
  -6  -5  -6   53.24    3.97
  -6  -5  -5   63.81    4.30
  -6   5  -5   69.78    8.43
  -6   5  -4  319.69   15.25
  -6  -5  -4  275.76    9.26
  -6   5  -3   72.41    6.85
   6   5  -3   58.35    4.51
  -6  -5  -3   62.42    4.15
   6   5  -2  215.50    8.00
  -6  -5  -2  225.96    8.55
  -6   5  -2  241.63   11.56
   6  -5  -2  229.08   12.17
  -6   5  -2  219.63   11.52
   6  -5  -2  220.80    9.84
  -6   5  -1  183.81    9.82
   6  -5  -1  197.02   10.93
  -6   5  -1  203.41   10.33
   6  -5  -1  186.40    9.58
  -6   5   0 1361.60   33.91
  -6  -5   0 1290.21   29.14
  -6   5   0 1307.00   32.12
   6  -5   0 1307.34   32.40
   6  -5   0 1262.11   33.91
  -6   5   1  183.33    8.89
   6  -5   1  185.70   10.20
   6  -5   2  235.76   11.81
  -6   5   2  239.35   10.10
   6  -5   3   66.23    6.60
  -6   5   3   58.59    4.84
   6  -5   4  306.14   15.10
  -6   5   4  315.03   11.99
  -6   5   5   54.74    5.37
   6  -5   5   50.90    7.25
   6   5   6   47.88    3.59
  -6   5   6   51.92    5.16
   6  -5   6   44.03    7.47
   6   5   7   53.75    3.94
  -6   5   7   47.92    5.16
  -6  -5   7   63.37    8.52
   6  -5   7   53.05    7.69
  -6  -5   8  119.00   11.49
  -6   5   8  121.61    8.33
   6   5   8  121.56    6.39
   6  -5   8  108.81   11.01
  -6   5   9   17.20    3.77
  -6  -5   9   24.16    6.46
   6  -5   9   17.51    5.75
   6  -5  10  113.10   12.32
  -6  -5  10  118.46   12.91
   6  -5  11   14.77    5.78
  -6  -6  -5  125.77    4.70
  -6  -6  -4   53.17    3.51
  -6   6  -4   48.20    6.57
   6   6  -3  373.17   11.65
  -6   6  -3  397.60   16.97
  -6  -6  -3  375.61   11.24
  -6  -6  -2  314.38   10.78
   6  -6  -2  342.08   12.99
  -6   6  -2  328.58   13.96
   6  -6  -2  349.16   15.89
  -6   6  -2  321.02   14.73
  -6   6  -1  522.97   18.05
   6  -6  -1  503.23   18.87
   6  -6  -1  511.14   17.03
  -6   6  -1  520.89   18.19
  -6   6   0  121.56    8.69
  -6  -6   0  110.94    5.74
  -6   6   0  114.51    7.84
   6  -6   0  126.82    8.77
   6  -6   0  118.91    8.09
  -6   6   1  449.08   15.51
   6  -6   1  451.67   16.75
  -6   6   2  320.72   12.33
   6  -6   2  314.11   14.56
   6  -6   3  404.05   17.27
  -6   6   3  403.42   13.93
   6  -6   4   68.81    7.36
  -6   6   4   62.09    5.16
   6  -6   5  127.32   10.62
  -6   6   5  120.80    7.28
  -6   6   6   44.30    5.02
   6  -6   6   50.50    7.71
  -6   6   7   73.17    6.05
   6  -6   7   61.55    8.34
  -6  -6   7   59.04    8.10
   6  -6   8  148.15   13.32
  -6  -6   8  134.62   12.58
  -6  -6   9   39.46    7.96
   6  -6   9   27.69    6.67
  -6  -6  10   21.37    5.72
   6  -6  10   33.01    8.49
  -6  -7  -4  577.09   13.52
   6   7  -4  635.31   17.21
   6   7  -3  372.40   10.53
  -6   7  -3  426.61   18.23
  -6   7  -3  407.16   16.31
  -6  -7  -3  364.75   11.18
   6  -7  -2 1224.52   31.13
  -6   7  -2 1200.93   32.64
  -6   7  -2 1229.23   34.53
   6  -7  -2 1300.42   35.70
  -6   7  -1  555.69   19.36
   6  -7  -1  566.19   18.76
   6  -7  -1  593.29   21.04
  -6   7  -1  573.03   20.12
  -6  -7   0 1788.49   36.40
   6  -7   0 1806.30   44.54
  -6   7   0 1735.75   42.38
   6  -7   0 1755.42   42.65
   6  -7   1  524.31   19.16
  -6   7   1  523.24   17.59
   6  -7   2 1177.79   33.98
  -6   7   2 1232.27   30.66
   6  -7   3  446.46   19.09
  -6   7   3  438.26   15.01
   6  -7   4  691.01   25.80
  -6   7   4  693.97   20.04
  -6   7   5   42.08    4.65
   6  -7   5   50.03    8.29
  -6  -7   6  359.98   19.55
   6  -7   6  375.89   20.04
  -6   7   6  415.52   14.40
   6  -7   7  253.58   16.88
  -6   7   7  282.90   11.70
  -6  -7   7  254.44   17.04
  -6  -7   8  220.40   16.43
   6  -7   8  201.11   16.05
   6  -7   9  140.56   14.21
  -6  -7   9  126.02   13.25
   6  -7  10  481.51   27.10
   6   8  -4  131.58    5.90
  -6   8  -3  451.64   17.43
  -6  -8  -3  416.16   12.06
  -6   8  -3  407.28   18.97
   6  -8  -3  445.87   19.56
  -6   8  -2  186.36   10.45
  -6   8  -2  203.32   12.04
   6  -8  -2  192.79    9.99
   6  -8  -2  186.61   11.83
   6  -8  -1  559.86   20.82
  -6   8  -1  500.29   19.46
   6  -8  -1  507.13   18.21
  -6   8  -1  502.47   18.55
  -6  -8   0  959.05   20.94
   6  -8   0 1017.94   30.21
  -6   8   0  964.10   28.26
   6  -8   0  933.52   27.92
   6  -8   1  501.80   19.37
  -6   8   1  520.30   18.25
   6  -8   2  214.45   12.88
  -6   8   2  209.42   10.31
   6  -8   3  420.34   18.91
  -6   8   3  406.81   14.70
  -6   8   4  123.96    7.31
   6  -8   4  138.46   11.12
  -6   8   5  508.44   16.26
   6  -8   5  499.08   22.85
  -6  -8   5  485.36   22.28
   6  -8   6  398.77   21.27
  -6  -8   6  401.69   21.17
  -6   8   6  395.63   13.83
   6  -8   7  329.88   20.02
  -6  -8   7  312.73   19.28
  -6  -8   8   87.49   11.34
   6  -8   8   86.89   11.09
   6  -8   9  226.73   18.09
  -6  -8   9  223.16   17.91
   6   9  -5  187.98    7.96
  -6   9  -4  191.60   11.52
  -6   9  -3   32.65    4.54
   6  -9  -3   37.74    6.02
  -6  -9  -3   31.51    2.95
   6  -9  -3   29.28    4.08
  -6  -9  -3   31.77    2.88
  -6   9  -2   49.28    5.51
   6  -9  -2   42.39    5.99
  -6  -9  -2   49.79    4.34
  -6   9  -2   48.75    6.06
   6  -9  -2   56.29    5.66
  -6   9  -1   57.09    6.44
   6  -9  -1   66.34    6.79
   6  -9  -1   65.24    6.26
  -6   9   0  205.08   11.54
   6  -9   0  212.58   11.81
   6  -9   1   83.66    7.95
  -6   9   1   79.11    6.80
   6  -9   2   69.96    7.95
  -6   9   2   82.00    6.55
  -6   9   3   45.92    4.83
  -6  -9   3   43.26    6.15
   6  -9   3   34.32    5.21
  -6  -9   4  160.36   12.09
  -6   9   4  163.25    8.58
   6  -9   4  155.28   12.54
  -6   9   5  209.75    9.45
   6  -9   5  180.13   14.03
  -6  -9   5  170.32   13.03
  -6  -9   6   34.49    6.97
   6  -9   6   36.53    7.30
  -6  -9   7    8.02    4.81
   6  -9   7    9.02    5.67
   6  -9   8   10.23    3.99
  -6  -9   8   18.92    6.04
   6  -9   9   57.22   10.42
  -6  10  -5  156.35   10.96
  -6  10  -4   24.31    4.61
   6 -10  -3  259.83   15.27
  -6  10  -3  231.30   12.29
   6 -10  -3  218.43   11.03
  -6 -10  -3  234.05    8.33
  -6 -10  -3  213.22    8.05
   6 -10  -2  208.23   11.43
  -6 -10  -2  232.99   10.02
   6 -10  -2  244.61   14.26
  -6  10  -2  243.98   12.59
   6 -10  -1  874.93   28.82
  -6  10  -1  900.43   29.01
  -6 -10  -1  837.48   24.42
   6 -10  -1  791.33   25.97
  -6  10   0   98.07    8.50
  -6 -10   0  102.00    8.07
   6 -10   0  103.79    8.69
  -6 -10   1  850.21   27.25
   6 -10   1  801.36   27.59
  -6  10   1  808.85   25.70
  -6 -10   2  224.29   13.57
   6 -10   2  202.62   13.56
  -6  10   2  230.10   11.69
   6 -10   3  259.56   15.86
  -6 -10   3  279.30   15.93
  -6  10   3  283.58   12.48
  -6  10   4   20.24    3.31
   6 -10   4   20.93    5.29
  -6 -10   4   17.88    5.67
   6 -10   5  142.45   12.84
  -6 -10   5  158.88   13.08
  -6  10   5  157.78    8.09
  -6 -10   6  105.92   11.15
   6 -10   6   91.63   10.56
   6 -10   7  155.65   14.74
  -6 -10   7  177.87   15.09
   6 -10   8   44.93    9.25
  -6 -10   8   39.77    8.40
  -6  11  -6  507.01   21.99
  -6  11  -5  228.27   13.50
  -6  11  -4  517.20   20.21
  -6 -11  -3   71.54    4.42
   6 -11  -3   77.04    6.78
  -6 -11  -3   79.10    4.66
  -6  11  -3   79.97    7.45
  -6 -11  -2  511.84   16.56
   6 -11  -2  524.69   21.93
   6 -11  -2  496.08   18.94
   6 -11  -1  233.25   14.08
   6 -11  -1  211.30   12.73
  -6 -11  -1  211.45   11.30
  -6 -11   0  610.70   21.67
  -6  11   0  612.58   23.12
   6 -11   0  579.54   22.50
  -6  11   1  230.99   12.97
  -6 -11   1  208.74   13.01
   6 -11   1  221.77   14.10
   6 -11   2  474.02   21.78
  -6  11   2  519.42   19.13
  -6 -11   2  502.12   21.73
  -6 -11   3   71.67    8.61
  -6  11   3   79.15    6.54
   6 -11   3   73.50    8.99
   6 -11   4  470.92   23.54
  -6 -11   4  488.61   23.58
  -6  11   4  481.61   16.75
  -6 -11   5  223.72   16.29
   6 -11   5  211.41   16.11
   6 -11   6  510.05   26.43
  -6 -11   6  472.33   25.29
   6 -11   7  123.20   13.57
  -6 -11   7  112.01   12.70
  -6  12  -6   36.67    5.74
  -6  12  -5  241.70   13.64
  -6  12  -4  203.87   12.15
  -6  12  -3  284.33   14.09
   6 -12  -3  245.92   12.59
  -6 -12  -3  285.05    9.70
  -6 -12  -2   42.93    4.72
   6 -12  -2   37.05    5.09
   6 -12  -2   34.81    5.69
  -6 -12  -1   92.42    7.24
   6 -12  -1   94.46    8.92
   6 -12  -1   80.37    7.74
  -6 -12   0   31.11    5.04
   6 -12   0   26.18    5.30
   6 -12   1   85.89    8.76
  -6  12   1   94.94    8.18
  -6 -12   1   92.52    8.58
   6 -12   2   34.34    5.96
  -6  12   2   38.17    5.27
  -6 -12   2   38.10    6.48
   6 -12   3  209.94   15.12
  -6 -12   3  242.50   15.80
  -6  12   3  233.36   11.87
   6 -12   4  154.97   13.74
  -6 -12   4  151.45   13.23
   6 -12   5  268.30   18.71
  -6 -12   5  264.67   18.27
  -6 -12   6   45.89    8.87
   6 -12   6   29.15    7.77
   6 -12   7   60.03   10.13
  -6 -12   7   83.08   11.44
  -6  13  -4   -1.95    2.21
   6 -13  -3   65.88    6.52
  -6 -13  -2  114.14    7.49
   6 -13  -2   99.81    8.47
  -6 -13  -1   17.96    3.57
   6 -13  -1   12.81    4.10
   6 -13   0    4.26    3.43
  -6 -13   0    1.48    2.54
   6 -13   1   13.80    4.93
  -6 -13   1    9.00    3.89
  -6 -13   2   98.48    9.63
   6 -13   2   95.11    9.94
  -6 -13   3   61.69    8.52
   6 -13   3   53.78    7.98
   6 -13   4   12.72    6.03
  -6 -13   4  -11.19    5.90
   6 -13   5    5.87    5.53
  -6 -13   5    4.10    4.31
   6 -13   6   67.07   10.30
  -6 -13   6   68.91   10.46
   6 -14  -2   21.18    4.73
  -6 -14  -1  314.03   14.79
   6 -14  -1  305.40   16.20
  -6 -14   0   37.77    6.20
   6 -14   0   45.31    7.16
   6 -14   1  282.69   17.16
  -6 -14   1  303.05   17.11
   6 -14   2   11.72    4.23
  -6 -14   2   18.68    5.21
   6 -14   3  233.57   16.93
  -6 -14   3  211.14   15.74
   6 -14   4   86.71   11.14
  -6 -14   4   64.11    9.53
   6 -14   5  369.53   23.08
  -6 -14   5  421.95   24.48
   6 -15  -1   47.89    7.10
  -6 -15   0  447.06   20.17
   6 -15   0  470.69   22.16
   6 -15   1   33.44    6.62
  -6 -15   1   51.34    7.62
   6 -15   2  207.16   15.60
  -6 -15   2  209.58   15.43
  -6 -15   3   62.12    9.35
   6 -15   3   51.43    9.35
   6 -15   4  398.93   23.69
  -6 -15   4  369.46   22.86
  -6 -15   5   89.80   12.01
   6 -16   0   16.99    4.67
   6 -16   1   62.16    8.79
  -6 -16   1   53.32    7.65
   6 -16   2   10.86    5.01
  -6 -16   2   22.03    6.47
   6 -16   3   36.61    7.57
  -6 -16   3   24.80    6.44
  -6 -16   4   30.21    7.63
   6 -17   1   18.85    6.08
   6 -17   2   34.94    6.96
  -6 -17   2   32.31    6.52
  -6 -17   3   18.64    5.81
  -7   0  -8   18.31    4.45
  -7   0  -7   15.48    4.14
  -7   0  -6    6.67    3.08
  -7   0  -5  206.67   11.94
  -7   0  -4   62.28    6.23
  -7   0  -3  155.00    8.81
   7   0  -2   18.60    3.87
  -7   0  -2   14.12    3.18
   7   0  -1   40.93    5.42
  -7   0  -1   39.56    4.18
  -7   0   0   29.68    5.14
  -7   0   0   29.87    3.80
  -7   0   1   29.23    4.47
   7   0   1   32.59    4.88
  -7   0   1   42.75    5.65
   7   0   2   10.79    3.02
   7   0   3  140.41    8.10
   7   0   4   45.41    5.76
   7   0   5  181.85   11.24
   7   0   6   10.86    3.35
   7   0   7   20.76    4.68
   7   0   8   12.08    4.26
   7   0   9    2.32    2.89
  -7   0  10    5.49    4.97
   7   0  10    2.53    2.99
  -7   0  11    5.25    4.94
  -7  -1  -8  203.24   12.36
  -7   1  -7  132.08   10.45
  -7  -1  -7  136.54    9.57
  -7  -1  -6  143.23    9.34
  -7   1  -6  158.21   10.58
  -7  -1  -5  183.89    9.93
  -7   1  -5  189.86   10.91
  -7  -1  -4 1198.58   30.72
  -7   1  -4 1204.63   32.24
  -7  -1  -3  315.65   12.18
  -7   1  -3  344.49   13.42
  -7   1  -2 1154.49   28.81
   7  -1  -2 1116.40   30.35
   7   1  -2 1128.73   29.19
  -7  -1  -2 1108.24   27.51
   7   1  -1 2817.45   59.09
   7  -1  -1 2791.09   60.49
  -7  -1  -1 2827.51   57.68
  -7   1  -1 2790.13   58.40
  -7  -1   0 1854.01   41.79
  -7   1   0 1796.49   42.35
   7  -1   0 1808.79   40.02
  -7  -1   0 1777.97   39.79
  -7   1   0 1817.93   40.07
  -7   1   1 3018.45   61.55
  -7  -1   1 2857.75   62.56
   7   1   1 3044.20   60.60
  -7   1   1 2915.38   63.82
   7  -1   1 3090.50   61.75
   7   1   2 1125.37   27.26
   7  -1   2 1132.84   28.33
   7   1   3  341.36   12.25
   7  -1   3  334.05   13.00
   7   1   4 1256.49   31.06
   7  -1   4 1299.08   32.87
   7  -1   5  232.31   11.74
   7   1   5  231.59   10.76
   7   1   6  148.74    9.11
   7  -1   6  160.75   10.21
   7  -1   7  102.02    8.90
   7   1   7  100.23    7.90
   7  -1   8  202.63   13.17
   7   1   8  201.22   12.06
   7   1   9  158.51   10.99
  -7  -1   9  157.91   12.86
   7  -1   9  132.03   11.26
   7  -1  10  163.96   13.12
   7   1  10  173.43   12.16
  -7  -1  10  152.03   13.40
  -7   1  10  154.51   12.75
   7  -1  11  191.17   14.45
  -7   1  11  146.87   13.10
  -7  -1  11  148.59   13.92
  -7  -2  -7  290.84   13.64
  -7  -2  -6  176.10    9.87
  -7   2  -6  198.32   12.31
  -7   2  -5 1378.42   37.18
  -7  -2  -5 1302.30   33.14
  -7  -2  -4 1122.46   28.64
  -7   2  -4 1167.92   31.91
  -7   2  -3 1918.74   44.57
  -7  -2  -3 1847.32   41.38
  -7   2  -2  648.26   19.74
   7   2  -2  624.27   18.93
  -7  -2  -2  601.96   17.62
   7  -2  -2  631.02   21.08
  -7   2  -1 1775.48   41.47
   7  -2  -1 1666.66   40.88
  -7  -2  -1 1676.54   37.60
  -7   2  -1 1727.01   39.06
   7   2  -1 1688.47   38.30
  -7   2   0 2962.92   63.16
  -7  -2   0 2877.35   61.12
   7  -2   0 2987.52   60.77
  -7   2   0 2908.26   60.62
  -7   2   1 1653.18   37.46
   7  -2   1 1662.09   38.03
  -7   2   1 1637.55   40.21
  -7  -2   1 1583.98   37.64
   7   2   2  673.61   18.51
  -7   2   2  716.70   20.08
   7  -2   2  704.48   20.68
   7   2   3 1795.13   39.88
   7  -2   3 1902.93   43.34
   7  -2   4 1109.87   30.67
   7   2   4 1133.23   27.65
   7  -2   5 1359.67   36.32
   7   2   5 1324.63   32.34
   7  -2   6  197.38   12.12
   7   2   6  199.91    9.97
   7  -2   7  284.23   15.27
   7   2   7  302.34   13.33
   7  -2   8  255.98   15.38
   7   2   8  269.76   13.20
   7  -2   9  343.00   18.66
  -7  -2   9  314.21   18.75
   7   2   9  335.75   15.75
   7  -2  10  253.27   16.77
  -7  -2  10  227.96   17.00
  -7   2  10  233.26   15.29
   7  -2  11  217.43   16.38
  -7  -2  11  200.92   16.27
  -7  -3  -7  110.24    7.66
  -7  -3  -6  634.09   19.92
  -7   3  -6  680.14   25.09
  -7   3  -5  317.14   15.36
  -7  -3  -5  306.75   12.08
  -7   3  -4  547.22   20.32
  -7  -3  -4  519.47   16.42
  -7  -3  -3  809.39   21.36
   7   3  -3  813.86   23.17
  -7   3  -3  828.57   25.01
   7  -3  -2  580.89   21.06
  -7   3  -2  626.32   19.80
  -7  -3  -2  574.80   16.92
   7   3  -2  592.43   17.81
   7  -3  -1  156.98    9.49
  -7   3  -1  168.92    8.77
  -7   3  -1  172.12    9.87
   7  -3  -1  156.68    8.20
  -7  -3  -1  158.41    7.62
  -7   3   0  200.41   10.79
   7  -3   0  199.40   10.93
   7  -3   0  190.98    9.53
  -7  -3   0  185.08    9.09
  -7   3   0  170.16    9.34
  -7   3   1  128.85    7.63
  -7  -3   1  139.87    7.66
   7  -3   1  151.05    8.39
  -7   3   2  554.96   17.44
   7  -3   2  559.48   18.74
   7   3   3  711.81   18.86
  -7   3   3  743.99   21.03
   7  -3   3  710.53   22.52
  -7   3   4  498.52   16.83
   7   3   4  492.19   15.07
   7  -3   4  524.41   19.23
   7  -3   5  343.48   15.98
   7   3   5  349.53   12.48
   7  -3   6  690.33   24.91
   7   3   6  662.80   19.76
   7  -3   7   99.60    9.45
   7   3   7  112.49    7.51
   7  -3   8  108.81   10.64
   7   3   8  107.20    7.66
   7  -3   9  137.63   12.26
  -7  -3   9  158.06   13.56
   7   3   9  149.06    9.74
   7  -3  10   89.30   10.36
  -7   3  10   98.18    9.66
  -7  -3  10   82.35   10.48
   7  -3  11   16.73    5.59
  -7  -3  11   10.35    5.76
  -7  -4  -7   19.68    3.76
  -7  -4  -6   13.08    3.01
  -7   4  -5   25.73    4.85
  -7  -4  -5   25.45    3.48
  -7  -4  -4   73.00    5.02
  -7   4  -4   74.53    7.17
   7   4  -3   64.34    5.28
  -7   4  -3   63.53    6.26
  -7  -4  -3   63.11    4.61
  -7   4  -2  343.83   14.22
  -7  -4  -2  331.00   11.68
   7   4  -2  328.36   11.60
   7  -4  -2  352.67   15.46
  -7   4  -1  123.34    9.02
   7  -4  -1  122.45    8.98
  -7   4  -1  107.32    8.22
   7  -4  -1  117.64    7.95
  -7  -4   0 1512.89   34.95
  -7   4   0 1538.66   36.50
   7  -4   0 1492.76   38.93
  -7   4   0 1544.27   38.54
   7  -4   0 1558.41   36.74
  -7  -4   1  115.18    6.93
   7  -4   1  111.16    8.19
  -7   4   1   99.04    6.84
  -7   4   2  341.58   12.82
   7  -4   2  340.37   14.24
   7  -4   3   66.44    6.62
  -7   4   3   65.49    5.46
   7  -4   4   66.43    6.93
  -7   4   4   69.96    5.69
  -7   4   5   28.38    3.87
   7  -4   5   27.26    5.34
   7   4   5   29.82    3.36
   7  -4   6   11.29    3.68
   7   4   6   16.23    3.01
   7  -4   7   31.52    6.34
   7   4   7   16.25    3.42
  -7  -4   8   53.65    8.51
   7  -4   8   52.74    7.93
   7   4   8   48.22    5.06
  -7  -4   9   18.36    5.64
   7  -4   9    9.49    4.46
  -7  -4  10   56.27    9.92
   7  -4  10   53.56    8.35
   7  -4  11   18.88    6.13
  -7  -4  11   23.59    6.64
  -7  -5  -6  638.82   17.52
  -7  -5  -5  879.24   21.90
  -7   5  -4  652.35   23.60
  -7  -5  -4  611.45   16.97
   7   5  -3  517.75   16.04
   7  -5  -3  559.41   21.57
  -7  -5  -3  532.88   15.40
  -7   5  -3  554.62   20.38
  -7  -5  -2  796.62   21.00
  -7   5  -2  826.55   25.61
   7  -5  -2  819.95   23.18
  -7   5  -2  856.29   25.91
   7   5  -2  811.36   20.53
   7  -5  -2  832.53   26.84
   7  -5  -1  334.04   15.02
  -7   5  -1  339.78   14.39
   7  -5  -1  322.75   13.07
  -7   5  -1  338.95   14.00
  -7  -5   0  136.87    7.22
   7  -5   0  140.33    8.52
  -7   5   0  127.24    7.97
   7  -5   0  127.73    9.39
  -7   5   0  157.60    9.77
  -7  -5   1  385.40   12.17
   7  -5   1  370.83   14.89
  -7   5   1  376.89   13.92
  -7   5   2  757.50   21.90
   7  -5   2  809.25   24.73
   7  -5   3  448.02   18.13
  -7   5   3  459.79   15.65
   7  -5   4  610.07   22.79
  -7   5   4  594.31   18.83
   7  -5   5  929.90   30.82
  -7   5   5  957.07   26.29
   7  -5   6  636.85   25.76
  -7   5   6  683.91   21.50
  -7   5   7  122.77    8.46
   7  -5   7  120.78   11.03
   7   5   7  132.10    6.75
   7  -5   8  193.37   14.94
  -7   5   8  181.58   10.79
  -7  -5   8  187.32   14.59
   7   5   8  199.23    8.91
   7  -5   9  393.42   22.23
  -7  -5   9  414.78   23.38
  -7  -5  10  139.81   13.87
   7  -5  10  121.74   12.83
   7  -5  11   65.36    9.73
  -7  -6  -6  257.14    8.31
  -7  -6  -5  652.53   16.52
  -7  -6  -4  988.10   23.67
  -7   6  -4 1108.28   33.49
   7   6  -4 1028.11   26.61
  -7   6  -3  822.01   26.98
  -7  -6  -3  781.72   20.26
   7   6  -3  768.84   20.22
   7  -6  -3  854.73   28.31
   7  -6  -2  586.10   21.85
  -7   6  -2  578.14   20.23
  -7  -6  -2  549.20   16.14
   7  -6  -2  554.83   18.34
  -7   6  -2  549.43   20.53
  -7   6  -1  366.73   15.41
   7  -6  -1  383.86   16.66
  -7   6  -1  382.96   15.61
   7  -6  -1  372.84   14.71
   7  -6   0  472.54   18.59
  -7  -6   0  450.81   13.95
  -7   6   0  458.81   16.78
   7  -6   0  448.41   16.84
  -7   6   0  461.81   17.73
  -7   6   1  360.53   14.27
   7  -6   1  392.89   15.87
   7  -6   2  477.52   18.71
  -7   6   2  501.74   16.77
   7  -6   3  755.07   25.44
  -7   6   3  721.63   21.57
  -7   6   4 1055.58   27.72
   7  -6   4 1031.41   32.74
   7  -6   5  675.75   25.80
  -7   6   5  656.07   20.42
   7  -6   6  247.29   15.68
  -7   6   6  273.92   12.19
   7  -6   7  456.57   23.15
  -7   6   7  501.91   18.02
  -7  -6   7  489.53   23.81
   7  -6   8  268.10   17.86
  -7  -6   8  218.17   16.31
   7  -6   9  119.50   12.38
  -7  -6   9  123.75   12.75
  -7  -6  10   74.95   10.41
   7  -6  10   64.70    9.80
  -7  -7  -5    4.55    1.16
   7   7  -4  122.02    6.66
  -7  -7  -4  117.96    5.46
   7   7  -3   25.86    2.81
  -7   7  -3   32.12    5.48
   7  -7  -3   34.33    6.47
  -7  -7  -3   28.23    3.39
  -7   7  -3   20.63    4.91
   7  -7  -2  171.29   11.73
  -7   7  -2  172.91   10.55
   7  -7  -2  176.29    9.81
  -7   7  -2  190.89   11.58
   7  -7  -1  261.62   13.77
   7  -7  -1  261.88   12.30
  -7   7  -1  273.44   13.26
  -7   7  -1  268.17   13.06
  -7  -7   0   38.40    4.03
   7  -7   0   41.86    6.63
   7  -7   0   42.34    5.96
  -7   7   0   35.40    5.27
  -7   7   1  213.43   10.77
   7  -7   1  192.61   11.16
   7  -7   2  170.85   11.16
  -7   7   2  179.52    9.60
  -7   7   3   36.95    4.47
   7  -7   3   31.66    5.44
   7  -7   4  124.16   10.41
  -7   7   4  122.16    7.61
   7  -7   5    7.84    3.44
  -7   7   5    4.01    1.96
  -7   7   6   37.79    4.94
   7  -7   6   56.46    8.53
  -7  -7   7   68.97    9.53
   7  -7   7   62.69    8.84
  -7   7   7   62.51    5.94
   7  -7   8   98.69   11.75
  -7  -7   8  109.92   12.49
  -7  -7   9    4.12    4.19
   7  -7   9    6.39    4.36
   7  -7  10   13.52    5.24
   7   8  -5  220.42    9.97
  -7  -8  -4  747.46   17.84
   7   8  -4  815.24   19.49
   7  -8  -3  312.69   16.60
  -7  -8  -3  273.85   10.02
  -7   8  -3  288.78   14.23
   7  -8  -2   11.48    3.64
  -7   8  -2    7.78    3.16
   7  -8  -2    9.60    3.43
  -7   8  -2   19.13    4.64
   7  -8  -1   88.25    8.19
  -7   8  -1   86.29    7.62
   7  -8  -1   93.79    7.48
  -7   8  -1   87.70    7.78
   7  -8   0   27.44    4.58
  -7   8   0   27.05    4.48
  -7  -8   0   24.05    2.61
  -7   8   1   93.67    7.39
   7  -8   1   76.23    7.51
   7  -8   2    2.82    2.67
  -7   8   2    8.02    2.30
  -7   8   3  271.63   12.07
   7  -8   3  263.10   14.96
  -7   8   4  757.46   22.35
   7  -8   4  701.32   27.47
   7  -8   5  225.41   15.28
  -7   8   5  254.32   11.41
   7  -8   6  183.58   14.23
  -7  -8   6  178.29   13.93
  -7   8   6  191.40    9.65
  -7  -8   7  118.03   12.25
   7  -8   7  104.42   11.55
   7  -8   8  176.45   15.11
  -7  -8   8  171.54   15.26
   7  -8   9   42.47    8.36
  -7  -8   9   34.05    7.45
   7   9  -5  665.72   18.03
  -7  -9  -4  448.95   11.23
  -7   9  -4  442.14   19.13
  -7  -9  -4  469.89   11.14
  -7   9  -3  489.06   19.38
   7  -9  -3  523.81   22.55
   7  -9  -3  478.99   17.63
  -7  -9  -3  458.43   14.01
  -7   9  -2  550.04   20.79
   7  -9  -2  599.06   23.46
   7  -9  -2  546.28   19.89
  -7   9  -1  331.26   16.15
   7  -9  -1  331.46   14.99
  -7   9  -1  326.90   15.17
   7  -9  -1  357.03   17.15
  -7  -9   0  289.01    8.08
   7  -9   0  273.65   14.01
  -7   9   0  266.85   13.76
  -7   9   1  298.83   14.06
   7  -9   1  311.37   15.53
   7  -9   2  513.57   21.83
  -7   9   2  540.07   19.20
   7  -9   3  431.11   20.39
  -7   9   3  444.56   16.55
  -7  -9   4  484.82   21.99
   7  -9   4  432.07   21.30
  -7   9   4  478.79   16.91
  -7   9   5  749.96   21.92
   7  -9   5  657.35   28.47
  -7  -9   5  698.84   28.69
   7  -9   6  296.42   19.26
  -7  -9   6  290.49   18.98
   7  -9   7  195.93   16.01
  -7  -9   7  185.58   15.70
  -7  -9   8  180.31   15.83
   7  -9   8  192.94   16.82
  -7  10  -5  100.18    9.51
  -7  10  -4  283.29   14.85
  -7  10  -3  169.87   11.19
  -7 -10  -3  194.57    8.11
   7 -10  -3  175.91   10.24
  -7 -10  -3  179.42    7.95
  -7 -10  -2  319.83   12.55
   7 -10  -2  325.72   14.90
   7 -10  -2  330.67   17.21
  -7  10  -2  338.42   15.72
   7 -10  -1  273.17   15.23
   7 -10  -1  260.34   13.54
  -7  10   0  117.46    9.11
   7 -10   0  108.30    9.05
  -7  10   1  226.92   12.59
   7 -10   1  237.59   13.83
   7 -10   2  340.84   17.56
  -7 -10   2  341.70   17.21
  -7  10   2  362.09   15.50
   7 -10   3  198.39   14.29
  -7 -10   3  214.75   14.33
  -7  10   3  220.38   11.42
   7 -10   4  297.89   17.84
  -7 -10   4  272.40   17.01
  -7  10   4  305.02   13.18
  -7 -10   5   84.70   10.17
   7 -10   5   84.54   10.45
  -7 -10   6   91.73   10.45
   7 -10   6   98.58   11.39
  -7 -10   7  102.02   11.93
   7 -10   7  103.84   12.28
   7 -10   8   95.54   12.30
  -7 -10   8   85.33   11.15
  -7  11  -6   15.16    4.25
  -7  11  -5  178.38   12.56
  -7  11  -4   74.53    7.65
  -7  11  -3  100.07    8.43
  -7 -11  -3   84.94    5.18
  -7 -11  -3   96.73    5.58
   7 -11  -3   77.07    7.03
  -7 -11  -2   30.92    4.03
  -7  11  -2   26.92    4.65
   7 -11  -2   24.44    5.19
   7 -11  -2   34.09    5.44
   7 -11  -1   66.96    7.55
  -7 -11  -1   78.43    6.81
   7 -11  -1   59.28    6.65
  -7 -11   0   15.55    3.75
  -7  11   0   30.33    5.17
   7 -11   0   23.34    4.83
   7 -11   1   83.79    8.65
  -7 -11   1   76.78    7.91
  -7  11   1   67.86    7.18
  -7 -11   2   26.71    5.38
   7 -11   2   27.75    5.84
  -7  11   2   28.00    4.54
   7 -11   3   91.83    9.79
  -7 -11   3  102.27   10.17
  -7  11   3   88.25    7.25
  -7  11   4   70.52    6.21
   7 -11   4   67.09    8.56
  -7 -11   4   85.46    9.94
  -7 -11   5  178.21   14.37
   7 -11   5  205.25   15.94
  -7 -11   6    9.39    4.70
   7 -11   6   11.29    5.81
   7 -11   7   19.29    6.69
  -7 -11   7   20.42    7.01
  -7  12  -6   62.53    8.00
  -7  12  -5  123.96   10.29
  -7  12  -4  449.73   19.52
  -7 -12  -3  353.32   11.60
   7 -12  -3  301.30   14.82
  -7  12  -3  328.54   16.13
   7 -12  -2  193.48   12.01
  -7 -12  -2  205.10   10.22
   7 -12  -1  212.78   13.85
   7 -12  -1  212.67   13.10
  -7 -12  -1  231.69   12.22
  -7 -12   0  180.80   11.55
   7 -12   0  189.80   12.63
  -7 -12   1  198.57   13.03
  -7  12   1  218.99   13.12
   7 -12   1  184.93   13.18
   7 -12   2  185.18   13.68
  -7 -12   2  202.31   13.70
  -7  12   2  203.21   12.04
  -7 -12   3  344.73   19.26
   7 -12   3  359.52   20.13
  -7 -12   4  431.90   22.78
   7 -12   4  445.88   23.79
  -7 -12   5  132.76   13.30
   7 -12   5  142.24   13.76
   7 -12   6   73.34   10.75
  -7 -12   6   65.46    9.90
  -7  13  -4  187.11   12.23
   7 -13  -3  448.65   18.41
  -7 -13  -2  276.52   12.39
   7 -13  -2  267.28   14.71
  -7 -13  -1  244.40   12.82
   7 -13  -1  257.47   14.76
  -7 -13   0  313.47   15.99
   7 -13   0  320.62   17.31
  -7 -13   1  256.03   15.22
   7 -13   1  230.04   15.11
  -7 -13   2  268.55   16.66
   7 -13   2  256.23   16.96
   7 -13   3  518.99   25.32
  -7 -13   3  520.23   24.89
   7 -13   4  176.93   15.21
  -7 -13   4  166.83   14.67
   7 -13   5   40.27    7.73
  -7 -13   5   43.82    7.69
   7 -13   6  184.53   16.93
  -7 -13   6  182.51   16.36
   7 -14  -2  125.08   10.09
  -7 -14  -1   58.81    6.62
   7 -14  -1   59.49    7.33
  -7 -14   0   52.09    6.41
   7 -14   0   55.29    7.95
   7 -14   1   63.35    8.34
  -7 -14   1   63.31    7.89
   7 -14   2  145.01   12.76
  -7 -14   2  134.94   12.07
  -7 -14   3   14.64    5.18
   7 -14   3   16.98    7.27
   7 -14   4   15.69    6.25
  -7 -14   4    7.92    4.98
   7 -14   5   51.26    9.51
  -7 -14   5   54.26    9.17
   7 -15  -1   19.99    5.15
   7 -15   0   40.06    6.44
  -7 -15   0   43.82    6.30
   7 -15   1   27.53    6.43
  -7 -15   1   52.11    7.76
   7 -15   2   51.80    8.78
  -7 -15   2   40.07    7.72
  -7 -15   3   83.52   10.42
   7 -15   3   64.22    9.15
   7 -15   4   41.50    8.00
  -7 -15   4   21.33    5.92
   7 -16   0   93.90   10.28
  -7 -16   1  238.92   15.85
   7 -16   1  268.04   17.71
  -7 -16   2  186.53   15.04
   7 -16   2  174.27   14.82
  -7 -16   3  109.63   12.34
   7 -16   3  104.35   12.02
  -7 -16   4  113.28   13.29
   7 -17   1   86.20   10.43
   7 -17   2  160.27   14.89
  -7 -17   3   89.22   11.26
  -8   0  -7  129.76   10.14
  -8   0  -6 1847.84   47.05
  -8   0  -5   71.96    6.45
  -8   0  -4 1976.86   46.65
  -8   0  -3  817.26   23.80
   8   0  -3  828.49   25.74
  -8   0  -2 2955.98   62.01
   8   0  -2 2924.15   64.19
   8   0  -1 2088.52   47.68
  -8   0  -1 2017.59   45.27
  -8   0   0 2585.00   57.29
  -8   0   0 2584.43   55.10
  -8   0   1 2062.78   45.64
   8   0   1 2081.11   45.45
  -8   0   1 1989.32   47.65
   8   0   2 2777.54   58.60
   8   0   3  777.27   22.40
   8   0   4 1866.53   43.63
   8   0   5   84.82    6.96
   8   0   6 1887.86   46.28
   8   0   7  118.01    9.26
   8   0   8  837.26   28.41
   8   0   9  218.17   13.90
   8   0  10  412.74   20.48
  -8   0  10  393.47   21.69
  -8   0  11   21.10    5.39
  -8  -1  -8  113.83    9.31
  -8  -1  -7  561.88   21.54
  -8   1  -7  590.16   23.39
  -8  -1  -6   54.66    6.50
  -8   1  -6   56.31    6.98
  -8   1  -5  452.30   18.30
  -8  -1  -5  437.42   17.09
  -8  -1  -4  397.78   15.88
  -8   1  -4  416.08   16.82
   8   1  -3 1109.75   31.11
  -8  -1  -3 1094.98   28.91
   8  -1  -3 1112.00   32.17
  -8   1  -3 1155.40   30.40
   8  -1  -2  369.47   15.65
  -8   1  -2  353.74   13.73
   8   1  -2  335.20   14.51
  -8  -1  -2  335.69   13.37
   8   1  -1 2900.75   62.07
  -8   1  -1 3079.33   64.54
   8  -1  -1 2919.17   63.75
  -8  -1  -1 2846.33   60.51
  -8   1  -1 2859.74   61.18
  -8   1   0  692.71   21.77
  -8  -1   0  661.04   20.91
   8  -1   0  643.78   19.27
  -8  -1   0  651.52   19.49
  -8   1   0  646.72   19.81
  -8   1   1 2718.40   60.32
  -8   1   1 2742.56   57.54
   8  -1   1 2796.81   57.67
  -8  -1   1 2546.79   58.70
  -8   1   2  334.54   13.13
   8   1   2  336.02   12.98
   8  -1   2  348.90   13.84
   8   1   3 1098.92   28.03
   8  -1   3 1125.43   29.49
   8   1   4  381.75   14.67
   8  -1   4  384.75   15.52
   8   1   5  428.53   16.16
   8  -1   5  446.11   17.57
   8   1   6   53.93    6.17
   8  -1   6   51.86    6.77
   8  -1   7  624.53   23.48
   8   1   7  618.03   21.95
   8  -1   8  120.77   10.34
   8   1   8  112.68    9.13
   8  -1   9  196.83   13.68
   8   1   9  199.01   12.81
   8   1  10   86.30    9.41
   8  -1  10   73.70    9.44
  -8   1  10   65.27    9.63
  -8  -1  10   92.21   11.37
  -8  -1  11  154.00   14.36
  -8   1  11  152.77   13.55
   8  -1  11  149.86   13.10
  -8  -2  -8   37.81    5.77
  -8  -2  -7    9.38    3.49
  -8  -2  -6   86.03    7.19
  -8   2  -6   97.68    8.90
  -8   2  -5  156.23   10.62
  -8  -2  -5  144.87    8.86
  -8  -2  -4  141.41    8.47
  -8   2  -4  162.01   10.46
   8  -2  -3   35.23    5.75
   8   2  -3   44.73    5.31
  -8  -2  -3   37.32    4.46
  -8   2  -3   31.17    4.86
   8   2  -2  168.04    9.27
   8  -2  -2  157.96   10.52
  -8   2  -2  173.64    9.95
  -8  -2  -2  169.12    8.62
   8   2  -1  364.16   13.67
   8  -2  -1  341.41   15.25
  -8   2  -1  388.84   15.80
  -8  -2  -1  350.28   12.87
  -8   2  -1  359.48   13.92
  -8   2   0   61.51    6.39
  -8  -2   0   60.61    5.72
  -8  -2   0   56.88    4.92
   8  -2   0   56.69    5.35
  -8   2   0   61.60    5.40
  -8   2   1  404.44   16.51
  -8  -2   1  377.62   14.90
  -8   2   1  400.75   14.58
   8  -2   1  428.46   15.09
  -8   2   2  211.08   10.38
   8  -2   2  215.49   10.59
   8  -2   3   28.92    4.93
  -8   2   3   26.63    4.27
   8   2   3   33.27    4.30
   8   2   4  129.80    7.61
   8  -2   4  147.51    9.44
   8   2   5  142.26    8.29
   8  -2   5  137.38    9.66
   8  -2   6   82.33    7.93
   8   2   6   85.45    6.76
   8  -2   7    9.03    3.90
   8   2   7   11.71    3.18
   8   2   8   37.87    5.48
   8  -2   8   35.98    6.41
   8   2   9   60.50    6.76
   8  -2   9   60.79    8.36
  -8   2  10   16.98    5.30
  -8  -2  10   19.12    6.50
   8  -2  10   13.02    5.66
   8  -2  11   14.37    6.07
  -8  -2  11   13.17    5.62
  -8  -3  -8  420.15   16.96
  -8  -3  -7  795.29   24.45
  -8  -3  -6   54.82    5.83
  -8  -3  -5  904.20   25.88
  -8   3  -5 1028.08   31.36
  -8  -3  -4  148.22    8.39
  -8   3  -4  139.80   10.05
  -8   3  -3  762.88   24.35
  -8  -3  -3  774.10   21.48
   8  -3  -3  775.47   26.26
   8   3  -3  762.53   22.95
   8   3  -2  488.43   16.41
  -8   3  -2  521.70   18.47
   8  -3  -2  507.76   19.82
  -8  -3  -2  502.45   16.03
  -8   3  -1 1118.48   29.58
   8  -3  -1 1076.77   31.40
  -8   3  -1 1190.86   31.81
   8  -3  -1 1059.55   28.39
  -8  -3  -1 1125.92   27.92
  -8  -3   0  678.96   20.89
   8  -3   0  691.99   20.99
  -8   3   0  715.35   23.20
  -8   3   0  704.69   21.18
   8  -3   1  977.15   26.68
  -8   3   1  949.77   25.75
  -8   3   1  962.76   28.53
  -8  -3   1  932.37   25.70
  -8   3   2  559.12   18.04
   8  -3   2  555.30   19.23
  -8   3   3  742.56   22.06
   8  -3   3  725.73   23.36
  -8   3   4  133.58    8.51
   8   3   4  126.94    7.48
   8  -3   4  140.62   10.17
   8  -3   5  874.99   28.77
   8   3   5  941.70   24.76
   8  -3   6   52.87    7.01
   8   3   6   49.76    5.16
   8   3   7  874.78   25.19
   8  -3   7  828.06   30.05
   8  -3   8  403.58   20.66
   8   3   8  436.35   16.87
   8  -3   9  217.62   15.54
   8   3   9  226.88   12.15
  -8  -3   9  224.64   16.19
  -8  -3  10   57.84    9.20
   8  -3  10   46.70    7.86
  -8   3  10   49.59    7.38
   8  -3  11  155.09   14.43
  -8  -3  11  149.38   14.63
  -8  -4  -7  246.90   11.30
  -8  -4  -6  638.96   19.67
  -8   4  -5  309.65   16.22
  -8  -4  -5  276.73   11.76
  -8  -4  -4  504.54   16.34
   8   4  -4  537.04   18.71
  -8   4  -4  530.64   20.79
   8   4  -3  170.98    9.36
  -8   4  -3  183.67   11.07
  -8  -4  -3  187.27    9.07
   8  -4  -3  178.84   12.04
   8  -4  -2 2554.97   59.47
   8   4  -2 2452.64   53.07
  -8   4  -2 2630.67   58.82
  -8   4  -2 2515.98   57.14
  -8  -4  -2 2457.99   52.86
  -8  -4  -1  474.63   15.59
  -8   4  -1  537.07   19.36
   8  -4  -1  496.82   17.32
  -8   4  -1  506.95   18.07
   8  -4  -1  500.82   19.46
   8  -4   0 2419.45   56.54
  -8   4   0 2413.91   55.61
   8  -4   0 2378.57   53.26
  -8  -4   0 2356.04   51.97
  -8   4   0 2400.14   53.12
   8  -4   1  569.72   18.99
  -8   4   1  529.52   17.84
  -8  -4   1  543.60   17.24
  -8   4   2 2586.86   55.90
   8  -4   2 2545.52   57.92
  -8   4   3  166.90    9.46
   8  -4   3  157.34   10.28
   8  -4   4  577.91   21.60
  -8   4   4  574.76   19.08
   8  -4   5  280.75   15.18
   8   4   5  273.43   10.98
  -8   4   5  276.65   12.88
   8  -4   6  628.48   25.20
  -8   4   6  668.22   22.10
   8   4   6  681.99   19.62
   8  -4   7  256.73   15.96
   8   4   7  252.96   11.17
   8  -4   8  423.66   21.77
   8   4   8  469.18   16.66
   8  -4   9  130.05   12.45
  -8  -4   9  146.54   13.59
   8  -4  10  402.33   23.10
  -8  -4  10  393.25   23.49
   8  -4  11   54.47    8.76
  -8  -5  -7  180.70    8.71
  -8  -5  -6   95.91    6.28
  -8  -5  -5   44.41    4.17
  -8  -5  -4  148.74    7.85
  -8   5  -4  159.16   11.10
   8   5  -4  141.51    8.77
   8  -5  -3  256.03   14.59
   8   5  -3  246.13   10.68
  -8  -5  -3  253.81   10.33
  -8   5  -3  283.01   14.14
   8  -5  -2   83.81    8.04
   8   5  -2   89.18    5.69
  -8   5  -2   91.61    7.85
  -8  -5  -2   80.50    5.76
  -8   5  -2   79.77    7.20
  -8   5  -1  916.30   27.76
   8  -5  -1  924.34   29.22
  -8   5  -1  933.67   27.27
   8  -5  -1  912.40   26.13
  -8  -5   0   54.75    5.33
   8  -5   0   54.19    7.18
  -8   5   0   53.04    5.69
   8  -5   0   46.40    6.20
  -8   5   0   75.13    7.62
  -8   5   1 1002.45   27.77
   8  -5   1  998.45   28.88
  -8  -5   1 1020.22   25.58
  -8   5   2   90.19    6.86
   8  -5   2  105.55    8.30
   8  -5   3  289.30   14.47
  -8   5   3  305.09   12.83
   8  -5   4  165.28   11.25
  -8   5   4  154.73    9.26
   8  -5   5   49.31    6.86
  -8   5   5   53.03    5.44
   8  -5   6  121.64   11.40
  -8   5   6  117.09    8.47
   8  -5   7  154.31   12.58
  -8   5   7  144.15    9.89
   8   5   7  144.98    7.71
   8   5   8   58.57    5.02
   8  -5   8   60.38    8.83
  -8  -5   9  179.88   15.27
   8  -5   9  173.59   14.55
   8  -5  10    6.76    5.40
  -8  -5  10    6.26    3.77
  -8  -6  -6   86.57    5.14
  -8  -6  -5  148.02    7.36
   8   6  -4   98.73    6.70
  -8  -6  -4   90.57    5.68
   8   6  -3   46.81    4.39
   8  -6  -3   59.50    7.49
  -8   6  -3   56.09    6.59
  -8   6  -3   51.10    6.86
  -8  -6  -3   49.91    4.66
  -8   6  -2  324.59   15.21
   8  -6  -2  317.97   13.54
  -8  -6  -2  306.41   11.82
  -8   6  -2  333.35   15.51
   8  -6  -2  331.15   16.58
   8  -6  -1  340.92   16.24
  -8   6  -1  346.39   15.55
  -8   6  -1  347.22   15.22
   8  -6  -1  312.51   13.91
  -8   6   0   29.53    5.21
  -8  -6   0   26.63    3.68
   8  -6   0   25.19    4.90
  -8   6   0   23.31    4.23
   8  -6   0   24.25    4.28
  -8   6   1  354.72   14.54
   8  -6   1  350.00   15.60
  -8   6   2  337.89   13.93
   8  -6   2  324.57   15.41
   8  -6   3   50.64    6.92
  -8   6   3   51.58    5.39
   8  -6   4   94.10    8.72
  -8   6   4  103.76    7.30
   8  -6   5  166.92   13.21
  -8   6   5  171.67   10.05
  -8   6   6   77.97    6.78
   8  -6   6   78.44    9.22
  -8   6   7  130.52    9.05
   8  -6   7  125.35   12.11
   8  -6   8   14.46    5.08
  -8  -6   8   25.84    7.09
  -8  -6   9   33.90    6.83
   8  -6   9   23.94    5.77
   8  -6  10   25.31    7.45
  -8  -7  -6  173.40    5.99
   8   7  -5  151.93    8.96
  -8  -7  -5  152.09    6.46
   8   7  -4  486.04   15.59
  -8  -7  -4  469.96   14.32
  -8   7  -3  677.07   24.08
  -8  -7  -3  648.33   18.63
   8  -7  -3  713.14   26.53
   8  -7  -2   41.72    6.02
  -8   7  -2   41.47    5.54
  -8   7  -2   37.50    5.62
  -8  -7  -2   33.03    3.68
   8  -7  -2   37.73    4.90
  -8   7  -1 1296.13   36.92
   8  -7  -1 1418.96   39.71
   8  -7  -1 1367.53   36.10
  -8   7  -1 1420.01   37.86
  -8  -7   0  754.70   20.26
  -8   7   0  743.88   24.06
   8  -7   0  705.94   23.88
  -8   7   0  742.98   25.11
  -8   7   1 1395.51   36.01
   8  -7   1 1335.69   37.13
   8  -7   2   35.71    5.27
  -8   7   2   26.23    4.23
   8  -7   3  713.91   26.13
  -8   7   3  751.65   22.93
  -8   7   4  476.02   17.23
   8  -7   4  436.20   20.64
   8  -7   5  126.25   11.13
  -8   7   5  159.53    9.25
   8  -7   6  203.55   14.89
  -8   7   6  208.79   11.19
   8  -7   7  338.11   19.96
  -8  -7   7  305.72   19.25
  -8  -7   8  165.13   14.68
   8  -7   8  120.15   12.51
   8  -7   9  234.66   18.31
  -8  -7   9  222.88   18.02
   8   8  -6  335.70   14.54
   8   8  -5  157.02    8.48
  -8  -8  -5  147.34    5.28
   8   8  -4  401.96   12.49
  -8   8  -4  401.36   18.32
  -8  -8  -4  351.36   11.55
  -8   8  -3  372.08   17.13
  -8  -8  -3  346.39   12.38
   8  -8  -3  385.35   19.01
  -8   8  -2  434.44   18.53
   8  -8  -2  478.84   21.29
  -8   8  -2  454.38   20.16
   8  -8  -2  456.26   17.90
   8  -8  -1  241.48   15.13
   8  -8  -1  210.45   12.76
  -8   8  -1  223.29   13.06
  -8   8  -1  220.49   13.52
  -8  -8   0 1364.66   30.28
  -8   8   0 1330.16   36.70
   8  -8   0 1274.13   36.29
  -8   8   1  200.71   11.89
   8  -8   1  220.10   13.16
   8  -8   2  452.30   19.91
  -8   8   2  477.89   17.89
   8  -8   3  313.17   16.93
  -8   8   3  373.32   15.16
  -8   8   4  399.09   15.71
   8  -8   4  368.02   18.97
   8  -8   5  158.64   12.99
  -8   8   5  172.52    9.89
   8  -8   6  307.14   18.87
  -8   8   6  341.52   14.35
  -8  -8   7   87.19   10.70
   8  -8   7   99.49   11.15
   8  -8   8  271.89   19.25
  -8  -8   8  278.48   19.81
  -8  -8   9   39.18    8.56
   8  -8   9   29.32    7.15
   8   9  -5  135.81    6.97
  -8   9  -5  127.86   11.04
  -8   9  -4   45.98    6.70
  -8  -9  -4   39.81    3.39
  -8   9  -3  145.48   10.49
  -8  -9  -3  147.35    7.49
   8  -9  -2  143.41    9.65
  -8   9  -2  149.44   10.37
   8  -9  -2  174.44   12.32
  -8   9  -1   15.12    3.65
   8  -9  -1    9.30    4.03
  -8   9  -1   19.47    4.06
   8  -9  -1   14.85    3.57
  -8  -9   0  194.59    7.09
   8  -9   0  167.29   11.21
  -8   9   0  163.68   10.85
  -8   9   1   19.62    4.05
   8  -9   1   28.33    5.27
  -8   9   2  143.92    9.52
   8  -9   2  124.10   10.32
   8  -9   3  127.55   10.85
  -8   9   3  148.09    9.44
   8  -9   4   51.52    7.77
  -8   9   4   46.24    5.34
  -8   9   5  130.69    8.69
   8  -9   5  136.33   12.49
  -8  -9   6   13.89    5.43
   8  -9   6   21.12    6.30
  -8  -9   7    9.05    5.12
   8  -9   7    8.95    4.93
  -8  -9   8   17.11    6.07
   8  -9   8    5.92    4.38
  -8  10  -6  260.21   16.29
  -8  10  -5  113.40   10.42
  -8  10  -4   70.09    7.59
  -8 -10  -4   66.36    3.60
  -8 -10  -4   52.15    3.39
  -8  10  -3  210.20   12.80
   8 -10  -3  191.34   11.14
  -8 -10  -3  180.37    8.49
   8 -10  -2  387.98   16.95
  -8  10  -2  371.93   17.52
   8 -10  -1  160.79   12.31
   8 -10  -1  142.88   10.85
   8 -10   0  281.25   15.12
  -8  10   0  274.07   14.94
  -8  10   1  166.75   11.27
   8 -10   1  155.57   12.25
   8 -10   2  387.01   19.33
  -8  10   2  429.21   17.69
  -8  10   3  151.77    9.86
   8 -10   3  175.68   13.19
   8 -10   4   59.53    8.55
  -8  10   4   74.53    6.74
  -8 -10   4   76.33    9.05
  -8 -10   5  119.78   12.18
   8 -10   5   92.91   10.56
   8 -10   6  226.92   17.34
  -8 -10   6  227.25   16.87
  -8 -10   7   43.55    8.33
   8 -10   7   34.23    8.07
  -8  11  -7  327.82   19.68
  -8  11  -6  190.34   13.93
  -8  11  -5  566.50   23.92
  -8  11  -4  100.09    9.41
  -8  11  -3  414.84   18.77
   8 -11  -3  409.59   17.36
  -8 -11  -3  383.52   13.45
  -8 -11  -3  441.74   14.04
  -8  11  -2  189.99   12.38
   8 -11  -2  166.88   11.18
  -8 -11  -2  193.97   10.05
  -8 -11  -1  389.86   11.74
   8 -11  -1  381.72   19.24
  -8 -11  -1  352.88   15.39
   8 -11  -1  313.62   16.26
  -8 -11   0  109.37    9.14
   8 -11   0  107.84    9.92
  -8  11   1  358.14   17.22
  -8 -11   1  387.83   18.03
   8 -11   1  352.36   18.17
  -8 -11   2  161.46   12.14
  -8  11   2  171.05   11.16
   8 -11   2  169.68   12.96
   8 -11   3  354.82   20.17
  -8 -11   3  409.23   20.89
  -8  11   3  377.46   16.54
  -8 -11   4   86.71    9.99
   8 -11   4   81.67   10.28
   8 -11   5  560.76   27.22
  -8 -11   5  569.72   27.23
   8 -11   6  163.63   14.85
  -8 -11   6  158.76   14.65
   8 -11   7  293.92   21.23
  -8 -11   7  349.45   22.43
  -8  12  -6  137.21   11.94
  -8  12  -5   20.91    4.99
  -8  12  -4  353.00   17.83
  -8  12  -3   46.18    6.39
   8 -12  -3   30.78    5.02
   8 -12  -2   58.36    6.95
  -8 -12  -2   64.70    5.75
  -8 -12  -1   50.42    5.90
   8 -12  -1   40.69    6.22
  -8 -12   0  149.04   10.62
   8 -12   0  150.01   11.64
   8 -12   1   26.34    5.73
  -8 -12   1   34.88    5.91
   8 -12   2   59.75    8.48
  -8 -12   2   49.51    7.27
  -8  12   2   59.75    6.66
   8 -12   3   47.31    7.86
  -8 -12   3   47.13    8.18
  -8 -12   4  327.40   19.80
   8 -12   4  338.29   20.64
  -8 -12   5    8.23    4.85
   8 -12   5    8.33    4.14
  -8 -12   6  147.04   14.69
   8 -12   6  141.27   14.53
  -8  13  -4   20.32    4.74
   8 -13  -3    4.96    2.43
   8 -13  -2   36.55    5.96
  -8 -13  -2   29.32    4.41
  -8 -13  -1   15.36    4.05
   8 -13  -1   14.11    4.46
  -8 -13   0   33.23    5.81
   8 -13   0   20.98    5.18
  -8 -13   1   13.48    3.93
   8 -13   1   16.10    5.21
  -8 -13   2   31.32    6.25
   8 -13   2   45.24    7.47
  -8 -13   3    6.79    4.59
   8 -13   3    8.23    4.22
  -8 -13   4   19.48    6.18
   8 -13   4   18.47    5.85
   8 -13   5    1.46    3.96
  -8 -13   5   13.37    5.18
  -8 -13   6   19.25    7.69
   8 -14  -2  127.19   10.52
  -8 -14  -1   94.22    8.25
   8 -14  -1   86.08    9.28
  -8 -14   0  240.91   14.22
   8 -14   0  197.06   14.34
  -8 -14   1   93.17    9.71
   8 -14   1   68.49    8.94
  -8 -14   2  133.51   12.07
   8 -14   2  138.38   13.13
   8 -14   3   93.93   11.11
  -8 -14   3   92.85   10.77
   8 -14   4  258.80   18.83
  -8 -14   4  283.67   19.59
  -8 -14   5   60.94    9.70
   8 -15  -1  212.14   14.47
  -8 -15   0   31.69    5.52
   8 -15   0   40.12    7.13
  -8 -15   1  230.46   15.37
   8 -15   1  228.73   16.22
   8 -15   2   74.39    9.93
  -8 -15   2   86.97   10.41
   8 -15   3  240.78   18.16
  -8 -15   3  252.94   18.19
   8 -15   4   91.57   11.83
  -8 -15   4   57.20   10.07
   8 -16   0   71.15    8.99
   8 -16   1    9.55    4.62
   8 -16   2   48.83    8.90
  -8 -16   2   89.56   10.53
  -8 -16   3   12.96    5.40
   8 -16   3   25.54    7.04
   8 -17   1   31.87    7.48
   8 -17   2    0.78    4.20
  -9   0  -7   13.01    4.29
  -9   0  -6   31.23    5.93
  -9   0  -5   13.02    3.78
  -9   0  -4  349.74   15.65
   9   0  -3   14.42    3.77
  -9   0  -3   20.39    4.28
   9   0  -2  149.22   11.06
  -9   0  -2  173.63   10.06
   9   0  -1   21.61    4.46
  -9   0  -1   21.83    5.21
  -9   0  -1   17.44    3.56
  -9   0   0   15.52    4.19
  -9   0   0   11.73    2.99
  -9   0   1   12.37    4.40
   9   0   1   14.34    3.29
  -9   0   1   12.20    3.43
   9   0   2  123.08    8.70
   9   0   3   13.65    3.15
   9   0   4  301.94   14.67
   9   0   5   15.89    4.04
   9   0   6   41.15    6.00
   9   0   7   16.46    4.31
   9   0   8   15.21    4.83
   9   0   9   16.36    5.55
   9   0  10   12.04    4.24
  -9   0  11    1.09    4.12
  -9  -1  -8  133.23   10.71
  -9  -1  -7  483.67   20.11
  -9   1  -6   52.62    6.64
  -9  -1  -6   44.99    5.65
  -9  -1  -5  240.23   12.54
  -9   1  -5  264.51   13.99
   9   1  -4  234.65   13.22
  -9  -1  -4  211.35   11.23
  -9   1  -4  229.02   12.21
  -9  -1  -3 1198.36   31.58
   9  -1  -3 1208.54   35.06
  -9   1  -3 1216.92   32.74
   9   1  -3 1176.95   33.37
   9   1  -2  572.55   19.82
   9  -1  -2  578.82   20.92
  -9  -1  -2  553.42   18.31
  -9   1  -2  583.95   19.40
   9  -1  -1 1381.51   37.11
  -9   1  -1 1475.88   37.77
   9   1  -1 1381.90   35.61
  -9  -1  -1 1402.51   34.40
  -9   1  -1 1377.13   34.94
  -9  -1   0  376.92   15.86
   9  -1   0  368.48   14.60
  -9  -1   0  400.20   14.68
  -9   1   0  403.90   15.01
  -9   1   0  409.70   16.83
  -9   1   1 1396.43   37.08
  -9  -1   1 1325.46   35.79
  -9  -1   1 1369.82   34.18
   9  -1   1 1357.56   34.21
  -9   1   1 1399.53   34.52
  -9   1   2  565.97   18.79
   9   1   2  570.27   18.27
   9  -1   2  569.72   18.85
   9   1   3 1177.06   30.22
   9  -1   3 1171.77   31.34
   9   1   4  203.81   10.39
   9  -1   4  210.20   11.12
   9   1   5  244.45   11.87
   9  -1   5  243.62   12.92
   9  -1   6   42.93    5.69
   9   1   6   43.32    5.43
   9   1   7  490.76   19.20
   9  -1   7  462.34   20.19
   9   1   8  127.07   10.00
   9  -1   8  130.47   10.84
   9   1   9  297.00   16.03
   9  -1   9  277.42   16.72
   9   1  10   17.62    4.87
   9  -1  10   16.77    5.60
  -9  -1  10   14.40    5.71
  -9  -1  11  181.17   16.03
  -9   1  11  160.87   14.13
   9  -1  11  191.27   15.07
  -9  -2  -8  729.64   25.57
  -9  -2  -7   63.04    6.76
  -9  -2  -6  824.68   26.12
  -9  -2  -5   73.98    6.69
  -9   2  -5   89.11    8.03
   9   2  -4  774.13   25.87
  -9  -2  -4  784.73   23.88
  -9   2  -4  816.13   26.31
   9   2  -3  178.03   10.43
  -9   2  -3  195.53   10.94
  -9  -2  -3  193.73    9.89
   9  -2  -3  189.95   12.18
  -9   2  -2 2447.55   55.53
   9  -2  -2 2459.98   57.99
   9   2  -2 2397.33   54.75
  -9  -2  -2 2460.96   53.44
   9  -2  -1  545.61   20.26
  -9   2  -1  518.08   19.95
  -9  -2  -1  520.38   17.36
  -9   2  -1  517.82   18.05
  -9  -2   0 1330.51   35.01
  -9   2   0 1376.67   36.63
  -9  -2   0 1328.25   33.31
   9  -2   0 1335.74   33.94
  -9   2   0 1326.17   33.71
   9  -2   1  529.20   17.89
  -9   2   1  521.16   17.75
  -9   2   1  511.61   19.70
  -9  -2   1  462.49   17.69
  -9   2   2 2488.22   54.51
   9  -2   2 2405.20   54.72
  -9   2   3  166.09    9.61
   9   2   3  176.25    9.11
   9  -2   3  183.50   10.41
   9   2   4  750.22   22.16
   9  -2   4  762.64   24.79
   9   2   5   76.00    6.34
   9  -2   5   83.30    7.82
   9   2   6  859.30   25.61
   9  -2   6  830.74   28.14
   9  -2   7   44.92    6.85
   9   2   7   44.96    5.68
   9   2   8  805.05   26.15
   9  -2   8  731.89   28.47
   9  -2   9   15.29    4.64
   9   2   9   25.73    5.11
  -9  -2  10  297.18   19.93
   9  -2  10  328.82   19.39
   9  -2  11   11.58    4.18
  -9  -2  11   10.36    5.50
  -9  -3  -8   18.38    4.10
  -9  -3  -7  236.97   12.27
  -9  -3  -6   10.39    3.61
  -9   3  -5  364.04   17.55
  -9  -3  -5  341.79   14.33
  -9  -3  -4  203.42   10.21
   9   3  -4  192.02   11.27
  -9   3  -4  197.67   12.11
   9   3  -3  398.72   16.26
  -9   3  -3  441.81   18.18
  -9  -3  -3  412.69   15.26
   9  -3  -3  422.84   19.49
   9  -3  -2  146.81   10.59
   9   3  -2  155.12    8.87
  -9   3  -2  160.91    9.83
  -9  -3  -2  131.54    7.91
  -9   3  -1  793.53   23.89
   9  -3  -1  784.15   26.07
   9  -3  -1  726.35   22.72
  -9  -3  -1  758.14   22.16
  -9   3  -1  778.01   25.37
  -9  -3   0  155.09    9.28
  -9   3   0  139.57    9.85
   9  -3   0  159.60    9.33
  -9   3   0  157.79    9.23
  -9  -3   1  693.81   22.20
   9  -3   1  738.41   23.19
  -9   3   1  744.90   22.50
  -9   3   1  746.36   25.25
  -9   3   2  103.20    7.48
   9  -3   2   94.46    7.78
  -9   3   3  387.76   15.61
   9  -3   3  392.12   16.98
   9   3   4  175.00    9.03
  -9   3   4  176.26   10.21
   9  -3   4  195.11   11.65
  -9   3   5  318.41   14.54
   9   3   5  311.02   12.88
   9  -3   5  333.68   16.21
   9  -3   6   11.67    3.69
   9   3   6    9.96    3.35
   9  -3   7  266.49   15.70
   9   3   7  272.82   12.78
   9  -3   8   26.05    5.91
   9   3   8   20.70    4.13
   9  -3   9  166.10   13.93
   9   3   9  171.49   11.02
   9  -3  10   14.83    5.28
  -9  -3  10   16.57    6.13
   9  -3  11   55.27    8.98
  -9  -4  -7   68.06    6.22
  -9  -4  -6   39.30    4.88
  -9  -4  -5   84.15    6.42
   9  -4  -4   83.34    9.04
  -9  -4  -4   78.94    6.31
  -9   4  -4   92.51    8.63
   9   4  -4   63.56    6.54
   9   4  -3  364.96   14.35
  -9   4  -3  370.14   16.46
  -9  -4  -3  354.71   13.62
   9  -4  -3  397.58   18.46
   9  -4  -2  488.04   20.30
   9   4  -2  466.19   16.14
  -9   4  -2  497.29   19.77
  -9   4  -2  492.48   18.70
  -9  -4  -2  467.62   16.17
   9  -4  -1  594.73   22.38
  -9   4  -1  571.41   20.44
  -9  -4  -1  588.01   18.58
   9  -4  -1  593.40   19.99
  -9   4  -1  600.11   21.82
  -9  -4   0  199.20   11.04
   9  -4   0  184.38   11.52
  -9   4   0  210.16   12.63
  -9   4   0  165.84   10.91
   9  -4   1  533.35   19.15
  -9   4   1  539.50   18.70
  -9  -4   1  544.65   18.19
  -9   4   2  473.98   17.05
   9  -4   2  444.80   17.97
  -9   4   3  353.92   14.51
   9  -4   3  325.73   15.38
   9  -4   4   71.99    7.88
  -9   4   4   78.19    7.00
   9  -4   5   75.97    7.92
   9   4   5   83.16    5.99
  -9   4   5   85.65    7.27
   9  -4   6   36.54    6.30
  -9   4   6   44.73    5.84
   9   4   6   44.83    4.86
   9  -4   7   90.71    9.20
   9   4   7   72.28    6.10
  -9   4   7   78.63    7.37
   9  -4   8   80.32    9.55
   9   4   8   82.78    6.85
   9  -4   9   22.07    6.62
   9  -4  10   26.69    6.99
  -9  -4  10   39.10    7.98
   9  -4  11   16.60    6.07
  -9  -5  -7  550.67   17.81
  -9  -5  -6  124.91    7.49
  -9  -5  -5  867.37   24.28
   9   5  -5  914.74   27.93
   9   5  -4   52.09    5.53
  -9  -5  -4   46.31    4.49
   9   5  -3  836.80   24.25
  -9   5  -3  907.78   28.90
   9  -5  -3  937.22   30.95
  -9  -5  -3  865.34   23.92
   9  -5  -2  344.96   16.86
  -9   5  -2  335.68   15.87
  -9   5  -2  325.66   15.19
  -9  -5  -2  321.83   12.72
  -9   5  -1 1037.18   30.97
  -9   5  -1  981.37   29.59
   9  -5  -1 1019.97   32.24
  -9  -5  -1  970.20   26.70
   9  -5  -1 1019.68   28.97
  -9  -5   0   79.59    6.65
  -9   5   0   79.00    7.90
  -9   5   0   79.24    7.34
   9  -5   0   81.52    7.28
   9  -5   1  971.47   28.87
  -9   5   1  957.15   27.71
  -9  -5   1  973.32   26.21
  -9   5   2  298.37   13.33
   9  -5   2  286.74   14.27
  -9   5   3  845.52   25.34
   9  -5   3  836.23   27.83
   9  -5   4   88.00    8.87
  -9   5   4   79.17    6.92
   9  -5   5  862.86   30.14
  -9   5   5  875.48   26.71
   9  -5   6  110.84   10.35
  -9   5   6  124.58    8.96
  -9   5   7  600.10   22.09
   9  -5   7  580.95   25.86
   9  -5   8   41.61    7.12
   9  -5   9  420.82   23.39
  -9  -5   9  415.84   23.79
   9  -5  10   54.55    9.01
  -9  -5  10   59.05   10.23
  -9  -6  -6  610.11   17.83
   9   6  -5   50.86    5.90
  -9  -6  -5   38.18    4.33
   9   6  -4  789.71   23.10
  -9  -6  -4  754.14   21.61
   9  -6  -3  202.66   13.42
   9   6  -3  178.28    8.78
  -9   6  -3  177.95   11.70
  -9  -6  -3  168.40    8.67
  -9   6  -3  174.04   11.60
   9  -6  -2  708.61   26.14
  -9   6  -2  685.03   24.57
   9  -6  -2  691.10   22.34
  -9  -6  -2  662.46   20.19
  -9   6  -2  661.26   23.85
  -9   6  -1  130.37    9.90
   9  -6  -1  156.61   11.20
  -9   6  -1  149.30    9.91
   9  -6  -1  137.84    9.19
  -9  -6   0 1801.84   41.70
  -9   6   0 1825.12   45.09
   9  -6   0 1798.41   44.97
  -9   6   0 1789.10   46.78
  -9   6   1  164.72    9.88
   9  -6   1  148.83   10.20
  -9  -6   1  172.60    8.47
   9  -6   2  681.59   24.34
  -9   6   2  681.62   22.24
  -9   6   3  182.92   10.33
   9  -6   3  189.71   12.42
  -9   6   4  803.26   24.91
   9  -6   4  800.76   28.45
   9  -6   5   26.86    5.66
  -9   6   5   31.07    4.84
   9  -6   6  627.53   26.65
  -9   6   6  638.40   22.35
   9  -6   7   30.91    7.00
  -9   6   7   22.17    4.38
   9  -6   8  299.29   19.43
   9  -6   9   29.87    7.22
  -9  -6   9   25.83    7.47
   9  -6  10  268.73   19.72
   9   7  -6   44.36    5.71
  -9  -7  -6   35.57    3.25
   9   7  -5   92.93    7.43
  -9  -7  -5   85.33    5.68
  -9  -7  -4   17.72    2.82
   9   7  -4   16.17    2.91
  -9   7  -3   37.99    6.03
  -9  -7  -3   32.04    3.83
  -9   7  -2   52.53    6.28
   9  -7  -2   51.48    6.73
  -9   7  -2   42.87    5.97
   9  -7  -2   41.39    5.13
  -9  -7  -2   46.54    4.77
  -9   7  -1  155.74   11.56
   9  -7  -1  172.93   12.38
   9  -7  -1  171.32   10.91
  -9   7  -1  152.19   10.96
  -9   7   0   13.55    4.09
  -9  -7   0   18.62    3.16
  -9   7   0   19.34    3.72
   9  -7   0   19.15    4.26
  -9   7   1  155.09   10.62
   9  -7   1  147.74   11.01
  -9   7   2   71.15    6.63
   9  -7   2   50.97    6.32
   9  -7   3   28.38    5.45
  -9   7   3   29.65    4.51
  -9   7   4   14.11    3.11
   9  -7   4   22.80    5.42
   9  -7   5  108.40   10.94
  -9   7   5  104.17    8.16
   9  -7   6   46.04    7.32
  -9   7   6   43.87    5.48
   9  -7   7   64.40    9.40
   9  -7   8   58.23    9.43
  -9  -7   8   58.80    9.54
  -9  -7   9   31.75    7.95
   9  -7   9   32.93   10.00
   9   8  -5   47.57    4.84
  -9  -8  -5   50.99    3.76
   9   8  -4  312.64   11.27
  -9   8  -4  291.91   16.09
  -9  -8  -4  292.98   11.14
  -9   8  -3  126.16   10.48
  -9  -8  -3  132.98    7.61
  -9   8  -2  201.65   12.53
   9  -8  -2  220.84   14.18
   9  -8  -2  198.28   11.67
  -9  -8  -2  200.44    9.89
   9  -8  -1  140.41   11.10
   9  -8  -1  122.03    9.17
  -9   8  -1  114.73    9.44
  -9   8  -1  121.27    9.78
  -9  -8   0  359.60   12.49
  -9   8   0  330.60   15.75
   9  -8   0  331.54   15.97
  -9   8   1  124.40    9.03
   9  -8   1  112.57    9.35
  -9   8   2  208.12   11.69
   9  -8   2  198.44   12.94
  -9   8   3  190.31   11.01
   9  -8   3  183.28   12.89
  -9   8   4  291.41   13.77
   9  -8   4  296.63   17.17
  -9   8   5   27.62    4.25
   9  -8   5   19.79    5.40
   9  -8   6  254.73   17.49
  -9   8   6  282.17   13.62
  -9  -8   7   24.64    6.87
   9  -8   7   16.40    6.05
   9  -8   8  163.32   15.31
  -9  -8   8  184.44   16.20
  -9   9  -5  434.82   21.19
  -9  -9  -4   32.45    3.76
  -9   9  -4   44.44    6.75
  -9   9  -3  821.40   28.38
  -9  -9  -3  789.43   22.29
  -9   9  -2  107.44    9.44
   9  -9  -2  100.58    8.45
   9  -9  -1 1247.46   38.53
   9  -9  -1 1167.94   34.85
  -9   9  -1 1172.66   35.76
  -9   9   0   74.07    7.59
  -9  -9   0   68.44    4.68
   9  -9   0   66.40    7.52
  -9   9   1 1219.22   34.97
   9  -9   1 1145.18   35.83
  -9   9   2  123.11    9.19
   9  -9   2  127.45   10.72
  -9   9   3  915.31   27.89
   9  -9   3  822.71   30.98
   9  -9   4   42.99    7.42
  -9   9   4   45.04    5.63
   9  -9   5  456.66   23.46
  -9   9   5  475.80   18.48
  -9  -9   6   69.00    9.96
   9  -9   6   58.95    9.31
   9  -9   7  426.17   24.49
  -9  -9   7  426.24   24.54
   9  -9   8   28.18    7.66
  -9  -9   8   42.84    8.56
  -9  10  -6  177.41   14.12
  -9  10  -5  118.40   11.07
  -9  10  -4  185.74   12.87
  -9  10  -3   24.74    5.25
  -9 -10  -3   14.93    2.74
   9 -10  -2  620.73   23.15
  -9  10  -2  613.78   24.16
  -9 -10  -1   61.31    5.22
   9 -10  -1   61.08    7.51
   9 -10   0  271.88   15.36
   9 -10   1   79.59    8.66
  -9  10   1   70.44    7.47
  -9  10   2  687.19   24.24
   9 -10   2  653.70   26.50
   9 -10   3   10.26    4.36
  -9  10   3    9.07    2.83
   9 -10   4  214.28   15.65
  -9  10   4  205.76   11.81
  -9 -10   5  119.77   12.50
   9 -10   5  112.50   12.04
   9 -10   6  157.61   14.42
  -9 -10   6  159.04   14.58
  -9 -10   7   22.16    6.50
   9 -10   7   24.99    7.02
  -9  11  -7   22.51    6.20
  -9  11  -6   39.16    7.18
  -9  11  -5   24.61    5.85
  -9  11  -4   50.97    6.90
  -9  11  -3   26.09    5.41
   9 -11  -3   30.24    5.12
  -9 -11  -3   35.47    4.07
  -9  11  -2  101.52    9.33
   9 -11  -2   99.06    9.01
  -9 -11  -1    2.23    1.83
   9 -11  -1    3.73    3.36
   9 -11   0   97.88    9.41
   9 -11   1    0.22    3.16
  -9  11   2  134.90   10.24
   9 -11   2  124.97   11.48
  -9  11   3   28.67    4.86
   9 -11   3   23.98    6.11
  -9 -11   3   15.26    4.72
   9 -11   4   67.25    9.19
  -9 -11   4   56.21    8.45
   9 -11   5   16.41    4.94
  -9 -11   5   17.66    6.49
   9 -11   6   38.25    7.51
  -9 -11   6   47.19    8.39
  -9 -11   7   44.79    9.14
   9 -11   7   35.42    8.43
  -9  12  -6  279.17   17.57
  -9  12  -5  108.60   10.60
  -9  12  -4  173.94   12.74
  -9  12  -3   25.69    5.26
   9 -12  -3   31.57    5.38
   9 -12  -2  543.77   22.93
  -9 -12  -2  625.83   20.63
  -9 -12  -1   17.37    4.41
   9 -12  -1   20.88    5.49
  -9 -12   0  330.25   16.49
   9 -12   0  308.61   17.35
   9 -12   1   16.26    4.90
  -9 -12   1   14.39    4.35
  -9 -12   2  607.88   25.89
   9 -12   2  581.75   26.34
   9 -12   3   31.49    7.04
  -9 -12   3   25.50    5.92
   9 -12   4  168.39   14.72
  -9 -12   4  184.37   15.38
   9 -12   5  102.25   12.22
  -9 -12   5   94.63   11.75
   9 -12   6  256.39   19.43
  -9 -12   6  270.96   19.82
  -9  13  -4   99.26    9.90
   9 -13  -3  365.65   17.60
   9 -13  -2   41.00    6.42
  -9 -13  -1  527.09   20.57
   9 -13  -1  468.57   21.94
  -9 -13   0  109.70    9.91
   9 -13   0   99.77   10.69
  -9 -13   1  492.63   22.37
   9 -13   1  476.32   23.28
   9 -13   2   44.71    7.33
  -9 -13   2   60.27    8.42
  -9 -13   3  436.78   23.08
   9 -13   3  398.74   22.63
   9 -13   4   80.57   11.03
  -9 -13   4   77.25   10.47
   9 -13   5  304.95   21.35
  -9 -13   5  323.75   21.35
   9 -14  -2   50.66    6.69
   9 -14  -1   15.09    5.30
  -9 -14   0  138.48   11.08
   9 -14   0  112.02   10.84
   9 -14   1   12.07    5.40
  -9 -14   1   11.98    4.43
   9 -14   2   62.29    9.15
  -9 -14   2   68.90    9.37
   9 -14   3    5.88    4.70
  -9 -14   3   23.38    6.69
   9 -14   4  117.89   12.96
  -9 -14   4  106.23   12.19
  -9 -14   5   30.47    7.34
   9 -15  -1  103.13   10.51
   9 -15   0   23.93    6.01
  -9 -15   1   78.04    9.32
   9 -15   1   83.06   10.26
  -9 -15   2   10.72    5.14
   9 -15   2   -0.67    3.88
  -9 -15   3   55.78    9.24
   9 -15   3   32.01    7.20
  -9 -15   4    7.29    4.39
   9 -16   0  235.79   16.61
   9 -16   1   41.05    8.13
  -9 -16   2  195.73   15.77
   9 -16   2  189.14   16.21
  -9 -16   3   15.73    6.05
   9 -17   1  173.93   15.40
 -10   0  -6  522.46   21.29
 -10   0  -5  286.69   14.56
 -10   0  -4 2170.48   51.93
  10   0  -4 2149.86   54.81
  10   0  -3  182.22   11.57
 -10   0  -3  195.28   10.69
  10   0  -2  768.62   25.48
 -10   0  -2  775.30   23.97
 -10   0  -1  379.37   16.84
  10   0  -1  392.52   16.62
 -10   0  -1  398.77   15.36
 -10   0   0 1618.63   42.48
 -10   0   0 1641.80   39.96
  10   0   1  325.57   13.54
 -10   0   1  340.13   14.32
 -10   0   1  323.20   15.61
 -10   0   2  800.64   24.20
  10   0   2  766.03   23.61
  10   0   3  165.50    9.68
  10   0   4 2054.72   48.73
  10   0   5  258.59   12.95
  10   0   6  554.27   21.04
  10   0   7   96.94    8.71
  10   0   8  681.73   25.86
  10   0   9   36.34    6.56
  10   0  10  325.73   18.50
 -10   0  11    1.30    3.80
 -10  -1  -7  152.12   11.34
 -10  -1  -6   40.83    6.18
 -10   1  -6   53.59    7.62
 -10  -1  -5  480.30   19.14
 -10   1  -5  502.54   20.59
 -10  -1  -4  216.69   11.82
 -10   1  -4  216.27   12.50
  10  -1  -4  199.29   13.74
  10   1  -4  211.88   13.23
 -10  -1  -3  698.89   22.37
  10  -1  -3  664.55   24.71
  10   1  -3  695.76   24.04
 -10   1  -3  666.84   22.99
  10  -1  -2  366.60   16.86
  10   1  -2  327.31   15.37
 -10   1  -2  353.68   15.12
 -10  -1  -2  337.56   14.30
  10   1  -1  750.75   23.83
 -10   1  -1  708.14   24.65
  10  -1  -1  684.91   23.96
 -10  -1  -1  688.51   24.11
 -10  -1  -1  670.62   21.76
 -10   1  -1  699.31   22.25
 -10   1   0  125.71    9.51
 -10  -1   0  116.33    8.71
 -10  -1   0  122.05    7.89
 -10   1   0  122.20    8.31
 -10   1   1  697.77   24.81
 -10  -1   1  709.46   22.39
  10  -1   1  744.36   22.66
 -10   1   1  718.35   22.79
 -10  -1   1  695.24   24.03
  10   1   2  292.29   12.85
 -10   1   2  318.03   14.30
  10  -1   2  302.82   14.14
 -10   1   3  660.56   21.66
  10   1   3  608.71   20.12
  10  -1   3  623.88   21.59
  10   1   4  205.67   11.14
  10  -1   4  208.77   11.80
  10   1   5  496.58   18.42
  10  -1   5  492.31   19.50
  10  -1   6   59.47    7.13
  10   1   6   45.03    5.87
  10   1   7  157.76   10.83
  10  -1   7  147.11   11.31
  10  -1   8   21.61    5.15
  10   1   8   32.78    5.64
  10   1   9  221.78   14.01
  10  -1   9  207.43   14.62
  10  -1  10    6.36    3.95
 -10   1  11  108.77   12.28
 -10  -1  11  120.52   12.78
 -10  -2  -8   49.07    6.63
 -10  -2  -7   49.23    6.31
 -10  -2  -6   54.28    6.59
 -10  -2  -5  265.18   13.25
 -10   2  -5  265.25   14.79
  10   2  -5  268.66   14.99
 -10  -2  -4  110.02    8.08
 -10   2  -4   95.11    8.63
  10  -2  -4  103.98    9.75
  10   2  -4  111.28    9.06
  10  -2  -3   59.17    8.20
  10   2  -3   48.70    6.68
 -10   2  -3   66.20    7.37
 -10  -2  -3   66.04    6.57
 -10   2  -2  102.36    8.24
  10   2  -2   98.16    8.03
  10  -2  -2   93.23    8.90
 -10  -2  -2  103.20    7.71
 -10   2  -1  380.00   17.25
  10  -2  -1  373.77   17.08
 -10  -2  -1  393.45   16.98
 -10  -2  -1  364.86   14.58
 -10   2  -1  386.69   15.80
 -10   2   0  724.29   25.24
 -10  -2   0  709.35   23.73
  10  -2   0  715.11   22.59
 -10  -2   0  749.27   22.58
 -10   2   0  724.65   22.78
  10  -2   1  437.27   16.90
 -10   2   1  437.20   16.72
 -10   2   1  429.26   18.54
 -10  -2   1  392.10   16.87
 -10   2   2  108.79    8.23
  10  -2   2  117.36    8.54
  10   2   3   54.63    6.08
 -10   2   3   60.49    6.32
  10  -2   3   69.40    7.29
 -10   2   4  111.76    8.45
  10   2   4  101.46    7.30
  10  -2   4   95.05    8.28
  10   2   5  237.43   11.81
  10  -2   5  240.35   13.46
  10  -2   6   59.97    7.39
  10   2   6   49.37    5.75
  10  -2   7   53.93    7.47
  10   2   7   45.38    5.79
  10  -2   8   50.01    7.64
  10   2   8   47.21    6.13
  10  -2   9    6.98    3.99
  10   2   9    6.11    3.52
  10  -2  10   28.90    7.22
  10  -2  11    5.91    5.06
 -10  -2  11   13.14    6.68
 -10  -3  -7  276.72   14.02
 -10  -3  -6   78.56    7.42
 -10  -3  -5 1240.32   33.90
  10   3  -5 1274.80   37.37
 -10  -3  -4  167.43    9.80
 -10   3  -4  166.85   11.29
  10  -3  -4  176.06   12.69
  10   3  -4  181.13   11.18
  10  -3  -3  738.48   26.70
  10   3  -3  692.62   23.16
 -10   3  -3  731.35   24.79
 -10  -3  -3  705.27   22.10
  10  -3  -2   97.47    8.94
  10   3  -2   84.58    7.00
 -10   3  -2   85.38    7.46
 -10   3  -2   91.64    8.70
 -10  -3  -2  100.79    7.21
 -10   3  -1 1428.29   39.31
 -10   3  -1 1405.55   36.87
 -10  -3  -1 1379.97   34.95
  10  -3  -1 1360.22   39.38
 -10  -3   0  463.78   18.07
 -10  -3   0  452.33   16.58
  10  -3   0  435.81   17.14
 -10   3   0  476.28   17.65
 -10   3   0  469.43   19.53
  10  -3   1 1428.92   37.54
 -10   3   1 1493.77   37.38
 -10   3   1 1504.97   40.75
 -10  -3   1 1359.59   37.06
 -10   3   2   73.34    6.96
  10  -3   2   92.93    7.73
 -10   3   3  693.23   22.56
  10  -3   3  646.95   22.83
  10   3   4  144.90    8.57
 -10   3   4  165.63   10.21
  10  -3   4  167.08   11.13
 -10   3   5 1274.29   35.47
  10   3   5 1270.69   33.20
  10  -3   5 1298.32   37.70
  10  -3   6   90.56    9.09
  10   3   6   93.12    7.35
  10   3   7  267.06   13.08
  10  -3   7  248.99   15.52
  10  -3   8   23.04    5.14
  10   3   8   18.30    4.29
  10  -3   9  539.14   25.55
  10  -3  10   13.01    5.84
 -10  -3  10    8.38    4.25
  10  -3  11  226.23   17.48
 -10  -4  -7   10.45    3.28
 -10  -4  -6  707.86   22.90
  10   4  -5   -2.31    2.59
 -10  -4  -5    5.27    2.89
  10   4  -4 1173.07   33.39
 -10  -4  -4 1181.04   31.34
  10   4  -3  403.13   16.26
 -10   4  -3  454.19   19.01
  10  -4  -3  444.08   20.55
 -10  -4  -3  409.15   15.69
  10  -4  -2 1150.73   35.28
  10   4  -2 1135.49   30.37
 -10   4  -2 1168.73   33.23
 -10  -4  -2 1079.49   29.73
 -10   4  -2 1139.79   34.38
 -10   4  -1   93.24    9.04
 -10   4  -1   80.81    7.72
  10  -4  -1   91.19    8.99
  10  -4  -1   81.39    7.56
 -10  -4  -1   92.90    7.13
 -10  -4   0 2576.11   58.43
 -10   4   0 2576.34   61.71
  10  -4   0 2589.23   58.96
 -10   4   0 2619.39   59.13
 -10  -4   1   84.25    7.46
  10  -4   1   76.72    7.94
 -10   4   1   76.00    7.31
 -10   4   2 1110.72   31.33
  10  -4   2 1130.41   32.53
 -10   4   3  478.08   18.24
  10  -4   3  489.66   19.66
 -10   4   4 1117.59   31.69
  10  -4   4 1074.12   33.67
  10  -4   5    4.52    3.72
 -10   4   5    3.16    2.47
  10   4   6  763.51   22.90
 -10   4   6  785.33   26.36
  10  -4   6  747.97   28.40
  10  -4   7   12.89    5.16
  10   4   7    5.04    2.36
  10   4   8  435.29   17.08
  10  -4   8  427.66   22.13
  10  -4   9   21.82    6.19
 -10  -4  10  315.94   21.47
  10  -4  10  319.13   20.56
  10   5  -6   17.27    4.83
 -10  -5  -6   18.23    3.59
  10   5  -5  145.52   10.27
 -10  -5  -5  120.54    7.94
  10   5  -4   19.93    3.83
 -10  -5  -4   17.27    3.34
  10  -5  -3  243.09   14.91
  10   5  -3  213.30   10.79
 -10   5  -3  231.05   14.18
 -10   5  -3  215.17   13.27
 -10  -5  -3  212.16   10.52
  10  -5  -2  354.20   17.98
 -10   5  -2  338.95   17.16
 -10   5  -2  361.82   16.54
 -10  -5  -2  330.49   13.82
 -10   5  -1  266.08   14.86
  10  -5  -1  297.83   16.05
 -10   5  -1  296.81   14.35
 -10  -5  -1  261.51   12.20
  10  -5  -1  282.07   13.78
 -10   5   0  573.28   20.66
 -10  -5   0  566.87   19.71
  10  -5   0  567.75   20.85
 -10   5   0  568.10   22.47
  10  -5   1  245.63   13.13
 -10   5   1  241.04   12.51
 -10  -5   1  254.19   11.97
  10  -5   2  301.14   15.48
 -10   5   2  322.79   14.42
 -10   5   3  221.33   11.85
  10  -5   3  198.38   12.47
  10  -5   4   37.20    6.14
 -10   5   4   24.65    4.38
 -10   5   5  134.98    9.63
  10  -5   5  140.21   11.40
  10  -5   6   23.05    5.68
 -10   5   6   19.85    4.57
  10  -5   7  207.16   15.12
 -10   5   7  224.05   13.36
  10  -5   8   45.10    7.67
  10  -5   9   55.68    8.91
  10  -5  10   17.03    5.70
  10   6  -6  316.40   15.82
 -10  -6  -6  289.04   12.07
  10   6  -5   20.65    3.62
 -10  -6  -5   26.70    3.88
  10   6  -4  502.97   18.05
 -10  -6  -4  492.40   16.98
 -10   6  -3  171.18   11.82
  10   6  -3  157.79    8.64
 -10  -6  -3  154.40    8.77
  10  -6  -2   82.68    8.75
 -10   6  -2   71.93    7.89
 -10  -6  -2   62.00    6.04
 -10   6  -2   75.98    8.38
  10  -6  -1   89.16    9.52
 -10   6  -1   70.21    8.29
 -10   6  -1   90.54    8.12
  10  -6  -1   81.39    8.07
 -10  -6   0  640.85   20.69
 -10   6   0  667.15   23.07
  10  -6   0  630.60   22.73
 -10   6   0  657.00   24.52
 -10   6   1   80.74    7.82
 -10  -6   1   91.78    7.00
  10  -6   1   91.69    8.32
  10  -6   2   76.59    8.04
 -10   6   2   89.69    7.58
 -10   6   3  199.02   11.22
  10  -6   3  182.83   12.42
 -10   6   4  474.35   18.61
  10  -6   4  459.51   21.04
  10  -6   5   34.05    6.45
 -10   6   5   26.00    4.63
  10  -6   6  333.49   18.95
 -10   6   6  319.44   15.54
  10  -6   7   19.70    6.24
  10  -6   8   53.39    8.48
  10  -6   9   16.72    6.80
 -10  -6   9   19.67    6.97
  10   7  -6   36.75    5.75
  10   7  -5 1268.82   33.44
 -10  -7  -5 1183.94   30.02
 -10  -7  -4   11.96    2.48
  10   7  -4   15.54    3.09
 -10   7  -4   15.11    4.65
 -10   7  -3  950.18   32.09
 -10  -7  -3  965.62   26.54
 -10   7  -2  184.33   12.40
  10  -7  -2  179.99   11.25
 -10  -7  -2  163.36    9.46
 -10   7  -1 1018.79   32.62
  10  -7  -1 1085.46   35.02
  10  -7  -1  987.99   30.82
 -10   7  -1 1023.19   31.98
 -10  -7   0  113.67    7.55
 -10   7   0  121.30    9.20
  10  -7   0  125.45    9.69
 -10   7   0  115.45    9.91
 -10   7   1 1105.73   32.15
  10  -7   1 1020.39   32.58
 -10   7   2  176.77   11.01
  10  -7   2  179.22   12.44
  10  -7   3  881.21   30.95
 -10   7   3  947.12   28.59
 -10   7   4   29.06    4.64
  10  -7   4   21.79    4.54
 -10   7   5 1333.34   36.70
  10  -7   5 1292.44   41.64
  10  -7   6   21.26    5.97
 -10   7   6   27.66    4.88
  10  -7   7  495.16   25.19
  10  -7   8    9.59    5.22
  10  -7   9  264.05   19.36
  10   8  -5   40.34    4.93
 -10  -8  -5   47.37    4.29
 -10   8  -4  746.46   28.57
 -10  -8  -4  746.83   21.55
 -10   8  -3   91.56    9.26
 -10  -8  -3   85.55    6.87
 -10   8  -2 1031.22   33.06
  10  -8  -2 1017.18   31.14
 -10  -8  -2  960.21   27.55
  10  -8  -1  117.58   10.72
 -10  -8  -1  127.77    8.59
  10  -8  -1  116.94    9.86
 -10   8  -1  105.42    9.77
 -10  -8   0  583.24   18.25
 -10   8   0  558.22   22.09
  10  -8   0  559.92   22.43
 -10   8   1  126.36    9.66
  10  -8   1  126.42   10.36
 -10   8   2  966.72   30.08
  10  -8   2 1006.78   32.96
 -10   8   3   95.66    8.57
  10  -8   3   94.50   10.06
  10  -8   4  779.34   30.23
 -10   8   4  826.15   26.53
 -10   8   5   51.11    6.17
  10  -8   5   51.58    7.89
  10  -8   6  278.76   18.20
  10  -8   7   54.58    9.63
  10  -8   8  355.71   22.82
 -10  -8   8  393.94   23.76
 -10   9  -5   32.54    6.54
 -10   9  -4   55.79    7.71
 -10  -9  -4   59.63    5.08
 -10   9  -3   35.34    5.71
 -10  -9  -3   44.68    4.73
 -10   9  -2  123.51   10.39
 -10  -9  -2  117.77    8.00
  10  -9  -2  116.07    9.47
 -10  -9  -1  193.50   10.02
  10  -9  -1  150.52   11.03
 -10   9  -1  169.19   11.97
 -10  -9   0   50.68    4.39
  10  -9   0   38.38    5.90
 -10   9   1  139.56   10.33
  10  -9   1  134.97   10.88
 -10   9   2   99.64    8.58
  10  -9   2  104.25   10.10
  10  -9   3   51.48    7.82
 -10   9   3   70.04    7.24
 -10   9   4   90.98    8.17
  10  -9   4   87.12   10.11
  10  -9   5   22.19    5.84
 -10   9   5   22.81    4.41
  10  -9   6   54.29    9.22
 -10  -9   7   25.23    7.51
  10  -9   7   20.19    6.30
  10  -9   8    9.09    5.52
 -10  10  -6  118.57   11.90
 -10  10  -5   20.65    5.05
 -10  10  -4  501.27   22.89
 -10  10  -3  121.84   10.74
 -10 -10  -3  115.17    7.68
 -10 -10  -2  173.97    9.93
  10 -10  -2  175.59   11.96
 -10  10  -2  167.19   12.35
 -10 -10  -1   34.26    4.40
  10 -10  -1   25.04    5.21
 -10 -10   0  179.34    7.42
  10 -10   0  159.63   12.02
  10 -10   1   23.66    5.56
  10 -10   2  162.33   12.76
 -10  10   3  140.00   10.34
  10 -10   3  140.85   12.44
 -10  10   4  512.58   20.51
  10 -10   4  467.31   23.92
  10 -10   5   17.53    5.91
  10 -10   6  124.43   13.11
 -10 -10   6  104.72   12.08
  10 -10   7   79.77   11.55
 -10 -10   7   70.06   11.35
 -10  11  -8   36.32    7.49
 -10  11  -7  275.27   18.67
 -10  11  -6  109.11   11.52
 -10  11  -5  208.54   14.84
 -10  11  -4   22.99    5.13
 -10  11  -3  613.65   25.32
 -10  11  -2   66.46    8.39
  10 -11  -2   69.69    8.47
 -10 -11  -1  779.94   20.80
  10 -11  -1  680.71   26.87
  10 -11   0   -2.18    3.79
  10 -11   1  697.86   27.94
  10 -11   2   75.68    9.52
  10 -11   3  668.25   28.94
  10 -11   4   44.46    8.13
 -10 -11   5  251.05   17.99
  10 -11   5  247.18   18.04
  10 -11   6  112.89   13.85
 -10 -11   6  138.38   14.14
 -10  12  -6  130.22   12.34
 -10  12  -5   74.41    9.28
 -10  12  -4   71.29    8.78
 -10  12  -3   23.80    5.02
 -10 -12  -2  369.58   15.49
  10 -12  -2  303.07   16.99
 -10 -12  -1   26.64    5.42
  10 -12  -1   14.42    4.90
  10 -12   0  388.59   19.95
  10 -12   1   16.01    5.50
 -10 -12   2  366.32   19.76
  10 -12   2  340.35   20.00
  10 -12   3   32.96    7.17
 -10 -12   3   33.82    7.17
  10 -12   4   73.48   10.23
 -10 -12   4   69.30    9.78
 -10 -12   5   87.15   11.79
  10 -12   5   66.74    9.95
 -10 -12   6  156.15   15.09
 -10  13  -4   19.65    5.44
  10 -13  -2   21.92    5.62
  10 -13  -1   54.98    7.83
 -10 -13  -1   53.37    6.65
 -10 -13   0    7.77    4.25
  10 -13   0    6.30    4.07
  10 -13   1   57.95    8.75
 -10 -13   1   49.72    7.23
  10 -13   2   14.92    4.53
 -10 -13   2   22.84    5.99
  10 -13   3   33.24    7.33
 -10 -13   3   26.27    6.33
  10 -13   4   17.21    5.34
 -10 -13   4   13.60    5.12
  10 -13   5   34.59    7.82
 -10 -13   5   34.86    7.64
  10 -14  -2  147.80   12.05
  10 -14  -1   57.64    8.56
 -10 -14   0  317.97   17.35
  10 -14   0  291.57   18.23
 -10 -14   1   44.67    7.54
  10 -14   1   65.33    9.41
 -10 -14   2  158.03   13.74
  10 -14   2  140.60   13.24
  10 -14   3   71.89   10.72
 -10 -14   3   56.35    9.25
 -10 -14   4  269.17   19.24
  10 -14   4  270.87   19.76
  10 -15  -1  245.15   16.38
  10 -15   0  100.94   11.00
  10 -15   1  226.49   17.11
 -10 -15   1  266.33   17.30
  10 -15   2   52.48    9.43
 -10 -15   2   48.02    8.82
 -10 -15   3  200.81   16.61
  10 -15   3  201.94   16.90
  10 -16   0   16.52    5.59
  10 -16   1   37.64    7.68
 -10 -16   2   76.61   10.31
  10 -16   2   90.48   11.60
 -10 -16   3   10.33    4.80
 -11   0  -6   32.89    6.12
 -11   0  -5   85.72    9.15
  11   0  -4   12.53    4.38
 -11   0  -4   15.79    3.83
  11   0  -3   93.14   10.03
 -11   0  -3  106.62    8.94
 -11   0  -2   14.44    4.15
  11   0  -2   18.29    4.61
 -11   0  -1   77.46    9.29
  11   0  -1   71.01    8.30
 -11   0  -1   82.84    7.44
 -11   0   0   -0.98    2.86
 -11   0   0    5.92    2.69
 -11   0   1   74.75    7.86
 -11   0   1  101.21    9.69
 -11   0   2   20.15    4.29
  11   0   2   14.26    3.95
  11   0   3  100.50    8.18
  11   0   4    8.56    3.23
  11   0   5   85.07    8.77
  11   0   6   28.90    6.08
  11   0   7   19.54    5.29
  11   0   8    1.73    3.40
  11   0   9   16.52    5.15
  11   0  10    8.56    4.71
 -11   0  11   -0.88    4.02
 -11  -1  -6  190.72   12.49
 -11  -1  -5  257.46   13.82
 -11   1  -5  239.42   14.16
  11   1  -5  251.61   15.21
  11   1  -4  202.22   12.95
 -11  -1  -4  194.82   11.51
 -11   1  -4  184.32   11.73
  11  -1  -4  209.64   13.69
  11  -1  -3  955.02   31.70
  11   1  -3  963.55   30.50
 -11   1  -3  970.60   29.69
 -11  -1  -3  952.46   28.61
  11  -1  -2  110.06    9.25
  11   1  -2  105.83    8.82
 -11  -1  -2  104.30    8.13
 -11   1  -2  108.18    8.42
 -11   1  -1  234.92   13.66
 -11  -1  -1  248.43   13.68
  11  -1  -1  233.94   13.26
 -11  -1  -1  225.11   11.61
 -11   1  -1  236.41   12.06
 -11   1   0  725.92   26.01
 -11  -1   0  722.71   25.37
 -11  -1   0  753.73   23.65
 -11   1   0  752.65   24.01
  11  -1   1  139.91    9.18
 -11  -1   1  160.97    9.71
 -11   1   1  146.91    9.42
 -11   1   1  129.67   10.22
 -11  -1   1  132.92   10.14
 -11   1   2   90.74    7.50
  11  -1   2   84.41    7.34
  11   1   2   74.69    6.63
 -11   1   3  919.29   27.69
  11   1   3  859.70   26.25
  11  -1   3  867.75   26.95
  11   1   4  201.58   11.18
  11  -1   4  212.76   12.04
  11   1   5  240.10   12.55
  11  -1   5  226.75   13.08
  11   1   6  198.71   11.94
  11  -1   6  208.50   13.17
  11   1   7  985.08   31.18
  11  -1   7  990.49   32.85
  11  -1   8   37.30    6.69
  11   1   8   38.74    5.95
  11  -1   9  104.65   10.61
  11   1   9   97.26    9.46
  11  -1  10  116.09   11.72
 -11  -1  11   73.43   11.24
 -11   1  11   76.76   10.69
 -11  -2  -7  210.18   13.16
 -11  -2  -6  754.27   26.21
 -11  -2  -5  257.56   13.82
  11   2  -5  281.68   16.13
  11   2  -4  311.57   15.89
 -11  -2  -4  305.12   14.41
 -11   2  -4  321.84   15.95
  11  -2  -3  339.72   17.88
  11   2  -3  376.75   16.90
 -11   2  -3  388.31   17.03
 -11  -2  -3  355.12   15.54
 -11   2  -2 1809.13   45.70
  11  -2  -2 1795.63   48.27
  11   2  -2 1775.39   45.34
 -11   2  -2 1868.15   48.74
 -11  -2  -2 1799.40   43.98
 -11   2  -1  617.36   23.41
 -11  -2  -1  564.34   21.85
  11  -2  -1  604.26   23.22
 -11  -2  -1  578.24   20.18
 -11   2  -1  584.28   20.88
 -11   2   0  315.66   16.00
 -11  -2   0  279.46   14.45
  11  -2   0  289.87   13.73
 -11  -2   0  300.68   13.61
 -11   2   0  302.90   14.07
 -11  -2   1  562.11   19.97
  11  -2   1  539.02   19.88
 -11   2   1  558.13   20.18
 -11   2   1  564.99   22.36
 -11  -2   1  524.35   20.78
 -11   2   2 1720.38   42.81
  11  -2   2 1613.03   42.23
  11   2   3  346.17   14.41
 -11   2   3  354.10   15.79
  11  -2   3  330.84   15.34
 -11   2   4  313.58   14.83
  11   2   4  293.31   13.42
  11  -2   4  289.74   14.74
  11   2   5  258.92   12.91
  11  -2   5  238.42   14.21
  11   2   6  751.74   25.07
  11  -2   6  755.66   27.54
  11   2   7  247.10   13.48
  11  -2   7  239.40   14.96
  11   2   8  468.87   19.79
  11  -2   8  419.99   21.44
  11  -2   9   98.79   10.53
  11   2   9  118.90    9.86
  11  -2  10  168.63   14.63
  11  -2  11   69.75    9.41
 -11  -3  -7    7.89    2.94
 -11  -3  -6   99.42    8.37
  11   3  -5   62.43    7.74
 -11  -3  -5   58.83    6.89
  11   3  -4  223.33   13.64
 -11  -3  -4  228.75   12.82
  11  -3  -3  104.22    9.58
  11   3  -3  115.00    8.75
 -11   3  -3  112.75    9.14
 -11  -3  -3  119.44    8.24
  11  -3  -2  386.03   18.80
 -11   3  -2  409.09   17.64
 -11   3  -2  433.72   19.30
  11   3  -2  398.09   16.61
 -11  -3  -2  414.10   16.22
 -11   3  -1 1035.15   33.19
  11  -3  -1 1074.79   33.99
 -11  -3  -1 1098.36   32.56
 -11  -3  -1 1056.71   29.98
 -11   3  -1 1096.76   31.49
 -11   3   0   16.63    4.02
 -11   3   0   18.52    4.70
 -11  -3   0   18.54    4.20
 -11  -3   0   19.10    3.79
  11  -3   0    8.50    3.54
  11  -3   1 1132.97   32.18
 -11   3   1 1144.42   32.00
 -11   3   1 1101.98   34.65
 -11  -3   1 1070.65   32.27
  11  -3   2  358.50   16.52
 -11   3   2  380.38   16.35
 -11   3   3  135.83    9.40
  11  -3   3  116.54    9.31
 -11   3   4  210.55   12.83
  11  -3   4  214.87   14.02
  11  -3   5   59.97    7.48
  11   3   5   66.19    6.38
 -11   3   5   67.93    7.25
  11   3   6  102.23    8.07
  11  -3   6  111.37   10.17
  11  -3   7    5.69    3.72
  11   3   7    6.44    3.17
  11  -3   8   54.46    8.34
  11   3   8   69.48    7.37
  11  -3   9   83.52   10.33
  11  -3  10   53.00    8.83
  11  -3  11   68.76   10.25
 -11  -4  -7   12.29    3.51
 -11  -4  -6  294.58   14.29
  11   4  -6  324.55   17.26
  11   4  -5   60.82    7.18
 -11  -4  -5   53.36    6.56
 -11  -4  -4   99.11    7.64
  11   4  -4   99.75    8.46
 -11  -4  -3   53.20    5.64
  11   4  -3   48.01    5.63
 -11   4  -3   43.00    6.05
  11  -4  -2  538.98   22.95
 -11   4  -2  503.10   22.15
 -11   4  -2  566.75   21.47
 -11  -4  -2  531.26   19.01
  11  -4  -1   83.47    9.22
 -11   4  -1   89.21    8.27
 -11   4  -1   97.22    9.78
 -11  -4  -1  107.51    9.06
  11  -4  -1   97.59    8.62
 -11  -4  -1   94.69    7.60
 -11   4   0  171.15   11.95
 -11  -4   0  156.47   10.21
 -11  -4   0  165.96    9.93
  11  -4   0  149.64   10.17
 -11   4   0  161.45   10.39
  11  -4   1   98.48    9.19
 -11   4   1   86.55    8.29
 -11  -4   1   94.51    8.62
  11  -4   2  439.84   18.65
 -11   4   2  461.80   18.46
 -11   4   3   53.29    6.12
  11  -4   3   53.77    6.69
 -11   4   4   98.24    8.17
  11  -4   4  102.80    9.05
  11  -4   5   54.19    7.26
 -11   4   5   54.66    6.59
  11   4   6  322.75   14.03
  11  -4   6  305.48   17.47
  11  -4   7   16.60    5.85
  11   4   7   14.41    3.93
  11  -4   8   77.42    9.48
  11   4   8  102.02    8.09
  11  -4   9    7.57    4.60
  11  -4  10    6.99    4.58
 -11  -5  -6  307.19   14.06
  11   5  -6  337.53   17.47
  11   5  -5  561.79   21.66
 -11  -5  -5  527.67   19.11
  11   5  -4  284.30   14.01
 -11  -5  -4  256.90   12.69
  11   5  -3  677.50   22.24
 -11   5  -3  678.89   26.54
 -11  -5  -3  699.68   22.32
  11  -5  -2  387.29   19.40
 -11   5  -2  341.84   17.81
 -11   5  -2  366.28   17.30
 -11  -5  -2  363.49   15.06
 -11   5  -1 1637.45   45.18
  11  -5  -1 1650.94   46.59
 -11   5  -1 1709.03   44.07
 -11  -5  -1 1647.68   42.84
  11  -5  -1 1542.17   42.21
 -11  -5  -1 1606.45   40.73
 -11   5   0  125.95    9.30
 -11  -5   0  123.60    8.78
  11  -5   0  124.43    9.28
 -11   5   0  128.84   10.44
  11  -5   1 1493.89   40.92
 -11   5   1 1527.95   40.43
 -11  -5   1 1537.90   39.25
  11  -5   2  326.05   16.19
 -11   5   2  358.13   15.87
 -11   5   3  698.78   23.94
  11  -5   3  678.01   25.32
 -11   5   4  274.28   14.22
  11  -5   4  257.95   15.33
 -11   5   5  538.84   21.13
  11  -5   5  544.85   23.61
  11  -5   6  308.22   18.00
  11  -5   7  512.72   24.82
  11  -5   8  100.41   11.13
  11  -5   9  215.75   17.01
  11  -5  10   90.61   11.72
 -11  -6  -6  218.26   11.02
  11   6  -6  223.10   13.39
  11   6  -5  417.28   17.83
 -11  -6  -5  397.48   15.75
  11   6  -4  230.04   11.97
 -11  -6  -4  219.83   11.23
 -11   6  -3  288.06   16.55
 -11  -6  -3  275.25   12.81
 -11   6  -2  652.18   25.76
 -11  -6  -2  679.84   22.01
 -11   6  -1  336.95   17.43
  11  -6  -1  347.43   18.57
 -11  -6  -1  353.12   15.82
 -11   6  -1  334.93   16.60
 -11  -6  -1  314.79   14.35
  11  -6  -1  336.06   16.36
 -11  -6   0 2549.21   58.08
 -11   6   0 2637.78   61.17
  11  -6   0 2524.88   60.82
 -11   6   0 2486.16   62.76
 -11   6   1  327.54   16.07
 -11  -6   1  348.61   14.67
  11  -6   1  328.94   16.50
  11  -6   2  725.86   26.34
 -11   6   2  746.63   25.17
  11  -6   3  271.87   15.63
 -11   6   3  280.74   14.41
 -11   6   4  297.06   14.86
  11  -6   4  270.64   16.16
 -11   6   5  401.54   17.93
  11  -6   5  402.01   20.83
  11  -6   6  187.29   14.33
  11  -6   7  107.82   11.72
  11  -6   8  201.12   16.31
  11  -6   9  108.44   12.67
  11   7  -5   41.80    5.31
 -11  -7  -5   37.16    4.63
  11   7  -4   76.47    6.41
 -11   7  -4   87.82    9.58
 -11  -7  -4   78.52    6.63
 -11   7  -3  136.72   11.47
 -11  -7  -3  135.07    8.62
 -11   7  -2   61.75    7.86
  11  -7  -2   58.74    7.21
 -11  -7  -2   52.26    5.98
 -11   7  -1   37.13    6.52
 -11  -7  -1   46.61    5.79
  11  -7  -1   52.56    6.64
 -11  -7   0  192.22   10.73
  11  -7   0  184.43   12.38
 -11   7   0  181.42   13.40
 -11   7   1   38.97    5.72
  11  -7   1   45.24    6.33
 -11   7   2   59.37    7.14
  11  -7   2   61.73    8.03
  11  -7   3  117.91   10.68
 -11   7   3  108.40    8.98
  11  -7   4   79.29    9.58
 -11   7   4   91.61    8.35
  11  -7   5   26.23    6.68
 -11   7   5   33.09    5.08
  11  -7   6   53.18    8.91
  11  -7   7    4.82    3.72
  11  -7   8   40.26    7.71
 -11   8  -5   99.08   10.51
 -11   8  -4  235.47   15.22
 -11  -8  -4  208.60   10.62
 -11   8  -3   42.39    6.96
 -11  -8  -3   45.38    5.10
 -11   8  -2  418.29   20.24
  11  -8  -2  413.34   18.64
 -11  -8  -2  411.58   16.43
 -11  -8  -1   81.66    7.15
 -11   8  -1   74.06    8.63
  11  -8  -1   77.54    8.14
 -11  -8   0  442.32   16.06
  11  -8   0  361.41   18.04
  11  -8   1   55.82    7.28
 -11   8   2  420.21   18.46
  11  -8   2  363.05   18.94
  11  -8   3   32.47    5.88
 -11   8   3   34.86    5.48
  11  -8   4  300.08   17.85
 -11   8   4  269.89   14.47
  11  -8   5   94.15   11.09
 -11   8   5   94.21    8.59
  11  -8   6  181.77   15.06
  11  -8   7   48.47    8.22
 -11  -8   8   85.40   11.53
  11  -8   8   91.56   11.86
 -11   9  -6  132.27   12.88
 -11   9  -5  170.86   13.72
 -11   9  -4  219.09   15.07
 -11   9  -3  542.40   23.86
 -11  -9  -3  524.99   18.62
 -11   9  -2  242.74   15.14
  11  -9  -2  241.85   14.30
 -11  -9  -2  240.63   12.07
 -11  -9  -1  881.24   25.53
  11  -9  -1  776.56   28.29
 -11   9  -1  741.21   28.99
  11  -9   0  195.55   13.70
 -11  -9   0  223.89   10.51
  11  -9   1  831.41   30.06
  11  -9   2  258.08   16.07
  11  -9   3  572.26   25.40
 -11   9   4  229.23   13.52
  11  -9   4  213.96   15.74
  11  -9   5  140.77   13.45
  11  -9   6   98.55   11.32
  11  -9   7  358.60   22.54
 -11  10  -7   68.51   10.01
 -11  10  -6  250.33   17.47
 -11  10  -5   99.01   10.63
 -11  10  -4  335.76   18.87
 -11  10  -3  156.94   12.70
 -11 -10  -2  207.14   11.42
  11 -10  -2  204.40   13.33
 -11  10  -2  232.00   15.19
 -11 -10  -1  200.64   10.49
  11 -10  -1  166.92   12.48
  11 -10   0  235.11   15.12
 -11 -10   0  283.02   10.59
  11 -10   1  188.67   14.22
  11 -10   2  183.81   13.71
  11 -10   3  176.06   14.00
  11 -10   4  347.81   20.75
  11 -10   5  116.74   12.45
  11 -10   6  269.84   19.65
  11 -10   7   72.99   10.69
 -11 -10   7   54.03    9.71
 -11  11  -8   18.15    6.69
 -11  11  -7   14.32    6.39
 -11  11  -6    1.38    4.21
 -11  11  -5   46.74    7.78
 -11  11  -4   44.71    7.28
 -11  11  -3  182.13   13.66
 -11  11  -2    8.01    4.68
  11 -11  -2    8.87    3.65
 -11 -11  -1    5.56    2.08
  11 -11  -1   -1.63    3.60
  11 -11   0    6.03    3.53
  11 -11   1    0.69    3.10
  11 -11   2   15.60    5.32
  11 -11   3  177.64   14.49
  11 -11   4   61.28    9.21
  11 -11   5   42.68    8.21
 -11 -11   5   47.04    8.31
  11 -11   6    0.72    4.70
 -11 -11   6   -1.77    3.97
 -11  12  -6  220.92   16.65
 -11  12  -5   24.03    5.59
 -11  12  -4  121.37   11.57
 -11  12  -3   30.19    6.77
  11 -12  -2  273.67   16.52
  11 -12  -1   81.96    9.31
  11 -12   0  116.85   10.94
  11 -12   1   94.31   10.29
  11 -12   2  273.34   17.88
  11 -12   3   19.03    6.34
  11 -12   4   83.59   11.34
 -11 -12   4   98.37   12.20
  11 -12   5   22.66    7.29
 -11 -12   5   23.94    6.87
 -11  13  -4   68.52    9.03
  11 -13  -2   55.49    7.71
 -11 -13  -1  186.21   12.18
  11 -13  -1  134.28   12.20
 -11 -13   0  196.04   13.49
  11 -13   0  155.46   13.48
 -11 -13   1  133.68   12.00
  11 -13   1  165.30   14.05
 -11 -13   2   63.03    8.73
  11 -13   2   52.78    8.71
 -11 -13   3  279.35   19.10
  11 -13   3  251.16   18.64
  11 -13   4   75.04   11.05
 -11 -13   4   99.31   12.09
 -11 -13   5  461.72   26.62
  11 -14  -2   14.15    4.93
  11 -14  -1   22.10    5.95
 -11 -14   0   68.67    8.46
  11 -14   0   63.24    8.76
 -11 -14   1   16.65    4.71
  11 -14   1   19.62    5.86
 -11 -14   2   24.19    5.94
  11 -14   2   13.36    4.93
  11 -14   3   28.49    7.06
 -11 -14   3   44.38    9.00
 -11 -14   4  196.33   16.68
  11 -15  -1   43.36    8.20
  11 -15   0   40.01    7.79
  11 -15   1   33.57    7.41
 -11 -15   1   37.97    7.11
  11 -15   2    4.85    4.12
 -11 -15   2    9.92    5.34
 -11 -15   3   18.30    6.10
  11 -16   0  155.78   14.17
  11 -16   1   42.73    8.43
 -11 -16   2  109.04   12.53
 -12   0  -5  208.83   13.13
  12   0  -4  752.42   28.32
 -12   0  -4  747.54   26.31
 -12   0  -3  375.38   16.95
  12   0  -3  390.48   18.57
  12   0  -2  541.45   21.80
 -12   0  -2  505.79   19.65
 -12   0  -1 1067.66   34.01
 -12   0  -1 1066.33   31.08
 -12   0   0  262.67   14.73
 -12   0   0  287.53   13.97
 -12   0   1 1063.48   30.82
 -12   0   1  996.32   33.05
  12   0   2  552.94   20.51
 -12   0   2  596.41   21.58
 -12   0   3  350.48   16.05
  12   0   3  324.96   15.14
  12   0   4  726.66   24.82
  12   0   5  214.47   12.58
  12   0   6  159.63   11.47
  12   0   7  365.46   18.16
  12   0   8  366.73   18.83
  12   0   9  213.62   14.61
  12   0  10  231.57   15.84
 -12  -1  -5  154.47   11.12
  12   1  -4  259.80   15.52
 -12  -1  -4  227.67   13.14
 -12   1  -4  254.53   14.58
  12  -1  -3  430.36   20.34
  12   1  -3  437.36   19.77
 -12   1  -3  439.83   19.04
 -12  -1  -3  417.21   17.94
  12  -1  -2  255.41   15.51
  12   1  -2  259.35   14.48
 -12   1  -2  276.31   16.54
 -12  -1  -2  272.96   13.91
 -12   1  -2  283.47   14.45
 -12   1  -1  225.04   14.02
 -12  -1  -1  236.65   13.91
  12  -1  -1  221.16   13.60
 -12  -1  -1  232.16   12.28
 -12   1  -1  226.90   12.42
 -12   1   0  189.66   12.73
 -12  -1   0  166.67   11.61
 -12  -1   0  163.23   10.20
 -12   1   0  175.96   10.91
  12  -1   1  224.11   11.96
 -12  -1   1  221.03   12.19
 -12   1   1  217.35   12.22
 -12   1   1  228.84   13.83
 -12  -1   1  203.95   13.11
 -12  -1   2  269.00   14.13
  12  -1   2  255.53   13.53
 -12   1   2  274.69   13.89
  12   1   3  404.08   16.86
 -12   1   3  419.11   18.02
  12  -1   3  409.51   17.85
  12   1   4  210.53   12.11
  12  -1   4  229.21   13.25
  12   1   5  160.98   10.71
  12  -1   5  165.78   11.72
  12   1   6   92.11    8.32
  12  -1   6   75.53    7.97
  12   1   7   72.48    7.99
  12  -1   7   63.54    7.77
  12   1   8  140.90   10.98
  12  -1   8  130.37   11.51
  12   1   9  126.37   10.76
  12  -1   9  123.31   11.85
  12  -1  10   42.24    7.77
 -12  -2  -6  117.00    9.88
 -12  -2  -5   27.92    5.05
  12   2  -4  127.96   11.45
 -12  -2  -4  131.30   10.13
 -12   2  -3   81.68    7.90
  12  -2  -3   81.47    8.74
  12   2  -3   67.67    7.74
 -12  -2  -3   74.64    7.55
 -12   2  -2  138.80   10.00
  12  -2  -2  137.31   10.97
 -12   2  -2  134.73   11.43
  12   2  -2  136.53   10.29
 -12  -2  -2  137.49    9.73
 -12   2  -1  340.39   17.67
 -12  -2  -1  351.89   17.34
  12  -2  -1  368.40   18.11
 -12  -2  -1  345.77   15.37
 -12   2  -1  362.80   16.34
 -12   2   0   56.75    7.57
 -12  -2   0   51.05    6.87
 -12  -2   0   59.84    6.59
 -12   2   0   58.56    6.59
 -12  -2   1  336.08   15.55
  12  -2   1  344.86   15.84
 -12   2   1  391.35   16.51
 -12   2   1  364.23   18.41
 -12  -2   1  352.21   17.17
  12  -2   2  154.40   10.39
 -12   2   2  136.53   10.04
 -12   2   3   72.13    7.55
  12  -2   3   74.55    7.59
  12   2   4  148.32   10.54
  12  -2   4  172.61   11.88
  12   2   5   25.64    4.61
  12  -2   5   25.92    4.98
  12   2   6  115.02    9.20
  12  -2   6  113.01   10.21
  12   2   7   11.69    3.63
  12  -2   7    5.29    4.24
  12  -2   8   28.57    6.37
  12   2   8   38.61    6.39
  12  -2   9   29.11    6.67
  12   2   9   37.70    5.85
  12  -2  10   42.06    8.03
 -12  -3  -7   45.53    6.26
 -12  -3  -6   99.98    8.89
  12   3  -5  227.83   14.37
 -12  -3  -5  222.48   12.84
  12   3  -4  271.27   14.92
 -12  -3  -4  273.34   13.85
  12   3  -3  389.96   17.56
 -12  -3  -3  380.38   16.39
  12  -3  -2  435.41   20.70
 -12   3  -2  441.98   19.30
 -12   3  -2  443.65   20.81
 -12  -3  -2  404.89   17.01
 -12   3  -1  537.04   22.97
 -12  -3  -1  527.79   21.55
  12  -3  -1  532.05   22.88
 -12  -3  -1  514.89   19.56
 -12   3  -1  562.67   21.14
 -12   3   0 1760.69   48.47
 -12  -3   0 1713.80   45.88
  12  -3   0 1713.05   44.61
 -12  -3   0 1754.29   44.42
 -12   3   0 1815.01   45.55
  12  -3   1  515.03   20.44
 -12   3   1  575.46   21.08
 -12   3   1  549.88   23.44
 -12  -3   1  540.28   21.57
  12  -3   2  467.15   19.80
 -12   3   2  471.14   19.25
 -12   3   3  405.96   17.63
  12  -3   3  366.61   17.33
 -12   3   4  277.57   14.63
  12  -3   4  250.13   14.38
  12   3   5  247.22   12.51
  12  -3   5  234.36   14.50
  12  -3   6   94.91    9.65
  12   3   6  103.23    8.34
  12  -3   7   30.53    6.59
  12   3   7   29.14    4.80
  12   3   8  435.50   18.76
  12  -3   8  399.24   21.87
  12  -3   9  210.61   16.13
  12  -3  10  142.85   13.94
 -12  -4  -6  181.24   11.48
  12   4  -5  601.87   23.96
 -12  -4  -5  581.22   21.73
 -12  -4  -4  625.12   22.22
  12   4  -4  637.73   23.60
  12   4  -3  477.78   19.30
 -12   4  -3  493.65   22.51
 -12  -4  -3  466.30   18.41
 -12   4  -2  679.26   26.66
 -12  -4  -2  672.42   22.87
 -12   4  -1  614.09   23.18
 -12   4  -1  637.27   25.21
 -12  -4  -1  607.41   23.25
  12  -4  -1  617.58   25.52
 -12  -4  -1  587.53   21.20
 -12   4   0  751.51   28.38
 -12  -4   0  774.45   26.48
 -12  -4   0  789.61   25.32
  12  -4   0  787.11   26.47
 -12   4   0  814.83   26.88
  12  -4   1  611.97   23.08
 -12   4   1  624.41   22.83
 -12  -4   1  639.95   23.33
  12  -4   2  615.89   23.38
 -12   4   2  606.29   22.76
 -12   4   3  477.77   19.49
  12  -4   3  423.51   19.47
 -12   4   4  670.69   24.30
  12  -4   4  649.18   25.51
  12  -4   5  570.08   24.06
  12  -4   6  209.74   14.54
  12   4   7  214.23   11.91
  12  -4   7  226.04   15.77
  12   4   8  176.41   10.95
  12  -4   8  179.96   15.01
  12  -4   9  221.52   16.89
  12  -4  10  132.50   13.99
  12   5  -6  178.86   12.90
 -12  -5  -6  160.15   10.52
  12   5  -5   14.49    3.71
 -12  -5  -5   13.23    3.67
  12   5  -4  127.07    9.65
 -12  -5  -4  116.96    8.53
 -12   5  -3  246.36   15.56
  12   5  -3  229.78   12.34
 -12  -5  -3  224.29   12.10
 -12   5  -2   46.15    7.43
 -12  -5  -2   63.06    6.40
 -12   5  -1  261.03   15.67
 -12  -5  -1  272.39   14.73
  12  -5  -1  259.92   14.13
 -12  -5  -1  244.31   12.96
 -12   5   0   28.39    5.59
 -12  -5   0   22.63    4.57
 -12   5   0   31.92    5.13
 -12  -5   0   37.09    5.09
  12  -5   0   33.27    5.78
  12  -5   1  219.09   13.32
 -12   5   1  206.05   12.80
 -12  -5   1  213.88   12.34
 -12   5   2   52.27    6.38
  12  -5   2   43.38    6.46
  12  -5   3  229.48   14.05
 -12   5   3  230.54   13.42
  12  -5   4  107.33   10.16
  12  -5   5   10.00    3.95
  12  -5   6  163.81   13.34
  12  -5   7  164.43   14.22
  12  -5   8   22.23    6.81
  12  -5   9   26.65    6.78
  12   6  -6  144.02   11.02
  12   6  -5  137.68   10.14
 -12  -6  -5  124.22    8.86
  12   6  -4  411.79   17.32
 -12   6  -4  457.69   22.29
 -12  -6  -4  396.18   16.54
 -12   6  -3  142.10   12.06
 -12  -6  -3  138.84    9.32
 -12   6  -2   92.76    9.49
 -12  -6  -2  104.67    8.18
 -12   6  -1  493.36   22.47
 -12  -6  -1  520.75   20.44
  12  -6  -1  484.90   20.33
 -12  -6  -1  474.70   18.84
 -12  -6   0   71.82    7.80
 -12   6   0   72.14    9.49
  12  -6   0   69.19    8.04
  12  -6   1  540.91   22.29
 -12  -6   1  567.25   20.45
  12  -6   2  108.06    9.72
 -12   6   2  108.92    9.11
  12  -6   3  109.00   10.43
 -12   6   3  113.65    9.25
  12  -6   4  359.98   19.06
  12  -6   5  137.44   12.13
  12  -6   6  143.68   12.86
  12  -6   7   94.66   11.07
  12  -6   8   32.09    7.73
  12  -6   9   90.31   11.56
  12   7  -5  450.82   18.38
 -12  -7  -5  402.42   16.31
 -12   7  -4  846.90   32.00
 -12  -7  -4  799.95   25.15
 -12   7  -3  735.09   28.93
 -12  -7  -3  716.53   23.61
 -12   7  -2  332.28   17.98
 -12  -7  -2  306.31   14.43
 -12   7  -1  114.92   10.53
 -12  -7  -1  117.59    9.32
 -12  -7  -1   96.91    8.24
  12  -7  -1  107.89    9.90
 -12  -7   0  648.75   22.30
  12  -7   0  644.04   24.81
 -12   7   0  628.67   26.07
  12  -7   1  100.51    9.72
  12  -7   2  280.93   16.19
  12  -7   3  631.57   26.18
  12  -7   4  831.06   31.41
  12  -7   5  417.48   21.92
  12  -7   6  399.94   22.30
  12  -7   7  315.28   20.48
  12  -7   8  260.69   19.36
 -12   8  -5  349.26   20.62
 -12   8  -4  176.61   13.89
 -12  -8  -4  158.79    9.65
 -12   8  -3  541.29   24.29
 -12  -8  -3  540.86   19.64
 -12   8  -2  289.58   17.03
  12  -8  -2  302.85   16.12
 -12  -8  -2  277.43   13.77
 -12  -8  -1  184.30   11.29
 -12  -8  -1  163.01   10.58
  12  -8  -1  174.53   12.53
 -12   8  -1  169.60   12.88
 -12  -8   0   31.38    4.61
  12  -8   0   30.52    5.86
  12  -8   1  143.84   11.71
  12  -8   2  261.78   16.00
  12  -8   3  553.94   24.88
  12  -8   4  167.38   13.69
  12  -8   5  342.79   20.73
  12  -8   6  205.36   16.47
  12  -8   7  218.88   17.47
 -12   9  -6   49.95    8.70
 -12   9  -5   11.15    5.30
 -12   9  -4   62.37    9.05
 -12   9  -3   91.40   10.17
 -12  -9  -3   95.08    7.58
 -12   9  -2  104.02   10.17
  12  -9  -2  110.13    9.88
 -12  -9  -2  105.49    8.34
 -12  -9  -1  101.69    8.06
 -12   9  -1   79.56    9.21
  12  -9  -1   73.07    8.15
  12  -9   0  132.60   11.21
 -12  -9   0  161.90    9.20
  12  -9   1   90.89    9.60
  12  -9   2   85.50    9.77
  12  -9   3   64.78    8.73
  12  -9   4   59.71    8.72
  12  -9   5    8.91    4.59
  12  -9   6   30.20    7.14
  12  -9   7   17.06    7.47
 -12  10  -8   68.71   11.11
 -12  10  -7  116.63   12.87
 -12  10  -6   76.30   10.73
 -12  10  -5  133.73   13.11
 -12  10  -4  211.68   15.50
 -12  10  -3  263.89   16.86
  12 -10  -2  242.81   15.16
 -12 -10  -2  230.29   12.77
 -12  10  -2  257.81   16.72
 -12 -10  -1  165.06    9.77
  12 -10  -1  138.18   11.90
 -12 -10   0    4.59    2.40
  12 -10   0   11.35    4.37
  12 -10   1  175.24   13.66
  12 -10   2  227.00   16.12
  12 -10   3  240.64   16.85
  12 -10   4  207.40   15.93
  12 -10   5  129.74   13.56
  12 -10   6   79.95   10.90
 -12  11  -7   73.80   10.57
 -12  11  -6  154.23   14.46
 -12  11  -5  118.03   12.05
 -12  11  -4  211.25   15.67
 -12  11  -3  221.18   15.65
 -12 -11  -2  607.38   21.23
  12 -11  -2  503.27   23.45
 -12  11  -2  531.08   24.85
  12 -11  -1  386.33   20.31
  12 -11   0  193.94   14.16
  12 -11   1  340.72   19.68
  12 -11   2  553.91   26.11
  12 -11   3  226.77   16.85
  12 -11   4  222.18   17.09
  12 -11   5  130.39   14.02
 -12 -11   6  165.83   16.43
 -12  12  -6   65.91    9.80
 -12  12  -5   23.39    5.83
 -12  12  -4   -2.14    3.82
 -12  12  -3  193.26   14.79
  12 -12  -2   46.93    7.08
  12 -12  -1  154.87   12.78
  12 -12   0  288.10   18.20
  12 -12   1  155.59   13.62
  12 -12   2   79.31   10.24
  12 -12   3  224.41   17.41
  12 -12   4   11.77    5.05
 -12 -12   5   43.44    8.42
 -12  13  -5   39.65    7.92
 -12  13  -4   39.86    7.89
  12 -13  -2    9.82    5.03
 -12 -13  -1    9.80    4.00
  12 -13  -1   13.81    4.99
  12 -13   0   32.56    7.36
  12 -13   1    0.01    4.13
 -12 -13   2   14.90    5.77
  12 -13   2   14.45    5.65
  12 -13   3   19.96    6.30
 -12 -13   3   44.49    8.59
  12 -13   4   38.73    8.47
 -12 -13   4   29.24    7.29
  12 -14  -2  117.03   11.44
  12 -14  -1  137.55   12.86
  12 -14   0  177.75   15.06
 -12 -14   0  204.01   14.47
  12 -14   1  152.42   14.33
 -12 -14   1  145.73   13.05
 -12 -14   2  117.64   12.33
  12 -14   2  138.24   13.70
 -12 -14   3  140.95   14.07
  12 -14   3  145.75   14.54
  12 -15  -1  106.99   11.47
  12 -15   0  116.47   12.24
 -12 -15   1  101.56   11.21
  12 -15   1   89.13   11.72
 -12 -15   2  163.16   14.64
 -12 -15   3   71.68   10.92
  12 -16   0   21.32    6.91
  13   0  -3   19.34    5.61
 -13   0  -3   14.58    3.98
  13   0  -2  169.83   13.17
 -13   0  -2  157.18   13.50
 -13   0  -2  162.14   11.58
 -13   0  -1    3.66    3.36
 -13   0  -1    2.93    2.27
 -13   0   0    3.54    2.99
 -13   0   0    2.38    2.44
 -13   0   1    1.61    3.11
 -13   0   1    7.11    3.46
  13   0   2  136.52   10.46
 -13   0   2  174.80   11.89
  13   0   3    9.34    3.60
  13   0   4   43.36    6.87
  13   0   5   14.66    4.35
  13   0   6   55.14    7.57
  13   0   7    4.77    3.48
  13   0   8   14.44    5.22
  13   0   9   -4.37    3.68
 -13  -1  -4  887.43   29.78
  13   1  -3  178.27   12.55
 -13  -1  -3  160.49   10.97
  13  -1  -2 1287.99   39.45
 -13   1  -2 1270.93   39.61
  13   1  -2 1215.35   37.41
 -13  -1  -2 1265.75   39.35
 -13  -1  -2 1264.34   36.01
 -13   1  -2 1223.09   36.20
 -13   1  -1   74.97    8.43
 -13  -1  -1   74.55    8.35
 -13   1  -1   69.86    7.53
 -13  -1  -1   63.40    6.73
 -13  -1   0    5.05    3.72
 -13  -1   0    1.47    2.41
 -13   1   0    1.21    2.24
 -13   1   1   82.26    8.91
 -13  -1   1   83.96    8.90
 -13  -1   1   88.82    8.01
  13  -1   1   84.82    7.68
 -13   1   1   88.85    8.26
  13  -1   2 1059.30   32.47
 -13   1   2 1098.42   33.07
  13   1   3  144.43    9.90
  13  -1   3  137.63   10.27
  13   1   4  816.40   27.18
  13  -1   4  849.30   28.64
  13   1   5   77.59    7.64
  13  -1   5   80.77    8.41
  13   1   6  547.12   22.30
  13  -1   6  541.49   22.96
  13   1   7  179.12   12.76
  13  -1   7  179.37   13.27
  13   1   8  256.70   15.50
  13  -1   8  221.37   15.21
  13   1   9   86.68    9.37
  13  -1   9   74.38    9.19
  13  -1  10  117.55   11.79
 -13  -2  -5 1068.99   33.73
  13   2  -4  224.47   14.58
 -13  -2  -4  246.88   14.23
  13   2  -3 1784.33   48.32
 -13  -2  -3 1756.67   45.99
 -13   2  -2  149.29   12.48
  13   2  -2  133.69   10.71
 -13  -2  -2  128.90    9.80
 -13   2  -1  539.00   23.58
 -13  -2  -1  545.56   23.06
 -13  -2  -1  561.30   21.12
 -13   2  -1  538.31   21.34
 -13   2   0  880.66   31.41
 -13  -2   0  832.36   29.71
 -13  -2   0  906.23   28.29
 -13   2   0  881.12   28.51
  13  -2   1  470.40   19.72
 -13  -2   1  485.71   19.68
 -13   2   1  509.25   20.16
 -13   2   1  461.43   21.80
 -13  -2   1  456.99   20.82
  13  -2   2  120.01   10.06
  13  -2   3 1683.10   45.31
  13   2   4  203.45   11.95
  13  -2   4  225.19   13.73
  13   2   5 1016.94   31.31
  13  -2   5 1005.83   33.18
  13   2   6  206.62   12.74
  13  -2   6  210.96   14.27
  13   2   7  489.83   20.84
  13  -2   7  471.03   22.67
  13   2   8  152.77   11.53
  13  -2   8  151.21   12.92
  13  -2   9  235.89   16.90
  13  -2  10   67.47    9.89
 -13  -3  -6  217.17   13.73
 -13  -3  -5  236.39   14.21
 -13  -3  -4  255.71   13.98
  13   3  -4  278.40   15.54
  13   3  -3   82.00    8.69
 -13   3  -3  100.06   10.74
 -13  -3  -3   99.00    8.66
 -13   3  -2  450.17   21.49
 -13  -3  -2  433.94   18.47
 -13   3  -1  318.20   17.71
 -13  -3  -1  299.64   16.53
 -13  -3  -1  315.83   15.14
 -13   3   0  486.70   22.07
 -13  -3   0  474.33   20.64
  13  -3   0  453.35   19.18
 -13  -3   0  464.07   19.07
 -13  -3   1  293.04   14.97
  13  -3   1  308.70   15.58
 -13   3   1  317.87   15.60
 -13   3   1  324.69   17.91
 -13  -3   1  288.60   16.01
  13  -3   2  437.26   19.34
  13  -3   3   85.14    8.71
  13  -3   4  297.33   16.23
  13  -3   5  244.49   15.65
  13   3   6  211.60   12.50
  13  -3   6  215.86   14.87
  13   3   7   11.61    3.69
  13  -3   7   10.52    4.98
  13   3   8   59.99    7.42
  13  -3   8   70.75    9.61
  13  -3   9   44.62    8.70
  13  -3  10  104.65   12.02
 -13  -4  -6   41.17    6.31
  13   4  -5  101.58    9.73
 -13  -4  -5  100.27    8.73
  13   4  -4   58.08    7.22
 -13  -4  -4   75.39    7.29
 -13   4  -3  302.82   17.96
  13   4  -3  299.75   15.47
 -13  -4  -3  307.73   15.00
 -13   4  -2   81.51    9.91
 -13  -4  -2   86.35    8.02
 -13   4  -1  416.00   20.85
 -13  -4  -1  419.94   19.51
 -13  -4  -1  424.21   17.98
 -13  -4   0  198.47   12.85
  13  -4   0  190.12   12.34
 -13  -4   0  201.82   12.05
 -13   4   0  193.03   13.67
  13  -4   1  323.28   16.57
 -13  -4   1  349.71   17.08
  13  -4   2   67.68    8.22
  13  -4   3  308.03   16.62
  13  -4   4   78.13    8.62
  13  -4   5  100.05   10.38
  13  -4   6   48.02    7.99
  13  -4   7   69.07    8.99
  13  -4   8    4.96    4.97
  13  -4   9   11.03    5.36
 -13  -5  -6  507.53   20.37
  13   5  -5  201.76   13.37
 -13  -5  -5  179.56   11.77
  13   5  -4  609.78   22.94
 -13   5  -4  564.89   26.21
 -13  -5  -4  553.97   21.22
 -13   5  -3   82.26   10.14
 -13  -5  -3   75.53    7.91
 -13   5  -2  882.43   32.36
 -13  -5  -2  906.19   28.50
 -13   5  -1  315.53   17.99
 -13  -5  -1  329.32   16.75
  13  -5  -1  308.54   15.98
 -13  -5  -1  322.63   15.35
 -13  -5   0  723.94   26.08
 -13  -5   0  737.27   25.36
  13  -5   0  743.26   26.81
 -13   5   0  767.67   29.54
  13  -5   1  348.75   17.64
 -13  -5   1  375.22   17.32
  13  -5   2  889.57   30.79
  13  -5   3   74.43    8.71
  13  -5   4  624.25   25.75
  13  -5   5  224.36   15.48
  13  -5   6  525.22   24.89
  13  -5   7   30.86    6.94
  13  -5   8  117.06   12.40
  13  -5   9   47.95    8.60
  13   6  -5  371.47   17.59
 -13  -6  -5  343.59   15.95
 -13   6  -4  164.81   14.26
  13   6  -4  162.83   10.80
 -13  -6  -4  143.83   10.18
 -13   6  -3  568.58   25.71
 -13  -6  -3  556.08   20.96
 -13   6  -2  128.75   11.54
 -13  -6  -2  123.60    9.21
 -13   6  -1 1104.29   37.82
 -13  -6  -1 1274.62   36.54
  13  -6  -1 1100.59   34.97
 -13  -6  -1 1147.41   33.88
 -13  -6   0  205.67   12.94
 -13  -6   0  155.94   11.41
  13  -6   0  174.21   12.90
 -13   6   0  168.68   13.49
  13  -6   1 1143.62   36.91
 -13  -6   1 1239.31   34.98
  13  -6   2  142.68   11.51
  13  -6   3  622.77   25.68
  13  -6   4  157.21   12.77
  13  -6   5  352.01   19.94
  13  -6   6   46.85    8.83
  13  -6   7  328.56   20.52
  13  -6   8   42.12    8.09
 -13   7  -5   56.45    9.87
 -13   7  -4  164.22   14.06
 -13  -7  -4  152.53   10.30
 -13   7  -3   23.22    6.25
 -13  -7  -3   16.99    3.89
 -13   7  -2  197.31   14.26
 -13  -7  -2  194.63   11.78
 -13   7  -1   64.04    8.65
 -13  -7  -1   70.92    8.00
  13  -7  -1   53.37    7.96
 -13  -7  -1   59.49    7.29
 -13   7   0   66.46    8.64
 -13  -7   0   73.89    7.28
  13  -7   0   72.30    8.18
  13  -7   1   71.80    8.79
  13  -7   2  223.78   14.88
  13  -7   3   22.54    5.95
  13  -7   4  144.46   12.73
  13  -7   5   61.50    9.46
  13  -7   6   87.30   10.61
  13  -7   7   15.58    6.21
  13  -7   8  154.50   14.83
 -13   8  -6    9.75    5.79
 -13   8  -5   14.91    5.49
 -13  -8  -4   56.34    6.57
 -13   8  -4   64.86    9.43
 -13   8  -3  205.73   14.95
 -13  -8  -3  206.74   11.87
 -13   8  -2   -2.53    4.54
 -13  -8  -2    5.91    3.02
 -13  -8  -1  515.41   20.36
 -13  -8  -1  463.51   19.60
  13  -8  -1  477.10   21.83
 -13   8  -1  452.81   23.01
 -13  -8   0  178.33   10.98
  13  -8   0  167.55   12.72
  13  -8   1  454.30   21.75
  13  -8   2    0.70    3.65
  13  -8   3  279.24   17.48
  13  -8   4   60.42    9.58
  13  -8   5    7.86    4.50
  13  -8   6   13.10    6.10
  13  -8   7   67.33   10.32
 -13   9  -7   26.60    7.71
 -13   9  -6  241.27   18.39
 -13   9  -5   72.66   10.24
 -13   9  -4  213.38   15.90
 -13   9  -3   53.77    8.51
 -13  -9  -3   60.77    6.69
 -13   9  -2  692.55   29.07
 -13  -9  -2  808.23   27.33
  13  -9  -2  683.09   27.23
 -13  -9  -2  658.84   24.20
 -13  -9  -1  145.70   10.34
  13  -9  -1  135.55   11.96
 -13   9  -1  125.06   12.47
  13  -9   0  592.65   26.17
 -13  -9   0  743.06   23.28
  13  -9   1  137.78   12.90
  13  -9   2  759.14   30.44
  13  -9   3   60.30    8.86
  13  -9   4  216.11   16.15
  13  -9   5   52.82    9.18
  13  -9   6  237.00   18.60
 -13  10  -7  253.64   19.31
 -13  10  -6   12.73    5.43
 -13  10  -5  411.69   23.31
 -13  10  -4   22.75    6.42
 -13  10  -3  118.90   11.84
 -13  10  -2   60.06    8.73
 -13 -10  -2   55.55    6.59
  13 -10  -2   49.48    7.76
 -13 -10  -1  300.19   13.96
  13 -10  -1  260.00   16.52
 -13 -10   0   39.42    5.11
  13 -10   0   37.19    7.49
  13 -10   1  262.79   17.02
  13 -10   2   56.61    8.49
  13 -10   3  113.53   11.87
  13 -10   4   25.59    7.12
  13 -10   5  407.73   23.84
  13 -10   6    8.86    5.40
 -13  11  -7    2.23    4.26
 -13  11  -6   -0.35    3.92
 -13  11  -5   41.14    7.85
 -13  11  -4   58.30    9.24
 -13  11  -3    2.24    3.95
 -13  11  -2   41.60    7.61
  13 -11  -2   41.34    7.12
  13 -11  -1    2.51    3.95
  13 -11   0   30.38    6.28
  13 -11   1   20.20    6.09
  13 -11   2   45.25    8.34
  13 -11   3    1.47    3.94
  13 -11   4   54.16    9.46
  13 -11   5   34.33    7.84
 -13  12  -6   20.43    6.53
 -13  12  -5  193.65   16.26
 -13  12  -4   71.18    9.37
 -13  12  -3   84.66   10.47
  13 -12  -2   52.42    8.29
  13 -12  -1  151.55   13.15
  13 -12   0  158.99   14.17
  13 -12   1  119.78   12.90
  13 -12   2   55.69    9.26
  13 -12   3  103.93   12.00
  13 -12   4   70.82   10.84
 -13  13  -5   34.13    8.03
 -13  13  -4  324.42   20.66
  13 -13  -2  103.94   10.73
  13 -13  -1   40.45    7.68
  13 -13   0  333.38   20.29
  13 -13   1   54.98    8.90
  13 -13   2  106.22   12.43
  13 -13   3   51.39    8.83
 -13 -13   4  328.94   22.13
  13 -14  -2   28.36    6.27
  13 -14  -1   77.50   10.35
 -13 -14   0   -7.93    4.50
  13 -14   0   -6.43    4.65
 -13 -14   1   90.01   10.98
  13 -14   1   82.28   10.91
 -13 -14   2   30.39    6.44
  13 -14   2   20.94    6.27
 -13 -14   3   70.53   10.10
  13 -15  -1    3.35    4.22
  13 -15   0    8.25    5.21
  13 -15   1   10.26    6.11
 -13 -15   2    4.61    4.63
 -14   0  -2  207.06   14.48
 -14   0  -1 1756.86   50.41
 -14   0   0  285.30   16.90
 -14   0   1 1603.37   47.23
  14   0   3 1330.67   38.30
  14   0   4   32.78    5.74
  14   0   5  391.52   18.67
  14   0   6   60.30    7.65
  14   0   7  808.53   30.12
  14   0   8   34.08    6.74
  14   0   9  314.79   18.99
 -14   1  -2  492.12   23.21
 -14  -1  -2  492.45   23.01
  14   1  -2  500.65   22.26
 -14   1  -1   34.61    6.87
 -14  -1  -1   43.46    7.19
 -14   1   0  642.46   26.47
 -14  -1   0  609.03   25.69
 -14   1   1   51.66    8.17
 -14  -1   1   32.05    6.35
  14  -1   2  460.97   19.69
  14   1   3   83.10    8.07
  14  -1   3   65.21    7.93
  14   1   4  384.21   17.87
  14  -1   4  429.31   19.49
  14   1   5   40.43    6.39
  14  -1   5   41.88    6.67
  14   1   6  364.15   18.25
  14  -1   6  394.53   19.58
  14   1   7   15.86    4.81
  14  -1   7    8.64    4.62
  14   1   8  230.31   15.18
  14  -1   8  239.14   16.19
  14   1   9    4.42    4.11
  14  -1   9    1.98    3.50
  14  -1  10   97.31   10.91
  14   2  -3   96.25    9.60
 -14   2  -3  120.05   11.99
 -14  -2  -3  100.42    9.43
 -14   2  -2   97.10   10.09
 -14  -2  -2   99.33   10.37
 -14  -2  -2   80.61    8.15
 -14   2  -1  408.62   21.08
 -14  -2  -1  436.59   21.06
 -14  -2  -1  434.53   18.84
 -14   2   0  129.98   11.53
 -14  -2   0  103.73   10.02
  14  -2   1  383.61   18.17
 -14   2   1  410.11   21.10
 -14  -2   1  413.91   20.37
  14  -2   2   84.06    8.47
  14  -2   3   99.06    9.60
  14  -2   4   36.12    6.46
  14   2   5  176.00   11.96
  14  -2   5  178.97   13.26
  14   2   6    6.28    2.91
  14  -2   6   22.54    5.61
  14   2   7   -0.32    2.80
  14  -2   7    4.12    3.90
  14   2   8   18.21    4.87
  14  -2   8   10.10    4.61
  14  -2   9    0.33    4.12
  14  -2  10   -0.63    3.90
 -14  -3  -4  232.03   13.78
 -14  -3  -3   22.38    4.82
  14   3  -3   24.55    4.97
 -14   3  -3   21.29    5.74
 -14   3  -2  714.01   29.37
 -14  -3  -2  747.93   29.08
 -14  -3  -2  750.00   26.09
 -14   3  -1  233.10   15.60
 -14  -3  -1  232.35   14.93
 -14  -3  -1  218.96   12.98
 -14   3   0 1920.80   53.30
 -14  -3   0 1792.50   50.38
  14  -3   1  206.70   13.37
 -14   3   1  221.15   15.50
 -14  -3   1  197.30   13.68
  14  -3   2  743.38   27.14
  14  -3   3   11.03    4.18
  14  -3   4  225.56   14.52
  14  -3   5   19.54    5.10
  14   3   6  273.85   14.63
  14  -3   6  251.94   16.36
  14   3   7   58.27    7.05
  14  -3   7   62.45    8.48
  14   3   8  243.86   14.51
  14  -3   8  209.76   16.02
  14  -3   9   37.76    7.82
 -14  -4  -5  973.50   31.95
 -14  -4  -4   31.97    5.03
  14   4  -4   26.13    5.22
 -14   4  -4   38.34    7.63
 -14   4  -3  307.89   19.01
 -14  -4  -3  322.20   16.08
 -14   4  -2  152.20   13.25
 -14  -4  -2  194.08   14.10
 -14  -4  -2  195.59   12.07
 -14   4  -1 1161.70   39.10
 -14  -4  -1 1163.78   37.50
 -14  -4  -1 1169.25   34.91
 -14   4   0   22.27    5.92
 -14  -4   0   22.68    5.19
  14  -4   0   31.83    5.72
  14  -4   1 1110.38   35.44
 -14  -4   1 1180.32   36.54
  14  -4   2  144.26   11.83
  14  -4   3  299.58   16.86
  14  -4   4   37.25    7.24
  14  -4   5 1029.17   36.01
  14  -4   6    2.37    4.06
  14  -4   7  355.68   20.69
  14  -4   8   18.77    6.13
  14  -4   9  326.64   21.45
 -14  -5  -5   18.07    4.39
  14   5  -4  378.82   18.16
 -14   5  -4  360.09   21.13
 -14  -5  -4  358.08   17.22
 -14   5  -3   82.72   10.32
 -14  -5  -3   58.54    6.74
 -14   5  -2  139.66   12.60
 -14  -5  -2  153.53   12.33
 -14  -5  -2  144.94   10.32
 -14   5  -1  150.39   12.82
 -14  -5  -1  149.77   11.68
 -14  -5   0  159.00   12.11
  14  -5   0  173.96   12.38
 -14   5   0  176.27   13.88
  14  -5   1  105.55   10.01
 -14  -5   1  101.37    9.27
  14  -5   2  139.63   11.30
  14  -5   3   75.85    8.65
  14  -5   4  317.09   18.40
  14  -5   5   19.82    5.42
  14  -5   6   94.06   10.46
  14  -5   7   61.62    9.80
  14  -5   8   64.30    9.88
 -14  -6  -5  247.79   14.03
 -14   6  -5  275.59   18.90
 -14  -6  -4   64.41    7.32
 -14   6  -4   72.33    9.94
 -14   6  -3   55.17    8.72
 -14  -6  -3   44.28    6.20
 -14   6  -2  183.39   14.18
 -14  -6  -2  179.46   13.47
 -14  -6  -2  175.53   11.62
 -14   6  -1  175.85   14.09
 -14  -6  -1  191.96   13.13
  14  -6  -1  163.20   12.42
 -14   6   0   12.35    5.12
 -14  -6   0   11.38    4.45
  14  -6   0   11.40    4.41
  14  -6   1  190.45   13.52
 -14  -6   1  185.18   12.24
  14  -6   2  188.53   13.76
  14  -6   3   38.69    7.33
  14  -6   4   64.47    8.99
  14  -6   5  259.14   17.38
  14  -6   6    9.64    4.02
  14  -6   7  152.85   14.45
  14  -6   8   32.85    7.67
 -14   7  -6  668.27   31.72
 -14   7  -5   70.97    9.95
 -14   7  -4  785.94   32.60
 -14  -7  -4  752.14   26.11
 -14   7  -3   46.01    8.18
 -14  -7  -3   52.04    6.71
 -14   7  -2  187.73   14.43
 -14  -7  -2  233.50   14.57
 -14  -7  -2  183.20   12.13
 -14   7  -1   79.61    9.58
 -14  -7  -1   85.67    8.64
  14  -7  -1   84.39    9.21
 -14  -7   0  538.26   21.56
  14  -7   0  481.99   22.27
 -14   7   0  506.57   24.65
  14  -7   1   75.48    9.41
  14  -7   2  176.90   13.71
  14  -7   3   41.28    7.44
  14  -7   4  726.20   30.28
  14  -7   5   79.79   10.19
  14  -7   6  632.52   29.72
  14  -7   7   15.50    6.36
 -14   8  -7  256.44   19.96
 -14   8  -6   21.99    7.83
 -14   8  -5  353.01   22.00
 -14   8  -4   26.86    7.22
 -14   8  -3  623.05   28.47
 -14  -8  -3  642.37   23.65
 -14   8  -2   37.29    6.95
 -14  -8  -2   57.05    7.41
 -14  -8  -1  173.47   11.99
  14  -8  -1  157.12   12.82
 -14   8  -1  148.01   13.74
 -14  -8   0   15.51    4.32
  14  -8   0    6.24    3.60
  14  -8   1  136.98   12.50
  14  -8   2   34.80    6.81
  14  -8   3  634.30   27.97
  14  -8   4   28.46    6.59
  14  -8   5  343.97   21.24
  14  -8   6   17.14    6.60
 -14   9  -7    5.25    4.97
 -14   9  -6    3.48    3.91
 -14   9  -5   11.82    5.19
 -14   9  -4   51.89    8.71
 -14   9  -3   81.73   10.68
 -14  -9  -2  149.05   11.52
 -14   9  -2  134.35   12.93
 -14   9  -1   41.45    7.03
 -14  -9  -1   47.36    6.25
  14  -9  -1   41.37    7.07
  14  -9   0  132.29   12.22
 -14  -9   0  161.29   10.44
  14  -9   1   35.18    6.91
  14  -9   2  119.52   11.84
  14  -9   3   88.79   10.51
  14  -9   4   63.84    9.00
  14  -9   5   24.85    7.04
  14  -9   6   15.86    6.20
 -14  10  -7  162.78   16.16
 -14  10  -6   32.92    7.63
 -14  10  -5  144.17   14.13
 -14  10  -4   21.24    5.64
 -14  10  -3  237.95   17.12
 -14 -10  -2  102.13    9.35
 -14  10  -2   93.55   11.23
 -14 -10  -1  402.28   17.25
  14 -10  -1  349.99   20.06
 -14 -10   0   21.23    4.12
  14 -10   0   22.61    5.83
  14 -10   1  358.84   20.70
  14 -10   2   97.01   11.03
  14 -10   3  244.42   17.94
  14 -10   4   27.90    6.45
  14 -10   5  138.91   14.29
 -14  11  -7    4.63    5.54
 -14  11  -6  189.20   16.78
 -14  11  -5   41.23    8.63
 -14  11  -4  226.44   17.21
 -14  11  -3   22.02    7.18
  14 -11  -2  576.28   26.25
 -14  11  -2  611.43   28.43
  14 -11  -1    0.42    3.82
  14 -11   0  389.14   21.68
  14 -11   1   -2.18    4.22
  14 -11   2  659.06   30.10
  14 -11   3   32.31    7.66
  14 -11   4  217.05   17.55
 -14  12  -6   44.40    9.93
 -14  12  -5   47.11    8.62
 -14  12  -4   41.29    8.04
 -14  12  -3  133.22   13.18
  14 -12  -2   37.31    6.71
  14 -12  -1  108.24   11.66
  14 -12   0   14.89    6.05
  14 -12   1   94.46   11.26
  14 -12   2   50.12    9.31
  14 -12   3  156.16   14.86
 -14  13  -5   24.45    7.43
 -14  13  -4   23.58    6.82
  14 -13  -2   30.59    6.59
  14 -13  -1   23.37    6.69
  14 -13   0   26.61    6.32
  14 -13   1   24.36    6.17
  14 -13   2   29.78    7.09
  14 -14  -2    8.59    3.84
  14 -14  -1  232.71   17.34
  14 -14   0   16.15    6.16
  14 -14   1  242.85   18.24
 -14 -14   1  248.21   17.58
 -14 -14   2    9.68    5.26
 -14 -14   3  204.62   17.55
  14 -15  -1   24.51    7.32
  14 -15   0  119.29   12.77
 -15   0  -3  124.74   13.59
 -15   0  -2    8.77    5.05
 -15   0  -1   57.56    9.28
 -15   0   0   15.16    5.31
 -15   0   1   54.26    8.63
  15   0   3  105.38    9.57
  15   0   4   33.41    6.53
  15   0   5    0.54    3.39
  15   0   6   11.47    4.68
  15   0   7    4.89    4.37
  15   0   8   19.43    5.92
  15   0   9    8.11    4.35
 -15   1  -3  133.70   12.64
 -15   1  -2  553.26   25.68
 -15  -1  -2  549.86   25.11
 -15   1  -1   92.81   10.35
 -15  -1  -1   71.12    8.89
 -15   1   0  561.84   25.64
 -15  -1   0  581.08   25.52
 -15   1   1   75.80    8.96
 -15  -1   1   67.80    8.78
  15  -1   2  485.15   20.96
  15  -1   3  114.14   10.23
  15   1   4  775.19   27.61
  15  -1   4  783.29   28.78
  15   1   5   70.72    8.08
  15  -1   5   72.97    8.65
  15   1   6  132.28   11.00
  15  -1   6  115.87   10.85
  15   1   7  176.01   13.27
  15  -1   7  200.15   14.61
  15   1   8  265.45   16.80
  15  -1   8  310.30   18.95
  15   1   9    3.25    3.44
  15  -1   9   -6.36    4.53
 -15   2  -3 1038.80   38.04
 -15   2  -2  148.11   13.43
 -15  -2  -2  141.62   12.79
 -15   2  -1 1036.20   36.74
 -15  -2  -1  994.19   35.53
 -15   2   0    6.46    4.70
 -15  -2   0   -1.75    3.44
 -15   2   1 1000.80   36.21
 -15  -2   1  972.37   34.65
  15  -2   2  113.13   10.39
  15  -2   3  938.11   32.20
  15  -2   4   16.71    4.01
  15   2   5  860.73   29.52
  15  -2   5  855.17   31.63
  15   2   6  131.30   10.78
  15  -2   6  127.46   11.90
  15   2   7  339.37   18.01
  15  -2   7  334.15   19.66
  15   2   8   39.47    6.66
  15  -2   8   53.97    8.83
  15  -2   9  308.76   20.05
 -15   3  -4  196.90   16.38
 -15   3  -3   39.38    7.70
 -15   3  -2  385.18   21.11
 -15  -3  -2  362.71   19.90
 -15   3  -1  183.71   14.35
 -15  -3  -1  187.78   13.94
 -15  -3   0  291.45   17.31
 -15   3   0  296.12   18.26
  15  -3   1  170.61   12.27
 -15   3   1  191.29   14.81
 -15  -3   1  183.14   13.43
  15  -3   2  361.21   18.31
  15  -3   3   23.84    5.60
  15  -3   4  199.69   14.23
  15  -3   5    8.32    3.54
  15  -3   6  270.58   17.35
  15   3   7   25.64    5.39
  15  -3   7   25.19    6.58
  15   3   8   74.77    8.25
  15  -3   8   78.57   10.16
  15  -3   9   35.13    7.95
 -15   4  -4   19.52    6.68
 -15   4  -3   23.14    6.21
 -15   4  -2   28.65    6.83
 -15  -4  -2   27.75    6.13
 -15   4  -1  187.84   14.66
 -15  -4  -1  186.57   13.77
 -15   4   0   70.80    9.48
 -15  -4   0   78.39    8.96
  15  -4   0   74.44    8.29
  15  -4   1  143.68   11.68
 -15  -4   1  178.66   12.83
  15  -4   2   31.73    6.40
  15  -4   3   16.81    4.52
  15  -4   4   13.28    5.53
  15  -4   5   97.65   10.31
  15  -4   6   48.64    7.54
  15  -4   7   29.32    7.34
  15  -4   8   46.28    8.11
 -15   5  -5   25.65    7.06
 -15   5  -4  828.53   34.20
  15   5  -4  812.02   29.58
 -15   5  -3  124.60   12.42
 -15   5  -2  477.93   24.09
 -15  -5  -2  510.62   23.56
 -15   5  -1   73.99    9.57
 -15  -5  -1   76.34    8.77
 -15  -5   0  339.34   18.13
  15  -5   0  303.78   17.00
 -15   5   0  325.00   19.71
 -15  -5   1   66.03    7.95
  15  -5   1   45.79    6.86
  15  -5   2  480.36   22.30
  15  -5   3  100.68   10.26
  15  -5   4  830.73   32.10
  15  -5   5    6.59    4.22
  15  -5   6  348.65   20.86
  15  -5   7   35.06    8.18
  15  -5   8  195.28   16.54
 -15   6  -5  308.42   20.58
 -15   6  -4   36.22    7.53
 -15   6  -3  715.04   31.14
 -15   6  -2  126.08   12.79
 -15  -6  -2  136.32   11.72
 -15   6  -1  392.47   22.03
 -15  -6  -1  420.32   20.54
 -15  -6   0  150.27   11.60
  15  -6   0  147.44   11.93
 -15   6   0  147.72   13.23
  15  -6   1  404.36   20.54
 -15  -6   1  424.22   19.82
  15  -6   2  177.30   13.99
  15  -6   3  732.47   29.84
  15  -6   4   26.71    5.85
  15  -6   5  332.86   20.31
  15  -6   6    7.01    5.39
  15  -6   7  302.33   20.48
 -15   7  -6   68.97   10.59
 -15   7  -5   -0.42    3.94
 -15   7  -4   38.76    8.04
 -15   7  -3   62.62    9.85
 -15  -7  -2  104.79   10.44
 -15   7  -2   85.69   10.54
 -15   7  -1   55.96    8.32
 -15  -7  -1   54.03    7.33
  15  -7  -1   56.25    8.01
 -15   7   0   32.41    7.54
 -15  -7   0   33.06    6.14
  15  -7   0   52.90    8.10
  15  -7   1   53.79    8.04
  15  -7   2   85.43    9.90
  15  -7   3   55.97    8.49
  15  -7   4   38.56    7.92
  15  -7   5   -2.39    4.04
  15  -7   6   75.66   10.81
  15  -7   7   12.03    6.16
 -15   8  -7   96.89   13.21
 -15   8  -6   14.60    6.84
 -15   8  -5   99.18   12.20
 -15   8  -4   50.78    8.88
 -15   8  -3  348.23   21.11
 -15   8  -2  144.14   13.65
 -15  -8  -2  192.66   13.61
 -15  -8  -1  119.94   10.21
 -15   8  -1   97.96   11.18
  15  -8  -1   92.60   10.13
 -15  -8   0   30.38    5.53
  15  -8   0   31.42    6.50
  15  -8   1   83.66    9.97
  15  -8   2  160.35   13.96
  15  -8   3  306.58   19.54
  15  -8   4   53.00    8.67
  15  -8   5  106.33   12.36
  15  -8   6    6.41    5.23
 -15   9  -6  235.99   19.34
 -15   9  -5   -3.50    5.29
 -15   9  -4  471.68   25.70
 -15   9  -3   30.85    7.84
 -15  -9  -2  529.36   22.91
 -15   9  -2  459.97   24.74
 -15  -9  -1  162.84   12.05
  15  -9  -1  142.89   13.07
 -15   9  -1  155.72   14.08
  15  -9   0  270.26   18.19
 -15  -9   0  305.75   15.44
  15  -9   1  143.90   13.35
  15  -9   2  421.44   23.18
  15  -9   3   23.31    6.87
  15  -9   4  525.43   27.28
  15  -9   5    6.29    5.26
 -15  10  -6   28.02    7.58
 -15  10  -5  174.58   16.03
 -15  10  -4   65.17   10.16
 -15  10  -3  183.87   15.70
 -15 -10  -3  244.30   15.57
 -15  10  -2   66.08   10.04
 -15 -10  -2   85.61    9.17
 -15 -10  -1  135.08   10.23
  15 -10  -1  120.11   11.87
  15 -10   0   38.15    7.23
  15 -10   1   92.03   11.37
  15 -10   2   49.77    8.67
  15 -10   3  185.26   15.64
  15 -10   4   80.64   11.02
 -15  11  -6   12.62    6.03
 -15  11  -5    8.64    4.27
 -15  11  -4   43.09    8.60
 -15  11  -3   60.23    9.27
 -15  11  -2   -2.30    4.96
  15 -11  -1   14.22    5.22
  15 -11   0   30.91    8.18
  15 -11   1   10.26    5.26
  15 -11   2   -2.62    4.72
  15 -11   3   51.03    8.76
 -15  12  -5  157.91   15.45
 -15  12  -4   14.22    5.65
 -15  12  -3  215.19   17.44
  15 -12  -1  172.78   14.96
  15 -12   0   18.90    6.52
  15 -12   1  153.74   14.65
  15 -12   2   26.04    7.16
 -15  13  -4  156.05   14.95
  15 -13  -1   16.67    5.51
  15 -13   0  272.85   19.30
  15 -13   1   30.00    7.58
  15 -14  -1   69.03    9.91
  15 -14   0   24.92    7.83
 -16   0  -3 1509.20   48.79
 -16   0  -2  709.97   30.65
 -16   0  -1  490.87   24.53
 -16   0   0   91.70   10.67
 -16   0   1  420.58   22.41
  16   0   4  514.86   22.54
  16   0   5  332.43   18.35
  16   0   6  160.81   12.93
  16   0   7  341.10   19.60
  16   0   8  224.36   16.07
  16   0   9  122.91   12.26
 -16   1  -3  412.20   23.08
 -16  -1  -3  420.03   23.32
 -16   1  -2  440.33   23.55
 -16  -1  -2  461.21   23.70
 -16   1  -1   73.12    9.86
 -16  -1  -1   84.92   10.00
 -16   1   0   68.64    9.47
 -16  -1   0   72.24    9.73
 -16   1   1   73.66    9.54
 -16  -1   1   72.85    9.09
  16  -1   3  349.79   18.63
  16  -1   4  152.64   11.97
  16   1   5  222.77   14.43
  16  -1   5  246.55   15.88
  16   1   6  197.28   13.90
  16  -1   6  198.00   14.52
  16   1   7  100.58   10.42
  16  -1   7  113.70   11.31
  16   1   8   78.26    9.55
  16  -1   8   92.07   11.24
  16  -1   9   66.30    9.49
 -16   2  -4   46.61   10.62
 -16   2  -3  120.46   12.47
 -16  -2  -3  129.38   12.76
 -16   2  -2   29.24    6.42
 -16  -2  -2   42.89    7.76
 -16   2  -1  208.06   15.66
 -16  -2  -1  203.79   15.23
 -16   2   0   31.83    7.60
 -16  -2   0   35.83    7.01
 -16   2   1  163.11   14.14
 -16  -2   1  170.72   13.70
  16  -2   2   45.39    6.81
  16  -2   3  115.07   10.91
  16  -2   4   38.91    7.01
  16  -2   5   30.60    6.90
  16   2   6   91.68    9.70
  16  -2   6   93.37   10.52
  16   2   7   34.44    6.35
  16  -2   7   21.54    5.32
  16   2   8   20.35    5.40
  16  -2   8   19.77    6.38
  16  -2   9   19.34    6.65
 -16   3  -4  320.99   20.98
 -16   3  -3  259.41   18.54
 -16  -3  -3  268.76   18.11
 -16   3  -2  652.42   29.24
 -16  -3  -2  647.62   28.44
 -16   3  -1  269.01   18.26
 -16  -3  -1  274.41   17.45
 -16   3   0   32.95    7.25
 -16  -3   0   43.05    7.47
  16  -3   1  276.28   16.08
 -16  -3   1  256.37   16.70
  16  -3   2  563.55   24.38
  16  -3   3  255.57   15.98
  16  -3   4  299.71   17.91
  16  -3   5   81.85    9.85
  16  -3   6  447.72   23.25
  16  -3   7   25.92    6.22
  16  -3   8  158.90   14.37
 -16   4  -5  379.34   23.56
 -16   4  -4  360.53   22.40
 -16   4  -3  334.37   20.92
 -16   4  -2  315.27   20.18
 -16  -4  -2  335.42   19.68
 -16   4  -1  490.63   25.28
 -16  -4  -1  489.49   23.65
 -16  -4   0  375.17   20.09
 -16   4   0  390.56   22.41
  16  -4   1  421.98   20.61
 -16  -4   1  426.69   21.45
  16  -4   2  297.85   17.50
  16  -4   3  340.42   19.21
  16  -4   4  349.89   19.88
  16  -4   5  329.11   19.66
  16  -4   6  276.58   18.48
  16  -4   7  240.05   17.69
  16  -4   8   90.67   11.46
 -16   5  -5   96.99   12.33
 -16   5  -4   66.54    9.59
 -16   5  -3  130.72   13.16
 -16   5  -2  111.64   11.91
 -16  -5  -2   91.11   10.37
 -16   5  -1  194.97   15.64
 -16  -5  -1  206.92   15.00
 -16  -5   0  225.66   15.23
  16  -5   0  213.93   14.61
 -16   5   0  238.97   17.30
  16  -5   1  165.69   13.47
 -16  -5   1  164.35   12.87
  16  -5   2  109.11   10.71
  16  -5   3  125.96   11.61
  16  -5   4   79.38   10.15
  16  -5   5  101.44   11.70
  16  -5   6   16.59    5.54
  16  -5   7   74.80   10.45
 -16   6  -6   57.23   10.29
 -16   6  -5   22.70    7.39
 -16   6  -4   60.15    9.94
 -16   6  -3  186.86   16.21
 -16   6  -2   -4.83    4.90
 -16  -6  -2    9.12    4.62
 -16  -6  -1  136.26   11.85
 -16   6  -1  126.96   12.63
 -16   6   0   54.04    9.68
 -16  -6   0   51.29    7.83
  16  -6   0   37.71    7.25
  16  -6   1   95.25   10.42
  16  -6   2   11.67    5.18
  16  -6   3  205.02   15.59
  16  -6   4   65.52    9.43
  16  -6   5    9.91    4.81
  16  -6   6   43.95    8.15
  16  -6   7   77.56   11.01
 -16   7  -6  189.26   17.66
 -16   7  -5  197.93   17.70
 -16   7  -4  137.39   14.12
 -16   7  -3  187.90   16.25
 -16  -7  -3  218.94   15.73
 -16   7  -2  476.73   25.72
 -16  -7  -2  510.53   23.85
 -16   7  -1   47.56    8.47
 -16  -7  -1   49.61    7.38
  16  -7   0  571.54   26.34
 -16  -7   0  615.70   25.19
  16  -7   1   59.36    8.83
  16  -7   2  536.01   25.52
  16  -7   3  159.83   13.83
  16  -7   4  150.81   13.82
  16  -7   5  197.25   16.60
  16  -7   6  167.41   15.43
 -16   8  -6   86.53   11.88
 -16   8  -5  205.11   17.66
 -16   8  -4  100.72   12.23
 -16   8  -3   84.33   11.75
 -16  -8  -3   85.06   10.08
 -16   8  -2  186.63   15.80
 -16  -8  -2  191.37   14.16
 -16  -8  -1  461.93   21.53
 -16   8  -1  412.38   23.68
  16  -8   0  160.39   13.88
 -16  -8   0  175.49   12.88
  16  -8   1  449.67   23.59
  16  -8   2  173.89   14.59
  16  -8   3   91.75   11.32
  16  -8   4  125.51   13.09
  16  -8   5  200.60   16.86
 -16   9  -6    2.39    4.70
 -16   9  -5    8.35    5.15
 -16   9  -4   73.83   10.54
 -16   9  -3   22.16    7.04
 -16  -9  -3   29.10    6.66
 -16   9  -2   17.94    6.82
 -16  -9  -2   19.37    5.25
 -16   9  -1  109.96   12.35
 -16  -9  -1  102.64    9.70
  16  -9  -1   91.83   10.54
 -16  -9   0   29.67    5.45
  16  -9   0   24.98    6.57
  16  -9   1   73.49   10.41
  16  -9   2   22.20    6.69
  16  -9   3   13.76    5.04
  16  -9   4   59.06    9.96
 -16  10  -5   94.75   12.16
 -16  10  -4   42.86    8.93
 -16  10  -3   99.75   11.99
 -16 -10  -3  121.40   11.03
 -16  10  -2  115.44   12.59
  16 -10  -1  202.62   15.46
  16 -10   0   23.48    6.77
  16 -10   1  208.47   16.40
  16 -10   2  104.87   12.46
  16 -10   3  131.66   13.86
 -16  11  -5   26.96    7.76
 -16  11  -4  155.43   15.04
 -16  11  -3   92.88   11.83
 -16  11  -2  199.22   16.72
  16 -11  -1  314.05   19.97
  16 -11   0  265.91   18.56
  16 -11   1  355.94   22.13
  16 -11   2  199.80   17.09
 -16  12  -4   13.78    6.42
 -16  12  -3   65.57   10.30
  16 -12  -1   40.90    7.66
  16 -12   0  260.49   19.00
  16 -12   1   56.66    9.31
  16 -13  -1   21.95    6.28
  16 -13   0    4.61    4.72
 -17   0  -4   10.42    5.76
 -17   0  -3   96.71   12.46
 -17   0  -2  112.62   13.66
 -17   0  -1   25.61    6.86
 -17   0   0    5.83    4.40
 -17   0   1    8.69    4.85
  17   0   4    4.45    3.68
  17   0   5    0.23    3.50
  17   0   6   13.29    5.60
  17   0   7   -1.33    4.40
  17   0   8    2.75    4.78
  17   0   9   -5.01    4.13
 -17   1  -4  204.15   17.26
 -17   1  -3  178.20   15.37
 -17  -1  -3  159.04   14.89
 -17   1  -2  174.42   15.31
 -17  -1  -2  209.39   16.19
 -17   1  -1  292.06   19.28
 -17  -1  -1  279.33   18.54
 -17  -1   0  844.67   34.20
 -17   1   0  894.57   35.40
 -17   1   1  324.53   20.27
 -17  -1   1  300.78   19.23
  17  -1   3  125.48   10.98
  17  -1   4  188.69   14.06
  17   1   5   88.51    9.50
  17  -1   5   93.94   10.04
  17   1   6   19.63    5.06
  17  -1   6   24.85    6.41
  17   1   7  188.83   14.40
  17  -1   7  189.65   15.32
  17   1   8   33.62    7.32
  17  -1   8   18.81    5.77
  17  -1   9  212.17   16.86
 -17   2  -4  255.02   19.13
 -17   2  -3  154.32   14.81
 -17  -2  -3  159.82   14.44
 -17   2  -2  247.42   18.17
 -17  -2  -2  256.07   17.94
 -17   2  -1  239.15   17.51
 -17  -2  -1  228.06   16.62
 -17  -2   0 1085.31   39.63
 -17   2   0 1161.94   41.64
 -17   2   1  228.97   17.31
 -17  -2   1  203.51   15.69
  17  -2   2  256.17   16.33
  17  -2   3  144.04   12.37
  17  -2   4  257.14   16.76
  17  -2   5  142.80   12.92
  17  -2   6  200.62   15.43
  17   2   7   68.57    8.66
  17  -2   7   57.62    8.99
  17   2   8  266.06   17.01
  17  -2   8  269.80   18.85
 -17   3  -5  149.81   15.16
 -17   3  -4  108.54   12.71
 -17   3  -3   84.21   11.48
 -17  -3  -3   81.52   11.15
 -17   3  -2   42.67    9.72
 -17  -3  -2   37.14    7.88
 -17   3  -1  357.84   21.55
 -17  -3  -1  312.50   19.45
 -17   3   0  119.73   12.89
 -17  -3   0  109.05   11.49
 -17  -3   1  317.00   19.57
  17  -3   2   15.94    5.18
  17  -3   3   95.57   10.62
  17  -3   4   82.81   10.25
  17  -3   5  134.28   12.82
  17  -3   6   85.51   10.51
  17  -3   7   49.37    8.61
  17  -3   8   31.97    6.77
 -17   4  -5   33.64    8.04
 -17   4  -4   24.08    6.96
 -17   4  -3   13.77    4.58
 -17  -4  -3   16.56    5.43
 -17   4  -2   31.52    8.30
 -17  -4  -2   32.55    7.53
 -17   4  -1  309.36   20.27
 -17  -4  -1  291.12   18.47
 -17   4   0   90.63   11.49
 -17  -4   0   90.77   10.06
  17  -4   1  322.33   19.00
 -17  -4   1  332.10   19.48
  17  -4   2   29.69    6.31
  17  -4   3   22.51    5.77
  17  -4   4   16.55    5.90
  17  -4   5   22.03    5.20
  17  -4   6   21.51    6.81
  17  -4   7   19.52    6.00
 -17   5  -6  208.11   18.55
 -17   5  -5  290.71   21.12
 -17   5  -4  290.19   20.75
 -17   5  -3  119.89   13.62
 -17  -5  -3  118.97   12.67
 -17   5  -2  108.60   12.18
 -17  -5  -2  101.25   10.98
 -17   5  -1  549.75   27.95
 -17  -5  -1  593.14   26.93
 -17  -5   0  196.71   14.84
 -17   5   0  216.88   16.71
  17  -5   1  594.55   26.45
 -17  -5   1  632.26   27.18
  17  -5   2  110.18   11.26
  17  -5   3   99.93   10.99
  17  -5   4  251.12   17.43
  17  -5   5  300.83   19.65
  17  -5   6  202.78   16.55
  17  -5   7  151.19   15.13
 -17   6  -6  149.87   15.87
 -17   6  -5  222.98   18.56
 -17   6  -4  293.83   21.21
 -17   6  -3  246.60   18.90
 -17  -6  -3  265.01   18.19
 -17   6  -2  147.05   14.57
 -17  -6  -2  170.58   14.07
 -17   6  -1   60.32    9.46
 -17  -6  -1   77.75    9.68
  17  -6   0  510.87   24.87
 -17   6   0  513.05   27.18
 -17  -6   0  549.15   24.94
  17  -6   1   49.28    7.68
  17  -6   2  153.77   13.77
  17  -6   3  245.47   17.61
  17  -6   4  299.49   19.72
  17  -6   5  220.71   17.45
  17  -6   6  128.74   13.87
 -17   7  -6   17.49    6.77
 -17   7  -5   26.22    7.76
 -17   7  -4   38.12    8.34
 -17   7  -3  138.61   14.14
 -17  -7  -3  111.26   11.65
 -17   7  -2   43.99    8.49
 -17  -7  -2   25.16    6.63
 -17   7  -1   26.96    6.66
 -17  -7  -1   31.94    6.73
 -17  -7   0   37.67    6.89
  17  -7   0   23.81    6.71
  17  -7   1   36.42    7.40
  17  -7   2   41.05    7.83
  17  -7   3  115.55   12.10
  17  -7   4   41.92    8.27
  17  -7   5   21.89    6.89
 -17   8  -5  119.08   13.85
 -17   8  -4  149.59   14.85
 -17  -8  -3  165.71   13.89
 -17   8  -3  142.32   14.95
 -17   8  -2    6.36    5.24
 -17  -8  -2   -1.51    3.90
 -17   8  -1   41.85    8.04
 -17  -8  -1   38.37    6.79
  17  -8   0  349.63   20.76
 -17  -8   0  395.32   19.66
  17  -8   1   41.56    7.73
  17  -8   2   14.64    6.12
  17  -8   3  129.28   13.20
  17  -8   4  142.58   14.21
 -17   9  -5  222.14   18.62
 -17   9  -4  196.01   17.33
 -17   9  -3  257.77   19.40
 -17  -9  -3  278.58   18.10
 -17  -9  -2  315.84   18.49
 -17   9  -2  298.87   21.46
 -17  -9  -1  253.22   15.64
 -17   9  -1  246.68   18.90
  17  -9   0  156.61   14.01
 -17  -9   0  173.63   12.18
  17  -9   1  205.79   16.58
  17  -9   2  285.32   19.72
  17  -9   3  265.00   19.44
 -17  10  -4   84.16   11.87
 -17  10  -3  117.57   13.34
 -17  10  -2  307.80   21.83
  17 -10   0   13.90    5.76
  17 -10   1  146.45   14.33
  17 -10   2  305.88   20.66
 -17  11  -4   23.06    7.43
 -17  11  -3    0.52    4.58
 -17  11  -2   12.61    6.31
  17 -11  -1   22.35    6.01
  17 -11   0   10.17    3.84
  17 -11   1   22.59    6.38
  17 -12  -1  109.83   12.57
  17 -12   0   96.62   11.81
 -18   0  -4  571.76   29.71
 -18   0  -3  140.79   14.17
 -18   0  -2  867.38   36.18
 -18   0  -1   31.27    6.98
 -18   0   0  132.85   13.23
 -18   0   1   24.99    6.47
  18   0   5   47.87    7.58
  18   0   6  425.81   22.73
  18   0   7  103.48   11.43
  18   0   8  254.98   18.04
 -18   1  -4   50.24    9.63
 -18  -1  -4   41.62    8.73
 -18   1  -3  212.37   17.38
 -18  -1  -3  195.72   16.60
 -18   1  -2   82.82   11.43
 -18  -1  -2   84.28   11.42
 -18   1  -1  278.73   19.50
 -18  -1  -1  274.75   19.00
 -18   1   0    6.33    4.79
 -18  -1   0   10.46    4.98
 -18   1   1  267.84   19.01
 -18  -1   1  243.07   17.99
  18  -1   4   25.08    5.62
  18  -1   5  174.92   14.27
  18   1   6   19.35    5.78
  18  -1   6    9.20    4.60
  18  -1   7  147.99   13.85
  18   1   7  120.39   11.73
  18   1   8    7.36    4.79
  18  -1   8   10.41    4.80
 -18   2  -5  106.85   13.76
 -18   2  -4  100.74   13.24
 -18  -2  -4  133.04   14.88
 -18   2  -3   31.71    7.94
 -18  -2  -3   44.61    9.60
 -18   2  -2   18.74    6.46
 -18  -2  -2   34.24    7.72
 -18   2  -1   52.86    9.36
 -18  -2  -1   41.85    8.27
 -18   2   0   50.29    8.87
 -18  -2   0   37.06    7.98
 -18  -2   1   51.45    8.88
  18  -2   3   22.40    6.03
  18  -2   4   94.11   10.58
  18  -2   5   87.54   10.26
  18  -2   6   45.94    8.51
  18  -2   7   29.86    6.94
  18  -2   8   17.58    6.33
 -18   3  -5  422.25   26.03
 -18   3  -4  131.57   14.64
 -18  -3  -4  131.36   14.08
 -18   3  -3  446.17   25.84
 -18  -3  -3  409.60   24.27
 -18   3  -2   25.09    6.72
 -18  -3  -2   32.03    6.92
 -18   3  -1  369.42   22.80
 -18  -3  -1  359.79   21.65
 -18   3   0   22.73    6.96
 -18  -3   0   20.18    6.60
 -18  -3   1  311.93   19.76
  18  -3   2   22.67    6.13
  18  -3   3  434.10   22.64
  18  -3   4   97.74   11.07
  18  -3   5  351.82   21.26
  18  -3   6   99.42   11.70
  18  -3   7  329.08   21.47
 -18   4  -6  410.86   26.99
 -18   4  -5   77.34   11.77
 -18   4  -4  145.25   15.23
 -18   4  -3  131.32   14.52
 -18  -4  -3   99.41   12.20
 -18   4  -2  964.49   39.06
 -18  -4  -2  901.57   36.71
 -18   4  -1   79.66   11.08
 -18  -4  -1   83.75   10.46
 -18   4   0  566.52   28.71
 -18  -4   0  500.43   25.51
 -18  -4   1   71.97    9.77
  18  -4   2  833.22   32.74
  18  -4   3  114.24   12.41
  18  -4   4  173.43   14.59
  18  -4   5   76.54   10.83
  18  -4   6  398.73   23.60
 -18   5  -5   23.13    7.52
 -18   5  -4   25.04    7.31
 -18   5  -3   50.86    9.16
 -18  -5  -3   55.80    9.09
 -18   5  -2   47.37    8.72
 -18  -5  -2   66.17    9.68
 -18  -5  -1  247.44   17.62
 -18   5  -1  277.81   20.02
 -18   5   0   80.30   11.55
 -18  -5   0   63.65    9.27
  18  -5   1  290.88   18.27
  18  -5   2   56.23    9.05
  18  -5   3   59.54    9.41
  18  -5   4   23.46    6.87
  18  -5   5   23.83    6.53
  18  -5   6   23.29    7.83
 -18   6  -5   17.15    6.56
 -18   6  -4   40.89    8.99
 -18   6  -3   47.13    9.69
 -18  -6  -3   49.11    9.63
 -18   6  -2  267.80   19.98
 -18  -6  -2  298.92   19.55
 -18   6  -1   37.38    8.44
 -18  -6  -1   45.62    7.83
 -18   6   0   20.06    7.55
 -18  -6   0   13.73    5.50
  18  -6   1   32.60    7.21
  18  -6   2  266.31   18.62
  18  -6   3   60.69    9.32
  18  -6   4   62.30    9.78
  18  -6   5   19.82    6.71
 -18   7  -5  209.21   18.57
 -18   7  -4   79.19   12.16
 -18  -7  -4   80.04   10.96
 -18   7  -3  502.77   28.25
 -18  -7  -3  509.09   26.27
 -18   7  -2   50.66    9.11
 -18  -7  -2   53.36    8.76
 -18  -7  -1  530.96   25.72
 -18   7  -1  552.03   29.07
 -18  -7   0  224.59   16.04
  18  -7   1  515.76   26.08
  18  -7   2   42.68    7.92
  18  -7   3  521.30   27.07
  18  -7   4   65.38   10.22
 -18   8  -4  270.73   20.87
 -18  -8  -4  263.26   19.51
 -18   8  -3   46.35    8.56
 -18  -8  -3   62.58    9.46
 -18  -8  -2  305.70   19.23
 -18   8  -2  307.93   21.77
 -18   8  -1   82.92   11.66
 -18  -8  -1   67.40    9.29
  18  -8   0  467.67   24.84
 -18  -8   0  485.89   23.07
  18  -8   1   80.53   10.53
  18  -8   2  351.68   22.00
  18  -8   3   52.10    9.37
 -18   9  -4    7.39    5.13
 -18  -9  -4   33.26    7.58
 -18   9  -3  128.17   14.21
 -18  -9  -3  144.77   13.35
 -18   9  -2   32.70    8.23
 -18  -9  -2   22.82    5.89
  18  -9   0    6.48    4.07
  18  -9   1   50.92    8.94
  18  -9   2    5.18    4.85
 -18  10  -3   11.37    7.37
 -18  10  -2  177.32   16.50
  18 -10   0   57.35    9.23
  18 -10   1   12.46    5.55
  18 -11   0   68.31   10.62
 -19   0  -5   49.02   10.04
 -19   0  -4   28.82    8.12
 -19   0  -3   44.04    9.24
 -19   0  -2    9.02    5.09
 -19   0  -1   -0.20    4.77
 -19   0   0   28.51    8.25
  19   0   6    6.20    5.21
  19   0   7    4.15    3.84
  19   0   8    1.20    4.16
 -19   1  -5  130.23   14.99
 -19  -1  -5  149.94   16.07
 -19   1  -4   58.06   10.39
 -19  -1  -4   70.54   10.70
 -19   1  -3  250.73   19.76
 -19  -1  -3  229.97   18.63
 -19   1  -2   24.66    7.27
 -19  -1  -2   24.36    6.98
 -19   1  -1  453.60   26.09
 -19  -1  -1  456.82   25.89
 -19   1   0   20.41    6.66
 -19  -1   0    9.87    5.37
 -19  -1   1  506.15   27.11
  19  -1   5  118.80   12.24
  19  -1   6   18.66    6.08
  19  -1   7   85.65   10.92
  19   1   8   16.31    6.34
 -19   2  -5   19.49    7.55
 -19   2  -4  291.57   21.74
 -19  -2  -4  323.93   22.55
 -19   2  -3   59.51   10.46
 -19  -2  -3   69.92   10.79
 -19   2  -2  487.13   27.21
 -19  -2  -2  458.03   26.12
 -19   2  -1  108.03   12.63
 -19  -2  -1  117.50   12.90
 -19   2   0  838.93   36.92
 -19  -2   0  794.30   34.87
 -19  -2   1   92.33   11.77
  19  -2   4  296.03   18.85
  19  -2   5   28.74    7.20
  19  -2   6  197.02   16.26
  19  -2   7   -2.11    4.33
 -19   3  -5  157.70   17.48
 -19   3  -4   22.24    6.97
 -19  -3  -4   30.13    8.12
 -19   3  -3  169.97   16.71
 -19  -3  -3  161.26   15.70
 -19   3  -2   25.11    7.86
 -19  -3  -2   23.83    6.92
 -19   3  -1   86.23   11.67
 -19  -3  -1  115.43   12.93
 -19   3   0   14.98    6.93
 -19  -3   0    7.79    5.22
  19  -3   3  164.54   13.97
  19  -3   4   27.60    6.29
  19  -3   5  184.02   15.83
  19  -3   6   12.80    5.37
 -19   4  -5   12.08    6.35
 -19   4  -4   46.48    9.66
 -19  -4  -4   42.45    8.74
 -19   4  -3   28.17    7.46
 -19  -4  -3   45.93    8.84
 -19   4  -2   58.23   10.26
 -19  -4  -2   95.46   11.60
 -19   4  -1   68.43   10.84
 -19  -4  -1   73.14   10.48
 -19   4   0  246.96   19.56
 -19  -4   0  223.35   17.53
  19  -4   2  100.31   11.14
  19  -4   3   30.67    7.14
  19  -4   4   38.42    8.11
  19  -4   5    9.47    4.81
 -19   5  -4   50.73   10.49
 -19  -5  -4   52.27    9.40
 -19   5  -3  377.65   24.58
 -19  -5  -3  345.63   22.38
 -19   5  -2   24.05    7.48
 -19  -5  -2   62.73    9.97
 -19  -5  -1  475.85   25.39
 -19   5  -1  452.71   26.71
 -19   5   0   34.39    8.71
 -19  -5   0   41.16    8.17
  19  -5   2   50.01    8.85
  19  -5   3  351.14   21.71
  19  -5   4   50.65    8.91
  19  -5   5  353.60   22.60
 -19   6  -4  469.40   28.38
 -19  -6  -4  475.34   27.19
 -19   6  -3   22.19    7.49
 -19  -6  -3   45.79    8.64
 -19   6  -2  259.30   20.36
 -19  -6  -2  254.05   18.40
 -19   6  -1    7.86    5.08
 -19  -6  -1    9.54    5.95
 -19  -6   0  362.45   21.48
  19  -6   1   10.28    5.56
  19  -6   2  222.89   17.08
  19  -6   3   34.74    7.90
  19  -6   4  430.47   25.02
 -19   7  -4   33.33    9.09
 -19  -7  -4   41.71    8.56
 -19   7  -3   42.55    8.84
 -19  -7  -3   52.46    9.21
 -19   7  -2   14.54    5.22
 -19  -7  -2   18.72    5.60
 -19   7  -1   67.46   10.89
 -19  -7  -1   49.56    8.35
 -19  -7   0   35.25    7.59
  19  -7   1   69.91    9.75
  19  -7   2   26.59    7.35
  19  -7   3   43.49    8.31
 -19  -8  -4  240.39   18.93
 -19   8  -3   56.29   10.67
 -19  -8  -3   38.49    8.32
 -19   8  -2   57.97    9.83
 -19  -8  -2   66.67    9.46
 -19   8  -1   12.10    5.81
 -19  -8  -1   12.70    5.91
 -19  -8   0  119.77   11.52
  19  -8   1   14.09    5.16
  19  -8   2   42.03    8.51
 -19  -9  -5  304.16   22.05
 -19  -9  -4   41.36    8.66
 -19   9  -2   32.92    8.35
  19  -9   0    4.33    3.97
  19  -9   1  290.28   20.42
 -20   0  -5   36.51    8.27
 -20   0  -4  496.71   29.19
 -20   0  -3  103.36   12.97
 -20   0  -2  158.42   15.70
 -20   0  -1  140.18   14.85
 -20   0   0  758.15   35.55
  20   0   7   52.44    8.96
 -20   1  -5  125.35   15.00
 -20  -1  -5  141.24   15.77
 -20   1  -4   18.56    7.53
 -20  -1  -4    7.45    5.39
 -20   1  -3  184.01   17.49
 -20  -1  -3  198.49   18.33
 -20   1  -2   29.56    7.75
 -20  -1  -2   44.05    9.29
 -20   1  -1  237.54   19.15
 -20  -1  -1  215.77   18.33
 -20   1   0   11.44    5.68
 -20  -1   0   13.98    5.62
  20  -1   5  128.12   12.73
  20  -1   6   15.19    5.28
 -20  -2  -5    7.91    6.24
 -20   2  -4   67.33   11.35
 -20  -2  -4   81.46   12.42
 -20   2  -3   51.21    9.24
 -20  -2  -3   50.52    9.53
 -20   2  -2   75.29   12.48
 -20  -2  -2   82.50   12.28
 -20   2  -1   73.26   10.78
 -20  -2  -1   75.47   11.05
 -20   2   0   17.42    6.76
 -20  -2   0   11.87    5.61
  20  -2   4   46.50    8.67
  20  -2   5   -0.80    4.20
  20  -2   6   30.53    6.78
 -20  -3  -5  269.79   21.83
 -20   3  -4   27.61    8.27
 -20  -3  -4   23.52    6.70
 -20   3  -3  263.62   21.02
 -20  -3  -3  263.30   20.49
 -20   3  -2  185.03   17.22
 -20  -3  -2  204.22   17.94
 -20   3  -1  257.50   20.07
 -20  -3  -1  238.54   19.04
 -20   3   0   27.36    7.63
 -20  -3   0   28.02    7.35
  20  -3   4   32.10    7.22
  20  -3   5  289.04   20.22
 -20  -4  -5   14.84    7.66
 -20   4  -4  326.93   24.03
 -20  -4  -4  323.88   23.16
 -20   4  -3   30.53    8.34
 -20  -4  -3   31.72    7.83
 -20   4  -2  411.64   26.19
 -20  -4  -2  401.59   24.67
 -20   4  -1   65.20   11.21
 -20  -4  -1   59.13    9.38
 -20   4   0  466.80   27.65
 -20  -4   0  434.89   25.28
  20  -4   3   21.27    6.24
  20  -4   4  335.22   21.90
 -20  -5  -5   29.25    9.02
 -20  -5  -4   12.64    6.41
 -20   5  -3   72.89   11.61
 -20  -5  -3   50.42    9.12
 -20   5  -2   57.21   10.12
 -20  -5  -2   58.63    9.89
 -20   5  -1   97.09   13.18
 -20  -5  -1   72.09   10.49
 -20   5   0   67.03   10.91
 -20  -5   0   68.15   10.14
  20  -5   2   45.36    8.35
  20  -5   3   72.15   10.08
 -20  -6  -5   11.25    5.91
 -20  -6  -4   85.92   12.52
 -20   6  -3   47.51    9.55
 -20  -6  -3   42.09    8.54
 -20   6  -2  108.81   13.49
 -20  -6  -2  104.94   13.03
 -20   6  -1   45.44    9.11
 -20  -6  -1   38.95    7.57
 -20  -6   0  209.68   16.68
  20  -6   2  124.26   13.07
 -20  -7  -5  125.07   14.50
 -20  -7  -4    8.33    6.05
 -20  -7  -3  285.94   20.46
 -20   7  -2  149.82   16.00
 -20  -7  -2  146.93   14.15
 -20  -7  -1  415.96   23.62
 -20   7  -1  356.50   24.53
 -20  -7   0  163.65   14.46
 -20  -8  -5   54.40   10.39
 -20  -8  -4  136.87   14.61
 -20  -8  -3   29.95    7.56
 -20  -8  -2  152.50   14.48
 -20  -8  -1   87.26   11.04
 -21   0  -4   31.39    8.75
 -21   0  -3   11.13    6.13
 -21   0  -2    7.78    6.96
 -21   0  -1   22.03    7.77
 -21   0   0   18.42    6.72
 -21  -1  -4  127.31   14.90
 -21   1  -3  208.50   19.01
 -21  -1  -3  210.75   19.02
 -21   1  -2  159.36   15.99
 -21  -1  -2  115.61   13.80
 -21   1  -1  175.49   17.01
 -21  -1  -1  160.74   16.37
 -21   1   0  367.73   24.72
 -21  -1   0  338.32   23.53
 -21  -2  -4  207.63   19.15
 -21   2  -3  140.47   15.92
 -21  -2  -3  152.83   16.34
 -21   2  -2  514.19   29.95
 -21  -2  -2  508.35   29.04
 -21  -2  -1  246.81   19.70
 -21   2  -1  255.21   21.23
 -21   2   0   71.13   11.21
 -21  -2   0   54.87   11.00
 -21  -3  -4  134.04   15.76
 -21   3  -3   51.16   10.12
 -21  -3  -3   81.24   12.19
 -21   3  -2   51.78    9.72
 -21  -3  -2   45.50    9.04
 -21   3  -1  117.72   14.64
 -21  -3  -1  104.86   13.22
 -21   3   0   10.91    7.22
 -21  -3   0   15.94    6.94
 -21  -4  -4    9.23    5.89
 -21  -4  -3   13.15    6.01
 -21   4  -2   86.95   13.12
 -21  -4  -2   88.22   11.99
 -21   4  -1   56.44   11.05
 -21  -4  -1   47.91    8.68
 -21   4   0   61.10   11.32
 -21  -4   0   43.70    9.01
 -21  -5  -4  157.78   16.50
 -21  -5  -3  195.07   17.88
 -21  -5  -2   56.62   10.12
 -21  -5  -1  164.42   15.85
 -21   5  -1  184.72   18.12
 -21  -5   0  115.59   13.06
 -21  -6  -4   77.15   11.40
 -21  -6  -3  163.64   16.33
 -21  -6  -2  192.29   16.95
 -21  -6  -1   88.63   11.52
 -21  -6   0  153.60   14.84
 -21  -7  -4   39.46    8.55
 -21  -7  -3    3.92    4.48
 -21  -7  -2   48.85    9.11
 -21  -7  -1   61.66   10.27
 -21  -7   0   13.87    5.30
 -22   0  -2   53.25    9.95
 -22   0  -1  247.34   20.73
 -22   0   0  643.12   34.27
 -22  -1  -3   18.96    7.53
 -22   1  -2  127.87   15.59
 -22  -1  -2  121.82   15.24
 -22   1  -1  103.38   13.73
 -22  -1  -1   89.55   12.91
 -22  -1   0  158.06   16.47
 -22   1   0  177.24   17.80
 -22  -2  -3    6.26    4.61
 -22  -2  -2   10.63    6.87
 -22   2  -1    7.38    6.19
 -22  -2  -1   -1.12    4.94
 -22   2   0  165.78   16.91
 -22  -2   0  137.56   15.42
 -22  -3  -3   14.96    6.41
 -22  -3  -2   87.22   12.51
 -22  -3  -1  202.07   18.27
 -22   3   0  245.73   21.17
 -22  -3   0  198.49   17.93
 -22  -4  -3  187.34   18.10
 -22  -4  -2   45.81    9.40
 -22  -4  -1  238.38   19.62
 -22  -4   0   67.22   10.70
 -22  -5  -3   56.37   10.00
 -22  -5  -2   64.94   11.76
 -22  -5  -1   21.52    7.06
 -22  -5   0   67.88   11.10
 -22  -6  -3   16.07    7.19
 -22  -6  -2   13.30    6.24
 -22  -6  -1   47.65    9.38
 -22  -6   0   66.32   10.55
 -22  -7  -3  112.17   14.11
 -22  -7  -2  102.44   12.95
 -22  -7  -1   35.95    8.24
 -23   0   0    9.62    5.75
 -23  -1  -1   19.14    6.97
 -23  -1   0   34.69    8.73
 -23  -2  -1  241.58   20.70
 -23  -2   0   14.56    7.37
 -23  -3  -2   99.44   13.89
 -23  -3  -1   18.84    6.99
 -23  -3   0   70.30   11.17
 -23  -4  -2   32.94    9.03
 -23  -4  -1   29.99    8.48
 -23  -4   0   26.57    8.43
 -23  -5  -2  335.18   24.31
 -23  -5  -1   18.03    7.22
 -23  -6  -2   -3.40    5.00
 -23  -6  -1  191.66   17.71
   0   0   0    0.00    0.00


TITL nqi-42_autored in Pna2(1)
REM Pna2(1) (#33, found as P2(1)cn in -cba setting)
CELL 0.71073  18.318927  13.452583   9.185339  90.0000  90.0000  90.0000
ZERR   32.00   0.000703   0.000457   0.000339   0.0000   0.0000   0.0000
LATT -1
SYMM -x,-y, z+1/2
SYMM  x+1/2,-y+1/2, z
SYMM -x+1/2, y+1/2, z+1/2
SFAC C H O Br Cd
UNIT 32.00 32.00 32.00 32.00 32.00
REM  CrysAlisPro recorded range (K): Min=130.0; max=130.0; aver:130.0
TEMP -143
TREF
HKLF 4
END
_computing_structure_solution     'SHELXT 2014/5 (Sheldrick, 2014)'
;
_shelx_hkl_checksum    1918

